data_PCOD8307060
_publ_section_title
;
Structure prediction by ZEFSAII (Michael W. Deem and Ramdas Pophale) SiO2 
 PCOD8307060
Probable space group: P 4 N C 
;
_chemical_formula_sum "Si O2"
_cell_formula_units_Z 48
_cell_length_a 8.226225
_cell_length_b 8.226225
_cell_length_c 33.870973
_cell_angle_alpha 90.000000
_cell_angle_beta 90.000000
_cell_angle_gamma 90.000000
_cell_volume 2292.075086
_symmetry_space_group_name_H-M "P 4 N C "
_symmetry_group_IT_number 104
_symmetry_cell_setting 'tetragonal'
loop_
_space_group_symop_operation_xyz
x,y,z
-y,x,z
-x,-y,z
y,-x,z
1/2-x,1/2+y,1/2+z
1/2+x,1/2-y,1/2+z
1/2-y,1/2-x,1/2+z
1/2+y,1/2+x,1/2+z
loop_
_atom_site_type_symbol
_atom_site_label
_atom_site_fract_x
_atom_site_fract_y
_atom_site_fract_z
Si Si1 0.759409 0.570808 0.315380
Si Si2 0.082843 0.254002 0.470533
Si Si3 0.915259 0.742737 0.385223
Si Si4 0.000000 0.500000 0.118261
Si Si5 0.922158 0.742394 0.555271
Si Si6 0.500000 0.000000 0.749820
Si Si7 0.739374 0.933182 0.183668
O O1 0.613198 0.697990 0.315767
O O2 0.871564 0.605657 0.353384
O O3 0.868156 0.594794 0.276434
O O4 0.109765 0.347564 0.512390
O O5 0.199578 0.101544 0.470776
O O6 0.113307 0.343862 0.428548
O O7 0.101045 0.798770 0.380057
O O8 0.882776 0.608541 0.090610
O O9 0.098792 0.625994 0.145660
O O10 0.800599 0.892150 0.559156
O O11 0.592017 0.866793 0.723059
O O12 0.803245 0.117753 0.183014
#
# Coordination Sequence:
#
# PCOD8307060 Si02
#       7
#     8   8   8   4   8   4   8
#     4  11  23  37  54  80 113 141 170 220 278 322
#     4   7  12  26  48  73 102 138 182 224 250 279
#     4   9  17  32  55  80 107 145 190 226 258 305
#     4  11  20  32  53  82 110 136 169 210 268 327
#     4   9  17  31  51  76 108 144 182 221 257 300
#     4  11  22  40  61  78  98 134 181 214 256 327
#     4  10  22  39  58  79 104 133 168 215 265 318
#
# _framework density 20.941721999999999
#
# number of rings (size 3 to 8) (size 9 to 14) (size 15 to 20)
#    0.000    2.500    0.000    5.000    0.000    0.000 
#    0.000    7.500    0.000    8.000    0.000    2.333 
#    0.000    0.000    0.000    0.000    0.000    0.000 
#
# Total GULP energy -594745.803528 kJ/mol
# GULP energy per Si atom -12390.537573 kJ/mol
# Density = 2.089406 g / cm^3
# Si number density = 20.941722 Si / 1000 Ang^3
#
#
#
# Elastic Constant Matrix: (Units=GPa)
#
#
# Indices 1 2 3 4 5 6 
#
# 1 56.9714 6.0376 38.7783 0.0000 0.0000 0.0000
# 2 6.0376 56.9714 38.7783 0.0000 0.0000 0.0000
# 3 38.7783 38.7783 193.7608 0.0000 0.0000 0.0000
# 4 0.0000 0.0000 0.0000 20.1965 0.0000 0.0000
# 5 0.0000 0.0000 0.0000 0.0000 20.1965 0.0000
# 6 0.0000 0.0000 0.0000 0.0000 0.0000 26.3764
#
#
#
# Elastic Compliance Matrix: (Units=1/GPa)
#
#
# Indices 1 2 3 4 5 6 
#
# 1 0.020346 0.000712 -0.004214 0.000000 0.000000 0.000000
# 2 0.000712 0.020346 -0.004214 0.000000 0.000000 0.000000
# 3 -0.004214 -0.004214 0.006848 0.000000 0.000000 0.000000
# 4 0.000000 0.000000 0.000000 0.049514 0.000000 0.000000
# 5 0.000000 0.000000 0.000000 0.000000 0.049514 0.000000
# 6 0.000000 0.000000 0.000000 0.000000 0.000000 0.037913
#
#
# Mechanical properties :
#
#
# Convention : Reuss Voigt Hill
#
# Bulk Modulus (GPa) = 31.14630 52.76575 41.95602
# Shear Modulus (GPa) = 23.74003 28.29449 26.01726
#
# Velocity S-wave (km/s) = 3.37059 3.67973 3.52854
# Velocity P-wave (km/s) = 5.48206 6.58066 6.05632
#
# Compressibility (1/GPa) = 0.03210654
#
# Stress axis : x y z
#
# Youngs Moduli (GPa) = 49.15015 49.15015 146.02937
#
# Poissons Ratio (x) = -0.03502 0.61544
# Poissons Ratio (y) = -0.03502 0.61544
# Poissons Ratio (z) = 0.20714 0.20714
#
# Static dielectric constant tensor:
#      x y z
#    x 3.472700 0.000000 0.000000 
#    y 0.000000 3.472700 0.000000 
#    z 0.000000 0.000000 4.275790 
# 
# 
# High freq. dielectric constant tensor:
#      x y z
#    x 1.795350 0.000000 0.000000 
#    y 0.000000 1.795350 0.000000 
#    z 0.000000 0.000000 1.847560 
# 
# From -- ./inp_files/1964.got.cif
#   From: 2010.03.12/outbox.cif.g09.slc.cpg/sg104_cif.got.tgz:1964.got - 2010.04.14 01:44:05.
