data_PCOD8307097
_publ_section_title
;
Structure prediction by ZEFSAII (Michael W. Deem and Ramdas Pophale) SiO2 
 PCOD8307097
Probable space group: P 4 N C 
;
_chemical_formula_sum "Si O2"
_cell_formula_units_Z 36
_cell_length_a 14.180583
_cell_length_b 14.180583
_cell_length_c 8.577141
_cell_angle_alpha 90.000000
_cell_angle_beta 90.000000
_cell_angle_gamma 90.000000
_cell_volume 1724.768142
_symmetry_space_group_name_H-M "P 4 N C "
_symmetry_group_IT_number 104
_symmetry_cell_setting 'tetragonal'
loop_
_space_group_symop_operation_xyz
x,y,z
-y,x,z
-x,-y,z
y,-x,z
1/2-x,1/2+y,1/2+z
1/2+x,1/2-y,1/2+z
1/2-y,1/2-x,1/2+z
1/2+y,1/2+x,1/2+z
loop_
_atom_site_type_symbol
_atom_site_label
_atom_site_fract_x
_atom_site_fract_y
_atom_site_fract_z
Si Si1 0.500000 0.000000 0.902220
Si Si2 0.395605 0.256144 0.590372
Si Si3 0.243856 0.895605 0.214069
Si Si4 0.917570 0.684048 0.548472
Si Si5 0.815952 0.417570 0.255969
O O1 0.421243 0.050263 0.799242
O O2 0.550263 0.078757 0.005199
O O3 0.356223 0.356223 0.652220
O O4 0.500000 0.240895 0.652220
O O5 0.396452 0.251056 0.402941
O O6 0.325405 0.175831 0.653200
O O7 0.248944 0.896452 0.401500
O O8 0.324169 0.825405 0.151241
O O9 1.000000 0.732054 0.652220
#
# Coordination Sequence:
#
# PCOD8307097 Si02
#       5
#     4   8   8   8   8
#     4  12  18  32  66  88 126 144 186 264 342 368
#     4  12  24  40  59  88 124 167 207 253 306 377
#     4  12  24  40  59  88 124 167 207 253 306 377
#     4  12  21  37  64  95 124 153 199 262 332 380
#     4  12  21  37  64  95 124 153 199 262 332 380
#
# _framework density 20.872371000000001
#
# number of rings (size 3 to 8) (size 9 to 14) (size 15 to 20)
#    0.000    0.000    8.889    2.000    0.000    0.444 
#    0.000    0.000    0.000    0.000    0.000    9.333 
#    0.000    0.000    0.000    0.000    0.000    0.000 
#
# Total GULP energy -446524.182066 kJ/mol
# GULP energy per Si atom -12403.449502 kJ/mol
# Density = 2.082486 g / cm^3
# Si number density = 20.872371 Si / 1000 Ang^3
#
#
#
# Elastic Constant Matrix: (Units=GPa)
#
#
# Indices 1 2 3 4 5 6 
#
# 1 56.5496 37.3472 43.8836 0.0000 0.0000 0.0000
# 2 37.3472 56.5496 43.8836 0.0000 0.0000 0.0000
# 3 43.8836 43.8836 165.2903 0.0000 0.0000 0.0000
# 4 0.0000 0.0000 0.0000 18.1941 0.0000 0.0000
# 5 0.0000 0.0000 0.0000 0.0000 18.1941 0.0000
# 6 0.0000 0.0000 0.0000 0.0000 0.0000 19.9185
#
#
#
# Elastic Compliance Matrix: (Units=1/GPa)
#
#
# Indices 1 2 3 4 5 6 
#
# 1 0.033121 -0.018956 -0.003761 0.000000 0.000000 0.000000
# 2 -0.018956 0.033121 -0.003761 0.000000 0.000000 0.000000
# 3 -0.003761 -0.003761 0.008047 0.000000 0.000000 0.000000
# 4 0.000000 0.000000 0.000000 0.054963 0.000000 0.000000
# 5 0.000000 0.000000 0.000000 0.000000 0.054963 0.000000
# 6 0.000000 0.000000 0.000000 0.000000 0.000000 0.050205
#
#
# Mechanical properties :
#
#
# Convention : Reuss Voigt Hill
#
# Bulk Modulus (GPa) = 46.87291 58.73534 52.80412
# Shear Modulus (GPa) = 16.97877 21.47968 19.22923
#
# Velocity S-wave (km/s) = 2.85521 3.21143 3.03855
# Velocity P-wave (km/s) = 5.77714 6.47707 6.13709
#
# Compressibility (1/GPa) = 0.02133428
#
# Stress axis : x y z
#
# Youngs Moduli (GPa) = 30.19230 30.19230 124.27142
#
# Poissons Ratio (x) = 0.57232 0.46736
# Poissons Ratio (y) = 0.57232 0.46736
# Poissons Ratio (z) = 0.11355 0.11355
#
# Static dielectric constant tensor:
#      x y z
#    x 3.653600 0.000000 0.000000 
#    y 0.000000 3.653600 0.000000 
#    z 0.000000 0.000000 4.074860 
# 
# 
# High freq. dielectric constant tensor:
#      x y z
#    x 1.795230 0.000000 0.000000 
#    y 0.000000 1.795230 0.000000 
#    z 0.000000 0.000000 1.837790 
# 
# From -- ./inp_files/402.got.cif
#   From: 2010.03.12/outbox.cif.g09.slc.cpg/sg104_cif.got.tgz:402.got - 2010.04.14 01:44:05.
