data_PCOD8307033
_publ_section_title
;
Structure prediction by ZEFSAII (Michael W. Deem and Ramdas Pophale) SiO2 
 PCOD8307033
Probable space group: P 4 N C 
;
_chemical_formula_sum "Si O2"
_cell_formula_units_Z 48
_cell_length_a 11.551037
_cell_length_b 11.551037
_cell_length_c 17.527259
_cell_angle_alpha 90.000000
_cell_angle_beta 90.000000
_cell_angle_gamma 90.000000
_cell_volume 2338.600048
_symmetry_space_group_name_H-M "P 4 N C "
_symmetry_group_IT_number 104
_symmetry_cell_setting 'tetragonal'
loop_
_space_group_symop_operation_xyz
x,y,z
-y,x,z
-x,-y,z
y,-x,z
1/2-x,1/2+y,1/2+z
1/2+x,1/2-y,1/2+z
1/2-y,1/2-x,1/2+z
1/2+y,1/2+x,1/2+z
loop_
_atom_site_type_symbol
_atom_site_label
_atom_site_fract_x
_atom_site_fract_y
_atom_site_fract_z
Si Si1 0.000000 0.500000 0.748150
Si Si2 0.896748 0.154119 0.672127
Si Si3 0.153668 0.423413 0.376617
Si Si4 0.334271 0.242853 0.331008
Si Si5 0.000000 0.500000 0.501908
Si Si6 0.613174 0.844690 0.626159
Si Si7 0.428335 0.325229 0.746201
O O1 0.912983 0.578231 0.798936
O O2 0.931264 0.409692 0.696728
O O3 0.872787 0.178766 0.760395
O O4 0.838749 0.248146 0.615948
O O5 0.031967 0.158406 0.652840
O O6 0.249044 0.322551 0.381976
O O7 0.209236 0.553030 0.380600
O O8 0.066089 0.407268 0.448277
O O9 0.271099 0.124583 0.303357
O O10 0.894843 0.445883 0.550948
O O11 0.573919 0.718211 0.656914
O O12 0.562016 0.350712 0.761878
#
# Coordination Sequence:
#
# PCOD8307033 Si02
#       7
#     4   8   8   8   4   8   8
#     4  10  16  34  60  84 112 148 214 256 304 362
#     4  10  18  32  59  96 118 142 200 265 319 362
#     4  11  22  38  59  92 125 165 214 258 314 373
#     4  11  20  35  63  93 125 166 198 269 310 376
#     4  10  26  42  58  88 126 174 220 244 304 396
#     4  10  20  39  60  84 115 171 200 263 302 370
#     4  10  21  37  63  99 125 154 205 267 328 373
#
# _framework density 20.525100999999999
#
# number of rings (size 3 to 8) (size 9 to 14) (size 15 to 20)
#    0.000    1.667    5.000    1.000    2.333    4.333 
#    6.000    0.000    0.000    0.000    0.000    0.000 
#    0.000    0.000    0.000    0.000    0.000    0.000 
#
# Total GULP energy -594803.453128 kJ/mol
# GULP energy per Si atom -12391.738607 kJ/mol
# Density = 2.047839 g / cm^3
# Si number density = 20.525101 Si / 1000 Ang^3
#
#
#
# Elastic Constant Matrix: (Units=GPa)
#
#
# Indices 1 2 3 4 5 6 
#
# 1 47.9341 38.2201 14.4727 0.0000 0.0000 0.0000
# 2 38.2201 47.9341 14.4727 0.0000 0.0000 0.0000
# 3 14.4727 14.4727 73.4397 0.0000 0.0000 0.0000
# 4 0.0000 0.0000 0.0000 17.2756 0.0000 0.0000
# 5 0.0000 0.0000 0.0000 0.0000 17.2756 0.0000
# 6 0.0000 0.0000 0.0000 0.0000 0.0000 28.4440
#
#
#
# Elastic Compliance Matrix: (Units=1/GPa)
#
#
# Indices 1 2 3 4 5 6 
#
# 1 0.057687 -0.045257 -0.002450 0.000000 0.000000 0.000000
# 2 -0.045257 0.057687 -0.002450 0.000000 0.000000 0.000000
# 3 -0.002450 -0.002450 0.014582 0.000000 0.000000 0.000000
# 4 0.000000 0.000000 0.000000 0.057885 0.000000 0.000000
# 5 0.000000 0.000000 0.000000 0.000000 0.057885 0.000000
# 6 0.000000 0.000000 0.000000 0.000000 0.000000 0.035157
#
#
# Mechanical properties :
#
#
# Convention : Reuss Voigt Hill
#
# Bulk Modulus (GPa) = 33.73374 33.73767 33.73570
# Shear Modulus (GPa) = 12.78520 19.40853 16.09687
#
# Velocity S-wave (km/s) = 2.49851 3.07840 2.80349
# Velocity P-wave (km/s) = 4.97941 5.39521 5.19147
#
# Compressibility (1/GPa) = 0.02964391
#
# Stress axis : x y z
#
# Youngs Moduli (GPa) = 17.33488 17.33488 68.57729
#
# Poissons Ratio (x) = 0.78453 0.16799
# Poissons Ratio (y) = 0.78453 0.16799
# Poissons Ratio (z) = 0.04246 0.04246
#
# Static dielectric constant tensor:
#      x y z
#    x 3.903320 0.000000 0.000000 
#    y 0.000000 3.903320 0.000000 
#    z 0.000000 0.000000 3.359680 
# 
# 
# High freq. dielectric constant tensor:
#      x y z
#    x 1.810910 0.000000 0.000000 
#    y 0.000000 1.810910 0.000000 
#    z 0.000000 0.000000 1.755620 
# 
# From -- ./inp_files/1450.got.cif
#   From: 2010.03.12/outbox.cif.g09.slc.cpg/sg104_cif.got.tgz:1450.got - 2010.04.14 01:44:05.
