data_PCOD8307310
_publ_section_title
;
Structure prediction by ZEFSAII (Michael W. Deem and Ramdas Pophale) SiO2 
 PCOD8307310
Probable space group: P 42 M C
;
_chemical_formula_sum "Si O2"
_cell_formula_units_Z 40
_cell_length_a 9.385093
_cell_length_b 9.385093
_cell_length_c 25.080346
_cell_angle_alpha 90.000000
_cell_angle_beta 90.000000
_cell_angle_gamma 90.000000
_cell_volume 2209.076139
_symmetry_space_group_name_H-M "P 42 M C"
_symmetry_group_IT_number 105
_symmetry_cell_setting 'tetragonal'
loop_
_space_group_symop_operation_xyz
x,y,z
-y,x,1/2+z
-x,-y,z
y,-x,1/2+z
-x,y,z
x,-y,z
-y,-x,1/2+z
y,x,1/2+z
loop_
_atom_site_type_symbol
_atom_site_label
_atom_site_fract_x
_atom_site_fract_y
_atom_site_fract_z
Si Si1 0.835173 0.661849 0.247680
Si Si2 0.661848 0.835173 0.871056
Si Si3 0.835535 0.333071 0.955845
Si Si4 0.666929 0.164465 0.162892
Si Si5 0.665219 0.334781 0.059368
O O1 0.788591 0.500000 0.234564
O O2 0.807144 0.695783 0.309368
O O3 0.743550 0.771953 0.214150
O O4 0.000000 0.683221 0.233431
O O5 0.500000 0.788590 0.884172
O O6 0.771953 0.743550 0.904586
O O7 0.683220 0.000000 0.885306
O O8 0.813522 0.500000 0.947366
O O9 0.000000 0.291422 0.961796
O O10 0.754517 0.281123 0.008783
O O11 0.500000 0.186477 0.171370
O O12 0.718877 0.245483 0.109953
O O13 0.708579 0.000000 0.156941
O O14 0.500000 0.305621 0.046944
O O15 0.694378 0.500000 0.071792
#
# Coordination Sequence:
#
# PCOD8307310 Si02
#       5
#     8   8   8   8   8
#     4   9  19  36  56  77 102 135 175 215 255 302
#     4   9  19  36  56  77 102 135 175 215 255 302
#     4  10  21  35  52  78 109 137 168 210 259 307
#     4  10  21  35  52  78 109 137 168 210 259 307
#     4   9  18  34  54  73  98 136 178 215 252 299
#
# _framework density 18.107116999999999
#
# number of rings (size 3 to 8) (size 9 to 14) (size 15 to 20)
#    0.000    2.600    0.000    2.400    0.000    6.400 
#    0.000   10.000    0.000    0.000    0.000    0.000 
#    0.000    0.000    0.000    0.000    0.000    0.000 
#
# Total GULP energy -496125.603549 kJ/mol
# GULP energy per Si atom -12403.140089 kJ/mol
# Density = 1.806590 g / cm^3
# Si number density = 18.107117 Si / 1000 Ang^3
#
#
#
# Elastic Constant Matrix: (Units=GPa)
#
#
# Indices 1 2 3 4 5 6 
#
# 1 80.6376 50.2082 63.6835 0.0000 0.0000 0.0000
# 2 50.2082 80.6376 63.6835 0.0000 0.0000 0.0000
# 3 63.6835 63.6835 113.2135 0.0000 0.0000 0.0000
# 4 0.0000 0.0000 0.0000 11.3013 0.0000 0.0000
# 5 0.0000 0.0000 0.0000 0.0000 11.3013 0.0000
# 6 0.0000 0.0000 0.0000 0.0000 0.0000 29.6712
#
#
#
# Elastic Compliance Matrix: (Units=1/GPa)
#
#
# Indices 1 2 3 4 5 6 
#
# 1 0.024877 -0.007986 -0.009502 0.000000 0.000000 0.000000
# 2 -0.007986 0.024877 -0.009502 0.000000 0.000000 0.000000
# 3 -0.009502 -0.009502 0.019522 0.000000 0.000000 0.000000
# 4 0.000000 0.000000 0.000000 0.088485 0.000000 0.000000
# 5 0.000000 0.000000 0.000000 0.000000 0.088485 0.000000
# 6 0.000000 0.000000 0.000000 0.000000 0.000000 0.033703
#
#
# Mechanical properties :
#
#
# Convention : Reuss Voigt Hill
#
# Bulk Modulus (GPa) = 65.36390 69.95990 67.66190
# Shear Modulus (GPa) = 14.74805 16.91567 15.83186
#
# Velocity S-wave (km/s) = 2.85702 3.05978 2.96014
# Velocity P-wave (km/s) = 6.86005 7.15567 7.00942
#
# Compressibility (1/GPa) = 0.01529896
#
# Stress axis : x y z
#
# Youngs Moduli (GPa) = 40.19736 40.19736 51.22326
#
# Poissons Ratio (x) = 0.32100 0.48671
# Poissons Ratio (y) = 0.32100 0.48671
# Poissons Ratio (z) = 0.38194 0.38194
#
# Static dielectric constant tensor:
#      x y z
#    x 3.283810 0.000000 0.000000 
#    y 0.000000 3.283810 0.000000 
#    z 0.000000 0.000000 3.324850 
# 
# 
# High freq. dielectric constant tensor:
#      x y z
#    x 1.698200 0.000000 0.000000 
#    y 0.000000 1.698200 0.000000 
#    z 0.000000 0.000000 1.708770 
# 
# From -- ./inp_files/3903.got.cif
#   From: 2010.03.12/outbox.cif.g09.slc.cpg/sg105_2_cif.got.tgz:3903.got - 2010.04.14 01:45:32.
