data_PCOD8307512
_publ_section_title
;
Structure prediction by ZEFSAII (Michael W. Deem and Ramdas Pophale) SiO2 
 PCOD8307512
Probable space group: I 4 M M
;
_chemical_formula_sum "Si O2"
_cell_formula_units_Z 128
_cell_length_a 24.870798
_cell_length_b 24.870798
_cell_length_c 12.012205
_cell_angle_alpha 90.000000
_cell_angle_beta 90.000000
_cell_angle_gamma 90.000000
_cell_volume 7430.228601
_symmetry_space_group_name_H-M "I 4 M M"
_symmetry_group_IT_number 107
_symmetry_cell_setting 'tetragonal'
loop_
_space_group_symop_operation_xyz
x,y,z
-y,x,z
-x,-y,z
y,-x,z
-x,y,z
x,-y,z
-y,-x,z
y,x,z
1/2+x,1/2+y,1/2+z
1/2-y,1/2+x,1/2+z
1/2-x,1/2-y,1/2+z
1/2+y,1/2-x,1/2+z
1/2-x,1/2+y,1/2+z
1/2+x,1/2-y,1/2+z
1/2-y,1/2-x,1/2+z
1/2+y,1/2+x,1/2+z
loop_
_atom_site_type_symbol
_atom_site_label
_atom_site_fract_x
_atom_site_fract_y
_atom_site_fract_z
Si Si1 0.595828 0.680825 0.494990
Si Si2 0.250929 0.936072 0.369265
Si Si3 0.851043 0.437581 0.726582
Si Si4 0.437581 0.148957 0.263398
Si Si5 0.061402 0.296562 0.994990
Si Si6 0.851853 0.938719 0.233226
Si Si7 0.063928 0.749071 0.620715
Si Si8 0.148147 0.061281 0.756753
O O1 0.656059 0.656059 0.494991
O O2 0.600601 0.745198 0.494989
O O3 0.563496 0.660723 0.602497
O O4 0.563496 0.660722 0.387483
O O5 0.304978 0.915281 0.309406
O O6 0.198939 0.915479 0.301937
O O7 0.249245 0.913577 0.494990
O O8 0.251053 0.000000 0.367020
O O9 0.863117 0.500000 0.749253
O O10 0.906050 0.406050 0.744989
O O11 0.832817 0.427165 0.601126
O O12 0.500000 0.136883 0.240728
O O13 0.427164 0.167182 0.388854
O O14 0.415281 0.195022 0.180574
O O15 0.000000 0.274860 0.994988
O O16 0.903513 0.903513 0.265371
O O17 0.864557 0.000000 0.266903
O O18 0.084521 0.801061 0.688043
O O19 0.000000 0.748947 0.622960
O O20 0.096487 0.096487 0.724609
O O21 0.135443 0.000000 0.723077
#
# Coordination Sequence:
#
# PCOD8307512 Si02
#       8
#    16  16  16  16  16  16  16  16
#     4  10  18  30  53  78 104 136 175 222 264 302
#     4   9  18  33  52  72  97 134 177 214 249 298
#     4  10  21  35  55  81 107 137 171 212 262 314
#     4  10  21  35  55  81 107 137 171 212 262 314
#     4  10  18  34  57  78 104 140 184 217 248 310
#     4  10  19  31  50  76 105 137 173 216 264 313
#     4   9  18  33  52  72  97 134 177 214 249 298
#     4  10  19  31  50  76 105 137 173 216 264 313
#
# _framework density 17.226927
#
# number of rings (size 3 to 8) (size 9 to 14) (size 15 to 20)
#    0.000    2.250    2.500    1.125    1.750    1.000 
#    0.000    0.000    0.000    7.500    0.000    3.500 
#    0.000    0.000    0.000    0.000    0.000    0.000 
#
# Total GULP energy -793660.166035 kJ/mol
# GULP energy per Si atom -12400.940094 kJ/mol
# Density = 1.718772 g / cm^3
# Si number density = 17.226927 Si / 1000 Ang^3
#
#
#
# Elastic Constant Matrix: (Units=GPa)
#
#
# Indices 1 2 3 4 5 6 
#
# 1 97.7902 63.9454 40.3339 0.0000 0.0000 0.0000
# 2 63.9454 97.7902 40.3339 0.0000 0.0000 0.0000
# 3 40.3339 40.3339 124.1787 0.0000 0.0000 0.0000
# 4 0.0000 0.0000 0.0000 15.4327 0.0000 0.0000
# 5 0.0000 0.0000 0.0000 0.0000 15.4327 0.0000
# 6 0.0000 0.0000 0.0000 0.0000 0.0000 22.6096
#
#
#
# Elastic Compliance Matrix: (Units=1/GPa)
#
#
# Indices 1 2 3 4 5 6 
#
# 1 0.018462 -0.011084 -0.002396 0.000000 0.000000 0.000000
# 2 -0.011084 0.018462 -0.002396 0.000000 0.000000 0.000000
# 3 -0.002396 -0.002396 0.009610 0.000000 0.000000 0.000000
# 4 0.000000 0.000000 0.000000 0.064797 0.000000 0.000000
# 5 0.000000 0.000000 0.000000 0.000000 0.064797 0.000000
# 6 0.000000 0.000000 0.000000 0.000000 0.000000 0.044229
#
#
# Mechanical properties :
#
#
# Convention : Reuss Voigt Hill
#
# Bulk Modulus (GPa) = 67.65817 67.66506 67.66161
# Shear Modulus (GPa) = 19.45227 22.37140 20.91183
#
# Velocity S-wave (km/s) = 3.36397 3.60756 3.48789
# Velocity P-wave (km/s) = 7.37891 7.53104 7.45536
#
# Compressibility (1/GPa) = 0.01478018
#
# Stress axis : x y z
#
# Youngs Moduli (GPa) = 54.16410 54.16410 104.06167
#
# Poissons Ratio (x) = 0.60037 0.24938
# Poissons Ratio (y) = 0.60037 0.24938
# Poissons Ratio (z) = 0.12980 0.12980
#
# Static dielectric constant tensor:
#      x y z
#    x 3.021330 0.000000 0.000000 
#    y 0.000000 3.021330 0.000000 
#    z 0.000000 0.000000 3.467970 
# 
# 
# High freq. dielectric constant tensor:
#      x y z
#    x 1.644930 0.000000 0.000000 
#    y 0.000000 1.644930 0.000000 
#    z 0.000000 0.000000 1.680010 
# 
# From -- ./inp_files/2661.got.cif
#   From: 2010.03.12/outbox.cif.g09.slc.cpg/sg107_2_cif.got.tgz:2661.got - 2010.04.14 01:49:11.
