data_PCOD8308118
_publ_section_title
;
Structure prediction by ZEFSAII (Michael W. Deem and Ramdas Pophale) SiO2 
 PCOD8308118
Probable space group: P -4 2 M 
;
_chemical_formula_sum "Si O2"
_cell_formula_units_Z 48
_cell_length_a 11.830189
_cell_length_b 11.830189
_cell_length_c 18.865739
_cell_angle_alpha 90.000000
_cell_angle_beta 90.000000
_cell_angle_gamma 90.000000
_cell_volume 2640.323784
_symmetry_space_group_name_H-M "P -4 2 M "
_symmetry_group_IT_number 111
_symmetry_cell_setting 'tetragonal'
loop_
_space_group_symop_operation_xyz
x,y,z
y,-x,-z
-x,-y,z
-y,x,-z
x,-y,-z
-x,y,-z
-y,-x,z
y,x,z
loop_
_atom_site_type_symbol
_atom_site_label
_atom_site_fract_x
_atom_site_fract_y
_atom_site_fract_z
Si Si1 0.381146 0.198852 0.301940
Si Si2 0.273459 0.549779 0.928215
Si Si3 0.271680 0.915466 0.934014
Si Si4 0.007051 0.629304 0.206182
Si Si5 0.424936 0.751653 0.206663
Si Si6 0.684179 0.504524 0.580185
O O1 0.263437 0.263437 0.315489
O O2 0.448850 0.255918 0.237575
O O3 0.467521 0.210707 0.369257
O O4 0.353444 0.070612 0.277058
O O5 0.367170 0.632831 0.894111
O O6 0.159709 0.617820 0.945954
O O7 0.248734 0.443301 0.877682
O O8 0.323182 0.500000 0.000000
O O9 0.157872 0.842129 0.930399
O O10 0.285209 0.976890 0.857516
O O11 0.261059 0.000000 0.000000
O O12 0.137211 0.646617 0.229464
O O13 0.000000 0.500000 0.178470
O O14 0.356298 0.643703 0.233513
O O15 0.730174 0.500000 0.500000
O O16 0.585717 0.414284 0.591282
O O17 0.628988 0.628988 0.596898
#
# Coordination Sequence:
#
# PCOD8308118 Si02
#       6
#     8   8   8   8   8   8
#     4  10  18  31  53  79 104 138 176 212 252 306
#     4  11  22  34  49  71  98 127 160 208 267 321
#     4  11  23  37  54  72  93 126 170 218 266 319
#     4  10  20  35  53  69  99 134 170 209 259 315
#     4  11  22  34  51  75  99 131 171 211 260 314
#     4   8  14  25  44  76 117 151 175 207 256 311
#
# _framework density 18.179589
#
# number of rings (size 3 to 8) (size 9 to 14) (size 15 to 20)
#    0.000    1.833    3.333    3.500    0.000    5.000 
#    0.000    0.000    0.000    6.000    0.000    0.000 
#    0.000    0.000    0.000    0.000    0.000  107.333 
#
# Total GULP energy -594797.967612 kJ/mol
# GULP energy per Si atom -12391.624325 kJ/mol
# Density = 1.813821 g / cm^3
# Si number density = 18.179589 Si / 1000 Ang^3
#
#
#
# Elastic Constant Matrix: (Units=GPa)
#
#
# Indices 1 2 3 4 5 6 
#
# 1 56.8235 22.5946 18.7779 0.0000 0.0000 0.0000
# 2 22.5946 56.8260 18.7785 0.0000 0.0000 0.0000
# 3 18.7779 18.7785 100.5922 0.0000 0.0000 0.0000
# 4 0.0000 0.0000 0.0000 23.7127 0.0000 0.0000
# 5 0.0000 0.0000 0.0000 0.0000 23.7123 0.0000
# 6 0.0000 0.0000 0.0000 0.0000 0.0000 19.0248
#
#
#
# Elastic Compliance Matrix: (Units=1/GPa)
#
#
# Indices 1 2 3 4 5 6 
#
# 1 0.021513 -0.007702 -0.002578 0.000000 0.000000 0.000000
# 2 -0.007702 0.021512 -0.002578 0.000000 0.000000 0.000000
# 3 -0.002578 -0.002578 0.010904 0.000000 0.000000 0.000000
# 4 0.000000 0.000000 0.000000 0.042172 0.000000 0.000000
# 5 0.000000 0.000000 0.000000 0.000000 0.042172 0.000000
# 6 0.000000 0.000000 0.000000 0.000000 0.000000 0.052563
#
#
# Mechanical properties :
#
#
# Convention : Reuss Voigt Hill
#
# Bulk Modulus (GPa) = 35.44549 37.17153 36.30851
# Shear Modulus (GPa) = 22.12830 23.56267 22.84548
#
# Velocity S-wave (km/s) = 3.49263 3.60405 3.54878
# Velocity P-wave (km/s) = 5.98368 6.14900 6.06690
#
# Compressibility (1/GPa) = 0.02821233
#
# Stress axis : x y z
#
# Youngs Moduli (GPa) = 46.48409 46.48608 91.71219
#
# Poissons Ratio (x) = 0.35802 0.23644
# Poissons Ratio (y) = 0.35801 0.23644
# Poissons Ratio (z) = 0.11984 0.11985
#
# Static dielectric constant tensor:
#      x y z
#    x 3.298710 0.000000 0.000000 
#    y 0.000000 3.298710 0.000000 
#    z 0.000000 0.000000 3.407130 
# 
# 
# High freq. dielectric constant tensor:
#      x y z
#    x 1.685420 0.000000 0.000000 
#    y 0.000000 1.685420 0.000000 
#    z 0.000000 0.000000 1.690910 
# 
# From -- ./inp_files/3636.got.cif
#   From: 2010.03.12/outbox.cif.g09.slc.cpg/sg111_2_cif.got.tgz:3636.got - 2010.04.14 01:59:48.
