data_PCOD8308948
_publ_section_title
;
Structure prediction by ZEFSAII (Michael W. Deem and Ramdas Pophale) SiO2 
 PCOD8308948
Probable space group: P -4 21 C
;
_chemical_formula_sum "Si O2"
_cell_formula_units_Z 40
_cell_length_a 8.903622
_cell_length_b 8.903622
_cell_length_c 23.862351
_cell_angle_alpha 90.000000
_cell_angle_beta 90.000000
_cell_angle_gamma 90.000000
_cell_volume 1891.675580
_symmetry_space_group_name_H-M "P -4 21 C"
_symmetry_group_IT_number 114
_symmetry_cell_setting 'tetragonal'
loop_
_space_group_symop_operation_xyz
x,y,z
y,-x,-z
-x,-y,z
-y,x,-z
1/2+x,1/2-y,1/2-z
1/2-x,1/2+y,1/2-z
1/2-y,1/2-x,1/2+z
1/2+y,1/2+x,1/2+z
loop_
_atom_site_type_symbol
_atom_site_label
_atom_site_fract_x
_atom_site_fract_y
_atom_site_fract_z
Si Si1 0.688206 0.316754 0.924894
Si Si2 0.155722 0.081071 0.694048
Si Si3 0.847334 0.415214 0.034009
Si Si4 0.660084 0.067698 0.785883
Si Si5 0.513224 0.324570 0.396876
O O1 0.697094 0.427760 0.871764
O O2 0.518538 0.251864 0.924903
O O3 0.799071 0.178008 0.920235
O O4 0.740447 0.401390 0.980285
O O5 0.150416 0.252639 0.714850
O O6 0.286817 0.991034 0.725625
O O7 0.000000 0.000000 0.707652
O O8 0.000000 0.500000 0.016394
O O9 0.886306 0.259670 0.065640
O O10 0.773495 0.003367 0.832512
O O11 0.500000 0.000000 0.801418
O O12 0.500000 0.500000 0.401942
#
# Coordination Sequence:
#
# PCOD8308948 Si02
#       5
#     8   8   8   8   8
#     4  10  24  41  64  97 134 178 227 281 343 399
#     4  11  24  43  67  96 134 181 227 279 348 413
#     4  10  23  41  62  98 137 175 226 282 339 404
#     4  11  23  44  67 101 137 173 229 285 346 414
#     4  10  22  40  69  97 133 180 224 279 340 414
#
# _framework density 21.145273
#
# number of rings (size 3 to 8) (size 9 to 14) (size 15 to 20)
#    0.000    1.600    0.000    4.800    8.400    2.400 
#    0.000    0.000    0.000    0.000    0.000    0.000 
#    0.000    0.000    0.000    0.000    0.000    0.000 
#
# Total GULP energy -496055.789467 kJ/mol
# GULP energy per Si atom -12401.394737 kJ/mol
# Density = 2.109715 g / cm^3
# Si number density = 21.145273 Si / 1000 Ang^3
#
#
#
# Elastic Constant Matrix: (Units=GPa)
#
#
# Indices 1 2 3 4 5 6 
#
# 1 129.3708 45.7519 55.9029 0.0000 0.0000 0.0000
# 2 45.7519 129.3708 55.9029 0.0000 0.0000 0.0000
# 3 55.9029 55.9029 110.1808 0.0000 0.0000 0.0000
# 4 0.0000 0.0000 0.0000 33.1913 0.0000 0.0000
# 5 0.0000 0.0000 0.0000 0.0000 33.1913 0.0000
# 6 0.0000 0.0000 0.0000 0.0000 0.0000 26.9954
#
#
#
# Elastic Compliance Matrix: (Units=1/GPa)
#
#
# Indices 1 2 3 4 5 6 
#
# 1 0.010203 -0.001756 -0.004285 0.000000 0.000000 0.000000
# 2 -0.001756 0.010203 -0.004285 0.000000 0.000000 0.000000
# 3 -0.004285 -0.004285 0.013425 0.000000 0.000000 0.000000
# 4 0.000000 0.000000 0.000000 0.030128 0.000000 0.000000
# 5 0.000000 0.000000 0.000000 0.000000 0.030128 0.000000
# 6 0.000000 0.000000 0.000000 0.000000 0.000000 0.037043
#
#
# Mechanical properties :
#
#
# Convention : Reuss Voigt Hill
#
# Bulk Modulus (GPa) = 75.89857 76.00421 75.95139
# Shear Modulus (GPa) = 32.01511 32.76659 32.39085
#
# Velocity S-wave (km/s) = 3.89531 3.94076 3.91810
# Velocity P-wave (km/s) = 7.49687 7.53180 7.51435
#
# Compressibility (1/GPa) = 0.01317548
#
# Stress axis : x y z
#
# Youngs Moduli (GPa) = 98.01381 98.01381 74.49004
#
# Poissons Ratio (x) = 0.17215 0.31922
# Poissons Ratio (y) = 0.17215 0.31922
# Poissons Ratio (z) = 0.42003 0.42003
#
# Static dielectric constant tensor:
#      x y z
#    x 3.877760 0.000000 0.000000 
#    y 0.000000 3.877760 0.000000 
#    z 0.000000 0.000000 3.894960 
# 
# 
# High freq. dielectric constant tensor:
#      x y z
#    x 1.832540 0.000000 0.000000 
#    y 0.000000 1.832540 0.000000 
#    z 0.000000 0.000000 1.835860 
# 
# From -- ./inp_files/3332.got.cif
#   From: 2010.03.12/outbox.cif.g09.slc.cpg/sg114_2_cif.got.tgz:3332.got - 2010.04.14 02:08:34.
