data_PCOD8308198
_publ_section_title
;
Structure prediction by ZEFSAII (Michael W. Deem and Ramdas Pophale) SiO2 
 PCOD8308198
Probable space group: P -4 2 M 
;
_chemical_formula_sum "Si O2"
_cell_formula_units_Z 48
_cell_length_a 22.727248
_cell_length_b 22.727248
_cell_length_c 5.052837
_cell_angle_alpha 90.000000
_cell_angle_beta 90.000000
_cell_angle_gamma 90.000000
_cell_volume 2609.930788
_symmetry_space_group_name_H-M "P -4 2 M "
_symmetry_group_IT_number 111
_symmetry_cell_setting 'tetragonal'
loop_
_space_group_symop_operation_xyz
x,y,z
y,-x,-z
-x,-y,z
-y,x,-z
x,-y,-z
-x,y,-z
-y,-x,z
y,x,z
loop_
_atom_site_type_symbol
_atom_site_label
_atom_site_fract_x
_atom_site_fract_y
_atom_site_fract_z
Si Si1 0.136874 0.960036 0.757313
Si Si2 0.262337 0.430476 0.996535
Si Si3 0.930037 0.619374 0.490920
Si Si4 0.664134 0.569539 0.496415
Si Si5 0.733764 0.038792 0.749952
Si Si6 0.569693 0.869635 0.009207
O O1 0.095873 0.904128 0.721524
O O2 0.202659 0.933644 0.822462
O O3 0.133318 0.000000 0.500000
O O4 0.115383 0.000000 0.000000
O O5 0.294013 0.409166 0.731935
O O6 0.196554 0.404146 0.011431
O O7 0.257459 0.500000 0.000000
O O8 0.301946 0.408548 0.237615
O O9 0.915885 0.684040 0.360578
O O10 0.904083 0.605707 0.781003
O O11 0.000000 0.611172 0.500000
O O12 0.900738 0.574645 0.291088
O O13 0.651586 0.500000 0.500000
O O14 0.601094 0.601094 0.514479
O O15 0.749456 0.000000 0.500000
O O16 0.709407 0.000000 0.000000
O O17 0.500000 0.868789 0.000000
#
# Coordination Sequence:
#
# PCOD8308198 Si02
#       6
#     8   8   8   8   8   8
#     4  10  20  33  52  77 105 136 169 211 260 309
#     4   9  19  35  52  73 103 142 179 204 244 312
#     4  11  21  34  53  77 105 136 169 212 261 307
#     4  10  19  33  55  80 106 136 171 214 260 307
#     4   9  18  34  52  72 100 138 179 206 242 310
#     4  11  22  35  53  77 105 136 171 213 259 309
#
# _framework density 18.391290999999999
#
# number of rings (size 3 to 8) (size 9 to 14) (size 15 to 20)
#    0.000    2.000    0.000    5.000    0.000    5.833 
#    0.000    0.000    0.000    9.000    0.000    0.000 
#    0.000    0.000    0.000    0.000    0.000    0.000 
#
# Total GULP energy -594699.680358 kJ/mol
# GULP energy per Si atom -12389.576674 kJ/mol
# Density = 1.834943 g / cm^3
# Si number density = 18.391291 Si / 1000 Ang^3
#
#
#
# Elastic Constant Matrix: (Units=GPa)
#
#
# Indices 1 2 3 4 5 6 
#
# 1 84.3110 39.3666 14.8466 0.0000 0.0000 0.0000
# 2 39.3666 84.3126 14.8468 0.0000 0.0000 0.0000
# 3 14.8466 14.8468 92.5323 0.0000 0.0000 0.0000
# 4 0.0000 0.0000 0.0000 24.0556 0.0000 0.0000
# 5 0.0000 0.0000 0.0000 0.0000 24.0548 0.0000
# 6 0.0000 0.0000 0.0000 0.0000 0.0000 6.8472
#
#
#
# Elastic Compliance Matrix: (Units=1/GPa)
#
#
# Indices 1 2 3 4 5 6 
#
# 1 0.015330 -0.006920 -0.001349 0.000000 0.000000 0.000000
# 2 -0.006920 0.015329 -0.001349 0.000000 0.000000 0.000000
# 3 -0.001349 -0.001349 0.011240 0.000000 0.000000 0.000000
# 4 0.000000 0.000000 0.000000 0.041570 0.000000 0.000000
# 5 0.000000 0.000000 0.000000 0.000000 0.041572 0.000000
# 6 0.000000 0.000000 0.000000 0.000000 0.000000 0.146045
#
#
# Mechanical properties :
#
#
# Convention : Reuss Voigt Hill
#
# Bulk Modulus (GPa) = 44.12722 44.36398 44.24560
# Shear Modulus (GPa) = 16.78548 23.79793 20.29170
#
# Velocity S-wave (km/s) = 3.02435 3.60109 3.32525
# Velocity P-wave (km/s) = 6.02007 6.43934 6.23323
#
# Compressibility (1/GPa) = 0.02266175
#
# Stress axis : x y z
#
# Youngs Moduli (GPa) = 65.23365 65.23483 88.96786
#
# Poissons Ratio (x) = 0.45142 0.12004
# Poissons Ratio (y) = 0.45141 0.12004
# Poissons Ratio (z) = 0.08802 0.08802
#
# Static dielectric constant tensor:
#      x y z
#    x 3.372480 0.000000 0.000000 
#    y 0.000000 3.372480 0.000000 
#    z 0.000000 0.000000 3.452730 
# 
# 
# High freq. dielectric constant tensor:
#      x y z
#    x 1.695890 0.000000 0.000000 
#    y 0.000000 1.695890 0.000000 
#    z 0.000000 0.000000 1.739970 
# 
# From -- ./inp_files/597.got.cif
#   From: 2010.03.12/outbox.cif.g09.slc.cpg/sg111_1_cif.got.tgz:597.got - 2010.04.14 01:59:48.
