data_PCOD8308122
_publ_section_title
;
Structure prediction by ZEFSAII (Michael W. Deem and Ramdas Pophale) SiO2 
 PCOD8308122
Probable space group: P -4 2 M 
;
_chemical_formula_sum "Si O2"
_cell_formula_units_Z 56
_cell_length_a 12.517073
_cell_length_b 12.517073
_cell_length_c 20.564319
_cell_angle_alpha 90.000000
_cell_angle_beta 90.000000
_cell_angle_gamma 90.000000
_cell_volume 3221.958203
_symmetry_space_group_name_H-M "P -4 2 M "
_symmetry_group_IT_number 111
_symmetry_cell_setting 'tetragonal'
loop_
_space_group_symop_operation_xyz
x,y,z
y,-x,-z
-x,-y,z
-y,x,-z
x,-y,-z
-x,y,-z
-y,-x,z
y,x,z
loop_
_atom_site_type_symbol
_atom_site_label
_atom_site_fract_x
_atom_site_fract_y
_atom_site_fract_z
Si Si1 0.382784 0.792663 0.125217
Si Si2 0.611404 0.945725 0.640968
Si Si3 0.370730 0.196109 0.144365
Si Si4 0.782924 0.390777 0.466440
Si Si5 0.924200 0.755992 0.447473
Si Si6 0.125933 0.297919 0.004693
Si Si7 0.984389 0.378221 0.209749
O O1 0.315195 0.684806 0.137620
O O2 0.504037 0.772340 0.149847
O O3 0.378118 0.828101 0.050013
O O4 0.328793 0.890678 0.165372
O O5 0.602621 0.829619 0.607041
O O6 0.634221 0.941637 0.717191
O O7 0.500000 0.000000 0.624718
O O8 0.711009 0.011833 0.613369
O O9 0.301322 0.301322 0.160097
O O10 0.330708 0.102714 0.194747
O O11 0.352363 0.153385 0.072402
O O12 0.748791 0.500000 0.500000
O O13 0.676501 0.323500 0.461932
O O14 0.871606 0.341088 0.513324
O O15 0.838087 0.838087 0.419236
O O16 0.000000 0.815581 0.500000
O O17 0.182453 0.182453 0.997840
O O18 0.000000 0.280327 0.000000
O O19 0.000000 0.500000 0.188844
#
# Coordination Sequence:
#
# PCOD8308122 Si02
#       7
#     8   8   8   8   8   8   8
#     4  10  20  34  53  77 107 144 183 222 270 327
#     4  10  18  32  54  76 101 135 176 217 255 306
#     4  10  20  34  53  80 110 139 180 229 275 322
#     4  10  19  32  52  78 105 137 173 211 260 315
#     4   9  18  30  49  74  98 127 162 203 251 301
#     4  10  19  32  54  80 107 143 183 230 280 328
#     4   9  19  33  52  77 101 138 182 221 260 311
#
# _framework density 17.380735999999999
#
# number of rings (size 3 to 8) (size 9 to 14) (size 15 to 20)
#    0.000    2.286    2.857    0.429    0.000    2.429 
#    0.000    0.000    0.000    3.000    0.000    4.000 
#    0.000    0.000    0.000    0.000    0.000    0.000 
#
# Total GULP energy -694096.819751 kJ/mol
# GULP energy per Si atom -12394.586067 kJ/mol
# Density = 1.734118 g / cm^3
# Si number density = 17.380736 Si / 1000 Ang^3
#
#
#
# Elastic Constant Matrix: (Units=GPa)
#
#
# Indices 1 2 3 4 5 6 
#
# 1 89.4532 44.2542 36.7394 0.0000 0.0000 0.0000
# 2 44.2542 89.4551 36.7391 0.0000 0.0000 0.0000
# 3 36.7394 36.7391 88.9690 0.0000 0.0000 0.0000
# 4 0.0000 0.0000 0.0000 12.5792 0.0000 0.0000
# 5 0.0000 0.0000 0.0000 0.0000 12.5793 0.0000
# 6 0.0000 0.0000 0.0000 0.0000 0.0000 13.3461
#
#
#
# Elastic Compliance Matrix: (Units=1/GPa)
#
#
# Indices 1 2 3 4 5 6 
#
# 1 0.015899 -0.006225 -0.003995 0.000000 0.000000 0.000000
# 2 -0.006225 0.015899 -0.003995 0.000000 0.000000 0.000000
# 3 -0.003995 -0.003995 0.014539 0.000000 0.000000 0.000000
# 4 0.000000 0.000000 0.000000 0.079496 0.000000 0.000000
# 5 0.000000 0.000000 0.000000 0.000000 0.079496 0.000000
# 6 0.000000 0.000000 0.000000 0.000000 0.000000 0.074928
#
#
# Mechanical properties :
#
#
# Convention : Reuss Voigt Hill
#
# Bulk Modulus (GPa) = 55.84060 55.92696 55.88378
# Shear Modulus (GPa) = 15.89034 17.71056 16.80045
#
# Velocity S-wave (km/s) = 3.02694 3.19560 3.11241
# Velocity P-wave (km/s) = 6.66439 6.77224 6.71853
#
# Compressibility (1/GPa) = 0.01790812
#
# Stress axis : x y z
#
# Youngs Moduli (GPa) = 62.89550 62.89731 68.77920
#
# Poissons Ratio (x) = 0.39152 0.27478
# Poissons Ratio (y) = 0.39151 0.27476
# Poissons Ratio (z) = 0.25127 0.25127
#
# Static dielectric constant tensor:
#      x y z
#    x 3.199790 0.000000 0.000000 
#    y 0.000000 3.199790 0.000000 
#    z 0.000000 0.000000 3.175540 
# 
# 
# High freq. dielectric constant tensor:
#      x y z
#    x 1.663750 0.000000 0.000000 
#    y 0.000000 1.663750 0.000000 
#    z 0.000000 0.000000 1.668760 
# 
# From -- ./inp_files/3951.got.cif
#   From: 2010.03.12/outbox.cif.g09.slc.cpg/sg111_2_cif.got.tgz:3951.got - 2010.04.14 01:59:48.
