data_PCOD8308584
_publ_section_title
;
Structure prediction by ZEFSAII (Michael W. Deem and Ramdas Pophale) SiO2 
 PCOD8308584
Probable space group: P -4 21 M 
;
_chemical_formula_sum "Si O2"
_cell_formula_units_Z 56
_cell_length_a 12.398376
_cell_length_b 12.398376
_cell_length_c 20.439846
_cell_angle_alpha 90.000000
_cell_angle_beta 90.000000
_cell_angle_gamma 90.000000
_cell_volume 3142.007556
_symmetry_space_group_name_H-M "P -4 21 M "
_symmetry_group_IT_number 113
_symmetry_cell_setting 'tetragonal'
loop_
_space_group_symop_operation_xyz
x,y,z
y,-x,-z
-x,-y,z
-y,x,-z
1/2+x,1/2-y,-z
1/2-x,1/2+y,-z
1/2-y,1/2-x,z
1/2+y,1/2+x,z
loop_
_atom_site_type_symbol
_atom_site_label
_atom_site_fract_x
_atom_site_fract_y
_atom_site_fract_z
Si Si1 0.070502 0.258865 0.000979
Si Si2 0.791910 0.884821 0.437735
Si Si3 0.999241 0.328049 0.131768
Si Si4 0.384931 0.448935 0.197201
Si Si5 0.887665 0.211997 0.911130
Si Si6 0.518313 0.377408 0.651546
Si Si7 0.636769 0.313259 0.421572
O O1 0.161537 0.338464 0.975360
O O2 0.123580 0.159434 0.039176
O O3 0.989878 0.314997 0.053232
O O4 0.009573 0.226743 0.934934
O O5 0.679222 0.820779 0.427017
O O6 0.883470 0.830736 0.391495
O O7 0.833762 0.871746 0.511077
O O8 0.776898 0.011205 0.420197
O O9 0.904222 0.404222 0.157134
O O10 0.116552 0.383449 0.147344
O O11 0.983389 0.214125 0.167364
O O12 0.500000 0.500000 0.180170
O O13 0.385175 0.330997 0.163485
O O14 0.363772 0.444420 0.274038
O O15 0.823919 0.323919 0.913400
O O16 0.500000 0.500000 0.630812
O O17 0.400668 0.327383 0.634405
O O18 0.705455 0.205455 0.409770
#
# Coordination Sequence:
#
# PCOD8308584 Si02
#       7
#     8   8   8   8   8   8   8
#     4   9  19  33  52  78 104 136 178 223 270 318
#     4  10  19  32  55  82 108 144 181 219 266 313
#     4   9  18  34  55  75 101 140 178 215 266 324
#     4  10  21  35  51  79 107 137 177 221 267 314
#     4  10  21  34  52  78 107 141 176 219 269 323
#     4   9  19  35  55  76 106 144 183 217 259 321
#     4  10  19  33  55  82 111 142 179 223 267 318
#
# _framework density 17.822997999999998
#
# number of rings (size 3 to 8) (size 9 to 14) (size 15 to 20)
#    0.000    2.429    1.429    1.714    4.000    2.857 
#    0.000    0.000    0.000    3.857    0.000    6.000 
#    0.000    0.000    0.000    0.000    0.000    0.000 
#
# Total GULP energy -693995.705260 kJ/mol
# GULP energy per Si atom -12392.780451 kJ/mol
# Density = 1.778243 g / cm^3
# Si number density = 17.822998 Si / 1000 Ang^3
#
#
#
# Elastic Constant Matrix: (Units=GPa)
#
#
# Indices 1 2 3 4 5 6 
#
# 1 99.6982 42.1628 43.2075 0.0000 0.0000 0.0000
# 2 42.1628 99.6990 43.2083 0.0000 0.0000 0.0000
# 3 43.2075 43.2083 94.4537 0.0000 0.0000 0.0000
# 4 0.0000 0.0000 0.0000 20.6165 0.0000 0.0000
# 5 0.0000 0.0000 0.0000 0.0000 20.6166 0.0000
# 6 0.0000 0.0000 0.0000 0.0000 0.0000 14.8582
#
#
#
# Elastic Compliance Matrix: (Units=1/GPa)
#
#
# Indices 1 2 3 4 5 6 
#
# 1 0.013576 -0.003804 -0.004470 0.000000 0.000000 0.000000
# 2 -0.003804 0.013576 -0.004470 0.000000 0.000000 0.000000
# 3 -0.004470 -0.004470 0.014677 0.000000 0.000000 0.000000
# 4 0.000000 0.000000 0.000000 0.048505 0.000000 0.000000
# 5 0.000000 0.000000 0.000000 0.000000 0.048505 0.000000
# 6 0.000000 0.000000 0.000000 0.000000 0.000000 0.067303
#
#
# Mechanical properties :
#
#
# Convention : Reuss Voigt Hill
#
# Bulk Modulus (GPa) = 61.19831 61.22313 61.21072
# Shear Modulus (GPa) = 21.09005 22.23641 21.66323
#
# Velocity S-wave (km/s) = 3.44365 3.53600 3.49013
# Velocity P-wave (km/s) = 7.08681 7.14817 7.11756
#
# Compressibility (1/GPa) = 0.01634032
#
# Stress axis : x y z
#
# Youngs Moduli (GPa) = 73.65726 73.65742 68.13332
#
# Poissons Ratio (x) = 0.28020 0.30457
# Poissons Ratio (y) = 0.28020 0.30458
# Poissons Ratio (z) = 0.32927 0.32928
#
# Static dielectric constant tensor:
#      x y z
#    x 3.295510 0.000000 0.000000 
#    y 0.000000 3.295510 0.000000 
#    z 0.000000 0.000000 3.164430 
# 
# 
# High freq. dielectric constant tensor:
#      x y z
#    x 1.685110 0.000000 0.000000 
#    y 0.000000 1.685110 0.000000 
#    z 0.000000 0.000000 1.675670 
# 
# From -- ./inp_files/2729.got.cif
#   From: 2010.03.12/outbox.cif.g09.slc.cpg/sg113_cif.got.tgz:2729.got - 2010.04.14 02:06:34.
