data_PCOD8308428
_publ_section_title
;
Structure prediction by ZEFSAII (Michael W. Deem and Ramdas Pophale) SiO2 
 PCOD8308428
Probable space group: P -4 2 C
;
_chemical_formula_sum "Si O2"
_cell_formula_units_Z 20
_cell_length_a 4.813211
_cell_length_b 4.813211
_cell_length_c 36.370800
_cell_angle_alpha 90.000000
_cell_angle_beta 90.000000
_cell_angle_gamma 90.000000
_cell_volume 842.602328
_symmetry_space_group_name_H-M "P -4 2 C"
_symmetry_group_IT_number 112
_symmetry_cell_setting 'tetragonal'
loop_
_space_group_symop_operation_xyz
x,y,z
y,-x,-z
-x,-y,z
-y,x,-z
x,-y,1/2-z
-x,y,1/2-z
-y,-x,1/2+z
y,x,1/2+z
loop_
_atom_site_type_symbol
_atom_site_label
_atom_site_fract_x
_atom_site_fract_y
_atom_site_fract_z
Si Si1 0.000000 0.000000 0.000000
Si Si2 0.000000 0.000000 0.700757
Si Si3 0.500000 0.500000 0.398889
Si Si4 0.000000 0.500000 0.750000
Si Si5 0.000000 0.500000 0.348580
Si Si6 0.500000 0.000000 0.050583
O O1 0.250028 0.891805 0.025290
O O2 0.858889 0.264803 0.723294
O O3 0.750599 0.881920 0.676285
O O4 0.249161 0.389389 0.373806
O O5 0.608689 0.250108 0.424155
#
# Coordination Sequence:
#
# PCOD8308428 Si02
#       6
#     2   4   4   2   4   4
#     4  12  24  42  64  90 124 160 204 250 304 360
#     4  11  24  41  64  91 124 161 204 250 304 361
#     4  12  24  41  64  91 124 160 204 250 304 360
#     4  10  24  42  64  92 124 162 204 252 304 362
#     4  12  24  42  64  92 124 162 204 252 304 362
#     4  12  24  42  64  92 124 162 204 252 304 362
#
# _framework density 23.735994000000002
#
# number of rings (size 3 to 8) (size 9 to 14) (size 15 to 20)
#    0.000    0.400    0.000    9.600    0.000    4.800 
#    0.000    0.000    0.000    0.000    0.000    0.000 
#    0.000    0.000    0.000    0.000    0.000    0.000 
#
# Total GULP energy -247778.543863 kJ/mol
# GULP energy per Si atom -12388.927193 kJ/mol
# Density = 2.368197 g / cm^3
# Si number density = 23.735994 Si / 1000 Ang^3
#
#
#
# Elastic Constant Matrix: (Units=GPa)
#
#
# Indices 1 2 3 4 5 6 
#
# 1 131.4631 -3.1732 47.7779 0.0000 0.0000 0.0000
# 2 -3.1732 131.4631 47.7779 0.0000 0.0000 0.0000
# 3 47.7779 47.7779 125.8681 0.0000 0.0000 0.0000
# 4 0.0000 0.0000 0.0000 17.7224 0.0000 0.0000
# 5 0.0000 0.0000 0.0000 0.0000 17.7224 0.0000
# 6 0.0000 0.0000 0.0000 0.0000 0.0000 26.6694
#
#
#
# Elastic Compliance Matrix: (Units=1/GPa)
#
#
# Indices 1 2 3 4 5 6 
#
# 1 0.009147 0.001720 -0.004125 0.000000 0.000000 0.000000
# 2 0.001720 0.009147 -0.004125 0.000000 0.000000 0.000000
# 3 -0.004125 -0.004125 0.011077 0.000000 0.000000 0.000000
# 4 0.000000 0.000000 0.000000 0.056426 0.000000 0.000000
# 5 0.000000 0.000000 0.000000 0.000000 0.056426 0.000000
# 6 0.000000 0.000000 0.000000 0.000000 0.000000 0.037496
#
#
# Mechanical properties :
#
#
# Convention : Reuss Voigt Hill
#
# Bulk Modulus (GPa) = 61.30898 63.72884 62.51891
# Shear Modulus (GPa) = 25.22492 32.18361 28.70427
#
# Velocity S-wave (km/s) = 3.26349 3.68625 3.48129
# Velocity P-wave (km/s) = 6.33136 6.71008 6.52347
#
# Compressibility (1/GPa) = 0.01631083
#
# Stress axis : x y z
#
# Youngs Moduli (GPa) = 109.32055 109.32055 90.28119
#
# Poissons Ratio (x) = -0.18803 0.37242
# Poissons Ratio (y) = -0.18803 0.37242
# Poissons Ratio (z) = 0.45096 0.45096
#
# Static dielectric constant tensor:
#      x y z
#    x 3.993890 0.000000 0.000000 
#    y 0.000000 3.993890 0.000000 
#    z 0.000000 0.000000 4.669060 
# 
# 
# High freq. dielectric constant tensor:
#      x y z
#    x 1.925950 0.000000 0.000000 
#    y 0.000000 1.925950 0.000000 
#    z 0.000000 0.000000 1.973740 
# 
# From -- ./inp_files/5696.got.cif
#   From: 2010.03.12/outbox.cif.g09.slc.cpg/sg112_3_cif.got.tgz:5696.got - 2010.04.14 02:02:48.
