data_PCOD8308055
_publ_section_title
;
Structure prediction by ZEFSAII (Michael W. Deem and Ramdas Pophale) SiO2 
 PCOD8308055
Probable space group: I 41 C D
;
_chemical_formula_sum "Si O2"
_cell_formula_units_Z 48
_cell_length_a 18.064230
_cell_length_b 18.064230
_cell_length_c 5.380580
_cell_angle_alpha 90.000000
_cell_angle_beta 90.000000
_cell_angle_gamma 90.000000
_cell_volume 1755.771525
_symmetry_space_group_name_H-M "I 41 C D"
_symmetry_group_IT_number 110
_symmetry_cell_setting 'tetragonal'
loop_
_space_group_symop_operation_xyz
x,y,z
-y,1/2+x,1/4+z
-x,-y,z
y,1/2-x,1/4+z
-x,y,1/2+z
x,-y,1/2+z
1/2-y,-x,1/4+z
1/2+y,x,1/4+z
1/2+x,1/2+y,1/2+z
1/2-y,x,3/4+z
1/2-x,1/2-y,1/2+z
1/2+y,-x,3/4+z
1/2-x,1/2+y,z
1/2+x,1/2-y,z
-y,1/2-x,3/4+z
y,1/2+x,3/4+z
loop_
_atom_site_type_symbol
_atom_site_label
_atom_site_fract_x
_atom_site_fract_y
_atom_site_fract_z
Si Si1 0.826351 0.330992 0.875000
Si Si2 0.831834 0.026330 0.881396
Si Si3 0.592831 0.045277 0.141152
O O1 0.838328 0.253337 0.741140
O O2 0.842283 0.393015 0.667051
O O3 0.886003 0.340927 0.098673
O O4 0.789080 0.991923 0.639582
O O5 0.913303 0.987196 0.906837
O O6 0.602740 0.990005 0.371922
#
# Coordination Sequence:
#
# PCOD8308055 Si02
#       3
#    16  16  16
#     4  11  28  50  78 118 169 220 273 335 411 495
#     4  10  23  45  74 110 151 197 261 326 393 471
#     4  11  25  48  80 116 154 202 266 338 404 476
#
# _framework density 27.338412000000002
#
# number of rings (size 3 to 8) (size 9 to 14) (size 15 to 20)
#    0.000    1.333    0.000    4.000    0.000   29.333 
#    0.000    0.000    0.000    0.000    0.000    0.000 
#    0.000    0.000    0.000    0.000    0.000    0.000 
#
# Total GULP energy -297406.279195 kJ/mol
# GULP energy per Si atom -12391.928300 kJ/mol
# Density = 2.727619 g / cm^3
# Si number density = 27.338412 Si / 1000 Ang^3
#
#
#
# Elastic Constant Matrix: (Units=GPa)
#
#
# Indices 1 2 3 4 5 6 
#
# 1 142.3105 80.4743 54.5720 0.0000 0.0000 0.0000
# 2 80.4743 142.3105 54.5720 0.0000 0.0000 0.0000
# 3 54.5720 54.5720 218.1314 0.0000 0.0000 0.0000
# 4 0.0000 0.0000 0.0000 42.2819 0.0000 0.0000
# 5 0.0000 0.0000 0.0000 0.0000 42.2819 0.0000
# 6 0.0000 0.0000 0.0000 0.0000 0.0000 33.6934
#
#
#
# Elastic Compliance Matrix: (Units=1/GPa)
#
#
# Indices 1 2 3 4 5 6 
#
# 1 0.010644 -0.005528 -0.001280 0.000000 0.000000 0.000000
# 2 -0.005528 0.010644 -0.001280 0.000000 0.000000 0.000000
# 3 -0.001280 -0.001280 0.005225 0.000000 0.000000 0.000000
# 4 0.000000 0.000000 0.000000 0.023651 0.000000 0.000000
# 5 0.000000 0.000000 0.000000 0.000000 0.023651 0.000000
# 6 0.000000 0.000000 0.000000 0.000000 0.000000 0.029679
#
#
# Mechanical properties :
#
#
# Convention : Reuss Voigt Hill
#
# Bulk Modulus (GPa) = 96.74243 97.99878 97.37060
# Shear Modulus (GPa) = 40.61275 44.52706 42.56991
#
# Velocity S-wave (km/s) = 3.85847 4.04014 3.95035
# Velocity P-wave (km/s) = 7.43735 7.59526 7.51672
#
# Compressibility (1/GPa) = 0.01033673
#
# Stress axis : x y z
#
# Youngs Moduli (GPa) = 93.95244 93.95244 191.39613
#
# Poissons Ratio (x) = 0.51937 0.24495
# Poissons Ratio (y) = 0.51937 0.24495
# Poissons Ratio (z) = 0.12024 0.12024
#
# Static dielectric constant tensor:
#      x y z
#    x 5.079660 0.000000 0.000000 
#    y 0.000000 5.079660 0.000000 
#    z 0.000000 0.000000 6.050370 
# 
# 
# High freq. dielectric constant tensor:
#      x y z
#    x 2.095570 0.000000 0.000000 
#    y 0.000000 2.095570 0.000000 
#    z 0.000000 0.000000 2.127380 
# 
# From -- ./inp_files/58.got.cif
#   From: 2010.03.12/outbox.cif.g09.slc.cpg/sg110_1_cif.got.tgz:58.got - 2010.04.14 01:58:01.
