data_PCOD8308856
_publ_section_title
;
Structure prediction by ZEFSAII (Michael W. Deem and Ramdas Pophale) SiO2 
 PCOD8308856
Probable space group: P -4 21 C
;
_chemical_formula_sum "Si O2"
_cell_formula_units_Z 44
_cell_length_a 10.031130
_cell_length_b 10.031130
_cell_length_c 22.945994
_cell_angle_alpha 90.000000
_cell_angle_beta 90.000000
_cell_angle_gamma 90.000000
_cell_volume 2308.907812
_symmetry_space_group_name_H-M "P -4 21 C"
_symmetry_group_IT_number 114
_symmetry_cell_setting 'tetragonal'
loop_
_space_group_symop_operation_xyz
x,y,z
y,-x,-z
-x,-y,z
-y,x,-z
1/2+x,1/2-y,1/2-z
1/2-x,1/2+y,1/2-z
1/2-y,1/2-x,1/2+z
1/2+y,1/2+x,1/2+z
loop_
_atom_site_type_symbol
_atom_site_label
_atom_site_fract_x
_atom_site_fract_y
_atom_site_fract_z
Si Si1 0.015294 0.766781 0.275577
Si Si2 0.833556 0.192482 0.571531
Si Si3 0.729092 0.687360 0.316391
Si Si4 0.854717 0.450973 0.967465
Si Si5 0.500000 0.500000 0.863839
Si Si6 0.138721 0.566643 0.354185
O O1 0.083208 0.806269 0.214094
O O2 0.110214 0.647096 0.295614
O O3 0.857183 0.727143 0.274352
O O4 0.040617 0.879070 0.322941
O O5 0.777257 0.276102 0.626250
O O6 0.870398 0.291944 0.520610
O O7 0.730077 0.080027 0.551329
O O8 0.968618 0.123483 0.594119
O O9 0.744549 0.535305 0.338059
O O10 0.852641 0.339318 0.914650
O O11 0.000000 0.500000 0.988023
O O12 0.000000 0.500000 0.373601
#
# Coordination Sequence:
#
# PCOD8308856 Si02
#       6
#     8   8   8   8   4   8
#     4  10  21  36  59  87 116 152 193 240 289 357
#     4  11  21  36  61  88 113 151 200 245 297 346
#     4  10  21  39  60  85 119 156 195 238 300 363
#     4  11  20  39  60  85 118 156 196 250 297 351
#     4  10  20  37  56  90 114 141 196 252 292 340
#     4   9  17  38  58  78 113 161 186 227 305 351
#
# _framework density 19.056629000000001
#
# number of rings (size 3 to 8) (size 9 to 14) (size 15 to 20)
#    0.000    1.818    7.273    1.091    5.091    0.000 
#    3.273    0.000    0.000    0.545    0.000    0.000 
#    0.000    0.000    0.000    0.000    0.000    0.000 
#
# Total GULP energy -545095.967976 kJ/mol
# GULP energy per Si atom -12388.544727 kJ/mol
# Density = 1.901326 g / cm^3
# Si number density = 19.056629 Si / 1000 Ang^3
#
#
#
# Elastic Constant Matrix: (Units=GPa)
#
#
# Indices 1 2 3 4 5 6 
#
# 1 53.7121 21.2805 29.8514 0.0000 0.0000 0.0000
# 2 21.2805 53.7121 29.8514 0.0000 0.0000 0.0000
# 3 29.8514 29.8514 104.0248 0.0000 0.0000 0.0000
# 4 0.0000 0.0000 0.0000 20.4936 0.0000 0.0000
# 5 0.0000 0.0000 0.0000 0.0000 20.4936 0.0000
# 6 0.0000 0.0000 0.0000 0.0000 0.0000 19.1262
#
#
#
# Elastic Compliance Matrix: (Units=1/GPa)
#
#
# Indices 1 2 3 4 5 6 
#
# 1 0.024059 -0.006776 -0.004960 0.000000 0.000000 0.000000
# 2 -0.006776 0.024059 -0.004960 0.000000 0.000000 0.000000
# 3 -0.004960 -0.004960 0.012460 0.000000 0.000000 0.000000
# 4 0.000000 0.000000 0.000000 0.048796 0.000000 0.000000
# 5 0.000000 0.000000 0.000000 0.000000 0.048796 0.000000
# 6 0.000000 0.000000 0.000000 0.000000 0.000000 0.052284
#
#
# Mechanical properties :
#
#
# Convention : Reuss Voigt Hill
#
# Bulk Modulus (GPa) = 36.78199 41.49062 39.13631
# Shear Modulus (GPa) = 19.77031 20.72040 20.24535
#
# Velocity S-wave (km/s) = 3.22444 3.30101 3.26295
# Velocity P-wave (km/s) = 5.76247 6.02897 5.89722
#
# Compressibility (1/GPa) = 0.02718722
#
# Stress axis : x y z
#
# Youngs Moduli (GPa) = 41.56514 41.56514 80.25962
#
# Poissons Ratio (x) = 0.28163 0.39806
# Poissons Ratio (y) = 0.28163 0.39806
# Poissons Ratio (z) = 0.20615 0.20615
#
# Static dielectric constant tensor:
#      x y z
#    x 3.990640 0.000000 0.000000 
#    y 0.000000 3.990640 0.000000 
#    z 0.000000 0.000000 3.607420 
# 
# 
# High freq. dielectric constant tensor:
#      x y z
#    x 1.726590 0.000000 0.000000 
#    y 0.000000 1.726590 0.000000 
#    z 0.000000 0.000000 1.747090 
# 
# From -- ./inp_files/2573.got.cif
#   From: 2010.03.12/outbox.cif.g09.slc.cpg/sg114_2_cif.got.tgz:2573.got - 2010.04.14 02:08:34.
