data_PCOD8308375
_publ_section_title
;
Structure prediction by ZEFSAII (Michael W. Deem and Ramdas Pophale) SiO2 
 PCOD8308375
Probable space group: P -4 2 C
;
_chemical_formula_sum "Si O2"
_cell_formula_units_Z 34
_cell_length_a 14.390742
_cell_length_b 14.390742
_cell_length_c 8.947177
_cell_angle_alpha 90.000000
_cell_angle_beta 90.000000
_cell_angle_gamma 90.000000
_cell_volume 1852.901800
_symmetry_space_group_name_H-M "P -4 2 C"
_symmetry_group_IT_number 112
_symmetry_cell_setting 'tetragonal'
loop_
_space_group_symop_operation_xyz
x,y,z
y,-x,-z
-x,-y,z
-y,x,-z
x,-y,1/2-z
-x,y,1/2-z
-y,-x,1/2+z
y,x,1/2+z
loop_
_atom_site_type_symbol
_atom_site_label
_atom_site_fract_x
_atom_site_fract_y
_atom_site_fract_z
Si Si1 0.251857 0.397376 0.725298
Si Si2 0.594428 0.611709 0.973878
Si Si3 0.073045 0.182214 0.357861
Si Si4 0.753955 0.896383 0.187181
Si Si5 0.000000 0.000000 0.000000
O O1 0.212316 0.500000 0.750000
O O2 0.339667 0.380646 0.832142
O O3 0.295660 0.380455 0.563858
O O4 0.161457 0.334258 0.743276
O O5 0.614194 0.515847 0.065690
O O6 0.161386 0.159242 0.258004
O O7 0.100016 0.239420 0.506554
O O8 0.000000 0.238212 0.250000
O O9 0.018889 0.088361 0.398186
O O10 0.747567 0.000000 0.250000
#
# Coordination Sequence:
#
# PCOD8308375 Si02
#       5
#     8   8   8   8   2
#     4  10  21  35  53  79 108 141 179 217 259 319
#     4   9  17  33  57  82 105 130 168 225 283 320
#     4  12  21  34  55  82 109 135 176 226 278 323
#     4  12  22  35  52  76 108 148 179 216 263 319
#     4  12  18  32  54  76 106 128 162 232 274 312
#
# _framework density 18.349595999999998
#
# number of rings (size 3 to 8) (size 9 to 14) (size 15 to 20)
#    0.000    1.176    4.706    2.471    0.000    3.294 
#    0.000    0.000    0.000    0.000    0.000    4.941 
#    0.000    0.000    0.000    0.000    0.000    0.000 
#
# Total GULP energy -421341.079251 kJ/mol
# GULP energy per Si atom -12392.384684 kJ/mol
# Density = 1.830783 g / cm^3
# Si number density = 18.349596 Si / 1000 Ang^3
#
#
#
# Elastic Constant Matrix: (Units=GPa)
#
#
# Indices 1 2 3 4 5 6 
#
# 1 80.4183 54.6553 32.5832 0.0000 0.0000 0.0000
# 2 54.6553 80.4183 32.5832 0.0000 0.0000 0.0000
# 3 32.5832 32.5832 84.2436 0.0000 0.0000 0.0000
# 4 0.0000 0.0000 0.0000 11.7589 0.0000 0.0000
# 5 0.0000 0.0000 0.0000 0.0000 11.7589 0.0000
# 6 0.0000 0.0000 0.0000 0.0000 0.0000 29.7642
#
#
#
# Elastic Compliance Matrix: (Units=1/GPa)
#
#
# Indices 1 2 3 4 5 6 
#
# 1 0.023959 -0.014857 -0.003520 0.000000 0.000000 0.000000
# 2 -0.014857 0.023959 -0.003520 0.000000 0.000000 0.000000
# 3 -0.003520 -0.003520 0.014593 0.000000 0.000000 0.000000
# 4 0.000000 0.000000 0.000000 0.085042 0.000000 0.000000
# 5 0.000000 0.000000 0.000000 0.000000 0.085042 0.000000
# 6 0.000000 0.000000 0.000000 0.000000 0.000000 0.033597
#
#
# Mechanical properties :
#
#
# Convention : Reuss Voigt Hill
#
# Bulk Modulus (GPa) = 53.43106 53.85817 53.64462
# Shear Modulus (GPa) = 15.81151 19.00696 17.40924
#
# Velocity S-wave (km/s) = 2.93863 3.22191 3.08353
# Velocity P-wave (km/s) = 6.37931 6.57692 6.47887
#
# Compressibility (1/GPa) = 0.01871571
#
# Stress axis : x y z
#
# Youngs Moduli (GPa) = 41.73878 41.73878 68.52381
#
# Poissons Ratio (x) = 0.62010 0.24123
# Poissons Ratio (y) = 0.62010 0.24123
# Poissons Ratio (z) = 0.14693 0.14693
#
# Static dielectric constant tensor:
#      x y z
#    x 3.527280 0.000000 0.000000 
#    y 0.000000 3.527280 0.000000 
#    z 0.000000 0.000000 3.516500 
# 
# 
# High freq. dielectric constant tensor:
#      x y z
#    x 1.698900 0.000000 0.000000 
#    y 0.000000 1.698900 0.000000 
#    z 0.000000 0.000000 1.721560 
# 
# From -- ./inp_files/1057.got.cif
#   From: 2010.03.12/outbox.cif.g09.slc.cpg/sg112_1_cif.got.tgz:1057.got - 2010.04.14 02:02:48.
