data_PCOD8308485
_publ_section_title
;
Structure prediction by ZEFSAII (Michael W. Deem and Ramdas Pophale) SiO2 
 PCOD8308485
Probable space group: P -4 2 C
;
_chemical_formula_sum "Si O2"
_cell_formula_units_Z 34
_cell_length_a 9.924090
_cell_length_b 9.924090
_cell_length_c 13.811824
_cell_angle_alpha 90.000000
_cell_angle_beta 90.000000
_cell_angle_gamma 90.000000
_cell_volume 1360.292877
_symmetry_space_group_name_H-M "P -4 2 C"
_symmetry_group_IT_number 112
_symmetry_cell_setting 'tetragonal'
loop_
_space_group_symop_operation_xyz
x,y,z
y,-x,-z
-x,-y,z
-y,x,-z
x,-y,1/2-z
-x,y,1/2-z
-y,-x,1/2+z
y,x,1/2+z
loop_
_atom_site_type_symbol
_atom_site_label
_atom_site_fract_x
_atom_site_fract_y
_atom_site_fract_z
Si Si1 0.000000 0.000000 0.000000
Si Si2 0.272444 0.631217 0.627055
Si Si3 0.019457 0.205690 0.852395
Si Si4 0.500000 0.222513 0.750000
Si Si5 0.194167 0.641832 0.956695
Si Si6 0.000000 0.500000 0.099843
O O1 0.918811 0.897128 0.931227
O O2 0.124540 0.673624 0.662956
O O3 0.385589 0.680550 0.703727
O O4 0.263072 0.528957 0.887553
O O5 0.296964 0.685304 0.518861
O O6 0.000000 0.131396 0.750000
O O7 0.870116 0.250897 0.884091
O O8 0.560980 0.121673 0.832891
O O9 0.070194 0.606223 0.028807
#
# Coordination Sequence:
#
# PCOD8308485 Si02
#       6
#     2   8   8   4   8   4
#     4  12  26  52  76 114 148 192 254 328 388 474
#     4  11  24  45  72 110 150 201 249 313 384 474
#     4  12  26  46  76 112 146 193 252 322 393 459
#     4   9  22  40  74 111 142 193 265 316 374 480
#     4  11  23  44  74 101 152 199 249 305 398 463
#     4   9  18  42  71 102 142 198 241 310 395 452
#
# _framework density 24.994616000000001
#
# number of rings (size 3 to 8) (size 9 to 14) (size 15 to 20)
#    0.000    1.176    4.706    0.353    0.000    8.000 
#    8.471    2.353    0.000    0.000    0.000    0.000 
#    0.000    0.000    0.000    0.000    0.000    0.000 
#
# Total GULP energy -421336.071847 kJ/mol
# GULP energy per Si atom -12392.237407 kJ/mol
# Density = 2.493773 g / cm^3
# Si number density = 24.994616 Si / 1000 Ang^3
#
#
#
# Elastic Constant Matrix: (Units=GPa)
#
#
# Indices 1 2 3 4 5 6 
#
# 1 74.1891 12.1098 40.4729 0.0000 0.0000 0.0000
# 2 12.1098 74.1891 40.4729 0.0000 0.0000 0.0000
# 3 40.4729 40.4729 157.6916 0.0000 0.0000 0.0000
# 4 0.0000 0.0000 0.0000 37.6316 0.0000 0.0000
# 5 0.0000 0.0000 0.0000 0.0000 37.6316 0.0000
# 6 0.0000 0.0000 0.0000 0.0000 0.0000 35.1843
#
#
#
# Elastic Compliance Matrix: (Units=1/GPa)
#
#
# Indices 1 2 3 4 5 6 
#
# 1 0.015685 -0.000423 -0.003917 0.000000 0.000000 0.000000
# 2 -0.000423 0.015685 -0.003917 0.000000 0.000000 0.000000
# 3 -0.003917 -0.003917 0.008352 0.000000 0.000000 0.000000
# 4 0.000000 0.000000 0.000000 0.026573 0.000000 0.000000
# 5 0.000000 0.000000 0.000000 0.000000 0.026573 0.000000
# 6 0.000000 0.000000 0.000000 0.000000 0.000000 0.028422
#
#
# Mechanical properties :
#
#
# Convention : Reuss Voigt Hill
#
# Bulk Modulus (GPa) = 43.08973 54.68681 48.88827
# Shear Modulus (GPa) = 34.35445 36.29046 35.32245
#
# Velocity S-wave (km/s) = 3.71141 3.81456 3.76334
# Velocity P-wave (km/s) = 5.97019 6.42869 6.20368
#
# Compressibility (1/GPa) = 0.02320739
#
# Stress axis : x y z
#
# Youngs Moduli (GPa) = 63.75492 63.75492 119.72923
#
# Poissons Ratio (x) = 0.02699 0.46899
# Poissons Ratio (y) = 0.02699 0.46899
# Poissons Ratio (z) = 0.24973 0.24973
#
# Static dielectric constant tensor:
#      x y z
#    x 4.277760 0.000000 0.000000 
#    y 0.000000 4.277760 0.000000 
#    z 0.000000 0.000000 4.924440 
# 
# 
# High freq. dielectric constant tensor:
#      x y z
#    x 1.980820 0.000000 0.000000 
#    y 0.000000 1.980820 0.000000 
#    z 0.000000 0.000000 2.022210 
# 
# From -- ./inp_files/2370.got.cif
#   From: 2010.03.12/outbox.cif.g09.slc.cpg/sg112_2_cif.got.tgz:2370.got - 2010.04.14 02:02:48.
