data_PCOD8308385
_publ_section_title
;
Structure prediction by ZEFSAII (Michael W. Deem and Ramdas Pophale) SiO2 
 PCOD8308385
Probable space group: P -4 2 C
;
_chemical_formula_sum "Si O2"
_cell_formula_units_Z 48
_cell_length_a 11.857263
_cell_length_b 11.857263
_cell_length_c 18.469626
_cell_angle_alpha 90.000000
_cell_angle_beta 90.000000
_cell_angle_gamma 90.000000
_cell_volume 2596.731265
_symmetry_space_group_name_H-M "P -4 2 C"
_symmetry_group_IT_number 112
_symmetry_cell_setting 'tetragonal'
loop_
_space_group_symop_operation_xyz
x,y,z
y,-x,-z
-x,-y,z
-y,x,-z
x,-y,1/2-z
-x,y,1/2-z
-y,-x,1/2+z
y,x,1/2+z
loop_
_atom_site_type_symbol
_atom_site_label
_atom_site_fract_x
_atom_site_fract_y
_atom_site_fract_z
Si Si1 0.873149 0.373011 0.477541
Si Si2 0.000000 0.129018 0.170843
Si Si3 0.373011 0.126851 0.977541
Si Si4 0.800611 0.236021 0.611081
Si Si5 0.132436 0.366390 0.750000
Si Si6 0.236021 0.199389 0.111081
O O1 0.836850 0.500000 0.497418
O O2 0.873771 0.297440 0.549798
O O3 0.783655 0.326874 0.418213
O O4 0.000000 0.370319 0.445464
O O5 0.110979 0.153856 0.124670
O O6 0.000000 0.192139 0.250000
O O7 0.889021 0.153857 0.124670
O O8 0.000000 0.000000 0.189350
O O9 0.297440 0.126229 0.049798
O O10 0.326874 0.216346 0.918213
O O11 0.803954 0.313986 0.681506
O O12 0.147648 0.500000 0.750000
O O13 0.196046 0.313986 0.681506
O O14 0.000000 0.332473 0.750000
#
# Coordination Sequence:
#
# PCOD8308385 Si02
#       6
#     8   8   8   8   8   8
#     4  10  21  38  56  79 114 155 198 238 281 342
#     4  11  20  32  53  85 129 152 172 228 303 371
#     4  10  21  38  56  79 114 155 198 238 281 342
#     4  11  21  35  57  85 116 153 194 238 290 346
#     4  11  22  37  60  87 118 157 197 235 284 350
#     4  11  21  35  57  85 116 153 194 238 290 346
#
# _framework density 18.484779
#
# number of rings (size 3 to 8) (size 9 to 14) (size 15 to 20)
#    0.000    1.333    3.333    4.000    0.000    2.667 
#    0.000    0.833    0.000   21.000    0.000    0.000 
#    0.000    0.000    0.000    0.000    0.000    0.000 
#
# Total GULP energy -594955.318088 kJ/mol
# GULP energy per Si atom -12394.902460 kJ/mol
# Density = 1.844271 g / cm^3
# Si number density = 18.484779 Si / 1000 Ang^3
#
#
#
# Elastic Constant Matrix: (Units=GPa)
#
#
# Indices 1 2 3 4 5 6 
#
# 1 124.8526 39.1782 57.6520 0.0000 0.0000 0.0000
# 2 39.1782 124.8526 57.6520 0.0000 0.0000 0.0000
# 3 57.6520 57.6520 129.9861 0.0000 0.0000 0.0000
# 4 0.0000 0.0000 0.0000 22.8319 0.0000 0.0000
# 5 0.0000 0.0000 0.0000 0.0000 22.8319 0.0000
# 6 0.0000 0.0000 0.0000 0.0000 0.0000 24.6266
#
#
#
# Elastic Compliance Matrix: (Units=1/GPa)
#
#
# Indices 1 2 3 4 5 6 
#
# 1 0.010265 -0.001407 -0.003929 0.000000 0.000000 0.000000
# 2 -0.001407 0.010265 -0.003929 0.000000 0.000000 0.000000
# 3 -0.003929 -0.003929 0.011178 0.000000 0.000000 0.000000
# 4 0.000000 0.000000 0.000000 0.043798 0.000000 0.000000
# 5 0.000000 0.000000 0.000000 0.000000 0.043798 0.000000
# 6 0.000000 0.000000 0.000000 0.000000 0.000000 0.040606
#
#
# Mechanical properties :
#
#
# Convention : Reuss Voigt Hill
#
# Bulk Modulus (GPa) = 75.87696 76.51734 76.19715
# Shear Modulus (GPa) = 27.34724 29.07202 28.20963
#
# Velocity S-wave (km/s) = 3.85053 3.97010 3.91077
# Velocity P-wave (km/s) = 7.80424 7.90571 7.85514
#
# Compressibility (1/GPa) = 0.01317923
#
# Stress axis : x y z
#
# Youngs Moduli (GPa) = 97.41735 97.41735 89.46009
#
# Poissons Ratio (x) = 0.13706 0.35147
# Poissons Ratio (y) = 0.13706 0.35147
# Poissons Ratio (z) = 0.38273 0.38273
#
# Static dielectric constant tensor:
#      x y z
#    x 3.245780 0.000000 0.000000 
#    y 0.000000 3.245780 0.000000 
#    z 0.000000 0.000000 3.590070 
# 
# 
# High freq. dielectric constant tensor:
#      x y z
#    x 1.707220 0.000000 0.000000 
#    y 0.000000 1.707220 0.000000 
#    z 0.000000 0.000000 1.724860 
# 
# From -- ./inp_files/4142.got.cif
#   From: 2010.03.12/outbox.cif.g09.slc.cpg/sg112_3_cif.got.tgz:4142.got - 2010.04.14 02:02:48.
