data_PCOD8308165
_publ_section_title
;
Structure prediction by ZEFSAII (Michael W. Deem and Ramdas Pophale) SiO2 
 PCOD8308165
Probable space group: P -4 2 M 
;
_chemical_formula_sum "Si O2"
_cell_formula_units_Z 64
_cell_length_a 11.861511
_cell_length_b 11.861511
_cell_length_c 23.597669
_cell_angle_alpha 90.000000
_cell_angle_beta 90.000000
_cell_angle_gamma 90.000000
_cell_volume 3320.084499
_symmetry_space_group_name_H-M "P -4 2 M "
_symmetry_group_IT_number 111
_symmetry_cell_setting 'tetragonal'
loop_
_space_group_symop_operation_xyz
x,y,z
y,-x,-z
-x,-y,z
-y,x,-z
x,-y,-z
-x,y,-z
-y,-x,z
y,x,z
loop_
_atom_site_type_symbol
_atom_site_label
_atom_site_fract_x
_atom_site_fract_y
_atom_site_fract_z
Si Si1 0.873815 0.514116 0.730675
Si Si2 0.317712 0.499842 0.177777
Si Si3 0.183572 0.995542 0.435863
Si Si4 0.243461 0.066792 0.733392
Si Si5 0.262826 0.559180 0.058076
Si Si6 0.998692 0.180303 0.145108
Si Si7 0.628257 0.029429 0.063922
Si Si8 0.878350 0.697708 0.342854
O O1 0.786801 0.486057 0.780272
O O2 0.864084 0.645161 0.712912
O O3 0.856558 0.432917 0.675304
O O4 0.000000 0.500000 0.755679
O O5 0.376104 0.623897 0.182422
O O6 0.405537 0.405537 0.196623
O O7 0.280721 0.477797 0.112392
O O8 0.128807 0.871194 0.422477
O O9 0.229284 0.000000 0.500000
O O10 0.288357 0.033584 0.395728
O O11 0.085196 0.085196 0.426972
O O12 0.134895 0.134895 0.711059
O O13 0.241449 0.055048 0.800766
O O14 0.239692 0.940792 0.708823
O O15 0.378463 0.621538 0.044139
O O16 0.163148 0.645255 0.073989
O O17 0.223273 0.500000 0.000000
O O18 0.906237 0.093764 0.119240
O O19 0.033563 0.278663 0.101598
O O20 0.111760 0.111760 0.161153
O O21 0.500000 0.000000 0.081548
O O22 0.655537 0.000000 0.000000
O O23 0.758528 0.758528 0.354618
#
# Coordination Sequence:
#
# PCOD8308165 Si02
#       8
#     8   8   8   8   8   8   8   8
#     4  10  21  35  50  74 108 142 176 211 260 320
#     4  10  21  37  58  79  99 130 175 225 274 323
#     4   8  14  26  47  77 112 150 191 231 272 321
#     4  10  20  35  53  74 103 141 179 215 257 313
#     4  11  22  39  59  79 101 129 168 220 274 328
#     4  10  22  39  60  83 104 130 171 222 271 321
#     4  11  23  42  55  77 105 135 169 204 258 332
#     4  10  19  31  50  79 111 143 176 222 271 313
#
# _framework density 19.276619
#
# number of rings (size 3 to 8) (size 9 to 14) (size 15 to 20)
#    0.000    2.000    1.250    3.375    0.000    8.875 
#    0.000    3.125    0.000    3.375    0.000    0.000 
#    0.000    0.000    0.000    0.000    0.000  114.125 
#
# Total GULP energy -793119.864578 kJ/mol
# GULP energy per Si atom -12392.497884 kJ/mol
# Density = 1.923274 g / cm^3
# Si number density = 19.276619 Si / 1000 Ang^3
#
#
#
# Elastic Constant Matrix: (Units=GPa)
#
#
# Indices 1 2 3 4 5 6 
#
# 1 79.4357 21.2729 37.0651 0.0000 0.0000 0.0000
# 2 21.2729 79.4365 37.0651 0.0000 0.0000 0.0000
# 3 37.0651 37.0651 97.8144 0.0000 0.0000 0.0000
# 4 0.0000 0.0000 0.0000 25.2344 0.0000 0.0000
# 5 0.0000 0.0000 0.0000 0.0000 25.2342 0.0000
# 6 0.0000 0.0000 0.0000 0.0000 0.0000 19.2875
#
#
#
# Elastic Compliance Matrix: (Units=1/GPa)
#
#
# Indices 1 2 3 4 5 6 
#
# 1 0.015482 -0.001711 -0.005218 0.000000 0.000000 0.000000
# 2 -0.001711 0.015482 -0.005218 0.000000 0.000000 0.000000
# 3 -0.005218 -0.005218 0.014178 0.000000 0.000000 0.000000
# 4 0.000000 0.000000 0.000000 0.039629 0.000000 0.000000
# 5 0.000000 0.000000 0.000000 0.000000 0.039629 0.000000
# 6 0.000000 0.000000 0.000000 0.000000 0.000000 0.051847
#
#
# Mechanical properties :
#
#
# Convention : Reuss Voigt Hill
#
# Bulk Modulus (GPa) = 47.96916 49.72143 48.84529
# Shear Modulus (GPa) = 24.09757 24.70345 24.40051
#
# Velocity S-wave (km/s) = 3.53950 3.58372 3.56168
# Velocity P-wave (km/s) = 6.45312 6.55543 6.50448
#
# Compressibility (1/GPa) = 0.02084673
#
# Stress axis : x y z
#
# Youngs Moduli (GPa) = 64.59166 64.59242 70.53142
#
# Poissons Ratio (x) = 0.11053 0.36804
# Poissons Ratio (y) = 0.11053 0.36804
# Poissons Ratio (z) = 0.33705 0.33705
#
# Static dielectric constant tensor:
#      x y z
#    x 3.535670 0.000000 0.000000 
#    y 0.000000 3.535680 0.000000 
#    z 0.000000 0.000000 3.430320 
# 
# 
# High freq. dielectric constant tensor:
#      x y z
#    x 1.742580 0.000000 0.000000 
#    y 0.000000 1.742580 0.000000 
#    z 0.000000 0.000000 1.728500 
# 
# From -- ./inp_files/4264.got.cif
#   From: 2010.03.12/outbox.cif.g09.slc.cpg/sg111_3_cif.got.tgz:4264.got - 2010.04.14 01:59:48.
