data_PCOD8308139
_publ_section_title
;
Structure prediction by ZEFSAII (Michael W. Deem and Ramdas Pophale) SiO2 
 PCOD8308139
Probable space group: P -4 2 M 
;
_chemical_formula_sum "Si O2"
_cell_formula_units_Z 40
_cell_length_a 13.975127
_cell_length_b 13.975127
_cell_length_c 12.843679
_cell_angle_alpha 90.000000
_cell_angle_beta 90.000000
_cell_angle_gamma 90.000000
_cell_volume 2508.424127
_symmetry_space_group_name_H-M "P -4 2 M "
_symmetry_group_IT_number 111
_symmetry_cell_setting 'tetragonal'
loop_
_space_group_symop_operation_xyz
x,y,z
y,-x,-z
-x,-y,z
-y,x,-z
x,-y,-z
-x,y,-z
-y,-x,z
y,x,z
loop_
_atom_site_type_symbol
_atom_site_label
_atom_site_fract_x
_atom_site_fract_y
_atom_site_fract_z
Si Si1 0.890073 0.265044 0.882424
Si Si2 0.734957 0.890073 0.882423
Si Si3 0.606268 0.886809 0.695240
Si Si4 0.886809 0.393732 0.695241
Si Si5 0.268400 0.113420 0.499999
O O1 0.831688 0.168313 0.863073
O O2 0.853570 0.347267 0.804362
O O3 1.000000 0.238549 0.859643
O O4 0.876142 0.303622 0.000001
O O5 0.831689 0.831689 0.863071
O O6 0.652735 0.853570 0.804360
O O7 0.500000 0.841373 0.686544
O O8 0.671649 0.852145 0.600061
O O9 0.597302 1.000000 0.691207
O O10 0.852145 0.328349 0.600063
O O11 0.166309 0.166309 0.500000
O O12 0.248504 0.000000 0.500000
#
# Coordination Sequence:
#
# PCOD8308139 Si02
#       5
#     8   8   8   8   8
#     4   9  17  28  42  62  89 119 148 177 209 249
#     4   9  17  28  42  62  89 119 148 177 209 249
#     4   9  17  29  44  61  83 113 147 181 217 252
#     4   9  17  29  44  61  83 113 147 181 217 252
#     4  10  19  30  45  65  90 118 145 173 206 249
#
# _framework density 15.946266
#
# number of rings (size 3 to 8) (size 9 to 14) (size 15 to 20)
#    0.000    2.800    0.000    1.800    0.000    3.800 
#    0.000    6.000    0.000    7.200    0.000    0.000 
#    0.000   32.800    0.000   17.600    0.000    1.600 
#
# Total GULP energy -495897.437867 kJ/mol
# GULP energy per Si atom -12397.435947 kJ/mol
# Density = 1.590997 g / cm^3
# Si number density = 15.946266 Si / 1000 Ang^3
#
#
#
# Elastic Constant Matrix: (Units=GPa)
#
#
# Indices 1 2 3 4 5 6 
#
# 1 75.6192 41.9390 50.5331 0.0000 0.0000 0.0000
# 2 41.9390 75.6205 50.5329 0.0000 0.0000 0.0000
# 3 50.5331 50.5329 127.7085 0.0000 0.0000 0.0000
# 4 0.0000 0.0000 0.0000 21.6468 0.0000 0.0000
# 5 0.0000 0.0000 0.0000 0.0000 21.6467 0.0000
# 6 0.0000 0.0000 0.0000 0.0000 0.0000 4.6615
#
#
#
# Elastic Compliance Matrix: (Units=1/GPa)
#
#
# Indices 1 2 3 4 5 6 
#
# 1 0.021292 -0.008399 -0.005101 0.000000 0.000000 0.000000
# 2 -0.008399 0.021291 -0.005101 0.000000 0.000000 0.000000
# 3 -0.005101 -0.005101 0.011867 0.000000 0.000000 0.000000
# 4 0.000000 0.000000 0.000000 0.046196 0.000000 0.000000
# 5 0.000000 0.000000 0.000000 0.000000 0.046196 0.000000
# 6 0.000000 0.000000 0.000000 0.000000 0.000000 0.214525
#
#
# Mechanical properties :
#
#
# Convention : Reuss Voigt Hill
#
# Bulk Modulus (GPa) = 57.98334 62.77314 60.37824
# Shear Modulus (GPa) = 12.36644 18.65387 15.51016
#
# Velocity S-wave (km/s) = 2.78781 3.42394 3.12212
# Velocity P-wave (km/s) = 6.84129 7.42173 7.13741
#
# Compressibility (1/GPa) = 0.01724633
#
# Stress axis : x y z
#
# Youngs Moduli (GPa) = 46.96710 46.96838 84.26503
#
# Poissons Ratio (x) = 0.39450 0.42986
# Poissons Ratio (y) = 0.39449 0.42984
# Poissons Ratio (z) = 0.23960 0.23959
#
# Static dielectric constant tensor:
#      x y z
#    x 2.877410 0.000000 0.000000 
#    y 0.000000 2.877410 0.000000 
#    z 0.000000 0.000000 3.343140 
# 
# 
# High freq. dielectric constant tensor:
#      x y z
#    x 1.582650 0.000000 0.000000 
#    y 0.000000 1.582650 0.000000 
#    z 0.000000 0.000000 1.635630 
# 
# From -- ./inp_files/2502.got.cif
#   From: 2010.03.12/outbox.cif.g09.slc.cpg/sg111_2_cif.got.tgz:2502.got - 2010.04.14 01:59:48.
