data_PCOD8308862
_publ_section_title
;
Structure prediction by ZEFSAII (Michael W. Deem and Ramdas Pophale) SiO2 
 PCOD8308862
Probable space group: P -4 21 C
;
_chemical_formula_sum "Si O2"
_cell_formula_units_Z 34
_cell_length_a 11.239927
_cell_length_b 11.239927
_cell_length_c 12.722044
_cell_angle_alpha 90.000000
_cell_angle_beta 90.000000
_cell_angle_gamma 90.000000
_cell_volume 1607.251629
_symmetry_space_group_name_H-M "P -4 21 C"
_symmetry_group_IT_number 114
_symmetry_cell_setting 'tetragonal'
loop_
_space_group_symop_operation_xyz
x,y,z
y,-x,-z
-x,-y,z
-y,x,-z
1/2+x,1/2-y,1/2-z
1/2-x,1/2+y,1/2-z
1/2-y,1/2-x,1/2+z
1/2+y,1/2+x,1/2+z
loop_
_atom_site_type_symbol
_atom_site_label
_atom_site_fract_x
_atom_site_fract_y
_atom_site_fract_z
Si Si1 0.500000 0.500000 0.500000
Si Si2 0.964676 0.680664 0.214096
Si Si3 0.133080 0.550859 0.930605
Si Si4 0.955086 0.316194 0.657643
Si Si5 0.683147 0.398598 0.352655
O O1 0.616512 0.495717 0.424824
O O2 0.882387 0.566546 0.206323
O O3 0.904161 0.786047 0.150295
O O4 0.979962 0.702148 0.339134
O O5 0.094984 0.658586 0.164374
O O6 0.129794 0.690020 0.903236
O O7 0.000000 0.500000 0.949506
O O8 0.213208 0.528925 0.034607
O O9 0.938865 0.199724 0.730634
#
# Coordination Sequence:
#
# PCOD8308862 Si02
#       5
#     2   8   8   8   8
#     4  12  28  44  64  98 140 180 228 280 372 390
#     4  10  20  38  62  94 129 174 223 275 332 399
#     4  11  20  41  68  96 127 176 226 279 339 403
#     4  10  21  39  66  94 131 173 231 272 328 409
#     4  11  25  41  66  99 135 176 223 290 333 418
#
# _framework density 21.154125000000001
#
# number of rings (size 3 to 8) (size 9 to 14) (size 15 to 20)
#    0.000    1.412    7.059    1.412    0.000    7.529 
#    0.000    0.000    0.000    0.000    0.000    0.000 
#    0.000    0.000    0.000    0.000    0.000    0.000 
#
# Total GULP energy -421438.670005 kJ/mol
# GULP energy per Si atom -12395.255000 kJ/mol
# Density = 2.110598 g / cm^3
# Si number density = 21.154125 Si / 1000 Ang^3
#
#
#
# Elastic Constant Matrix: (Units=GPa)
#
#
# Indices 1 2 3 4 5 6 
#
# 1 60.2102 30.2919 36.3986 0.0000 0.0000 0.0000
# 2 30.2919 60.2102 36.3986 0.0000 0.0000 0.0000
# 3 36.3986 36.3986 163.4291 0.0000 0.0000 0.0000
# 4 0.0000 0.0000 0.0000 33.2340 0.0000 0.0000
# 5 0.0000 0.0000 0.0000 0.0000 33.2340 0.0000
# 6 0.0000 0.0000 0.0000 0.0000 0.0000 30.8424
#
#
#
# Elastic Compliance Matrix: (Units=1/GPa)
#
#
# Indices 1 2 3 4 5 6 
#
# 1 0.023443 -0.009982 -0.002998 0.000000 0.000000 0.000000
# 2 -0.009982 0.023443 -0.002998 0.000000 0.000000 0.000000
# 3 -0.002998 -0.002998 0.007454 0.000000 0.000000 0.000000
# 4 0.000000 0.000000 0.000000 0.030090 0.000000 0.000000
# 5 0.000000 0.000000 0.000000 0.000000 0.030090 0.000000
# 6 0.000000 0.000000 0.000000 0.000000 0.000000 0.032423
#
#
# Mechanical properties :
#
#
# Convention : Reuss Voigt Hill
#
# Bulk Modulus (GPa) = 44.67433 54.44750 49.56092
# Shear Modulus (GPa) = 26.82996 31.51277 29.17137
#
# Velocity S-wave (km/s) = 3.56520 3.86382 3.71751
# Velocity P-wave (km/s) = 6.17348 6.76016 6.47347
#
# Compressibility (1/GPa) = 0.02238422
#
# Stress axis : x y z
#
# Youngs Moduli (GPa) = 42.65718 42.65718 134.15122
#
# Poissons Ratio (x) = 0.42579 0.40218
# Poissons Ratio (y) = 0.42579 0.40218
# Poissons Ratio (z) = 0.12789 0.12789
#
# Static dielectric constant tensor:
#      x y z
#    x 3.666360 0.000000 0.000000 
#    y 0.000000 3.666360 0.000000 
#    z 0.000000 0.000000 4.262340 
# 
# 
# High freq. dielectric constant tensor:
#      x y z
#    x 1.802500 0.000000 0.000000 
#    y 0.000000 1.802500 0.000000 
#    z 0.000000 0.000000 1.855390 
# 
# From -- ./inp_files/1405.got.cif
#   From: 2010.03.12/outbox.cif.g09.slc.cpg/sg114_1_cif.got.tgz:1405.got - 2010.04.14 02:08:34.
