data_PCOD8308430
_publ_section_title
;
Structure prediction by ZEFSAII (Michael W. Deem and Ramdas Pophale) SiO2 
 PCOD8308430
Probable space group: P -4 2 C
;
_chemical_formula_sum "Si O2"
_cell_formula_units_Z 36
_cell_length_a 9.145431
_cell_length_b 9.145431
_cell_length_c 19.824107
_cell_angle_alpha 90.000000
_cell_angle_beta 90.000000
_cell_angle_gamma 90.000000
_cell_volume 1658.066665
_symmetry_space_group_name_H-M "P -4 2 C"
_symmetry_group_IT_number 112
_symmetry_cell_setting 'tetragonal'
loop_
_space_group_symop_operation_xyz
x,y,z
y,-x,-z
-x,-y,z
-y,x,-z
x,-y,1/2-z
-x,y,1/2-z
-y,-x,1/2+z
y,x,1/2+z
loop_
_atom_site_type_symbol
_atom_site_label
_atom_site_fract_x
_atom_site_fract_y
_atom_site_fract_z
Si Si1 0.670437 0.470048 0.675575
Si Si2 0.251376 0.857095 0.667903
Si Si3 0.425088 0.292057 0.031379
Si Si4 0.000000 0.000000 0.750000
Si Si5 0.930468 0.782911 0.478226
Si Si6 0.000000 0.500000 0.250000
O O1 0.500000 0.500000 0.683230
O O2 0.742042 0.500000 0.750000
O O3 0.727146 0.312633 0.651309
O O4 0.715277 0.574002 0.613121
O O5 0.241979 0.954225 0.600921
O O6 0.398639 0.895460 0.706675
O O7 0.102785 0.890465 0.708071
O O8 0.316563 0.418841 0.004338
O O9 0.364013 0.134811 0.010110
O O10 0.084006 0.816670 0.512627
#
# Coordination Sequence:
#
# PCOD8308430 Si02
#       6
#     8   8   8   2   8   2
#     4  11  22  38  66  98 133 168 221 290 347 407
#     4  11  23  46  66 101 136 184 237 284 361 420
#     4  11  21  42  65  93 132 172 224 283 343 412
#     4  10  24  42  72  90 144 182 224 298 336 442
#     4  11  25  42  65  94 135 179 229 281 342 421
#     4  10  24  42  74  98 132 186 238 292 344 426
#
# _framework density 21.712033999999999
#
# number of rings (size 3 to 8) (size 9 to 14) (size 15 to 20)
#    0.000    1.111    4.444    2.667    0.000    9.778 
#    0.000    2.778    0.000    0.000    0.000    0.000 
#    0.000    0.000    0.000    0.000    0.000    0.000 
#
# Total GULP energy -446236.891029 kJ/mol
# GULP energy per Si atom -12395.469195 kJ/mol
# Density = 2.166262 g / cm^3
# Si number density = 21.712034 Si / 1000 Ang^3
#
#
#
# Elastic Constant Matrix: (Units=GPa)
#
#
# Indices 1 2 3 4 5 6 
#
# 1 67.0958 25.3843 27.1518 0.0000 0.0000 0.0000
# 2 25.3843 67.0958 27.1518 0.0000 0.0000 0.0000
# 3 27.1518 27.1518 181.6519 0.0000 0.0000 0.0000
# 4 0.0000 0.0000 0.0000 47.4223 0.0000 0.0000
# 5 0.0000 0.0000 0.0000 0.0000 47.4223 0.0000
# 6 0.0000 0.0000 0.0000 0.0000 0.0000 30.8472
#
#
#
# Elastic Compliance Matrix: (Units=1/GPa)
#
#
# Indices 1 2 3 4 5 6 
#
# 1 0.017914 -0.006060 -0.001772 0.000000 0.000000 0.000000
# 2 -0.006060 0.017914 -0.001772 0.000000 0.000000 0.000000
# 3 -0.001772 -0.001772 0.006035 0.000000 0.000000 0.000000
# 4 0.000000 0.000000 0.000000 0.021087 0.000000 0.000000
# 5 0.000000 0.000000 0.000000 0.000000 0.021087 0.000000
# 6 0.000000 0.000000 0.000000 0.000000 0.000000 0.032418
#
#
# Mechanical properties :
#
#
# Convention : Reuss Voigt Hill
#
# Bulk Modulus (GPa) = 44.14103 52.80211 48.47157
# Shear Modulus (GPa) = 34.91285 40.88208 37.89747
#
# Velocity S-wave (km/s) = 4.01433 4.34397 4.18240
# Velocity P-wave (km/s) = 6.46999 7.03791 6.75992
#
# Compressibility (1/GPa) = 0.02265466
#
# Stress axis : x y z
#
# Youngs Moduli (GPa) = 55.82274 55.82274 165.70862
#
# Poissons Ratio (x) = 0.33831 0.29360
# Poissons Ratio (y) = 0.33831 0.29360
# Poissons Ratio (z) = 0.09890 0.09890
#
# Static dielectric constant tensor:
#      x y z
#    x 3.810950 0.000000 0.000000 
#    y 0.000000 3.810950 0.000000 
#    z 0.000000 0.000000 4.385660 
# 
# 
# High freq. dielectric constant tensor:
#      x y z
#    x 1.844250 0.000000 0.000000 
#    y 0.000000 1.844250 0.000000 
#    z 0.000000 0.000000 1.875020 
# 
# From -- ./inp_files/4704.got.cif
#   From: 2010.03.12/outbox.cif.g09.slc.cpg/sg112_3_cif.got.tgz:4704.got - 2010.04.14 02:02:48.
