data_PCOD8308767
_publ_section_title
;
Structure prediction by ZEFSAII (Michael W. Deem and Ramdas Pophale) SiO2 
 PCOD8308767
Probable space group: P -4 21 M 
;
_chemical_formula_sum "Si O2"
_cell_formula_units_Z 40
_cell_length_a 13.581805
_cell_length_b 13.581805
_cell_length_c 9.823419
_cell_angle_alpha 90.000000
_cell_angle_beta 90.000000
_cell_angle_gamma 90.000000
_cell_volume 1812.081181
_symmetry_space_group_name_H-M "P -4 21 M "
_symmetry_group_IT_number 113
_symmetry_cell_setting 'tetragonal'
loop_
_space_group_symop_operation_xyz
x,y,z
y,-x,-z
-x,-y,z
-y,x,-z
1/2+x,1/2-y,-z
1/2-x,1/2+y,-z
1/2-y,1/2-x,z
1/2+y,1/2+x,z
loop_
_atom_site_type_symbol
_atom_site_label
_atom_site_fract_x
_atom_site_fract_y
_atom_site_fract_z
Si Si1 0.580819 0.919182 0.245495
Si Si2 0.730044 0.505872 0.892423
Si Si3 0.300778 0.363171 0.139444
Si Si4 0.920245 0.420245 0.454727
Si Si5 0.511710 0.271458 0.602271
Si Si6 0.806482 0.141146 0.352235
O O1 0.533522 0.833253 0.158469
O O2 0.618044 0.881957 0.395402
O O3 0.500000 0.000000 0.270300
O O4 0.655347 0.414315 0.899264
O O5 0.692596 0.595188 0.797922
O O6 0.742326 0.552165 0.042017
O O7 0.236811 0.263190 0.130301
O O8 0.299713 0.403333 0.292693
O O9 0.834759 0.466815 0.362968
O O10 0.000000 0.500000 0.486741
O O11 0.419676 0.345457 0.603441
O O12 0.559964 0.262244 0.453512
O O13 0.741828 0.241828 0.356166
#
# Coordination Sequence:
#
# PCOD8308767 Si02
#       6
#     4   8   8   4   8   8
#     4  11  22  43  73 105 129 186 247 275 340 414
#     4  12  26  46  74  97 142 190 227 288 346 424
#     4  12  27  47  69 105 141 179 234 290 354 409
#     4  11  22  43  69 107 137 180 239 287 348 396
#     4  12  26  42  72 102 145 184 225 301 350 406
#     4  12  25  45  69 103 140 186 240 283 350 424
#
# _framework density 22.074066999999999
#
# number of rings (size 3 to 8) (size 9 to 14) (size 15 to 20)
#    0.000    0.200    4.000    6.000    0.000    5.600 
#    0.000    2.000    0.000    0.000    0.000    0.000 
#    0.000    0.000    0.000    0.000    0.000    0.000 
#
# Total GULP energy -496178.024363 kJ/mol
# GULP energy per Si atom -12404.450609 kJ/mol
# Density = 2.202383 g / cm^3
# Si number density = 22.074067 Si / 1000 Ang^3
#
#
#
# Elastic Constant Matrix: (Units=GPa)
#
#
# Indices 1 2 3 4 5 6 
#
# 1 94.5671 27.2748 14.1850 0.0000 0.0000 0.0000
# 2 27.2748 94.5595 14.1867 0.0000 0.0000 0.0000
# 3 14.1850 14.1867 67.8466 0.0000 0.0000 0.0000
# 4 0.0000 0.0000 0.0000 40.4804 0.0000 0.0000
# 5 0.0000 0.0000 0.0000 0.0000 40.4806 0.0000
# 6 0.0000 0.0000 0.0000 0.0000 0.0000 43.6735
#
#
#
# Elastic Compliance Matrix: (Units=1/GPa)
#
#
# Indices 1 2 3 4 5 6 
#
# 1 0.011744 -0.003117 -0.001804 0.000000 0.000000 0.000000
# 2 -0.003117 0.011745 -0.001804 0.000000 0.000000 0.000000
# 3 -0.001804 -0.001804 0.015493 0.000000 0.000000 0.000000
# 4 0.000000 0.000000 0.000000 0.024703 0.000000 0.000000
# 5 0.000000 0.000000 0.000000 0.000000 0.024703 0.000000
# 6 0.000000 0.000000 0.000000 0.000000 0.000000 0.022897
#
#
# Mechanical properties :
#
#
# Convention : Reuss Voigt Hill
#
# Bulk Modulus (GPa) = 39.16484 40.91846 40.04165
# Shear Modulus (GPa) = 37.52437 38.34867 37.93652
#
# Velocity S-wave (km/s) = 4.12749 4.17258 4.15010
# Velocity P-wave (km/s) = 6.36364 6.46460 6.41432
#
# Compressibility (1/GPa) = 0.02553311
#
# Stress axis : x y z
#
# Youngs Moduli (GPa) = 85.14985 85.14213 64.54324
#
# Poissons Ratio (x) = 0.26537 0.11641
# Poissons Ratio (y) = 0.26540 0.11645
# Poissons Ratio (z) = 0.15358 0.15362
#
# Static dielectric constant tensor:
#      x y z
#    x 4.015440 0.000000 0.000000 
#    y 0.000000 4.015430 0.000000 
#    z 0.000000 0.000000 3.902330 
# 
# 
# High freq. dielectric constant tensor:
#      x y z
#    x 1.878400 0.000000 0.000000 
#    y 0.000000 1.878400 0.000000 
#    z 0.000000 0.000000 1.868910 
# 
# From -- ./inp_files/1063.got.cif
#   From: 2010.03.12/outbox.cif.g09.slc.cpg/sg113_cif.got.tgz:1063.got - 2010.04.14 02:06:34.
