data_PCOD8308412
_publ_section_title
;
Structure prediction by ZEFSAII (Michael W. Deem and Ramdas Pophale) SiO2 
 PCOD8308412
Probable space group: P -4 2 C
;
_chemical_formula_sum "Si O2"
_cell_formula_units_Z 48
_cell_length_a 14.143910
_cell_length_b 14.143910
_cell_length_c 12.171900
_cell_angle_alpha 90.000000
_cell_angle_beta 90.000000
_cell_angle_gamma 90.000000
_cell_volume 2434.990909
_symmetry_space_group_name_H-M "P -4 2 C"
_symmetry_group_IT_number 112
_symmetry_cell_setting 'tetragonal'
loop_
_space_group_symop_operation_xyz
x,y,z
y,-x,-z
-x,-y,z
-y,x,-z
x,-y,1/2-z
-x,y,1/2-z
-y,-x,1/2+z
y,x,1/2+z
loop_
_atom_site_type_symbol
_atom_site_label
_atom_site_fract_x
_atom_site_fract_y
_atom_site_fract_z
Si Si1 0.598681 0.047611 0.976196
Si Si2 0.889473 0.108308 0.239842
Si Si3 0.811965 0.399692 0.283123
Si Si4 0.783329 0.741533 0.639333
Si Si5 0.122129 0.275577 0.417474
Si Si6 0.894069 0.602477 0.788781
O O1 0.578988 0.101302 0.863603
O O2 0.500000 0.000000 0.010744
O O3 0.689842 0.979729 0.961855
O O4 0.619858 0.115474 0.080296
O O5 0.845353 0.170613 0.338821
O O6 0.872969 0.166433 0.125239
O O7 0.000000 0.102833 0.250000
O O8 0.848529 0.000000 0.250000
O O9 0.764285 0.500000 0.250000
O O10 0.739916 0.330256 0.346298
O O11 0.849823 0.348709 0.175676
O O12 0.804181 0.710396 0.516219
O O13 0.824695 0.675948 0.733441
O O14 0.859836 0.500000 0.750000
O O15 0.000000 0.623015 0.750000
#
# Coordination Sequence:
#
# PCOD8308412 Si02
#       6
#     8   8   8   8   8   8
#     4  12  21  37  67  95 131 168 213 279 338 378
#     4  10  23  40  55  81 125 173 220 258 307 380
#     4  11  25  39  61  93 131 171 213 266 332 392
#     4  11  24  41  64  90 129 169 213 275 320 397
#     4  11  22  38  60  91 123 165 220 269 331 378
#     4  11  21  39  62 103 132 165 215 274 333 386
#
# _framework density 19.712598
#
# number of rings (size 3 to 8) (size 9 to 14) (size 15 to 20)
#    0.000    1.000    5.000    3.000    4.667    1.333 
#    0.000    1.667    0.000    0.500    0.000    0.000 
#    0.000    0.000    0.000    0.000    0.000    0.000 
#
# Total GULP energy -594933.692839 kJ/mol
# GULP energy per Si atom -12394.451934 kJ/mol
# Density = 1.966773 g / cm^3
# Si number density = 19.712598 Si / 1000 Ang^3
#
#
#
# Elastic Constant Matrix: (Units=GPa)
#
#
# Indices 1 2 3 4 5 6 
#
# 1 101.3209 27.3846 35.5774 0.0000 0.0000 0.0000
# 2 27.3846 101.3209 35.5774 0.0000 0.0000 0.0000
# 3 35.5774 35.5774 151.8532 0.0000 0.0000 0.0000
# 4 0.0000 0.0000 0.0000 29.4984 0.0000 0.0000
# 5 0.0000 0.0000 0.0000 0.0000 29.4984 0.0000
# 6 0.0000 0.0000 0.0000 0.0000 0.0000 40.7257
#
#
#
# Elastic Compliance Matrix: (Units=1/GPa)
#
#
# Indices 1 2 3 4 5 6 
#
# 1 0.011225 -0.002300 -0.002091 0.000000 0.000000 0.000000
# 2 -0.002300 0.011225 -0.002091 0.000000 0.000000 0.000000
# 3 -0.002091 -0.002091 0.007565 0.000000 0.000000 0.000000
# 4 0.000000 0.000000 0.000000 0.033900 0.000000 0.000000
# 5 0.000000 0.000000 0.000000 0.000000 0.033900 0.000000
# 6 0.000000 0.000000 0.000000 0.000000 0.000000 0.024555
#
#
# Mechanical properties :
#
#
# Convention : Reuss Voigt Hill
#
# Bulk Modulus (GPa) = 58.64428 61.28599 59.96514
# Shear Modulus (GPa) = 35.45620 37.00822 36.23221
#
# Velocity S-wave (km/s) = 4.24566 4.33759 4.29187
# Velocity P-wave (km/s) = 7.33815 7.49956 7.41929
#
# Compressibility (1/GPa) = 0.01705196
#
# Stress axis : x y z
#
# Youngs Moduli (GPa) = 89.08307 89.08307 132.18422
#
# Poissons Ratio (x) = 0.20486 0.27643
# Poissons Ratio (y) = 0.20486 0.27643
# Poissons Ratio (z) = 0.18629 0.18629
#
# Static dielectric constant tensor:
#      x y z
#    x 3.778770 0.000000 0.000000 
#    y 0.000000 3.778770 0.000000 
#    z 0.000000 0.000000 2.301470 
# 
# 
# High freq. dielectric constant tensor:
#      x y z
#    x 1.750120 0.000000 0.000000 
#    y 0.000000 1.750120 0.000000 
#    z 0.000000 0.000000 1.787470 
# 
# From -- ./inp_files/2564.got.cif
#   From: 2010.03.12/outbox.cif.g09.slc.cpg/sg112_2_cif.got.tgz:2564.got - 2010.04.14 02:02:48.
