data_PCOD8308515
_publ_section_title
;
Structure prediction by ZEFSAII (Michael W. Deem and Ramdas Pophale) SiO2 
 PCOD8308515
Probable space group: P -4 2 C
;
_chemical_formula_sum "Si O2"
_cell_formula_units_Z 16
_cell_length_a 5.058760
_cell_length_b 5.058760
_cell_length_c 24.683531
_cell_angle_alpha 90.000000
_cell_angle_beta 90.000000
_cell_angle_gamma 90.000000
_cell_volume 631.677544
_symmetry_space_group_name_H-M "P -4 2 C"
_symmetry_group_IT_number 112
_symmetry_cell_setting 'tetragonal'
loop_
_space_group_symop_operation_xyz
x,y,z
y,-x,-z
-x,-y,z
-y,x,-z
x,-y,1/2-z
-x,y,1/2-z
-y,-x,1/2+z
y,x,1/2+z
loop_
_atom_site_type_symbol
_atom_site_label
_atom_site_fract_x
_atom_site_fract_y
_atom_site_fract_z
Si Si1 0.500000 0.000000 0.070977
Si Si2 0.000000 0.000000 0.250000
Si Si3 0.241389 0.679102 0.156758
Si Si4 0.500000 0.500000 0.500000
O O1 0.734917 0.097437 0.110390
O O2 0.404394 0.249629 0.035355
O O3 0.190486 0.817539 0.214165
O O4 0.500000 0.500000 0.161984
O O5 0.000000 0.500000 0.138250
#
# Coordination Sequence:
#
# PCOD8308515 Si02
#       4
#     4   2   8   2
#     4  12  30  57  84 124 164 219 288 356 426 510
#     4  12  30  46  88 126 180 220 288 324 440 490
#     4  12  29  53  82 123 172 225 276 348 414 515
#     4  12  32  52  92 114 164 220 284 360 436 486
#
# _framework density 25.329384000000001
#
# number of rings (size 3 to 8) (size 9 to 14) (size 15 to 20)
#    0.000    0.000    2.500    3.750    3.500   20.000 
#    0.000    0.000    0.000    0.000    0.000    0.000 
#    0.000    0.000    0.000    0.000    0.000    0.000 
#
# Total GULP energy -198471.502042 kJ/mol
# GULP energy per Si atom -12404.468878 kJ/mol
# Density = 2.527173 g / cm^3
# Si number density = 25.329384 Si / 1000 Ang^3
#
#
#
# Elastic Constant Matrix: (Units=GPa)
#
#
# Indices 1 2 3 4 5 6 
#
# 1 201.4986 94.7724 91.7828 0.0000 0.0000 0.0000
# 2 94.7724 201.4986 91.7828 0.0000 0.0000 0.0000
# 3 91.7828 91.7828 193.7727 0.0000 0.0000 0.0000
# 4 0.0000 0.0000 0.0000 37.4508 0.0000 0.0000
# 5 0.0000 0.0000 0.0000 0.0000 37.4508 0.0000
# 6 0.0000 0.0000 0.0000 0.0000 0.0000 30.9262
#
#
#
# Elastic Compliance Matrix: (Units=1/GPa)
#
#
# Indices 1 2 3 4 5 6 
#
# 1 0.007074 -0.002296 -0.002263 0.000000 0.000000 0.000000
# 2 -0.002296 0.007074 -0.002263 0.000000 0.000000 0.000000
# 3 -0.002263 -0.002263 0.007304 0.000000 0.000000 0.000000
# 4 0.000000 0.000000 0.000000 0.026702 0.000000 0.000000
# 5 0.000000 0.000000 0.000000 0.000000 0.026702 0.000000
# 6 0.000000 0.000000 0.000000 0.000000 0.000000 0.032335
#
#
# Mechanical properties :
#
#
# Convention : Reuss Voigt Hill
#
# Bulk Modulus (GPa) = 128.08010 128.16067 128.12038
# Shear Modulus (GPa) = 40.50675 42.39435 41.45055
#
# Velocity S-wave (km/s) = 4.00334 4.09555 4.04971
# Velocity P-wave (km/s) = 8.48791 8.54823 8.51812
#
# Compressibility (1/GPa) = 0.00780761
#
# Stress axis : x y z
#
# Youngs Moduli (GPa) = 141.37200 141.37200 136.90529
#
# Poissons Ratio (x) = 0.32462 0.30979
# Poissons Ratio (y) = 0.32462 0.30979
# Poissons Ratio (z) = 0.31990 0.31990
#
# Static dielectric constant tensor:
#      x y z
#    x 5.715770 0.000000 0.000000 
#    y 0.000000 5.715770 0.000000 
#    z 0.000000 0.000000 5.002540 
# 
# 
# High freq. dielectric constant tensor:
#      x y z
#    x 2.022370 0.000000 0.000000 
#    y 0.000000 2.022370 0.000000 
#    z 0.000000 0.000000 2.026000 
# 
# From -- ./inp_files/5017.got.cif
#   From: 2010.03.12/outbox.cif.g09.slc.cpg/sg112_3_cif.got.tgz:5017.got - 2010.04.14 02:02:48.
