data_PCOD8308965
_publ_section_title
;
Structure prediction by ZEFSAII (Michael W. Deem and Ramdas Pophale) SiO2 
 PCOD8308965
Probable space group: P -4 21 C
;
_chemical_formula_sum "Si O2"
_cell_formula_units_Z 58
_cell_length_a 17.345935
_cell_length_b 17.345935
_cell_length_c 9.223378
_cell_angle_alpha 90.000000
_cell_angle_beta 90.000000
_cell_angle_gamma 90.000000
_cell_volume 2775.143448
_symmetry_space_group_name_H-M "P -4 21 C"
_symmetry_group_IT_number 114
_symmetry_cell_setting 'tetragonal'
loop_
_space_group_symop_operation_xyz
x,y,z
y,-x,-z
-x,-y,z
-y,x,-z
1/2+x,1/2-y,1/2-z
1/2-x,1/2+y,1/2-z
1/2-y,1/2-x,1/2+z
1/2+y,1/2+x,1/2+z
loop_
_atom_site_type_symbol
_atom_site_label
_atom_site_fract_x
_atom_site_fract_y
_atom_site_fract_z
Si Si1 0.573238 0.804379 0.959932
Si Si2 0.855153 0.811339 0.825800
Si Si3 0.500000 0.500000 0.000000
Si Si4 0.822182 0.552683 0.458727
Si Si5 0.207339 0.082898 0.051346
Si Si6 0.081403 0.458710 0.164381
Si Si7 0.691996 0.813578 0.709284
Si Si8 0.495198 0.346514 0.826936
O O1 0.505600 0.867134 0.951100
O O2 0.639901 0.829172 0.848917
O O3 0.541483 0.719610 0.925860
O O4 0.606044 0.804498 0.121995
O O5 0.882214 0.741885 0.930048
O O6 0.776030 0.785138 0.754038
O O7 0.914626 0.828399 0.695605
O O8 0.843722 0.891449 0.914355
O O9 0.427859 0.520578 0.099849
O O10 0.777957 0.472926 0.491535
O O11 0.875925 0.542703 0.318181
O O12 0.872728 0.572674 0.599738
O O13 0.243685 0.160847 0.113806
O O14 0.151412 0.043358 0.168088
O O15 0.000000 0.500000 0.185513
#
# Coordination Sequence:
#
# PCOD8308965 Si02
#       8
#     8   8   2   8   8   8   8   8
#     4  11  23  43  65  98 138 173 226 279 326 417
#     4  11  23  42  70  94 134 177 222 282 336 400
#     4  12  24  44  70  96 124 192 220 290 372 380
#     4  11  26  43  63 103 138 169 236 275 331 416
#     4  10  22  43  65  95 135 176 224 282 335 406
#     4  12  25  42  68  96 142 184 210 281 342 404
#     4  11  21  38  70  96 126 179 224 265 338 401
#     4  10  24  45  64  97 137 164 234 290 327 414
#
# _framework density 20.899820999999999
#
# number of rings (size 3 to 8) (size 9 to 14) (size 15 to 20)
#    0.000    1.103    5.517    2.069    3.862    2.207 
#    4.966    0.000    0.000    0.000    0.000    0.000 
#    0.000    0.000    0.000    0.000    0.000    0.000 
#
# Total GULP energy -719422.819158 kJ/mol
# GULP energy per Si atom -12403.841710 kJ/mol
# Density = 2.085225 g / cm^3
# Si number density = 20.899821 Si / 1000 Ang^3
#
#
#
# Elastic Constant Matrix: (Units=GPa)
#
#
# Indices 1 2 3 4 5 6 
#
# 1 121.1102 56.8492 44.2382 0.0000 0.0000 0.0000
# 2 56.8492 121.1102 44.2382 0.0000 0.0000 0.0000
# 3 44.2382 44.2382 59.4196 0.0000 0.0000 0.0000
# 4 0.0000 0.0000 0.0000 21.0275 0.0000 0.0000
# 5 0.0000 0.0000 0.0000 0.0000 21.0275 0.0000
# 6 0.0000 0.0000 0.0000 0.0000 0.0000 35.0960
#
#
#
# Elastic Compliance Matrix: (Units=1/GPa)
#
#
# Indices 1 2 3 4 5 6 
#
# 1 0.012242 -0.003320 -0.006642 0.000000 0.000000 0.000000
# 2 -0.003320 0.012242 -0.006642 0.000000 0.000000 0.000000
# 3 -0.006642 -0.006642 0.026720 0.000000 0.000000 0.000000
# 4 0.000000 0.000000 0.000000 0.047557 0.000000 0.000000
# 5 0.000000 0.000000 0.000000 0.000000 0.047557 0.000000
# 6 0.000000 0.000000 0.000000 0.000000 0.000000 0.028493
#
#
# Mechanical properties :
#
#
# Convention : Reuss Voigt Hill
#
# Bulk Modulus (GPa) = 55.57341 65.81015 60.69178
# Shear Modulus (GPa) = 23.36270 25.85115 24.60692
#
# Velocity S-wave (km/s) = 3.34704 3.52079 3.43501
# Velocity P-wave (km/s) = 6.44864 6.93431 6.69588
#
# Compressibility (1/GPa) = 0.01799422
#
# Stress axis : x y z
#
# Youngs Moduli (GPa) = 81.68908 81.68908 37.42555
#
# Poissons Ratio (x) = 0.27121 0.24859
# Poissons Ratio (y) = 0.27121 0.24859
# Poissons Ratio (z) = 0.54259 0.54259
#
# Static dielectric constant tensor:
#      x y z
#    x 3.853020 0.000000 0.000000 
#    y 0.000000 3.853020 0.000000 
#    z 0.000000 0.000000 3.707200 
# 
# 
# High freq. dielectric constant tensor:
#      x y z
#    x 1.824240 0.000000 0.000000 
#    y 0.000000 1.824240 0.000000 
#    z 0.000000 0.000000 1.813850 
# 
# From -- ./inp_files/1040.got.cif
#   From: 2010.03.12/outbox.cif.g09.slc.cpg/sg114_1_cif.got.tgz:1040.got - 2010.04.14 02:08:34.
