data_PCOD8308117
_publ_section_title
;
Structure prediction by ZEFSAII (Michael W. Deem and Ramdas Pophale) SiO2 
 PCOD8308117
Probable space group: P -4 2 M 
;
_chemical_formula_sum "Si O2"
_cell_formula_units_Z 64
_cell_length_a 13.949098
_cell_length_b 13.949098
_cell_length_c 16.377590
_cell_angle_alpha 90.000000
_cell_angle_beta 90.000000
_cell_angle_gamma 90.000000
_cell_volume 3186.707816
_symmetry_space_group_name_H-M "P -4 2 M "
_symmetry_group_IT_number 111
_symmetry_cell_setting 'tetragonal'
loop_
_space_group_symop_operation_xyz
x,y,z
y,-x,-z
-x,-y,z
-y,x,-z
x,-y,-z
-x,y,-z
-y,-x,z
y,x,z
loop_
_atom_site_type_symbol
_atom_site_label
_atom_site_fract_x
_atom_site_fract_y
_atom_site_fract_z
Si Si1 0.983597 0.608705 0.905087
Si Si2 0.147491 0.299192 0.200483
Si Si3 0.360562 0.205558 0.818712
Si Si4 0.713113 0.440285 0.576395
Si Si5 0.102991 0.365512 0.488999
Si Si6 0.786695 0.936697 0.360624
Si Si7 0.302660 0.542936 0.761866
Si Si8 0.861474 0.291645 0.341577
O O1 0.871068 0.630697 0.891364
O O2 0.000000 0.500000 0.876698
O O3 0.057295 0.678552 0.857616
O O4 0.000000 0.624209 0.000000
O O5 0.209303 0.209303 0.164580
O O6 0.112076 0.275082 0.290504
O O7 0.214919 0.390121 0.212918
O O8 0.261963 0.261963 0.834092
O O9 0.446012 0.284678 0.813339
O O10 0.359890 0.137335 0.737757
O O11 0.669086 0.500000 0.500000
O O12 0.665233 0.334768 0.574990
O O13 0.827746 0.431593 0.564774
O O14 0.694923 0.485942 0.665486
O O15 0.088648 0.261913 0.446975
O O16 0.149021 0.355488 0.578071
O O17 0.000000 0.416533 0.500000
O O18 0.895818 0.895818 0.361199
O O19 0.783214 0.050353 0.345974
O O20 0.403611 0.596390 0.784097
O O21 0.763999 0.236002 0.332506
#
# Coordination Sequence:
#
# PCOD8308117 Si02
#       8
#     8   8   8   8   8   8   8   8
#     4  11  23  41  67  95 122 153 193 244 302 365
#     4  10  19  36  62  89 117 153 197 244 299 361
#     4  11  23  40  61  90 127 161 195 246 308 363
#     4  11  22  36  53  75 110 157 207 255 294 341
#     4  10  20  33  50  77 110 147 197 251 302 353
#     4  10  18  31  53  77 107 151 197 245 294 347
#     4  10  21  37  60  86 116 161 209 252 306 368
#     4  10  20  32  49  76 113 157 196 243 302 351
#
# _framework density 20.083423
#
# number of rings (size 3 to 8) (size 9 to 14) (size 15 to 20)
#    0.000    1.625    3.750    1.875    0.000    2.875 
#    0.000    1.250    0.000    2.625    0.000    0.875 
#    0.000    0.000    0.000    0.000    0.000    0.000 
#
# Total GULP energy -793283.229578 kJ/mol
# GULP energy per Si atom -12395.050462 kJ/mol
# Density = 2.003771 g / cm^3
# Si number density = 20.083423 Si / 1000 Ang^3
#
#
#
# Elastic Constant Matrix: (Units=GPa)
#
#
# Indices 1 2 3 4 5 6 
#
# 1 84.4578 32.0709 35.4076 0.0000 0.0000 0.0000
# 2 32.0709 84.4569 35.4078 0.0000 0.0000 0.0000
# 3 35.4076 35.4078 83.5307 0.0000 0.0000 0.0000
# 4 0.0000 0.0000 0.0000 8.4400 0.0000 0.0000
# 5 0.0000 0.0000 0.0000 0.0000 8.4530 0.0000
# 6 0.0000 0.0000 0.0000 0.0000 0.0000 36.1174
#
#
#
# Elastic Compliance Matrix: (Units=1/GPa)
#
#
# Indices 1 2 3 4 5 6 
#
# 1 0.015324 -0.003765 -0.004900 0.000000 0.000000 0.000000
# 2 -0.003765 0.015324 -0.004900 0.000000 0.000000 0.000000
# 3 -0.004900 -0.004900 0.016126 0.000000 0.000000 0.000000
# 4 0.000000 0.000000 0.000000 0.118484 0.000000 0.000000
# 5 0.000000 0.000000 0.000000 0.000000 0.118301 0.000000
# 6 0.000000 0.000000 0.000000 0.000000 0.000000 0.027687
#
#
# Mechanical properties :
#
#
# Convention : Reuss Voigt Hill
#
# Bulk Modulus (GPa) = 50.90403 50.91312 50.90857
# Shear Modulus (GPa) = 14.49597 20.57269 17.53433
#
# Velocity S-wave (km/s) = 2.68953 3.20404 2.95799
# Velocity P-wave (km/s) = 5.91997 6.25249 6.08850
#
# Compressibility (1/GPa) = 0.01964481
#
# Stress axis : x y z
#
# Youngs Moduli (GPa) = 65.25719 65.25614 62.01301
#
# Poissons Ratio (x) = 0.24568 0.30385
# Poissons Ratio (y) = 0.24568 0.30386
# Poissons Ratio (z) = 0.31975 0.31975
#
# Static dielectric constant tensor:
#      x y z
#    x 3.648540 0.000000 0.000000 
#    y 0.000000 3.648520 0.000000 
#    z 0.000000 0.000000 2.740480 
# 
# 
# High freq. dielectric constant tensor:
#      x y z
#    x 1.781890 0.000000 0.000000 
#    y 0.000000 1.781890 0.000000 
#    z 0.000000 0.000000 1.762080 
# 
# From -- ./inp_files/3792.got.cif
#   From: 2010.03.12/outbox.cif.g09.slc.cpg/sg111_2_cif.got.tgz:3792.got - 2010.04.14 01:59:48.
