data_PCOD8308905
_publ_section_title
;
Structure prediction by ZEFSAII (Michael W. Deem and Ramdas Pophale) SiO2 
 PCOD8308905
Probable space group: P -4 21 C
;
_chemical_formula_sum "Si O2"
_cell_formula_units_Z 64
_cell_length_a 11.700623
_cell_length_b 11.700623
_cell_length_c 22.769860
_cell_angle_alpha 90.000000
_cell_angle_beta 90.000000
_cell_angle_gamma 90.000000
_cell_volume 3117.298088
_symmetry_space_group_name_H-M "P -4 21 C"
_symmetry_group_IT_number 114
_symmetry_cell_setting 'tetragonal'
loop_
_space_group_symop_operation_xyz
x,y,z
y,-x,-z
-x,-y,z
-y,x,-z
1/2+x,1/2-y,1/2-z
1/2-x,1/2+y,1/2-z
1/2-y,1/2-x,1/2+z
1/2+y,1/2+x,1/2+z
loop_
_atom_site_type_symbol
_atom_site_label
_atom_site_fract_x
_atom_site_fract_y
_atom_site_fract_z
Si Si1 0.789256 0.364612 0.665537
Si Si2 0.130725 0.504846 0.561687
Si Si3 0.615560 0.048331 0.747253
Si Si4 0.387504 0.752509 0.948170
Si Si5 0.127511 0.192967 0.735972
Si Si6 0.470715 0.265738 0.152137
Si Si7 0.649913 0.450515 0.151392
Si Si8 0.409327 0.186914 0.030531
O O1 0.781079 0.420790 0.600942
O O2 0.857017 0.457813 0.702520
O O3 0.666939 0.338474 0.697332
O O4 0.857005 0.248167 0.655744
O O5 0.172271 0.374560 0.564633
O O6 0.130741 0.564721 0.496532
O O7 0.000000 0.500000 0.586127
O O8 0.608438 0.173221 0.775403
O O9 0.707438 0.061414 0.695453
O O10 0.500000 0.000000 0.718216
O O11 0.445308 0.686110 0.892915
O O12 0.285302 0.683385 0.977362
O O13 0.480720 0.769274 0.997218
O O14 0.007308 0.134176 0.716491
O O15 0.221650 0.146422 0.689600
O O16 0.530245 0.387558 0.133291
O O17 0.442295 0.179900 0.099040
#
# Coordination Sequence:
#
# PCOD8308905 Si02
#       8
#     8   8   8   8   8   8   8   8
#     4  11  21  37  61  90 118 162 217 258 305 385
#     4  10  21  40  64  91 115 167 218 260 311 397
#     4  11  22  37  60  88 123 168 213 254 316 379
#     4  11  23  38  66  91 123 166 207 264 328 395
#     4  11  23  37  60  90 125 172 205 266 317 381
#     4  11  25  38  58  94 136 164 206 275 325 394
#     4  12  20  40  63  89 132 166 213 260 330 392
#     4  11  23  38  62  95 124 162 210 271 333 377
#
# _framework density 20.530598999999999
#
# number of rings (size 3 to 8) (size 9 to 14) (size 15 to 20)
#    0.000    1.000    6.250    2.250    0.000    2.750 
#    0.000    0.000    0.000    0.375    0.000    0.000 
#    0.000    0.000    0.000    0.000    0.000    0.000 
#
# Total GULP energy -792889.427185 kJ/mol
# GULP energy per Si atom -12388.897300 kJ/mol
# Density = 2.048387 g / cm^3
# Si number density = 20.530599 Si / 1000 Ang^3
#
#
#
# Elastic Constant Matrix: (Units=GPa)
#
#
# Indices 1 2 3 4 5 6 
#
# 1 83.4379 30.8500 28.6735 0.0000 0.0000 0.0000
# 2 30.8500 83.4379 28.6735 0.0000 0.0000 0.0000
# 3 28.6735 28.6735 93.4448 0.0000 0.0000 0.0000
# 4 0.0000 0.0000 0.0000 31.2924 0.0000 0.0000
# 5 0.0000 0.0000 0.0000 0.0000 31.2924 0.0000
# 6 0.0000 0.0000 0.0000 0.0000 0.0000 9.9299
#
#
#
# Elastic Compliance Matrix: (Units=1/GPa)
#
#
# Indices 1 2 3 4 5 6 
#
# 1 0.014679 -0.004337 -0.003174 0.000000 0.000000 0.000000
# 2 -0.004337 0.014679 -0.003174 0.000000 0.000000 0.000000
# 3 -0.003174 -0.003174 0.012649 0.000000 0.000000 0.000000
# 4 0.000000 0.000000 0.000000 0.031957 0.000000 0.000000
# 5 0.000000 0.000000 0.000000 0.000000 0.031957 0.000000
# 6 0.000000 0.000000 0.000000 0.000000 0.000000 0.100706
#
#
# Mechanical properties :
#
#
# Convention : Reuss Voigt Hill
#
# Bulk Modulus (GPa) = 48.45076 48.52382 48.48729
# Shear Modulus (GPa) = 21.28801 25.97785 23.63293
#
# Velocity S-wave (km/s) = 3.22357 3.56100 3.39648
# Velocity P-wave (km/s) = 6.12420 6.37133 6.24898
#
# Compressibility (1/GPa) = 0.02063951
#
# Stress axis : x y z
#
# Youngs Moduli (GPa) = 68.12454 68.12454 79.05711
#
# Poissons Ratio (x) = 0.29544 0.25089
# Poissons Ratio (y) = 0.29544 0.25089
# Poissons Ratio (z) = 0.21619 0.21619
#
# Static dielectric constant tensor:
#      x y z
#    x 3.811360 0.000000 0.000000 
#    y 0.000000 3.811360 0.000000 
#    z 0.000000 0.000000 3.920220 
# 
# 
# High freq. dielectric constant tensor:
#      x y z
#    x 1.798420 0.000000 0.000000 
#    y 0.000000 1.798420 0.000000 
#    z 0.000000 0.000000 1.793750 
# 
# From -- ./inp_files/3568.got.cif
#   From: 2010.03.12/outbox.cif.g09.slc.cpg/sg114_2_cif.got.tgz:3568.got - 2010.04.14 02:08:34.
