data_PCOD8308366
_publ_section_title
;
Structure prediction by ZEFSAII (Michael W. Deem and Ramdas Pophale) SiO2 
 PCOD8308366
Probable space group: P -4 2 C
;
_chemical_formula_sum "Si O2"
_cell_formula_units_Z 46
_cell_length_a 11.445029
_cell_length_b 11.445029
_cell_length_c 16.468269
_cell_angle_alpha 90.000000
_cell_angle_beta 90.000000
_cell_angle_gamma 90.000000
_cell_volume 2157.156963
_symmetry_space_group_name_H-M "P -4 2 C"
_symmetry_group_IT_number 112
_symmetry_cell_setting 'tetragonal'
loop_
_space_group_symop_operation_xyz
x,y,z
y,-x,-z
-x,-y,z
-y,x,-z
x,-y,1/2-z
-x,y,1/2-z
-y,-x,1/2+z
y,x,1/2+z
loop_
_atom_site_type_symbol
_atom_site_label
_atom_site_fract_x
_atom_site_fract_y
_atom_site_fract_z
Si Si1 0.416748 0.095190 0.586082
Si Si2 0.022548 0.823488 0.129227
Si Si3 0.569838 0.348929 0.960473
Si Si4 0.000000 0.000000 0.500000
Si Si5 0.500000 0.789581 0.750000
Si Si6 0.685218 0.624229 0.710548
Si Si7 0.809046 0.127257 0.267447
O O1 0.299258 0.026931 0.601663
O O2 0.400758 0.210625 0.529793
O O3 0.472670 0.131348 0.672367
O O4 0.500000 0.000000 0.542482
O O5 0.913794 0.892581 0.169053
O O6 0.133424 0.808376 0.189009
O O7 0.061867 0.898180 0.051873
O O8 0.613805 0.393629 0.872889
O O9 0.428998 0.366823 0.970855
O O10 0.607828 0.703357 0.771133
O O11 0.716059 0.500000 0.750000
O O12 0.801758 0.700246 0.695123
O O13 0.757049 0.000000 0.250000
#
# Coordination Sequence:
#
# PCOD8308366 Si02
#       7
#     8   8   8   2   4   8   8
#     4  11  23  39  65  99 132 169 226 293 340 399
#     4  11  22  42  67  99 134 173 228 278 337 413
#     4  10  24  44  64  91 141 183 223 278 351 422
#     4  12  24  42  68  96 132 190 220 264 352 438
#     4  10  20  36  66  96 130 160 228 288 338 388
#     4  11  24  41  71 102 128 176 238 285 343 411
#     4  11  21  44  71  99 132 178 224 290 339 404
#
# _framework density 21.324363999999999
#
# number of rings (size 3 to 8) (size 9 to 14) (size 15 to 20)
#    0.000    1.217    5.217    2.087   12.174    1.739 
#    3.130    0.000    0.000    0.000    0.000    0.000 
#    0.000    0.000    0.000    0.000    0.000    0.000 
#
# Total GULP energy -570100.517802 kJ/mol
# GULP energy per Si atom -12393.489517 kJ/mol
# Density = 2.127583 g / cm^3
# Si number density = 21.324364 Si / 1000 Ang^3
#
#
#
# Elastic Constant Matrix: (Units=GPa)
#
#
# Indices 1 2 3 4 5 6 
#
# 1 124.4062 36.5904 36.2330 0.0000 0.0000 0.0000
# 2 36.5904 124.4062 36.2330 0.0000 0.0000 0.0000
# 3 36.2330 36.2330 80.1194 0.0000 0.0000 0.0000
# 4 0.0000 0.0000 0.0000 22.0944 0.0000 0.0000
# 5 0.0000 0.0000 0.0000 0.0000 22.0944 0.0000
# 6 0.0000 0.0000 0.0000 0.0000 0.0000 35.2270
#
#
#
# Elastic Compliance Matrix: (Units=1/GPa)
#
#
# Indices 1 2 3 4 5 6 
#
# 1 0.009593 -0.001794 -0.003527 0.000000 0.000000 0.000000
# 2 -0.001794 0.009593 -0.003527 0.000000 0.000000 0.000000
# 3 -0.003527 -0.003527 0.015671 0.000000 0.000000 0.000000
# 4 0.000000 0.000000 0.000000 0.045260 0.000000 0.000000
# 5 0.000000 0.000000 0.000000 0.000000 0.045260 0.000000
# 6 0.000000 0.000000 0.000000 0.000000 0.000000 0.028387
#
#
# Mechanical properties :
#
#
# Convention : Reuss Voigt Hill
#
# Bulk Modulus (GPa) = 58.27053 60.78273 59.52663
# Shear Modulus (GPa) = 28.21953 30.54154 29.38054
#
# Velocity S-wave (km/s) = 3.64173 3.78860 3.71589
# Velocity P-wave (km/s) = 6.71327 6.90679 6.81072
#
# Compressibility (1/GPa) = 0.01716133
#
# Stress axis : x y z
#
# Youngs Moduli (GPa) = 104.24116 104.24116 63.81064
#
# Poissons Ratio (x) = 0.18704 0.22505
# Poissons Ratio (y) = 0.18704 0.22505
# Poissons Ratio (z) = 0.36765 0.36765
#
# Static dielectric constant tensor:
#      x y z
#    x 3.994350 0.000000 0.000000 
#    y 0.000000 3.994350 0.000000 
#    z 0.000000 0.000000 3.649320 
# 
# 
# High freq. dielectric constant tensor:
#      x y z
#    x 1.840400 0.000000 0.000000 
#    y 0.000000 1.840400 0.000000 
#    z 0.000000 0.000000 1.804960 
# 
# From -- ./inp_files/4177.got.cif
#   From: 2010.03.12/outbox.cif.g09.slc.cpg/sg112_3_cif.got.tgz:4177.got - 2010.04.14 02:02:48.
