data_PCOD8308149
_publ_section_title
;
Structure prediction by ZEFSAII (Michael W. Deem and Ramdas Pophale) SiO2 
 PCOD8308149
Probable space group: P -4 2 M 
;
_chemical_formula_sum "Si O2"
_cell_formula_units_Z 48
_cell_length_a 21.238696
_cell_length_b 21.238696
_cell_length_c 7.617646
_cell_angle_alpha 90.000000
_cell_angle_beta 90.000000
_cell_angle_gamma 90.000000
_cell_volume 3436.184576
_symmetry_space_group_name_H-M "P -4 2 M "
_symmetry_group_IT_number 111
_symmetry_cell_setting 'tetragonal'
loop_
_space_group_symop_operation_xyz
x,y,z
y,-x,-z
-x,-y,z
-y,x,-z
x,-y,-z
-x,y,-z
-y,-x,z
y,x,z
loop_
_atom_site_type_symbol
_atom_site_label
_atom_site_fract_x
_atom_site_fract_y
_atom_site_fract_z
Si Si1 0.975209 0.876976 0.684130
Si Si2 0.879727 0.217348 0.230013
Si Si3 0.347195 0.922013 0.178726
Si Si4 0.907265 0.192263 0.832138
Si Si5 0.430500 0.074370 0.513104
Si Si6 0.930995 0.332490 0.782645
O O1 0.934559 0.934559 0.773078
O O2 0.927237 0.819166 0.639761
O O3 0.000000 0.902435 0.500000
O O4 0.032708 0.852354 0.800606
O O5 0.808651 0.191350 0.249944
O O6 0.879072 0.291695 0.260204
O O7 0.908426 0.203121 0.038988
O O8 0.408247 0.904696 0.292635
O O9 0.328991 0.993952 0.215712
O O10 0.357668 0.907563 0.973127
O O11 0.843880 0.156121 0.770347
O O12 0.908003 0.261261 0.739586
O O13 0.500000 0.105167 0.500000
O O14 0.381276 0.096470 0.361887
O O15 0.436481 0.000000 0.500000
#
# Coordination Sequence:
#
# PCOD8308149 Si02
#       6
#     8   8   8   8   8   8
#     4  11  22  31  39  53  72  94 125 164 203 240
#     4   9  18  31  45  57  70  95 130 160 193 236
#     4   9  16  28  44  58  78  99 120 154 189 230
#     4  10  19  31  45  57  71  96 130 162 196 238
#     4   9  18  29  42  61  78  95 117 144 186 239
#     4   9  17  28  43  60  76  98 124 151 191 235
#
# _framework density 13.968982
#
# number of rings (size 3 to 8) (size 9 to 14) (size 15 to 20)
#    0.000    2.500    1.667    1.000    2.333    1.833 
#    0.000    4.167    0.000    6.000    0.000    0.000 
#    0.000    0.000    0.000    0.000    0.000    0.000 
#
# Total GULP energy -594766.222955 kJ/mol
# GULP energy per Si atom -12390.962978 kJ/mol
# Density = 1.393719 g / cm^3
# Si number density = 13.968982 Si / 1000 Ang^3
#
#
#
# Elastic Constant Matrix: (Units=GPa)
#
#
# Indices 1 2 3 4 5 6 
#
# 1 76.2105 29.7005 28.1301 0.0000 0.0000 0.0000
# 2 29.7005 76.2091 28.1305 0.0000 0.0000 0.0000
# 3 28.1301 28.1305 46.9197 0.0000 0.0000 0.0000
# 4 0.0000 0.0000 0.0000 16.3589 0.0000 0.0000
# 5 0.0000 0.0000 0.0000 0.0000 16.3592 0.0000
# 6 0.0000 0.0000 0.0000 0.0000 0.0000 6.1491
#
#
#
# Elastic Compliance Matrix: (Units=1/GPa)
#
#
# Indices 1 2 3 4 5 6 
#
# 1 0.017677 -0.003823 -0.008306 0.000000 0.000000 0.000000
# 2 -0.003823 0.017678 -0.008307 0.000000 0.000000 0.000000
# 3 -0.008306 -0.008307 0.031273 0.000000 0.000000 0.000000
# 4 0.000000 0.000000 0.000000 0.061129 0.000000 0.000000
# 5 0.000000 0.000000 0.000000 0.000000 0.061128 0.000000
# 6 0.000000 0.000000 0.000000 0.000000 0.000000 0.162624
#
#
# Mechanical properties :
#
#
# Convention : Reuss Voigt Hill
#
# Bulk Modulus (GPa) = 38.82505 41.25127 40.03816
# Shear Modulus (GPa) = 12.46988 15.33199 13.90093
#
# Velocity S-wave (km/s) = 2.99102 3.31656 3.15799
# Velocity P-wave (km/s) = 6.30733 6.65288 6.48241
#
# Compressibility (1/GPa) = 0.02575657
#
# Stress axis : x y z
#
# Youngs Moduli (GPa) = 56.56945 56.56750 31.97657
#
# Poissons Ratio (x) = 0.21628 0.26560
# Poissons Ratio (y) = 0.21629 0.26561
# Poissons Ratio (z) = 0.46986 0.46988
#
# Static dielectric constant tensor:
#      x y z
#    x 2.666660 0.000000 0.000000 
#    y 0.000000 2.666670 0.000000 
#    z 0.000000 0.000000 2.864210 
# 
# 
# High freq. dielectric constant tensor:
#      x y z
#    x 1.493360 0.000000 0.000000 
#    y 0.000000 1.493360 0.000000 
#    z 0.000000 0.000000 1.543110 
# 
# From -- ./inp_files/1768.got.cif
#   From: 2010.03.12/outbox.cif.g09.slc.cpg/sg111_1_cif.got.tgz:1768.got - 2010.04.14 01:59:48.
