data_PCOD8308328
_publ_section_title
;
Structure prediction by ZEFSAII (Michael W. Deem and Ramdas Pophale) SiO2 
 PCOD8308328
Probable space group: P -4 2 C
;
_chemical_formula_sum "Si O2"
_cell_formula_units_Z 48
_cell_length_a 18.890588
_cell_length_b 18.890588
_cell_length_c 9.119270
_cell_angle_alpha 90.000000
_cell_angle_beta 90.000000
_cell_angle_gamma 90.000000
_cell_volume 3254.250849
_symmetry_space_group_name_H-M "P -4 2 C"
_symmetry_group_IT_number 112
_symmetry_cell_setting 'tetragonal'
loop_
_space_group_symop_operation_xyz
x,y,z
y,-x,-z
-x,-y,z
-y,x,-z
x,-y,1/2-z
-x,y,1/2-z
-y,-x,1/2+z
y,x,1/2+z
loop_
_atom_site_type_symbol
_atom_site_label
_atom_site_fract_x
_atom_site_fract_y
_atom_site_fract_z
Si Si1 0.913661 0.383713 0.400151
Si Si2 0.051267 0.194238 0.476263
Si Si3 0.148049 0.142694 0.231985
Si Si4 0.922507 0.354747 0.081948
Si Si5 0.761882 0.109273 0.007497
Si Si6 0.916417 0.487380 0.910672
O O1 0.882758 0.369507 0.236956
O O2 0.889250 0.322194 0.510895
O O3 0.886324 0.457513 0.467828
O O4 0.997598 0.378710 0.392564
O O5 0.077230 0.148949 0.333880
O O6 0.074244 0.152053 0.624021
O O7 0.085817 0.273224 0.467994
O O8 0.967169 0.201535 0.478363
O O9 0.156753 0.210869 0.127686
O O10 0.215612 0.140951 0.337612
O O11 0.893117 0.408095 0.957782
O O12 0.882859 0.500000 0.750000
O O13 0.000000 0.500000 0.901189
#
# Coordination Sequence:
#
# PCOD8308328 Si02
#       6
#     8   8   8   8   8   8
#     4   9  16  27  42  58  79 104 125 148 188 238
#     4  10  19  32  47  61  77 100 130 167 212 255
#     4  10  20  30  46  63  76  96 130 170 208 255
#     4   9  16  27  42  58  79 104 125 148 188 238
#     4  10  19  32  47  61  77 100 130 167 212 255
#     4   9  17  25  37  61  85 101 121 147 179 228
#
# _framework density 14.749936999999999
#
# number of rings (size 3 to 8) (size 9 to 14) (size 15 to 20)
#    0.000    2.500    1.667    1.500    2.333    2.000 
#    0.000    0.000    0.000   35.000    0.000    0.000 
#    0.000    0.000    0.000    0.000    0.000    0.000 
#
# Total GULP energy -594630.882197 kJ/mol
# GULP energy per Si atom -12388.143379 kJ/mol
# Density = 1.471637 g / cm^3
# Si number density = 14.749937 Si / 1000 Ang^3
#
#
#
# Elastic Constant Matrix: (Units=GPa)
#
#
# Indices 1 2 3 4 5 6 
#
# 1 40.5764 26.1353 27.0974 0.0000 0.0000 0.0000
# 2 26.1353 40.5764 27.0974 0.0000 0.0000 0.0000
# 3 27.0974 27.0974 109.1952 0.0000 0.0000 0.0000
# 4 0.0000 0.0000 0.0000 16.6847 0.0000 0.0000
# 5 0.0000 0.0000 0.0000 0.0000 16.6847 0.0000
# 6 0.0000 0.0000 0.0000 0.0000 0.0000 2.2937
#
#
#
# Elastic Compliance Matrix: (Units=1/GPa)
#
#
# Indices 1 2 3 4 5 6 
#
# 1 0.044011 -0.025236 -0.004659 0.000000 0.000000 0.000000
# 2 -0.025236 0.044011 -0.004659 0.000000 0.000000 0.000000
# 3 -0.004659 -0.004659 0.011470 0.000000 0.000000 0.000000
# 4 0.000000 0.000000 0.000000 0.059935 0.000000 0.000000
# 5 0.000000 0.000000 0.000000 0.000000 0.059935 0.000000
# 6 0.000000 0.000000 0.000000 0.000000 0.000000 0.435975
#
#
# Mechanical properties :
#
#
# Convention : Reuss Voigt Hill
#
# Bulk Modulus (GPa) = 32.91255 39.00090 35.95672
# Shear Modulus (GPa) = 6.80668 14.46717 10.63693
#
# Velocity S-wave (km/s) = 2.15052 3.13522 2.68834
# Velocity P-wave (km/s) = 5.34120 6.29324 5.83667
#
# Compressibility (1/GPa) = 0.03038355
#
# Stress axis : x y z
#
# Youngs Moduli (GPa) = 22.72178 22.72178 87.18211
#
# Poissons Ratio (x) = 0.57340 0.40619
# Poissons Ratio (y) = 0.57340 0.40619
# Poissons Ratio (z) = 0.10586 0.10586
#
# Static dielectric constant tensor:
#      x y z
#    x 2.640320 0.000000 0.000000 
#    y 0.000000 2.640320 0.000000 
#    z 0.000000 0.000000 3.246540 
# 
# 
# High freq. dielectric constant tensor:
#      x y z
#    x 1.517830 0.000000 0.000000 
#    y 0.000000 1.517830 0.000000 
#    z 0.000000 0.000000 1.592660 
# 
# From -- ./inp_files/1566.got.cif
#   From: 2010.03.12/outbox.cif.g09.slc.cpg/sg112_1_cif.got.tgz:1566.got - 2010.04.14 02:02:48.
