data_PCOD8308680
_publ_section_title
;
Structure prediction by ZEFSAII (Michael W. Deem and Ramdas Pophale) SiO2 
 PCOD8308680
Probable space group: P -4 21 M 
;
_chemical_formula_sum "Si O2"
_cell_formula_units_Z 56
_cell_length_a 11.383815
_cell_length_b 11.383815
_cell_length_c 20.253553
_cell_angle_alpha 90.000000
_cell_angle_beta 90.000000
_cell_angle_gamma 90.000000
_cell_volume 2624.683128
_symmetry_space_group_name_H-M "P -4 21 M "
_symmetry_group_IT_number 113
_symmetry_cell_setting 'tetragonal'
loop_
_space_group_symop_operation_xyz
x,y,z
y,-x,-z
-x,-y,z
-y,x,-z
1/2+x,1/2-y,-z
1/2-x,1/2+y,-z
1/2-y,1/2-x,z
1/2+y,1/2+x,z
loop_
_atom_site_type_symbol
_atom_site_label
_atom_site_fract_x
_atom_site_fract_y
_atom_site_fract_z
Si Si1 0.950980 0.727918 0.626449
Si Si2 0.184717 0.863085 0.653619
Si Si3 0.058887 0.255220 0.065820
Si Si4 0.749999 0.934859 0.066988
Si Si5 0.204451 0.113272 0.709703
Si Si6 0.678386 0.549955 0.490522
Si Si7 0.343017 0.345880 0.856265
O O1 0.902828 0.597173 0.648973
O O2 0.855910 0.822566 0.648789
O O3 0.956421 0.721103 0.546368
O O4 0.073499 0.774318 0.656293
O O5 0.292066 0.792066 0.684110
O O6 0.218698 0.896781 0.578704
O O7 0.178662 0.975782 0.700291
O O8 0.133040 0.366961 0.094651
O O9 0.146207 0.151449 0.044975
O O10 0.967752 0.204254 0.118982
O O11 0.996318 0.296872 0.999033
O O12 0.640670 0.859331 0.097648
O O13 0.804892 0.025915 0.118879
O O14 0.342210 0.157791 0.711435
O O15 0.142486 0.150743 0.777577
O O16 0.629617 0.421267 0.475707
O O17 0.244019 0.255982 0.880436
#
# Coordination Sequence:
#
# PCOD8308680 Si02
#       7
#     8   8   8   8   8   8   8
#     4  10  20  37  60  85 120 164 208 257 315 376
#     4  11  22  36  59  91 125 161 207 260 319 387
#     4  11  23  39  62  94 131 172 215 264 318 374
#     4  11  23  40  64  96 132 170 217 270 321 378
#     4  10  23  43  64  86 121 166 212 262 314 378
#     4   9  16  31  58  89 118 155 207 259 308 374
#     4  11  24  42  65  95 127 167 218 265 323 391
#
# _framework density 21.335909000000001
#
# number of rings (size 3 to 8) (size 9 to 14) (size 15 to 20)
#    0.000    1.571    2.857    2.143    0.000    5.429 
#    0.000    3.571    0.000    4.286    0.000    0.000 
#    0.000    0.000    0.000    0.000    0.000    0.000 
#
# Total GULP energy -693805.186832 kJ/mol
# GULP energy per Si atom -12389.378336 kJ/mol
# Density = 2.128735 g / cm^3
# Si number density = 21.335909 Si / 1000 Ang^3
#
#
#
# Elastic Constant Matrix: (Units=GPa)
#
#
# Indices 1 2 3 4 5 6 
#
# 1 90.4287 69.1860 28.0823 0.0000 0.0000 0.0000
# 2 69.1860 90.4287 28.0830 0.0000 0.0000 0.0000
# 3 28.0823 28.0830 70.5665 0.0000 0.0000 0.0000
# 4 0.0000 0.0000 0.0000 18.7833 0.0000 0.0000
# 5 0.0000 0.0000 0.0000 0.0000 18.7833 0.0000
# 6 0.0000 0.0000 0.0000 0.0000 0.0000 38.2219
#
#
#
# Elastic Compliance Matrix: (Units=1/GPa)
#
#
# Indices 1 2 3 4 5 6 
#
# 1 0.027180 -0.019895 -0.002899 0.000000 0.000000 0.000000
# 2 -0.019895 0.027180 -0.002900 0.000000 0.000000 0.000000
# 3 -0.002899 -0.002900 0.016479 0.000000 0.000000 0.000000
# 4 0.000000 0.000000 0.000000 0.053239 0.000000 0.000000
# 5 0.000000 0.000000 0.000000 0.000000 0.053239 0.000000
# 6 0.000000 0.000000 0.000000 0.000000 0.000000 0.026163
#
#
# Mechanical properties :
#
#
# Convention : Reuss Voigt Hill
#
# Bulk Modulus (GPa) = 51.40819 55.79184 53.60002
# Shear Modulus (GPa) = 19.13142 23.56255 21.34698
#
# Velocity S-wave (km/s) = 2.99771 3.32680 3.16653
# Velocity P-wave (km/s) = 6.01071 6.40022 6.20852
#
# Compressibility (1/GPa) = 0.01945215
#
# Stress axis : x y z
#
# Youngs Moduli (GPa) = 36.79174 36.79150 60.68474
#
# Poissons Ratio (x) = 0.73196 0.17592
# Poissons Ratio (y) = 0.73197 0.17596
# Poissons Ratio (z) = 0.10666 0.10668
#
# Static dielectric constant tensor:
#      x y z
#    x 3.952530 0.000000 0.000000 
#    y 0.000000 3.952530 0.000000 
#    z 0.000000 0.000000 3.639140 
# 
# 
# High freq. dielectric constant tensor:
#      x y z
#    x 1.835900 0.000000 0.000000 
#    y 0.000000 1.835900 0.000000 
#    z 0.000000 0.000000 1.820840 
# 
# From -- ./inp_files/2687.got.cif
#   From: 2010.03.12/outbox.cif.g09.slc.cpg/sg113_cif.got.tgz:2687.got - 2010.04.14 02:06:34.
