data_PCOD8308746
_publ_section_title
;
Structure prediction by ZEFSAII (Michael W. Deem and Ramdas Pophale) SiO2 
 PCOD8308746
Probable space group: P -4 21 M 
;
_chemical_formula_sum "Si O2"
_cell_formula_units_Z 32
_cell_length_a 10.588650
_cell_length_b 10.588650
_cell_length_c 13.450256
_cell_angle_alpha 90.000000
_cell_angle_beta 90.000000
_cell_angle_gamma 90.000000
_cell_volume 1508.036096
_symmetry_space_group_name_H-M "P -4 21 M "
_symmetry_group_IT_number 113
_symmetry_cell_setting 'tetragonal'
loop_
_space_group_symop_operation_xyz
x,y,z
y,-x,-z
-x,-y,z
-y,x,-z
1/2+x,1/2-y,-z
1/2-x,1/2+y,-z
1/2-y,1/2-x,z
1/2+y,1/2+x,z
loop_
_atom_site_type_symbol
_atom_site_label
_atom_site_fract_x
_atom_site_fract_y
_atom_site_fract_z
Si Si1 0.846484 0.871704 0.036707
Si Si2 0.267248 0.575410 0.380763
Si Si3 0.468048 0.772062 0.415559
Si Si4 0.346960 0.652345 0.738024
O O1 0.736331 0.763670 0.011300
O O2 0.843721 0.907522 0.153026
O O3 0.989905 0.820731 0.013502
O O4 0.166474 0.666474 0.324967
O O5 0.378409 0.653308 0.431317
O O6 0.195874 0.511750 0.472999
O O7 0.334823 0.489109 0.299627
O O8 0.393987 0.893987 0.374054
O O9 0.575412 0.742072 0.336441
O O10 0.294427 0.794427 0.742763
#
# Coordination Sequence:
#
# PCOD8308746 Si02
#       4
#     8   8   8   8
#     4  10  25  47  72 100 133 171 220 282 343 403
#     4  11  23  38  60  91 129 171 212 255 307 372
#     4  11  23  38  60  91 129 171 212 255 307 372
#     4  11  24  42  62  92 127 164 211 262 318 382
#
# _framework density 21.219652
#
# number of rings (size 3 to 8) (size 9 to 14) (size 15 to 20)
#    0.000    1.250    2.500    2.250    7.000    6.000 
#    0.000    5.000    0.000    0.000    0.000    0.000 
#    0.000    0.000    0.000    0.000    0.000    0.000 
#
# Total GULP energy -396454.672589 kJ/mol
# GULP energy per Si atom -12389.208518 kJ/mol
# Density = 2.117136 g / cm^3
# Si number density = 21.219652 Si / 1000 Ang^3
#
#
#
# Elastic Constant Matrix: (Units=GPa)
#
#
# Indices 1 2 3 4 5 6 
#
# 1 42.1835 106.5050 14.8083 0.0000 0.0000 0.0000
# 2 106.5050 42.1830 14.8089 0.0000 0.0000 0.0000
# 3 14.8083 14.8089 90.2087 0.0000 0.0000 0.0000
# 4 0.0000 0.0000 0.0000 14.2167 0.0000 0.0000
# 5 0.0000 0.0000 0.0000 0.0000 14.2170 0.0000
# 6 0.0000 0.0000 0.0000 0.0000 0.0000 32.9167
#
#
#
# Elastic Compliance Matrix: (Units=1/GPa)
#
#
# Indices 1 2 3 4 5 6 
#
# 1 -0.004297 0.011250 -0.001141 0.000000 0.000000 0.000000
# 2 0.011250 -0.004297 -0.001141 0.000000 0.000000 0.000000
# 3 -0.001141 -0.001141 0.011460 0.000000 0.000000 0.000000
# 4 0.000000 0.000000 0.000000 0.070340 0.000000 0.000000
# 5 0.000000 0.000000 0.000000 0.000000 0.070338 0.000000
# 6 0.000000 0.000000 0.000000 0.000000 0.000000 0.030380
#
#
# Mechanical properties :
#
#
# Convention : Reuss Voigt Hill
#
# Bulk Modulus (GPa) = 48.07619 49.64662 48.86141
# Shear Modulus (GPa) = 30.68933 14.83362 22.76147
#
# Velocity S-wave (km/s) = 3.80711 2.64683 3.27870
# Velocity P-wave (km/s) = 6.48314 5.72610 6.11634
#
# Compressibility (1/GPa) = 0.02080032
#
# Stress axis : x y z
#
# Youngs Moduli (GPa) = -232.72184 -232.71773 87.25895
#
# Poissons Ratio (x) = 2.61804 0.09960
# Poissons Ratio (y) = 2.61808 0.09959
# Poissons Ratio (z) = -0.26564 -0.26560
#
# Static dielectric constant tensor:
#      x y z
#    x 4.079070 0.000000 0.000000 
#    y 0.000000 4.079070 0.000000 
#    z 0.000000 0.000000 3.708290 
# 
# 
# High freq. dielectric constant tensor:
#      x y z
#    x 1.844140 0.000000 0.000000 
#    y 0.000000 1.844140 0.000000 
#    z 0.000000 0.000000 1.814510 
# 
# From -- ./inp_files/1548.got.cif
#   From: 2010.03.12/outbox.cif.g09.slc.cpg/sg113_cif.got.tgz:1548.got - 2010.04.14 02:06:34.
