data_PCOD8308550
_publ_section_title
;
Structure prediction by ZEFSAII (Michael W. Deem and Ramdas Pophale) SiO2 
 PCOD8308550
Probable space group: P -4 21 M 
;
_chemical_formula_sum "Si O2"
_cell_formula_units_Z 48
_cell_length_a 15.816672
_cell_length_b 15.816672
_cell_length_c 11.468214
_cell_angle_alpha 90.000000
_cell_angle_beta 90.000000
_cell_angle_gamma 90.000000
_cell_volume 2868.969989
_symmetry_space_group_name_H-M "P -4 21 M "
_symmetry_group_IT_number 113
_symmetry_cell_setting 'tetragonal'
loop_
_space_group_symop_operation_xyz
x,y,z
y,-x,-z
-x,-y,z
-y,x,-z
1/2+x,1/2-y,-z
1/2-x,1/2+y,-z
1/2-y,1/2-x,z
1/2+y,1/2+x,z
loop_
_atom_site_type_symbol
_atom_site_label
_atom_site_fract_x
_atom_site_fract_y
_atom_site_fract_z
Si Si1 0.537966 0.631628 0.510571
Si Si2 0.146966 0.786607 0.685324
Si Si3 0.266515 0.099016 0.071932
Si Si4 0.201828 0.971626 0.743561
Si Si5 0.609763 0.450433 0.048351
Si Si6 0.001121 0.362857 0.104745
O O1 0.597989 0.551517 0.540000
O O2 0.583063 0.693975 0.419480
O O3 0.522172 0.688229 0.624136
O O4 0.217599 0.717599 0.647451
O O5 0.088803 0.750705 0.790550
O O6 0.194357 0.871314 0.726877
O O7 0.314041 0.185960 0.048672
O O8 0.182582 0.111696 0.995232
O O9 0.319410 0.019594 0.020386
O O10 0.294192 0.992445 0.792892
O O11 0.128485 0.004735 0.829364
O O12 0.522379 0.398842 0.053764
O O13 0.090006 0.409995 0.089297
O O14 0.927634 0.427634 0.141823
#
# Coordination Sequence:
#
# PCOD8308550 Si02
#       6
#     8   8   8   8   8   8
#     4   9  20  33  50  72 100 137 173 212 255 302
#     4  10  19  33  52  73 100 136 173 209 252 305
#     4   9  18  32  48  71 100 130 165 202 245 302
#     4  10  19  32  50  75 101 134 166 213 254 304
#     4  10  19  28  47  75 102 128 159 204 253 303
#     4   9  18  33  53  75 100 132 168 208 255 305
#
# _framework density 16.730743
#
# number of rings (size 3 to 8) (size 9 to 14) (size 15 to 20)
#    0.000    2.500    1.667    0.500    2.333    2.000 
#    0.000    0.000    0.000    5.000    0.000    2.333 
#    0.000    0.000    0.000    0.000    0.000    0.000 
#
# Total GULP energy -594975.028319 kJ/mol
# GULP energy per Si atom -12395.313090 kJ/mol
# Density = 1.669266 g / cm^3
# Si number density = 16.730743 Si / 1000 Ang^3
#
#
#
# Elastic Constant Matrix: (Units=GPa)
#
#
# Indices 1 2 3 4 5 6 
#
# 1 92.2862 47.4888 64.9079 0.0000 0.0000 0.0000
# 2 47.4888 92.2875 64.9080 0.0000 0.0000 0.0000
# 3 64.9079 64.9080 111.8330 0.0000 0.0000 0.0000
# 4 0.0000 0.0000 0.0000 26.7035 0.0000 0.0000
# 5 0.0000 0.0000 0.0000 0.0000 26.7031 0.0000
# 6 0.0000 0.0000 0.0000 0.0000 0.0000 21.8479
#
#
#
# Elastic Compliance Matrix: (Units=1/GPa)
#
#
# Indices 1 2 3 4 5 6 
#
# 1 0.018922 -0.003401 -0.009008 0.000000 0.000000 0.000000
# 2 -0.003401 0.018921 -0.009008 0.000000 0.000000 0.000000
# 3 -0.009008 -0.009008 0.019399 0.000000 0.000000 0.000000
# 4 0.000000 0.000000 0.000000 0.037448 0.000000 0.000000
# 5 0.000000 0.000000 0.000000 0.000000 0.037449 0.000000
# 6 0.000000 0.000000 0.000000 0.000000 0.000000 0.045771
#
#
# Mechanical properties :
#
#
# Convention : Reuss Voigt Hill
#
# Bulk Modulus (GPa) = 69.41006 72.33513 70.87260
# Shear Modulus (GPa) = 22.16836 22.99102 22.57969
#
# Velocity S-wave (km/s) = 3.64401 3.71101 3.67767
# Velocity P-wave (km/s) = 7.69946 7.85435 7.77729
#
# Compressibility (1/GPa) = 0.01440713
#
# Stress axis : x y z
#
# Youngs Moduli (GPa) = 52.84927 52.85053 51.55012
#
# Poissons Ratio (x) = 0.17974 0.46438
# Poissons Ratio (y) = 0.17974 0.46437
# Poissons Ratio (z) = 0.47608 0.47608
#
# Static dielectric constant tensor:
#      x y z
#    x 3.190990 0.000000 0.000000 
#    y 0.000000 3.190990 0.000000 
#    z 0.000000 0.000000 3.079330 
# 
# 
# High freq. dielectric constant tensor:
#      x y z
#    x 1.645290 0.000000 0.000000 
#    y 0.000000 1.645290 0.000000 
#    z 0.000000 0.000000 1.632620 
# 
# From -- ./inp_files/1192.got.cif
#   From: 2010.03.12/outbox.cif.g09.slc.cpg/sg113_cif.got.tgz:1192.got - 2010.04.14 02:06:34.
