data_PCOD8309783
_publ_section_title
;
Structure prediction by ZEFSAII (Michael W. Deem and Ramdas Pophale) SiO2 
 PCOD8309783
Probable space group: P -4 M 2
;
_chemical_formula_sum "Si O2"
_cell_formula_units_Z 48
_cell_length_a 8.161110
_cell_length_b 8.161110
_cell_length_c 34.123900
_cell_angle_alpha 90.000000
_cell_angle_beta 90.000000
_cell_angle_gamma 90.000000
_cell_volume 2272.778559
_symmetry_space_group_name_H-M "P -4 M 2"
_symmetry_group_IT_number 115
_symmetry_cell_setting 'tetragonal'
loop_
_space_group_symop_operation_xyz
x,y,z
y,-x,-z
-x,-y,z
-y,x,-z
y,x,-z
-y,-x,-z
-x,y,z
x,-y,z
loop_
_atom_site_type_symbol
_atom_site_label
_atom_site_fract_x
_atom_site_fract_y
_atom_site_fract_z
Si Si1 0.822410 0.310573 0.538030
Si Si2 0.695337 0.500000 0.745572
Si Si3 0.315098 0.816622 0.961735
Si Si4 0.314308 0.194988 0.377487
Si Si5 0.500000 0.194102 0.165797
Si Si6 0.811542 0.184218 0.879335
Si Si7 0.691171 0.180180 0.701103
O O1 0.710344 0.289656 0.500000
O O2 0.846716 0.500000 0.546354
O O3 0.749657 0.243968 0.579416
O O4 0.000000 0.230322 0.529077
O O5 0.500000 0.500000 0.743434
O O6 0.757263 0.500000 0.789407
O O7 0.767942 0.334720 0.724916
O O8 0.500000 0.801866 0.946748
O O9 0.204745 0.763514 0.924875
O O10 0.269516 0.000000 0.974844
O O11 0.294314 0.705687 0.000000
O O12 0.500000 0.258149 0.370705
O O13 0.199714 0.275450 0.344983
O O14 0.306174 0.000000 0.374500
O O15 0.332044 0.267809 0.146432
O O16 0.500000 0.000000 0.159863
O O17 0.000000 0.171110 0.868104
O O18 0.732486 0.000000 0.872246
O O19 0.500000 0.179331 0.709115
O O20 0.762070 0.000000 0.714114
#
# Coordination Sequence:
#
# PCOD8309783 Si02
#       7
#     8   4   8   8   4   8   8
#     4   9  19  34  50  72 104 141 181 224 268 320
#     4  10  22  40  58  82 116 148 178 226 292 344
#     4  10  21  35  53  80 113 149 190 236 284 334
#     4   9  18  34  55  77 105 142 182 228 282 333
#     4  10  22  38  60  86 110 146 192 236 284 342
#     4   9  19  37  58  80 111 150 191 236 285 339
#     4  10  21  37  58  84 112 144 184 227 278 345
#
# _framework density 21.119520999999999
#
# number of rings (size 3 to 8) (size 9 to 14) (size 15 to 20)
#    0.000    2.500    0.833    1.500    1.167    5.000 
#    0.000    5.000    0.000    0.000    0.000    0.000 
#    0.000    0.000    0.000    0.000    0.000    0.000 
#
# Total GULP energy -594702.710750 kJ/mol
# GULP energy per Si atom -12389.639807 kJ/mol
# Density = 2.107145 g / cm^3
# Si number density = 21.119521 Si / 1000 Ang^3
#
#
#
# Elastic Constant Matrix: (Units=GPa)
#
#
# Indices 1 2 3 4 5 6 
#
# 1 73.9056 24.4521 43.1275 0.0000 0.0000 0.0000
# 2 24.4521 73.9058 43.1278 0.0000 0.0000 0.0000
# 3 43.1275 43.1278 148.3315 0.0000 0.0000 0.0000
# 4 0.0000 0.0000 0.0000 29.6610 0.0000 0.0000
# 5 0.0000 0.0000 0.0000 0.0000 29.6609 0.0000
# 6 0.0000 0.0000 0.0000 0.0000 0.0000 13.1801
#
#
#
# Elastic Compliance Matrix: (Units=1/GPa)
#
#
# Indices 1 2 3 4 5 6 
#
# 1 0.016934 -0.003287 -0.003968 0.000000 0.000000 0.000000
# 2 -0.003287 0.016934 -0.003968 0.000000 0.000000 0.000000
# 3 -0.003968 -0.003968 0.009049 0.000000 0.000000 0.000000
# 4 0.000000 0.000000 0.000000 0.033714 0.000000 0.000000
# 5 0.000000 0.000000 0.000000 0.000000 0.033714 0.000000
# 6 0.000000 0.000000 0.000000 0.000000 0.000000 0.075872
#
#
# Mechanical properties :
#
#
# Convention : Reuss Voigt Hill
#
# Bulk Modulus (GPa) = 48.84978 57.50641 53.17809
# Shear Modulus (GPa) = 23.20335 26.86277 25.03306
#
# Velocity S-wave (km/s) = 3.31821 3.57030 3.44656
# Velocity P-wave (km/s) = 6.15314 6.65463 6.40879
#
# Compressibility (1/GPa) = 0.02047092
#
# Stress axis : x y z
#
# Youngs Moduli (GPa) = 59.05371 59.05380 110.51062
#
# Poissons Ratio (x) = 0.19412 0.43847
# Poissons Ratio (y) = 0.19412 0.43848
# Poissons Ratio (z) = 0.23431 0.23431
#
# Static dielectric constant tensor:
#      x y z
#    x 3.850830 0.000000 0.000000 
#    y 0.000000 3.850830 0.000000 
#    z 0.000000 0.000000 3.780840 
# 
# 
# High freq. dielectric constant tensor:
#      x y z
#    x 1.811840 0.000000 0.000000 
#    y 0.000000 1.811840 0.000000 
#    z 0.000000 0.000000 1.825980 
# 
# From -- ./inp_files/6166.got.cif
#   From: 2010.03.12/outbox.cif.g09.slc.cpg/sg115_4_cif.got.tgz:6166.got - 2010.04.14 02:11:21.
