data_PCOD8309558
_publ_section_title
;
Structure prediction by ZEFSAII (Michael W. Deem and Ramdas Pophale) SiO2 
 PCOD8309558
Probable space group: P -4 M 2
;
_chemical_formula_sum "Si O2"
_cell_formula_units_Z 40
_cell_length_a 9.171442
_cell_length_b 9.171442
_cell_length_c 25.782018
_cell_angle_alpha 90.000000
_cell_angle_beta 90.000000
_cell_angle_gamma 90.000000
_cell_volume 2168.663425
_symmetry_space_group_name_H-M "P -4 M 2"
_symmetry_group_IT_number 115
_symmetry_cell_setting 'tetragonal'
loop_
_space_group_symop_operation_xyz
x,y,z
y,-x,-z
-x,-y,z
-y,x,-z
y,x,-z
-y,-x,-z
-x,y,z
x,-y,z
loop_
_atom_site_type_symbol
_atom_site_label
_atom_site_fract_x
_atom_site_fract_y
_atom_site_fract_z
Si Si1 0.828605 0.332006 0.954524
Si Si2 0.828754 0.332036 0.251306
Si Si3 0.173236 0.164226 0.351587
Si Si4 0.669696 0.667914 0.148636
Si Si5 0.328467 0.169189 0.545899
O O1 0.786026 0.500000 0.964862
O O2 0.760667 0.277392 0.900503
O O3 0.000000 0.309398 0.951577
O O4 0.765752 0.234249 0.000000
O O5 0.788181 0.500000 0.261466
O O6 0.766151 0.239919 0.299559
O O7 0.754024 0.273735 0.199032
O O8 0.000000 0.310081 0.244814
O O9 0.226513 0.254772 0.401301
O O10 0.000000 0.164759 0.349769
O O11 0.234774 0.000000 0.355133
O O12 0.500000 0.690558 0.159336
O O13 0.708616 0.500000 0.137413
O O14 0.266098 0.266098 0.500000
O O15 0.500000 0.193601 0.550848
O O16 0.290359 0.000000 0.535474
#
# Coordination Sequence:
#
# PCOD8309558 Si02
#       5
#     8   8   8   8   8
#     4  10  21  36  54  76 102 133 170 212 258 307
#     4   9  17  30  49  73 100 130 166 207 249 296
#     4   9  17  30  50  75 101 131 168 208 251 300
#     4   9  18  33  52  73  99 133 170 206 249 302
#     4  10  20  34  53  76 102 133 170 212 257 305
#
# _framework density 18.444538999999999
#
# number of rings (size 3 to 8) (size 9 to 14) (size 15 to 20)
#    0.000    2.600    0.000    1.800    0.000    6.400 
#    0.000    3.000    0.000    3.600    0.000    0.000 
#    0.000    0.000    0.000    0.000    0.000    0.000 
#
# Total GULP energy -496091.259615 kJ/mol
# GULP energy per Si atom -12402.281490 kJ/mol
# Density = 1.840256 g / cm^3
# Si number density = 18.444539 Si / 1000 Ang^3
#
#
#
# Elastic Constant Matrix: (Units=GPa)
#
#
# Indices 1 2 3 4 5 6 
#
# 1 71.1307 37.9080 69.2723 0.0000 0.0000 0.0000
# 2 37.9080 71.1322 69.2742 0.0000 0.0000 0.0000
# 3 69.2723 69.2742 188.4578 0.0000 0.0000 0.0000
# 4 0.0000 0.0000 0.0000 35.3029 0.0000 0.0000
# 5 0.0000 0.0000 0.0000 0.0000 35.3027 0.0000
# 6 0.0000 0.0000 0.0000 0.0000 0.0000 20.5340
#
#
#
# Elastic Compliance Matrix: (Units=1/GPa)
#
#
# Indices 1 2 3 4 5 6 
#
# 1 0.023654 -0.006446 -0.006325 0.000000 0.000000 0.000000
# 2 -0.006446 0.023654 -0.006325 0.000000 0.000000 0.000000
# 3 -0.006325 -0.006325 0.009956 0.000000 0.000000 0.000000
# 4 0.000000 0.000000 0.000000 0.028326 0.000000 0.000000
# 5 0.000000 0.000000 0.000000 0.000000 0.028326 0.000000
# 6 0.000000 0.000000 0.000000 0.000000 0.000000 0.048700
#
#
# Mechanical properties :
#
#
# Convention : Reuss Voigt Hill
#
# Bulk Modulus (GPa) = 52.43538 75.95885 64.19712
# Shear Modulus (GPa) = 24.13532 28.51236 26.32384
#
# Velocity S-wave (km/s) = 3.62129 3.93599 3.78191
# Velocity P-wave (km/s) = 6.78052 7.86941 7.34517
#
# Compressibility (1/GPa) = 0.01907109
#
# Stress axis : x y z
#
# Youngs Moduli (GPa) = 42.27684 42.27693 100.43857
#
# Poissons Ratio (x) = 0.27250 0.63529
# Poissons Ratio (y) = 0.27250 0.63532
# Poissons Ratio (z) = 0.26741 0.26742
#
# Static dielectric constant tensor:
#      x y z
#    x 3.341670 0.000000 0.000000 
#    y 0.000000 3.341660 0.000000 
#    z 0.000000 0.000000 3.612380 
# 
# 
# High freq. dielectric constant tensor:
#      x y z
#    x 1.700760 0.000000 0.000000 
#    y 0.000000 1.700760 0.000000 
#    z 0.000000 0.000000 1.730660 
# 
# From -- ./inp_files/5063.got.cif
#   From: 2010.03.12/outbox.cif.g09.slc.cpg/sg115_3_cif.got.tgz:5063.got - 2010.04.14 02:11:21.
