data_PCOD8309172
_publ_section_title
;
Structure prediction by ZEFSAII (Michael W. Deem and Ramdas Pophale) SiO2 
 PCOD8309172
Probable space group: P -4 M 2
;
_chemical_formula_sum "Si O2"
_cell_formula_units_Z 36
_cell_length_a 11.623205
_cell_length_b 11.623205
_cell_length_c 18.357548
_cell_angle_alpha 90.000000
_cell_angle_beta 90.000000
_cell_angle_gamma 90.000000
_cell_volume 2480.084440
_symmetry_space_group_name_H-M "P -4 M 2"
_symmetry_group_IT_number 115
_symmetry_cell_setting 'tetragonal'
loop_
_space_group_symop_operation_xyz
x,y,z
y,-x,-z
-x,-y,z
-y,x,-z
y,x,-z
-y,-x,-z
-x,y,z
x,-y,z
loop_
_atom_site_type_symbol
_atom_site_label
_atom_site_fract_x
_atom_site_fract_y
_atom_site_fract_z
Si Si1 0.135972 0.745383 0.433063
Si Si2 0.862928 0.870129 0.844176
Si Si3 0.136566 0.500000 0.483433
Si Si4 0.744796 0.863467 0.299687
Si Si5 0.500000 0.864371 0.353033
Si Si6 0.866319 0.866319 0.000000
O O1 0.180499 0.819502 0.500000
O O2 0.179594 0.613513 0.441038
O O3 0.178823 0.797667 0.358018
O O4 0.000000 0.751212 0.434319
O O5 0.821780 0.786400 0.779766
O O6 0.000000 0.875479 0.847271
O O7 0.815991 0.000000 0.830468
O O8 0.818390 0.816852 0.922481
O O9 0.188760 0.500000 0.565536
O O10 0.000000 0.500000 0.488907
O O11 0.612558 0.824645 0.308749
O O12 0.761153 0.000000 0.310671
O O13 0.500000 0.000000 0.360641
O O14 0.000000 0.840740 0.006613
#
# Coordination Sequence:
#
# PCOD8309172 Si02
#       6
#     8   8   4   8   4   4
#     4  11  20  29  43  60  79 104 133 167 205 240
#     4   8  13  21  34  56  84 106 126 157 198 243
#     4   9  18  32  42  52  75 111 142 159 192 252
#     4  10  18  27  41  61  83 106 134 170 206 236
#     4   9  16  28  40  52  77 113 140 159 196 248
#     4   7  10  18  32  50  78 112 130 143 186 248
#
# _framework density 14.515634
#
# number of rings (size 3 to 8) (size 9 to 14) (size 15 to 20)
#    0.000    2.778    2.222    2.667    0.000    2.444 
#    0.000    0.000    0.000    2.333    0.000    1.556 
#    0.000    8.889    0.000    0.000    0.000    0.000 
#
# Total GULP energy -445988.226057 kJ/mol
# GULP energy per Si atom -12388.561835 kJ/mol
# Density = 1.448260 g / cm^3
# Si number density = 14.515634 Si / 1000 Ang^3
#
#
#
# Elastic Constant Matrix: (Units=GPa)
#
#
# Indices 1 2 3 4 5 6 
#
# 1 60.2893 23.1650 43.2756 0.0000 0.0000 0.0000
# 2 23.1650 60.2892 43.2761 0.0000 0.0000 0.0000
# 3 43.2756 43.2761 151.1554 0.0000 0.0000 0.0000
# 4 0.0000 0.0000 0.0000 3.7432 0.0000 0.0000
# 5 0.0000 0.0000 0.0000 0.0000 3.7424 0.0000
# 6 0.0000 0.0000 0.0000 0.0000 0.0000 5.7980
#
#
#
# Elastic Compliance Matrix: (Units=1/GPa)
#
#
# Indices 1 2 3 4 5 6 
#
# 1 0.021990 -0.004947 -0.004879 0.000000 0.000000 0.000000
# 2 -0.004947 0.021990 -0.004880 0.000000 0.000000 0.000000
# 3 -0.004879 -0.004880 0.009410 0.000000 0.000000 0.000000
# 4 0.000000 0.000000 0.000000 0.267151 0.000000 0.000000
# 5 0.000000 0.000000 0.000000 0.000000 0.267205 0.000000
# 6 0.000000 0.000000 0.000000 0.000000 0.000000 0.172472
#
#
# Mechanical properties :
#
#
# Convention : Reuss Voigt Hill
#
# Bulk Modulus (GPa) = 41.70456 54.57414 48.13935
# Shear Modulus (GPa) = 6.26863 13.45788 9.86326
#
# Velocity S-wave (km/s) = 2.08036 3.04818 2.60953
# Velocity P-wave (km/s) = 5.87909 7.07580 6.50502
#
# Compressibility (1/GPa) = 0.02397819
#
# Stress axis : x y z
#
# Youngs Moduli (GPa) = 45.47570 45.47524 106.27335
#
# Poissons Ratio (x) = 0.22495 0.51855
# Poissons Ratio (y) = 0.22495 0.51857
# Poissons Ratio (z) = 0.22189 0.22190
#
# Static dielectric constant tensor:
#      x y z
#    x 2.702850 0.000000 0.000000 
#    y 0.000000 2.702840 0.000000 
#    z 0.000000 0.000000 3.312440 
# 
# 
# High freq. dielectric constant tensor:
#      x y z
#    x 1.517970 0.000000 0.000000 
#    y 0.000000 1.517970 0.000000 
#    z 0.000000 0.000000 1.567070 
# 
# From -- ./inp_files/4179.got.cif
#   From: 2010.03.12/outbox.cif.g09.slc.cpg/sg115_3_cif.got.tgz:4179.got - 2010.04.14 02:11:21.
