data_PCOD8309151
_publ_section_title
;
Structure prediction by ZEFSAII (Michael W. Deem and Ramdas Pophale) SiO2 
 PCOD8309151
Probable space group: P -4 M 2
;
_chemical_formula_sum "Si O2"
_cell_formula_units_Z 64
_cell_length_a 20.282946
_cell_length_b 20.282946
_cell_length_c 12.038587
_cell_angle_alpha 90.000000
_cell_angle_beta 90.000000
_cell_angle_gamma 90.000000
_cell_volume 4952.649392
_symmetry_space_group_name_H-M "P -4 M 2"
_symmetry_group_IT_number 115
_symmetry_cell_setting 'tetragonal'
loop_
_space_group_symop_operation_xyz
x,y,z
y,-x,-z
-x,-y,z
-y,x,-z
y,x,-z
-y,-x,-z
-x,y,z
x,-y,z
loop_
_atom_site_type_symbol
_atom_site_label
_atom_site_fract_x
_atom_site_fract_y
_atom_site_fract_z
Si Si1 0.365795 0.077538 1.000000
Si Si2 0.818726 0.925122 0.238014
Si Si3 0.921946 0.427265 0.231716
Si Si4 0.078534 0.692773 0.625149
Si Si5 0.427265 0.078054 0.231715
Si Si6 0.779082 0.116495 1.000000
Si Si7 0.307227 0.921466 0.625149
Si Si8 0.181273 0.925122 0.761986
O O1 0.408263 0.097442 0.893407
O O2 0.299607 0.120839 1.000000
O O3 0.346639 0.000000 0.000000
O O4 0.408263 0.097442 0.106593
O O5 0.755904 0.897165 0.305438
O O6 0.881537 0.881537 0.270996
O O7 0.834614 0.000000 0.272628
O O8 0.804038 0.922975 0.107315
O O9 0.892920 0.500000 0.258704
O O10 0.892855 0.373620 0.317749
O O11 0.000000 0.428947 0.242900
O O12 0.107145 0.626380 0.682250
O O13 0.106011 0.696935 0.500000
O O14 0.000000 0.690574 0.626697
O O15 0.500000 0.107080 0.258704
O O16 0.428946 0.000000 0.242898
O O17 0.804038 0.077025 0.892685
O O18 0.809522 0.190479 0.000000
O O19 0.244096 0.897165 0.694562
O O20 0.309426 0.000000 0.626697
O O21 0.165386 0.000000 0.727372
#
# Coordination Sequence:
#
# PCOD8309151 Si02
#       8
#     8   8   8   8   8   8   8   8
#     4  10  15  24  40  55  76  96 114 145 183 223
#     4  10  19  30  43  57  72  92 121 158 201 245
#     4   9  16  24  37  57  76  94 115 139 172 218
#     4   9  17  28  40  53  71  95 119 145 181 223
#     4   9  16  24  37  57  76  94 115 139 172 218
#     4  10  18  27  42  59  72  92 120 150 190 236
#     4   9  17  28  40  53  71  95 119 145 181 223
#     4  10  19  30  43  57  72  92 121 158 201 245
#
# _framework density 12.922376
#
# number of rings (size 3 to 8) (size 9 to 14) (size 15 to 20)
#    0.000    2.500    2.500    1.500    0.000    2.750 
#    0.000    2.500    0.000    2.250    0.000    3.500 
#    0.000    0.000    0.000    0.000    0.000    0.000 
#
# Total GULP energy -793419.828938 kJ/mol
# GULP energy per Si atom -12397.184827 kJ/mol
# Density = 1.289296 g / cm^3
# Si number density = 12.922376 Si / 1000 Ang^3
#
#
#
# Elastic Constant Matrix: (Units=GPa)
#
#
# Indices 1 2 3 4 5 6 
#
# 1 70.1695 35.0412 30.8177 0.0000 0.0000 0.0000
# 2 35.0412 70.1694 30.8174 0.0000 0.0000 0.0000
# 3 30.8177 30.8174 95.9557 0.0000 0.0000 0.0000
# 4 0.0000 0.0000 0.0000 9.2370 0.0000 0.0000
# 5 0.0000 0.0000 0.0000 0.0000 9.2370 0.0000
# 6 0.0000 0.0000 0.0000 0.0000 0.0000 3.6361
#
#
#
# Elastic Compliance Matrix: (Units=1/GPa)
#
#
# Indices 1 2 3 4 5 6 
#
# 1 0.020087 -0.008380 -0.003760 0.000000 0.000000 0.000000
# 2 -0.008380 0.020087 -0.003760 0.000000 0.000000 0.000000
# 3 -0.003760 -0.003760 0.012837 0.000000 0.000000 0.000000
# 4 0.000000 0.000000 0.000000 0.108260 0.000000 0.000000
# 5 0.000000 0.000000 0.000000 0.000000 0.108261 0.000000
# 6 0.000000 0.000000 0.000000 0.000000 0.000000 0.275021
#
#
# Mechanical properties :
#
#
# Convention : Reuss Voigt Hill
#
# Bulk Modulus (GPa) = 47.14428 47.73858 47.44143
# Shear Modulus (GPa) = 8.57011 13.72990 11.15000
#
# Velocity S-wave (km/s) = 2.57806 3.26312 2.94061
# Velocity P-wave (km/s) = 6.73971 7.15682 6.95140
#
# Compressibility (1/GPa) = 0.02121148
#
# Stress axis : x y z
#
# Youngs Moduli (GPa) = 49.78272 49.78276 77.90201
#
# Poissons Ratio (x) = 0.41717 0.29292
# Poissons Ratio (y) = 0.41717 0.29291
# Poissons Ratio (z) = 0.18719 0.18718
#
# Static dielectric constant tensor:
#      x y z
#    x 2.468590 0.000000 0.000000 
#    y 0.000000 2.468590 0.000000 
#    z 0.000000 0.000000 2.787010 
# 
# 
# High freq. dielectric constant tensor:
#      x y z
#    x 1.455790 0.000000 0.000000 
#    y 0.000000 1.455790 0.000000 
#    z 0.000000 0.000000 1.505700 
# 
# From -- ./inp_files/3252.got.cif
#   From: 2010.03.12/outbox.cif.g09.slc.cpg/sg115_2_cif.got.tgz:3252.got - 2010.04.14 02:11:21.
