data_PCOD8309425
_publ_section_title
;
Structure prediction by ZEFSAII (Michael W. Deem and Ramdas Pophale) SiO2 
 PCOD8309425
Probable space group: P -4 M 2
;
_chemical_formula_sum "Si O2"
_cell_formula_units_Z 44
_cell_length_a 9.207648
_cell_length_b 9.207648
_cell_length_c 28.432597
_cell_angle_alpha 90.000000
_cell_angle_beta 90.000000
_cell_angle_gamma 90.000000
_cell_volume 2410.537799
_symmetry_space_group_name_H-M "P -4 M 2"
_symmetry_group_IT_number 115
_symmetry_cell_setting 'tetragonal'
loop_
_space_group_symop_operation_xyz
x,y,z
y,-x,-z
-x,-y,z
-y,x,-z
y,x,-z
-y,-x,-z
-x,y,z
x,-y,z
loop_
_atom_site_type_symbol
_atom_site_label
_atom_site_fract_x
_atom_site_fract_y
_atom_site_fract_z
Si Si1 0.672682 0.661676 0.868399
Si Si2 0.834703 0.672495 0.675938
Si Si3 0.831454 0.669538 0.406247
Si Si4 0.327217 0.661876 0.234442
Si Si5 0.832680 0.167321 0.500000
Si Si6 0.328477 0.832800 0.958500
O O1 0.500000 0.653757 0.868152
O O2 0.735944 0.500000 0.877910
O O3 0.722078 0.721301 0.816998
O O4 0.728855 0.769133 0.908927
O O5 0.824154 0.500000 0.672984
O O6 0.743306 0.737320 0.633727
O O7 0.768961 0.730752 0.725147
O O8 0.000000 0.726615 0.672590
O O9 0.796623 0.500000 0.406947
O O10 0.784053 0.735542 0.456128
O O11 0.000000 0.701712 0.396373
O O12 0.500000 0.654237 0.234826
O O13 0.264013 0.500000 0.243676
O O14 0.000000 0.194875 0.513458
O O15 0.500000 0.810735 0.963691
O O16 0.283316 0.000000 0.960652
O O17 0.252273 0.747728 0.000000
#
# Coordination Sequence:
#
# PCOD8309425 Si02
#       6
#     8   8   8   8   4   8
#     4   8  14  27  49  73  95 124 164 208 250 292
#     4  10  20  33  51  76 105 137 171 206 246 293
#     4  10  21  36  54  77 104 134 169 208 250 297
#     4   8  14  27  48  72  98 129 165 206 251 294
#     4   9  18  34  54  73  98 134 170 205 248 297
#     4  10  20  33  50  73 100 131 167 205 248 298
#
# _framework density 18.253187
#
# number of rings (size 3 to 8) (size 9 to 14) (size 15 to 20)
#    0.000    2.818    0.000    2.727    0.000    4.000 
#    0.000    3.636    0.000    6.545    0.000    0.000 
#    0.000    0.000    0.000    0.000    0.000    0.000 
#
# Total GULP energy -545510.772222 kJ/mol
# GULP energy per Si atom -12397.972096 kJ/mol
# Density = 1.821164 g / cm^3
# Si number density = 18.253187 Si / 1000 Ang^3
#
#
#
# Elastic Constant Matrix: (Units=GPa)
#
#
# Indices 1 2 3 4 5 6 
#
# 1 56.5902 25.5049 52.8415 0.0000 0.0000 0.0000
# 2 25.5049 56.5955 52.8442 0.0000 0.0000 0.0000
# 3 52.8415 52.8442 163.3765 0.0000 0.0000 0.0000
# 4 0.0000 0.0000 0.0000 -11.3672 0.0000 0.0000
# 5 0.0000 0.0000 0.0000 0.0000 -11.3681 0.0000
# 6 0.0000 0.0000 0.0000 0.0000 0.0000 20.4638
#
#
#
# Elastic Compliance Matrix: (Units=1/GPa)
#
#
# Indices 1 2 3 4 5 6 
#
# 1 0.026520 -0.005648 -0.006751 0.000000 0.000000 0.000000
# 2 -0.005648 0.026517 -0.006750 0.000000 0.000000 0.000000
# 3 -0.006751 -0.006750 0.010488 0.000000 0.000000 0.000000
# 4 0.000000 0.000000 0.000000 -0.087973 0.000000 0.000000
# 5 0.000000 0.000000 0.000000 0.000000 -0.087965 0.000000
# 6 0.000000 0.000000 0.000000 0.000000 0.000000 0.048867
#
#
# Mechanical properties :
#
#
# Convention : Reuss Voigt Hill
#
# Bulk Modulus (GPa) = 39.64013 59.88259 49.76136
# Shear Modulus (GPa) = -296.92381 9.23714 -143.84334
#
# Velocity S-wave (km/s) = -12.76803 2.25201 -8.88682
# Velocity P-wave (km/s) = 13.98569 6.29603 8.83062
#
# Compressibility (1/GPa) = 0.02522696
#
# Stress axis : x y z
#
# Youngs Moduli (GPa) = 37.70764 37.71106 95.35112
#
# Poissons Ratio (x) = 0.21300 0.64367
# Poissons Ratio (y) = 0.21298 0.64365
# Poissons Ratio (z) = 0.25455 0.25456
#
# Static dielectric constant tensor:
#      x y z
#    x 3.296960 0.000000 0.000000 
#    y 0.000000 3.296980 0.000000 
#    z 0.000000 0.000000 3.756940 
# 
# 
# High freq. dielectric constant tensor:
#      x y z
#    x 1.684470 0.000000 0.000000 
#    y 0.000000 1.684470 0.000000 
#    z 0.000000 0.000000 1.726160 
# 
# From -- ./inp_files/5725.got.cif
#   From: 2010.03.12/outbox.cif.g09.slc.cpg/sg115_3_cif.got.tgz:5725.got - 2010.04.14 02:11:21.
