data_PCOD8309692
_publ_section_title
;
Structure prediction by ZEFSAII (Michael W. Deem and Ramdas Pophale) SiO2 
 PCOD8309692
Probable space group: P -4 M 2
;
_chemical_formula_sum "Si O2"
_cell_formula_units_Z 40
_cell_length_a 14.341901
_cell_length_b 14.341901
_cell_length_c 10.049651
_cell_angle_alpha 90.000000
_cell_angle_beta 90.000000
_cell_angle_gamma 90.000000
_cell_volume 2067.113963
_symmetry_space_group_name_H-M "P -4 M 2"
_symmetry_group_IT_number 115
_symmetry_cell_setting 'tetragonal'
loop_
_space_group_symop_operation_xyz
x,y,z
y,-x,-z
-x,-y,z
-y,x,-z
y,x,-z
-y,-x,-z
-x,y,z
x,-y,z
loop_
_atom_site_type_symbol
_atom_site_label
_atom_site_fract_x
_atom_site_fract_y
_atom_site_fract_z
Si Si1 0.291971 0.779493 0.248820
Si Si2 0.605082 0.107560 0.468216
Si Si3 0.106268 0.606102 0.968131
Si Si4 0.394180 0.391802 0.654268
Si Si5 0.691501 0.895044 0.749649
O O1 0.323827 0.835270 0.378467
O O2 0.325502 0.827802 0.114161
O O3 0.331058 0.674039 0.253892
O O4 0.179221 0.776056 0.246413
O O5 0.500000 0.143033 0.440657
O O6 0.627474 0.124513 0.622006
O O7 0.614586 0.000000 0.429071
O O8 0.135336 0.500000 0.938019
O O9 0.000000 0.623504 0.923030
O O10 0.118190 0.625261 0.123777
O O11 0.371862 0.371862 0.500000
O O12 0.500000 0.362574 0.687786
O O13 0.378587 0.500000 0.686562
O O14 0.733905 0.000000 0.745252
#
# Coordination Sequence:
#
# PCOD8309692 Si02
#       5
#     8   8   8   8   8
#     4  12  21  33  56  85 110 138 181 232 278 318
#     4  10  20  35  58  87 114 140 177 227 277 323
#     4  10  21  38  59  82 109 140 177 227 283 331
#     4   9  18  31  47  73 112 152 182 209 253 322
#     4  10  22  38  54  76 111 153 188 218 265 329
#
# _framework density 19.350650999999999
#
# number of rings (size 3 to 8) (size 9 to 14) (size 15 to 20)
#    0.000    1.800    0.000    6.000    0.000    7.200 
#    0.000    0.000    0.000    2.400    0.000   14.000 
#    0.000    0.000    0.000    0.000    0.000    0.000 
#
# Total GULP energy -496123.455974 kJ/mol
# GULP energy per Si atom -12403.086399 kJ/mol
# Density = 1.930661 g / cm^3
# Si number density = 19.350651 Si / 1000 Ang^3
#
#
#
# Elastic Constant Matrix: (Units=GPa)
#
#
# Indices 1 2 3 4 5 6 
#
# 1 105.1655 63.2672 41.2216 0.0000 0.0000 0.0000
# 2 63.2672 105.1655 41.2216 0.0000 0.0000 0.0000
# 3 41.2216 41.2216 92.6911 0.0000 0.0000 0.0000
# 4 0.0000 0.0000 0.0000 30.2627 0.0000 0.0000
# 5 0.0000 0.0000 0.0000 0.0000 30.2627 0.0000
# 6 0.0000 0.0000 0.0000 0.0000 0.0000 31.2821
#
#
#
# Elastic Compliance Matrix: (Units=1/GPa)
#
#
# Indices 1 2 3 4 5 6 
#
# 1 0.015728 -0.008139 -0.003375 0.000000 0.000000 0.000000
# 2 -0.008139 0.015728 -0.003375 0.000000 0.000000 0.000000
# 3 -0.003375 -0.003375 0.013790 0.000000 0.000000 0.000000
# 4 0.000000 0.000000 0.000000 0.033044 0.000000 0.000000
# 5 0.000000 0.000000 0.000000 0.000000 0.033044 0.000000
# 6 0.000000 0.000000 0.000000 0.000000 0.000000 0.031967
#
#
# Mechanical properties :
#
#
# Convention : Reuss Voigt Hill
#
# Bulk Modulus (GPa) = 64.64761 66.04923 65.34842
# Shear Modulus (GPa) = 28.05266 28.84896 28.45081
#
# Velocity S-wave (km/s) = 3.81162 3.86534 3.83858
# Velocity P-wave (km/s) = 7.26996 7.35718 7.31370
#
# Compressibility (1/GPa) = 0.01546848
#
# Stress axis : x y z
#
# Youngs Moduli (GPa) = 63.58020 63.58020 72.51427
#
# Poissons Ratio (x) = 0.51749 0.24474
# Poissons Ratio (y) = 0.51749 0.24474
# Poissons Ratio (z) = 0.21458 0.21458
#
# Static dielectric constant tensor:
#      x y z
#    x 3.595170 0.000000 0.000000 
#    y 0.000000 3.595170 0.000000 
#    z 0.000000 0.000000 3.452470 
# 
# 
# High freq. dielectric constant tensor:
#      x y z
#    x 1.747520 0.000000 0.000000 
#    y 0.000000 1.747520 0.000000 
#    z 0.000000 0.000000 1.755500 
# 
# From -- ./inp_files/1577.got.cif
#   From: 2010.03.12/outbox.cif.g09.slc.cpg/sg115_1_cif.got.tgz:1577.got - 2010.04.14 02:11:21.
