data_PCOD8309453
_publ_section_title
;
Structure prediction by ZEFSAII (Michael W. Deem and Ramdas Pophale) SiO2 
 PCOD8309453
Probable space group: P -4 M 2
;
_chemical_formula_sum "Si O2"
_cell_formula_units_Z 44
_cell_length_a 9.184607
_cell_length_b 9.184607
_cell_length_c 28.466606
_cell_angle_alpha 90.000000
_cell_angle_beta 90.000000
_cell_angle_gamma 90.000000
_cell_volume 2401.357646
_symmetry_space_group_name_H-M "P -4 M 2"
_symmetry_group_IT_number 115
_symmetry_cell_setting 'tetragonal'
loop_
_space_group_symop_operation_xyz
x,y,z
y,-x,-z
-x,-y,z
-y,x,-z
y,x,-z
-y,-x,-z
-x,y,z
x,-y,z
loop_
_atom_site_type_symbol
_atom_site_label
_atom_site_fract_x
_atom_site_fract_y
_atom_site_fract_z
Si Si1 0.330880 0.330880 0.500000
Si Si2 0.665690 0.827193 0.692901
Si Si3 0.327161 0.664262 0.134454
Si Si4 0.828676 0.669216 0.958491
Si Si5 0.327033 0.838986 0.588851
Si Si6 0.168896 0.329510 0.774060
O O1 0.296655 0.500000 0.503803
O O2 0.260302 0.263086 0.452903
O O3 0.500000 0.776591 0.703354
O O4 0.714729 0.778115 0.640429
O O5 0.775953 0.751689 0.728123
O O6 0.677279 0.000000 0.697574
O O7 0.500000 0.662802 0.135702
O O8 0.264651 0.500000 0.132557
O O9 0.274111 0.752869 0.089036
O O10 0.267861 0.743992 0.180947
O O11 0.792142 0.500000 0.968173
O O12 0.000000 0.694437 0.953563
O O13 0.766411 0.766411 0.000000
O O14 0.500000 0.845004 0.586022
O O15 0.261646 0.000000 0.582025
O O16 0.197004 0.500000 0.767271
O O17 0.000000 0.294982 0.781976
#
# Coordination Sequence:
#
# PCOD8309453 Si02
#       6
#     4   8   8   8   8   8
#     4   9  16  26  44  71  96 118 152 197 240 284
#     4   9  18  33  52  72  95 128 170 209 245 292
#     4   9  17  31  53  78 102 131 168 208 249 294
#     4  10  20  34  53  77 105 136 169 206 248 293
#     4   8  15  29  47  66  91 123 156 193 240 290
#     4  10  20  33  50  75 106 135 164 203 252 301
#
# _framework density 18.322966999999998
#
# number of rings (size 3 to 8) (size 9 to 14) (size 15 to 20)
#    0.000    2.818    0.000    2.727    0.000    5.455 
#    0.000    3.636    0.000    9.000    0.000    0.000 
#    0.000    0.000    0.000    0.000    0.000    0.000 
#
# Total GULP energy -545506.051967 kJ/mol
# GULP energy per Si atom -12397.864817 kJ/mol
# Density = 1.828126 g / cm^3
# Si number density = 18.322967 Si / 1000 Ang^3
#
#
#
# Elastic Constant Matrix: (Units=GPa)
#
#
# Indices 1 2 3 4 5 6 
#
# 1 64.6141 35.4909 59.9952 0.0000 0.0000 0.0000
# 2 35.4909 64.6141 59.9952 0.0000 0.0000 0.0000
# 3 59.9952 59.9952 179.7677 0.0000 0.0000 0.0000
# 4 0.0000 0.0000 0.0000 7.5050 0.0000 0.0000
# 5 0.0000 0.0000 0.0000 0.0000 7.5050 0.0000
# 6 0.0000 0.0000 0.0000 0.0000 0.0000 20.7442
#
#
#
# Elastic Compliance Matrix: (Units=1/GPa)
#
#
# Indices 1 2 3 4 5 6 
#
# 1 0.025493 -0.008843 -0.005557 0.000000 0.000000 0.000000
# 2 -0.008843 0.025493 -0.005557 0.000000 0.000000 0.000000
# 3 -0.005557 -0.005557 0.009272 0.000000 0.000000 0.000000
# 4 0.000000 0.000000 0.000000 0.133244 0.000000 0.000000
# 5 0.000000 0.000000 0.000000 0.000000 0.133244 0.000000
# 6 0.000000 0.000000 0.000000 0.000000 0.000000 0.048206
#
#
# Mechanical properties :
#
#
# Convention : Reuss Voigt Hill
#
# Bulk Modulus (GPa) = 49.15241 68.88428 59.01834
# Shear Modulus (GPa) = 11.85821 17.38516 14.62169
#
# Velocity S-wave (km/s) = 2.54673 3.08363 2.82795
# Velocity P-wave (km/s) = 5.96084 7.09609 6.55309
#
# Compressibility (1/GPa) = 0.02034488
#
# Stress axis : x y z
#
# Youngs Moduli (GPa) = 39.22577 39.22577 107.85470
#
# Poissons Ratio (x) = 0.34689 0.59932
# Poissons Ratio (y) = 0.34689 0.59932
# Poissons Ratio (z) = 0.21797 0.21797
#
# Static dielectric constant tensor:
#      x y z
#    x 3.214030 0.000000 0.000000 
#    y 0.000000 3.214030 0.000000 
#    z 0.000000 0.000000 3.744800 
# 
# 
# High freq. dielectric constant tensor:
#      x y z
#    x 1.687630 0.000000 0.000000 
#    y 0.000000 1.687630 0.000000 
#    z 0.000000 0.000000 1.728970 
# 
# From -- ./inp_files/5808.got.cif
#   From: 2010.03.12/outbox.cif.g09.slc.cpg/sg115_3_cif.got.tgz:5808.got - 2010.04.14 02:11:21.
