data_PCOD8309571
_publ_section_title
;
Structure prediction by ZEFSAII (Michael W. Deem and Ramdas Pophale) SiO2 
 PCOD8309571
Probable space group: P -4 M 2
;
_chemical_formula_sum "Si O2"
_cell_formula_units_Z 48
_cell_length_a 9.086167
_cell_length_b 9.086167
_cell_length_c 30.884377
_cell_angle_alpha 90.000000
_cell_angle_beta 90.000000
_cell_angle_gamma 90.000000
_cell_volume 2549.765700
_symmetry_space_group_name_H-M "P -4 M 2"
_symmetry_group_IT_number 115
_symmetry_cell_setting 'tetragonal'
loop_
_space_group_symop_operation_xyz
x,y,z
y,-x,-z
-x,-y,z
-y,x,-z
y,x,-z
-y,-x,-z
-x,y,z
x,-y,z
loop_
_atom_site_type_symbol
_atom_site_label
_atom_site_fract_x
_atom_site_fract_y
_atom_site_fract_z
Si Si1 0.330661 0.329205 0.374766
Si Si2 0.165916 0.174874 0.125140
Si Si3 0.170849 0.328102 0.287972
Si Si4 0.672999 0.829787 0.038817
Si Si5 0.825341 0.668088 0.790199
Si Si6 0.827002 0.331519 0.538381
O O1 0.500000 0.293208 0.363744
O O2 0.307479 0.500000 0.385116
O O3 0.232376 0.278211 0.334429
O O4 0.275420 0.240268 0.416475
O O5 0.250390 0.229024 0.082427
O O6 0.249428 0.236573 0.167298
O O7 0.000000 0.237715 0.124603
O O8 0.165145 0.000000 0.126504
O O9 0.199913 0.500000 0.280424
O O10 0.255621 0.238541 0.251843
O O11 0.000000 0.287845 0.285755
O O12 0.500000 0.807959 0.044210
O O13 0.713303 0.000000 0.029870
O O14 0.731131 0.731131 0.000000
O O15 0.771748 0.500000 0.792168
O O16 0.000000 0.678396 0.788091
O O17 0.768068 0.231933 0.500000
O O18 0.779838 0.500000 0.529848
O O19 0.000000 0.313213 0.541213
#
# Coordination Sequence:
#
# PCOD8309571 Si02
#       6
#     8   8   8   8   8   8
#     4   9  18  34  55  76 101 137 179 219 259 308
#     4   9  17  31  53  79 106 137 174 216 262 313
#     4  10  21  36  54  78 108 141 177 218 264 314
#     4  10  20  34  53  77 105 137 174 216 261 310
#     4  10  20  34  54  80 109 141 177 218 264 314
#     4  10  21  36  55  80 109 140 175 216 262 313
#
# _framework density 18.825258000000002
#
# number of rings (size 3 to 8) (size 9 to 14) (size 15 to 20)
#    0.000    2.333    0.000    2.500    0.000    7.333 
#    0.000    4.167    0.000    5.000    0.000    0.000 
#    0.000    0.000    0.000    0.000    0.000    0.000 
#
# Total GULP energy -595366.416677 kJ/mol
# GULP energy per Si atom -12403.467014 kJ/mol
# Density = 1.878241 g / cm^3
# Si number density = 18.825258 Si / 1000 Ang^3
#
#
#
# Elastic Constant Matrix: (Units=GPa)
#
#
# Indices 1 2 3 4 5 6 
#
# 1 81.0510 36.9863 63.8216 0.0000 0.0000 0.0000
# 2 36.9863 81.0522 63.8231 0.0000 0.0000 0.0000
# 3 63.8216 63.8231 164.7937 0.0000 0.0000 0.0000
# 4 0.0000 0.0000 0.0000 40.6356 0.0000 0.0000
# 5 0.0000 0.0000 0.0000 0.0000 40.6360 0.0000
# 6 0.0000 0.0000 0.0000 0.0000 0.0000 24.6758
#
#
#
# Elastic Compliance Matrix: (Units=1/GPa)
#
#
# Indices 1 2 3 4 5 6 
#
# 1 0.018635 -0.004058 -0.005645 0.000000 0.000000 0.000000
# 2 -0.004058 0.018635 -0.005645 0.000000 0.000000 0.000000
# 3 -0.005645 -0.005645 0.010441 0.000000 0.000000 0.000000
# 4 0.000000 0.000000 0.000000 0.024609 0.000000 0.000000
# 5 0.000000 0.000000 0.000000 0.000000 0.024609 0.000000
# 6 0.000000 0.000000 0.000000 0.000000 0.000000 0.040525
#
#
# Mechanical properties :
#
#
# Convention : Reuss Voigt Hill
#
# Bulk Modulus (GPa) = 58.77904 72.90655 65.84279
# Shear Modulus (GPa) = 28.76479 32.00720 30.38600
#
# Velocity S-wave (km/s) = 3.91319 4.12785 4.02195
# Velocity P-wave (km/s) = 7.19088 7.84417 7.52462
#
# Compressibility (1/GPa) = 0.01701287
#
# Stress axis : x y z
#
# Youngs Moduli (GPa) = 53.66206 53.66213 95.77708
#
# Poissons Ratio (x) = 0.21779 0.54068
# Poissons Ratio (y) = 0.21779 0.54070
# Poissons Ratio (z) = 0.30294 0.30295
#
# Static dielectric constant tensor:
#      x y z
#    x 3.264250 0.000000 0.000000 
#    y 0.000000 3.264260 0.000000 
#    z 0.000000 0.000000 3.599480 
# 
# 
# High freq. dielectric constant tensor:
#      x y z
#    x 1.722070 0.000000 0.000000 
#    y 0.000000 1.722070 0.000000 
#    z 0.000000 0.000000 1.746790 
# 
# From -- ./inp_files/5927.got.cif
#   From: 2010.03.12/outbox.cif.g09.slc.cpg/sg115_3_cif.got.tgz:5927.got - 2010.04.14 02:11:21.
