data_PCOD8309090
_publ_section_title
;
Structure prediction by ZEFSAII (Michael W. Deem and Ramdas Pophale) SiO2 
 PCOD8309090
Probable space group: P -4 21 C
;
_chemical_formula_sum "Si O2"
_cell_formula_units_Z 64
_cell_length_a 11.554289
_cell_length_b 11.554289
_cell_length_c 22.241910
_cell_angle_alpha 90.000000
_cell_angle_beta 90.000000
_cell_angle_gamma 90.000000
_cell_volume 2969.330445
_symmetry_space_group_name_H-M "P -4 21 C"
_symmetry_group_IT_number 114
_symmetry_cell_setting 'tetragonal'
loop_
_space_group_symop_operation_xyz
x,y,z
y,-x,-z
-x,-y,z
-y,x,-z
1/2+x,1/2-y,1/2-z
1/2-x,1/2+y,1/2-z
1/2-y,1/2-x,1/2+z
1/2+y,1/2+x,1/2+z
loop_
_atom_site_type_symbol
_atom_site_label
_atom_site_fract_x
_atom_site_fract_y
_atom_site_fract_z
Si Si1 0.027636 0.267296 0.356500
Si Si2 0.676520 0.554506 0.983521
Si Si3 0.811794 0.624745 0.671179
Si Si4 0.601662 0.081368 0.953620
Si Si5 0.134809 0.032224 0.763912
Si Si6 0.788145 0.592984 0.289579
Si Si7 0.320584 0.515204 0.485674
Si Si8 0.122611 0.709457 0.866124
O O1 0.063828 0.188377 0.412132
O O2 0.140686 0.342339 0.341390
O O3 0.991994 0.183090 0.302434
O O4 0.926833 0.356464 0.377063
O O5 0.792200 0.591878 0.017672
O O6 0.644498 0.423124 0.999316
O O7 0.896903 0.584558 0.618512
O O8 0.708246 0.536684 0.686656
O O9 0.897682 0.642781 0.727105
O O10 0.748827 0.741303 0.649154
O O11 0.500000 0.000000 0.977037
O O12 0.716762 0.016352 0.971711
O O13 0.153822 0.165252 0.780832
O O14 0.000000 0.000000 0.767058
O O15 0.774419 0.459148 0.307857
O O16 0.397853 0.605652 0.523968
O O17 0.275636 0.566209 0.422617
#
# Coordination Sequence:
#
# PCOD8309090 Si02
#       8
#     8   8   8   8   8   8   8   8
#     4  11  25  45  70 102 142 187 243 298 361 435
#     4  11  27  48  73 104 142 195 244 291 355 434
#     4  11  25  44  65 107 141 184 233 304 356 429
#     4  12  27  45  73 106 147 185 236 305 361 424
#     4  11  24  41  71 102 139 186 242 296 368 437
#     4  11  25  43  71 103 136 191 234 291 366 428
#     4  11  26  44  75 110 145 194 245 295 369 435
#     4  12  22  45  72  96 149 183 241 296 359 439
#
# _framework density 21.553681999999998
#
# number of rings (size 3 to 8) (size 9 to 14) (size 15 to 20)
#    0.000    0.750    3.750    2.625    5.250    3.000 
#    0.000    0.000    0.000    0.000    0.000    0.000 
#    0.000    0.000    0.000    0.000    0.000    0.000 
#
# Total GULP energy -793829.462466 kJ/mol
# GULP energy per Si atom -12403.585351 kJ/mol
# Density = 2.150462 g / cm^3
# Si number density = 21.553682 Si / 1000 Ang^3
#
#
#
# Elastic Constant Matrix: (Units=GPa)
#
#
# Indices 1 2 3 4 5 6 
#
# 1 88.3689 23.3872 26.1689 0.0000 0.0000 0.0000
# 2 23.3872 88.3689 26.1689 0.0000 0.0000 0.0000
# 3 26.1689 26.1689 108.6174 0.0000 0.0000 0.0000
# 4 0.0000 0.0000 0.0000 29.9394 0.0000 0.0000
# 5 0.0000 0.0000 0.0000 0.0000 29.9394 0.0000
# 6 0.0000 0.0000 0.0000 0.0000 0.0000 36.5661
#
#
#
# Elastic Compliance Matrix: (Units=1/GPa)
#
#
# Indices 1 2 3 4 5 6 
#
# 1 0.012738 -0.002651 -0.002430 0.000000 0.000000 0.000000
# 2 -0.002651 0.012738 -0.002430 0.000000 0.000000 0.000000
# 3 -0.002430 -0.002430 0.010378 0.000000 0.000000 0.000000
# 4 0.000000 0.000000 0.000000 0.033401 0.000000 0.000000
# 5 0.000000 0.000000 0.000000 0.000000 0.033401 0.000000
# 6 0.000000 0.000000 0.000000 0.000000 0.000000 0.027348
#
#
# Mechanical properties :
#
#
# Convention : Reuss Voigt Hill
#
# Bulk Modulus (GPa) = 48.00849 48.53393 48.27121
# Shear Modulus (GPa) = 32.90166 33.26433 33.08299
#
# Velocity S-wave (km/s) = 3.91128 3.93278 3.92204
# Velocity P-wave (km/s) = 6.53604 6.57183 6.55396
#
# Compressibility (1/GPa) = 0.02082965
#
# Stress axis : x y z
#
# Youngs Moduli (GPa) = 78.50823 78.50823 96.36192
#
# Poissons Ratio (x) = 0.20816 0.23416
# Poissons Ratio (y) = 0.20816 0.23416
# Poissons Ratio (z) = 0.19078 0.19078
#
# Static dielectric constant tensor:
#      x y z
#    x 4.078180 0.000000 0.000000 
#    y 0.000000 4.078180 0.000000 
#    z 0.000000 0.000000 3.920350 
# 
# 
# High freq. dielectric constant tensor:
#      x y z
#    x 1.855840 0.000000 0.000000 
#    y 0.000000 1.855840 0.000000 
#    z 0.000000 0.000000 1.852100 
# 
# From -- ./inp_files/3563.got.cif
#   From: 2010.03.12/outbox.cif.g09.slc.cpg/sg114_2_cif.got.tgz:3563.got - 2010.04.14 02:08:34.
