data_PCOD8309627
_publ_section_title
;
Structure prediction by ZEFSAII (Michael W. Deem and Ramdas Pophale) SiO2 
 PCOD8309627
Probable space group: P -4 M 2
;
_chemical_formula_sum "Si O2"
_cell_formula_units_Z 48
_cell_length_a 9.099155
_cell_length_b 9.099155
_cell_length_c 30.814372
_cell_angle_alpha 90.000000
_cell_angle_beta 90.000000
_cell_angle_gamma 90.000000
_cell_volume 2551.264273
_symmetry_space_group_name_H-M "P -4 M 2"
_symmetry_group_IT_number 115
_symmetry_cell_setting 'tetragonal'
loop_
_space_group_symop_operation_xyz
x,y,z
y,-x,-z
-x,-y,z
-y,x,-z
y,x,-z
-y,-x,-z
-x,y,z
x,-y,z
loop_
_atom_site_type_symbol
_atom_site_label
_atom_site_fract_x
_atom_site_fract_y
_atom_site_fract_z
Si Si1 0.668846 0.828079 0.538167
Si Si2 0.169635 0.172648 0.296238
Si Si3 0.170517 0.170797 0.125650
Si Si4 0.825267 0.665671 0.210472
Si Si5 0.831319 0.672736 0.961538
Si Si6 0.331020 0.327676 0.626724
O O1 0.771991 0.771991 0.500000
O O2 0.500000 0.791365 0.526690
O O3 0.717296 0.747515 0.582025
O O4 0.694106 0.000000 0.544854
O O5 0.231654 0.247620 0.252593
O O6 0.266068 0.227824 0.335942
O O7 0.000000 0.215764 0.304431
O O8 0.189160 0.000000 0.290856
O O9 0.234981 0.258256 0.166856
O O10 0.257282 0.224527 0.083335
O O11 0.000000 0.206262 0.117818
O O12 0.196830 0.000000 0.135020
O O13 0.765026 0.500000 0.212611
O O14 0.000000 0.670666 0.209555
O O15 0.811507 0.500000 0.958113
O O16 0.000000 0.717778 0.970372
O O17 0.731877 0.731877 0.000000
O O18 0.500000 0.290032 0.637829
O O19 0.304988 0.500000 0.621924
#
# Coordination Sequence:
#
# PCOD8309627 Si02
#       6
#     8   8   8   8   8   8
#     4  10  21  37  58  83 110 142 179 219 265 316
#     4  10  20  34  54  80 109 141 178 220 265 312
#     4   9  17  31  52  76 102 133 171 215 262 313
#     4   9  17  30  51  78 105 135 174 219 264 311
#     4  10  21  36  54  77 105 138 176 217 262 313
#     4  10  21  37  57  80 107 141 180 220 264 316
#
# _framework density 18.814202000000002
#
# number of rings (size 3 to 8) (size 9 to 14) (size 15 to 20)
#    0.000    2.333    0.000    2.500    0.000    7.333 
#    0.000    2.500    0.000    3.000    0.000    0.000 
#    0.000    0.000    0.000    0.000    0.000    0.000 
#
# Total GULP energy -595386.815586 kJ/mol
# GULP energy per Si atom -12403.891991 kJ/mol
# Density = 1.877138 g / cm^3
# Si number density = 18.814202 Si / 1000 Ang^3
#
#
#
# Elastic Constant Matrix: (Units=GPa)
#
#
# Indices 1 2 3 4 5 6 
#
# 1 78.8517 39.4687 66.8706 0.0000 0.0000 0.0000
# 2 39.4687 78.8517 66.8706 0.0000 0.0000 0.0000
# 3 66.8706 66.8706 169.9441 0.0000 0.0000 0.0000
# 4 0.0000 0.0000 0.0000 0.0430 0.0000 0.0000
# 5 0.0000 0.0000 0.0000 0.0000 0.0430 0.0000
# 6 0.0000 0.0000 0.0000 0.0000 0.0000 23.8658
#
#
#
# Elastic Compliance Matrix: (Units=1/GPa)
#
#
# Indices 1 2 3 4 5 6 
#
# 1 0.020307 -0.005085 -0.005990 0.000000 0.000000 0.000000
# 2 -0.005085 0.020307 -0.005990 0.000000 0.000000 0.000000
# 3 -0.005990 -0.005990 0.010598 0.000000 0.000000 0.000000
# 4 0.000000 0.000000 0.000000 23.257653 0.000000 0.000000
# 5 0.000000 0.000000 0.000000 0.000000 23.257653 0.000000
# 6 0.000000 0.000000 0.000000 0.000000 0.000000 0.041901
#
#
# Mechanical properties :
#
#
# Convention : Reuss Voigt Hill
#
# Bulk Modulus (GPa) = 58.53679 74.89639 66.71659
# Shear Modulus (GPa) = 0.10719 15.08621 7.59670
#
# Velocity S-wave (km/s) = 0.23894 2.83477 2.01159
# Velocity P-wave (km/s) = 5.59077 7.11403 6.39790
#
# Compressibility (1/GPa) = 0.01708327
#
# Stress axis : x y z
#
# Youngs Moduli (GPa) = 49.24474 49.24474 94.35811
#
# Poissons Ratio (x) = 0.25040 0.56517
# Poissons Ratio (y) = 0.25040 0.56517
# Poissons Ratio (z) = 0.29496 0.29496
#
# Static dielectric constant tensor:
#      x y z
#    x 3.362460 0.000000 0.000000 
#    y 0.000000 3.362460 0.000000 
#    z 0.000000 0.000000 3.616760 
# 
# 
# High freq. dielectric constant tensor:
#      x y z
#    x 1.720430 0.000000 0.000000 
#    y 0.000000 1.720430 0.000000 
#    z 0.000000 0.000000 1.745420 
# 
# From -- ./inp_files/5897.got.cif
#   From: 2010.03.12/outbox.cif.g09.slc.cpg/sg115_3_cif.got.tgz:5897.got - 2010.04.14 02:11:21.
