data_PCOD8309472
_publ_section_title
;
Structure prediction by ZEFSAII (Michael W. Deem and Ramdas Pophale) SiO2 
 PCOD8309472
Probable space group: P -4 M 2
;
_chemical_formula_sum "Si O2"
_cell_formula_units_Z 48
_cell_length_a 9.318685
_cell_length_b 9.318685
_cell_length_c 31.009826
_cell_angle_alpha 90.000000
_cell_angle_beta 90.000000
_cell_angle_gamma 90.000000
_cell_volume 2692.827863
_symmetry_space_group_name_H-M "P -4 M 2"
_symmetry_group_IT_number 115
_symmetry_cell_setting 'tetragonal'
loop_
_space_group_symop_operation_xyz
x,y,z
y,-x,-z
-x,-y,z
-y,x,-z
y,x,-z
-y,-x,-z
-x,y,z
x,-y,z
loop_
_atom_site_type_symbol
_atom_site_label
_atom_site_fract_x
_atom_site_fract_y
_atom_site_fract_z
Si Si1 0.670270 0.838190 0.535474
Si Si2 0.164386 0.167594 0.288341
Si Si3 0.832503 0.331761 0.129527
Si Si4 0.668371 0.832987 0.203528
Si Si5 0.840395 0.829706 0.952943
Si Si6 0.341013 0.170642 0.630309
O O1 0.735059 0.735059 0.500000
O O2 0.500000 0.833264 0.532253
O O3 0.717562 0.782382 0.583151
O O4 0.725962 0.000000 0.527622
O O5 0.261488 0.216726 0.248411
O O6 0.227791 0.240338 0.331424
O O7 0.000000 0.214382 0.279151
O O8 0.175614 0.000000 0.296298
O O9 0.803002 0.500000 0.129031
O O10 0.739390 0.260341 0.166506
O O11 0.777511 0.267722 0.084082
O O12 0.000000 0.296718 0.137313
O O13 0.500000 0.801389 0.205449
O O14 0.700871 0.000000 0.194555
O O15 0.000000 0.766226 0.943907
O O16 0.850215 0.000000 0.953756
O O17 0.780662 0.780662 0.000000
O O18 0.500000 0.233579 0.638132
O O19 0.346756 0.000000 0.630742
#
# Coordination Sequence:
#
# PCOD8309472 Si02
#       6
#     8   8   8   8   8   8
#     4   9  18  32  49  71  99 130 164 201 241 286
#     4   9  17  30  50  74  96 120 155 199 244 290
#     4  10  20  33  51  76 103 131 165 204 244 287
#     4  10  21  36  52  71  98 132 166 200 243 293
#     4   8  14  27  49  74  98 127 164 204 243 283
#     4   8  15  29  48  69  94 123 156 196 240 286
#
# _framework density 17.825126000000001
#
# number of rings (size 3 to 8) (size 9 to 14) (size 15 to 20)
#    0.000    3.000    0.000    2.500    0.000    3.667 
#    0.000    5.000    0.000    6.000    0.000    0.000 
#    0.000    0.000    0.000    0.000    0.000    0.000 
#
# Total GULP energy -595019.076382 kJ/mol
# GULP energy per Si atom -12396.230758 kJ/mol
# Density = 1.778456 g / cm^3
# Si number density = 17.825126 Si / 1000 Ang^3
#
#
#
# Elastic Constant Matrix: (Units=GPa)
#
#
# Indices 1 2 3 4 5 6 
#
# 1 60.2161 37.9466 68.5156 0.0000 0.0000 0.0000
# 2 37.9466 60.2161 68.5156 0.0000 0.0000 0.0000
# 3 68.5156 68.5156 191.2288 0.0000 0.0000 0.0000
# 4 0.0000 0.0000 0.0000 -5.6693 0.0000 0.0000
# 5 0.0000 0.0000 0.0000 0.0000 -5.6693 0.0000
# 6 0.0000 0.0000 0.0000 0.0000 0.0000 20.0648
#
#
#
# Elastic Compliance Matrix: (Units=1/GPa)
#
#
# Indices 1 2 3 4 5 6 
#
# 1 0.032643 -0.012262 -0.007302 0.000000 0.000000 0.000000
# 2 -0.012262 0.032643 -0.007302 0.000000 0.000000 0.000000
# 3 -0.007302 -0.007302 0.010462 0.000000 0.000000 0.000000
# 4 0.000000 0.000000 0.000000 -0.176388 0.000000 0.000000
# 5 0.000000 0.000000 0.000000 0.000000 -0.176388 0.000000
# 6 0.000000 0.000000 0.000000 0.000000 0.000000 0.049839
#
#
# Mechanical properties :
#
#
# Convention : Reuss Voigt Hill
#
# Bulk Modulus (GPa) = 45.42437 73.51295 59.46866
# Shear Modulus (GPa) = -30.09903 10.85743 -9.62080
#
# Velocity S-wave (km/s) = -4.11368 2.47069 -2.32573
# Velocity P-wave (km/s) = 1.72496 7.03348 5.12080
#
# Compressibility (1/GPa) = 0.02201462
#
# Stress axis : x y z
#
# Youngs Moduli (GPa) = 30.63470 30.63470 95.58381
#
# Poissons Ratio (x) = 0.37564 0.69798
# Poissons Ratio (y) = 0.37564 0.69798
# Poissons Ratio (z) = 0.22370 0.22370
#
# Static dielectric constant tensor:
#      x y z
#    x 3.184810 0.000000 0.000000 
#    y 0.000000 3.184810 0.000000 
#    z 0.000000 0.000000 3.709860 
# 
# 
# High freq. dielectric constant tensor:
#      x y z
#    x 1.665540 0.000000 0.000000 
#    y 0.000000 1.665540 0.000000 
#    z 0.000000 0.000000 1.707530 
# 
# From -- ./inp_files/6086.got.cif
#   From: 2010.03.12/outbox.cif.g09.slc.cpg/sg115_4_cif.got.tgz:6086.got - 2010.04.14 02:11:21.
