data_PCOD8309328
_publ_section_title
;
Structure prediction by ZEFSAII (Michael W. Deem and Ramdas Pophale) SiO2 
 PCOD8309328
Probable space group: P -4 M 2
;
_chemical_formula_sum "Si O2"
_cell_formula_units_Z 48
_cell_length_a 9.402784
_cell_length_b 9.402784
_cell_length_c 30.696976
_cell_angle_alpha 90.000000
_cell_angle_beta 90.000000
_cell_angle_gamma 90.000000
_cell_volume 2713.991692
_symmetry_space_group_name_H-M "P -4 M 2"
_symmetry_group_IT_number 115
_symmetry_cell_setting 'tetragonal'
loop_
_space_group_symop_operation_xyz
x,y,z
y,-x,-z
-x,-y,z
-y,x,-z
y,x,-z
-y,-x,-z
-x,y,z
x,-y,z
loop_
_atom_site_type_symbol
_atom_site_label
_atom_site_fract_x
_atom_site_fract_y
_atom_site_fract_z
Si Si1 0.335854 0.832127 0.296343
Si Si2 0.831298 0.158985 0.880980
Si Si3 0.658679 0.833206 0.533883
Si Si4 0.840287 0.168826 0.215119
Si Si5 0.333975 0.163393 0.632784
Si Si6 0.832753 0.333871 0.963121
O O1 0.500000 0.790382 0.294806
O O2 0.265355 0.771613 0.251936
O O3 0.265490 0.758698 0.337573
O O4 0.312569 0.000000 0.300837
O O5 0.774745 0.205054 0.832985
O O6 0.778727 0.271211 0.916937
O O7 0.000000 0.156406 0.879890
O O8 0.775427 0.000000 0.892499
O O9 0.764461 0.764461 0.500000
O O10 0.500000 0.775012 0.525428
O O11 0.705072 0.797262 0.583136
O O12 0.662794 0.000000 0.526387
O O13 0.000000 0.220909 0.225918
O O14 0.834409 0.000000 0.215011
O O15 0.500000 0.189386 0.641614
O O16 0.294254 0.000000 0.642707
O O17 0.797026 0.500000 0.963990
O O18 0.000000 0.305238 0.970274
O O19 0.745499 0.254502 0.000000
#
# Coordination Sequence:
#
# PCOD8309328 Si02
#       6
#     8   8   8   8   8   8
#     4  10  20  31  46  73 105 133 162 199 243 288
#     4   8  14  26  46  71  96 123 158 200 242 284
#     4   9  19  35  53  74  99 126 159 200 244 291
#     4   8  14  26  45  69  97 128 160 195 239 289
#     4   9  19  36  54  70  93 129 169 204 240 285
#     4  10  20  32  48  71  97 127 162 198 240 289
#
# _framework density 17.686125000000001
#
# number of rings (size 3 to 8) (size 9 to 14) (size 15 to 20)
#    0.000    3.000    0.000    3.000    0.000    4.667 
#    0.000    8.333    0.000    1.000    0.000    7.000 
#    0.000    0.000    0.000    0.000    0.000    0.000 
#
# Total GULP energy -595000.543088 kJ/mol
# GULP energy per Si atom -12395.844648 kJ/mol
# Density = 1.764587 g / cm^3
# Si number density = 17.686125 Si / 1000 Ang^3
#
#
#
# Elastic Constant Matrix: (Units=GPa)
#
#
# Indices 1 2 3 4 5 6 
#
# 1 69.8854 44.9542 70.8217 0.0000 0.0000 0.0000
# 2 44.9542 69.8868 70.8218 0.0000 0.0000 0.0000
# 3 70.8217 70.8218 159.8632 0.0000 0.0000 0.0000
# 4 0.0000 0.0000 0.0000 -3.2950 0.0000 0.0000
# 5 0.0000 0.0000 0.0000 0.0000 -3.2939 0.0000
# 6 0.0000 0.0000 0.0000 0.0000 0.0000 21.6953
#
#
#
# Elastic Compliance Matrix: (Units=1/GPa)
#
#
# Indices 1 2 3 4 5 6 
#
# 1 0.029654 -0.010456 -0.008505 0.000000 0.000000 0.000000
# 2 -0.010456 0.029653 -0.008505 0.000000 0.000000 0.000000
# 3 -0.008505 -0.008505 0.013791 0.000000 0.000000 0.000000
# 4 0.000000 0.000000 0.000000 -0.303493 0.000000 0.000000
# 5 0.000000 0.000000 0.000000 0.000000 -0.303595 0.000000
# 6 0.000000 0.000000 0.000000 0.000000 0.000000 0.046093
#
#
# Mechanical properties :
#
#
# Convention : Reuss Voigt Hill
#
# Bulk Modulus (GPa) = 55.04572 74.75896 64.90234
# Shear Modulus (GPa) = -11.71206 10.55715 -0.57745
#
# Velocity S-wave (km/s) = -2.57615 2.44584 -0.57202
# Velocity P-wave (km/s) = 4.72679 7.09491 6.02828
#
# Compressibility (1/GPa) = 0.01816672
#
# Stress axis : x y z
#
# Youngs Moduli (GPa) = 33.72238 33.72355 72.51206
#
# Poissons Ratio (x) = 0.35261 0.61671
# Poissons Ratio (y) = 0.35260 0.61668
# Poissons Ratio (z) = 0.28681 0.28680
#
# Static dielectric constant tensor:
#      x y z
#    x 3.107330 0.000000 0.000000 
#    y 0.000000 3.107340 0.000000 
#    z 0.000000 0.000000 3.616460 
# 
# 
# High freq. dielectric constant tensor:
#      x y z
#    x 1.661460 0.000000 0.000000 
#    y 0.000000 1.661460 0.000000 
#    z 0.000000 0.000000 1.700080 
# 
# From -- ./inp_files/6051.got.cif
#   From: 2010.03.12/outbox.cif.g09.slc.cpg/sg115_4_cif.got.tgz:6051.got - 2010.04.14 02:11:21.
