data_PCOD8309763
_publ_section_title
;
Structure prediction by ZEFSAII (Michael W. Deem and Ramdas Pophale) SiO2 
 PCOD8309763
Probable space group: P -4 M 2
;
_chemical_formula_sum "Si O2"
_cell_formula_units_Z 44
_cell_length_a 9.486228
_cell_length_b 9.486228
_cell_length_c 27.749184
_cell_angle_alpha 90.000000
_cell_angle_beta 90.000000
_cell_angle_gamma 90.000000
_cell_volume 2497.108046
_symmetry_space_group_name_H-M "P -4 M 2"
_symmetry_group_IT_number 115
_symmetry_cell_setting 'tetragonal'
loop_
_space_group_symop_operation_xyz
x,y,z
y,-x,-z
-x,-y,z
-y,x,-z
y,x,-z
-y,-x,-z
-x,y,z
x,-y,z
loop_
_atom_site_type_symbol
_atom_site_label
_atom_site_fract_x
_atom_site_fract_y
_atom_site_fract_z
Si Si1 0.660846 0.834764 0.853581
Si Si2 0.662345 0.663699 0.684691
Si Si3 0.836863 0.663159 0.407952
Si Si4 0.335261 0.835976 0.222243
Si Si5 0.836632 0.163369 0.500000
Si Si6 0.335708 0.842088 0.963525
O O1 0.500000 0.792473 0.840669
O O2 0.770450 0.748315 0.822057
O O3 0.694210 0.795416 0.908776
O O4 0.683011 0.000000 0.844500
O O5 0.500000 0.698067 0.697346
O O6 0.683920 0.500000 0.673066
O O7 0.713767 0.749806 0.638309
O O8 0.758115 0.712930 0.729097
O O9 0.808820 0.500000 0.419179
O O10 0.783078 0.750712 0.453780
O O11 0.000000 0.693949 0.397217
O O12 0.500000 0.811880 0.212758
O O13 0.297407 0.000000 0.226989
O O14 0.000000 0.193306 0.510329
O O15 0.500000 0.835501 0.974511
O O16 0.278817 0.000000 0.971805
O O17 0.261006 0.738995 0.000000
#
# Coordination Sequence:
#
# PCOD8309763 Si02
#       6
#     8   8   8   8   4   8
#     4   9  19  36  55  74  99 133 171 208 247 294
#     4   9  18  33  51  70  95 128 163 199 242 291
#     4   9  18  32  49  70  95 123 158 198 238 283
#     4  10  21  35  51  75 105 133 164 205 252 300
#     4   9  18  32  48  67  94 126 156 189 234 286
#     4   9  19  35  53  75 103 133 167 207 249 295
#
# _framework density 17.620383
#
# number of rings (size 3 to 8) (size 9 to 14) (size 15 to 20)
#    0.000    2.818    0.000    1.636    0.000    5.455 
#    0.000    7.273    0.000    0.000    0.000    0.000 
#    0.000    0.000    0.000    0.000    0.000    0.000 
#
# Total GULP energy -545680.909069 kJ/mol
# GULP energy per Si atom -12401.838842 kJ/mol
# Density = 1.758028 g / cm^3
# Si number density = 17.620383 Si / 1000 Ang^3
#
#
#
# Elastic Constant Matrix: (Units=GPa)
#
#
# Indices 1 2 3 4 5 6 
#
# 1 71.9828 45.6031 74.4501 0.0000 0.0000 0.0000
# 2 45.6031 71.9848 74.4507 0.0000 0.0000 0.0000
# 3 74.4501 74.4507 149.4801 0.0000 0.0000 0.0000
# 4 0.0000 0.0000 0.0000 -449.2600 0.0000 0.0000
# 5 0.0000 0.0000 0.0000 0.0000 -451.9563 0.0000
# 6 0.0000 0.0000 0.0000 0.0000 0.0000 27.1269
#
#
#
# Elastic Compliance Matrix: (Units=1/GPa)
#
#
# Indices 1 2 3 4 5 6 
#
# 1 0.030468 -0.007439 -0.011470 0.000000 0.000000 0.000000
# 2 -0.007439 0.030467 -0.011469 0.000000 0.000000 0.000000
# 3 -0.011470 -0.011469 0.018115 0.000000 0.000000 0.000000
# 4 0.000000 0.000000 0.000000 -0.002226 0.000000 0.000000
# 5 0.000000 0.000000 0.000000 0.000000 -0.002213 0.000000
# 6 0.000000 0.000000 0.000000 0.000000 0.000000 0.036864
#
#
# Mechanical properties :
#
#
# Convention : Reuss Voigt Hill
#
# Bulk Modulus (GPa) = 54.66457 75.82838 65.24647
# Shear Modulus (GPa) = 28.03809 -168.22163 -70.09177
#
# Velocity S-wave (km/s) = 3.99335 -9.78147 -6.31389
# Velocity P-wave (km/s) = 7.23556 9.18921 4.00552
#
# Compressibility (1/GPa) = 0.01829338
#
# Stress axis : x y z
#
# Youngs Moduli (GPa) = 32.82143 32.82263 55.20319
#
# Poissons Ratio (x) = 0.24417 0.63316
# Poissons Ratio (y) = 0.24416 0.63314
# Poissons Ratio (z) = 0.37645 0.37645
#
# Static dielectric constant tensor:
#      x y z
#    x 3.296820 0.000000 0.000000 
#    y 0.000000 3.296480 0.000000 
#    z 0.000000 0.000000 3.302810 
# 
# 
# High freq. dielectric constant tensor:
#      x y z
#    x 1.677790 0.000000 0.000000 
#    y 0.000000 1.677790 0.000000 
#    z 0.000000 0.000000 1.687420 
# 
# From -- ./inp_files/5730.got.cif
#   From: 2010.03.12/outbox.cif.g09.slc.cpg/sg115_3_cif.got.tgz:5730.got - 2010.04.14 02:11:21.
