data_PCOD8309640
_publ_section_title
;
Structure prediction by ZEFSAII (Michael W. Deem and Ramdas Pophale) SiO2 
 PCOD8309640
Probable space group: P -4 M 2
;
_chemical_formula_sum "Si O2"
_cell_formula_units_Z 48
_cell_length_a 9.129302
_cell_length_b 9.129302
_cell_length_c 30.585794
_cell_angle_alpha 90.000000
_cell_angle_beta 90.000000
_cell_angle_gamma 90.000000
_cell_volume 2549.147156
_symmetry_space_group_name_H-M "P -4 M 2"
_symmetry_group_IT_number 115
_symmetry_cell_setting 'tetragonal'
loop_
_space_group_symop_operation_xyz
x,y,z
y,-x,-z
-x,-y,z
-y,x,-z
y,x,-z
-y,-x,-z
-x,y,z
x,-y,z
loop_
_atom_site_type_symbol
_atom_site_label
_atom_site_fract_x
_atom_site_fract_y
_atom_site_fract_z
Si Si1 0.329468 0.828210 0.539614
Si Si2 0.169257 0.167715 0.050495
Si Si3 0.826029 0.833822 0.797231
Si Si4 0.671922 0.668886 0.124809
Si Si5 0.661705 0.173677 0.285976
Si Si6 0.327748 0.168913 0.383689
O O1 0.244157 0.755844 0.500000
O O2 0.500000 0.792130 0.534551
O O3 0.272958 0.763780 0.585040
O O4 0.298831 0.000000 0.538815
O O5 0.268729 0.275291 0.078537
O O6 0.000000 0.196842 0.061758
O O7 0.209135 0.000000 0.061557
O O8 0.201413 0.201413 0.000000
O O9 0.759886 0.741369 0.836208
O O10 0.767148 0.772435 0.750828
O O11 0.000000 0.821844 0.800158
O O12 0.772220 0.000000 0.801354
O O13 0.500000 0.694363 0.125891
O O14 0.714448 0.500000 0.130311
O O15 0.500000 0.238908 0.276494
O O16 0.714198 0.219069 0.334452
O O17 0.652337 0.000000 0.284322
O O18 0.500000 0.189868 0.392155
O O19 0.284039 0.000000 0.391994
#
# Coordination Sequence:
#
# PCOD8309640 Si02
#       6
#     8   8   8   8   8   8
#     4  11  24  39  55  78 107 139 178 221 264 314
#     4   9  19  37  60  84 108 135 171 215 262 315
#     4  10  20  34  55  82 108 137 178 224 267 314
#     4  11  24  38  52  75 108 144 181 220 263 313
#     4   8  15  30  53  80 109 140 174 214 260 311
#     4   9  18  34  57  84 111 139 174 215 260 314
#
# _framework density 18.829829
#
# number of rings (size 3 to 8) (size 9 to 14) (size 15 to 20)
#    0.000    2.333    0.000    4.000    0.000    9.667 
#    0.000    5.000    0.000    1.000    0.000    0.000 
#    0.000    0.000    0.000    0.000    0.000    0.000 
#
# Total GULP energy -595244.448270 kJ/mol
# GULP energy per Si atom -12400.926006 kJ/mol
# Density = 1.878697 g / cm^3
# Si number density = 18.829829 Si / 1000 Ang^3
#
#
#
# Elastic Constant Matrix: (Units=GPa)
#
#
# Indices 1 2 3 4 5 6 
#
# 1 66.6618 45.3762 49.4700 0.0000 0.0000 0.0000
# 2 45.3762 66.6582 49.4685 0.0000 0.0000 0.0000
# 3 49.4700 49.4685 128.4149 0.0000 0.0000 0.0000
# 4 0.0000 0.0000 0.0000 -124.8230 0.0000 0.0000
# 5 0.0000 0.0000 0.0000 0.0000 -124.8632 0.0000
# 6 0.0000 0.0000 0.0000 0.0000 0.0000 29.0342
#
#
#
# Elastic Compliance Matrix: (Units=1/GPa)
#
#
# Indices 1 2 3 4 5 6 
#
# 1 0.030255 -0.016728 -0.005211 0.000000 0.000000 0.000000
# 2 -0.016728 0.030257 -0.005211 0.000000 0.000000 0.000000
# 3 -0.005211 -0.005211 0.011802 0.000000 0.000000 0.000000
# 4 0.000000 0.000000 0.000000 -0.008011 0.000000 0.000000
# 5 0.000000 0.000000 0.000000 0.000000 -0.008009 0.000000
# 6 0.000000 0.000000 0.000000 0.000000 0.000000 0.034442
#
#
# Mechanical properties :
#
#
# Convention : Reuss Voigt Hill
#
# Bulk Modulus (GPa) = 55.51645 61.15158 58.33401
# Shear Modulus (GPa) = 33.10337 -36.30239 -1.59951
#
# Velocity S-wave (km/s) = 4.19743 -4.39557 -0.92266
# Velocity P-wave (km/s) = 7.28275 2.60481 5.46916
#
# Compressibility (1/GPa) = 0.01801268
#
# Stress axis : x y z
#
# Youngs Moduli (GPa) = 33.05226 33.05050 84.72886
#
# Poissons Ratio (x) = 0.55287 0.44154
# Poissons Ratio (y) = 0.55290 0.44155
# Poissons Ratio (z) = 0.17224 0.17224
#
# Static dielectric constant tensor:
#      x y z
#    x 3.489740 0.000000 0.000000 
#    y 0.000000 3.489730 0.000000 
#    z 0.000000 0.000000 3.683420 
# 
# 
# High freq. dielectric constant tensor:
#      x y z
#    x 1.721810 0.000000 0.000000 
#    y 0.000000 1.721810 0.000000 
#    z 0.000000 0.000000 1.749310 
# 
# From -- ./inp_files/6019.got.cif
#   From: 2010.03.12/outbox.cif.g09.slc.cpg/sg115_4_cif.got.tgz:6019.got - 2010.04.14 02:11:21.
