data_PCOD8309325
_publ_section_title
;
Structure prediction by ZEFSAII (Michael W. Deem and Ramdas Pophale) SiO2 
 PCOD8309325
Probable space group: P -4 M 2
;
_chemical_formula_sum "Si O2"
_cell_formula_units_Z 48
_cell_length_a 23.904184
_cell_length_b 23.904184
_cell_length_c 7.654715
_cell_angle_alpha 90.000000
_cell_angle_beta 90.000000
_cell_angle_gamma 90.000000
_cell_volume 4373.980795
_symmetry_space_group_name_H-M "P -4 M 2"
_symmetry_group_IT_number 115
_symmetry_cell_setting 'tetragonal'
loop_
_space_group_symop_operation_xyz
x,y,z
y,-x,-z
-x,-y,z
-y,x,-z
y,x,-z
-y,-x,-z
-x,y,z
x,-y,z
loop_
_atom_site_type_symbol
_atom_site_label
_atom_site_fract_x
_atom_site_fract_y
_atom_site_fract_z
Si Si1 0.933628 0.237318 0.694698
Si Si2 0.641734 0.933399 0.194798
Si Si3 0.933628 0.762682 0.305302
Si Si4 0.066601 0.641734 0.194799
Si Si5 0.843983 0.066164 1.000000
Si Si6 0.437192 0.066724 0.500000
O O1 0.909266 0.297687 0.750454
O O2 0.912389 0.221952 0.500000
O O3 0.913650 0.190080 0.829495
O O4 0.000000 0.240958 0.699554
O O5 0.594757 0.910821 0.327944
O O6 0.643744 0.000000 0.201609
O O7 0.626546 0.912547 1.000000
O O8 0.909266 0.702313 0.249547
O O9 0.000000 0.759043 0.300446
O O10 0.913650 0.809920 0.170506
O O11 0.089179 0.594757 0.327945
O O12 0.000000 0.643744 0.201610
O O13 0.854835 0.000000 1.000000
O O14 0.903925 0.096075 0.000000
O O15 0.500000 0.091037 0.500000
O O16 0.438237 0.000000 0.500000
#
# Coordination Sequence:
#
# PCOD8309325 Si02
#       6
#     8   8   8   8   8   8
#     4   9  15  25  41  55  64  78 101 124 145 176
#     4   9  14  21  34  48  62  82 106 127 143 163
#     4   9  15  25  41  55  64  78 101 124 145 176
#     4   9  14  21  34  48  62  82 106 127 143 163
#     4  10  20  31  42  56  69  79  95 121 157 203
#     4   9  16  22  28  44  69  90 105 123 146 165
#
# _framework density 10.973985000000001
#
# number of rings (size 3 to 8) (size 9 to 14) (size 15 to 20)
#    0.000    2.833    3.333    0.000    0.000    1.500 
#    0.000    3.333    0.000    0.000    0.000    4.667 
#    0.000    0.000    0.000    0.000    0.000    0.000 
#
# Total GULP energy -594910.519432 kJ/mol
# GULP energy per Si atom -12393.969155 kJ/mol
# Density = 1.094901 g / cm^3
# Si number density = 10.973985 Si / 1000 Ang^3
#
#
#
# Elastic Constant Matrix: (Units=GPa)
#
#
# Indices 1 2 3 4 5 6 
#
# 1 40.6205 21.8198 29.8825 0.0000 0.0000 0.0000
# 2 21.8198 40.6205 29.8825 0.0000 0.0000 0.0000
# 3 29.8825 29.8825 118.4214 0.0000 0.0000 0.0000
# 4 0.0000 0.0000 0.0000 10.3677 0.0000 0.0000
# 5 0.0000 0.0000 0.0000 0.0000 10.3677 0.0000
# 6 0.0000 0.0000 0.0000 0.0000 0.0000 0.4460
#
#
#
# Elastic Compliance Matrix: (Units=1/GPa)
#
#
# Indices 1 2 3 4 5 6 
#
# 1 0.037152 -0.016037 -0.005328 0.000000 0.000000 0.000000
# 2 -0.016037 0.037152 -0.005328 0.000000 0.000000 0.000000
# 3 -0.005328 -0.005328 0.011133 0.000000 0.000000 0.000000
# 4 0.000000 0.000000 0.000000 0.096453 0.000000 0.000000
# 5 0.000000 0.000000 0.000000 0.000000 0.096453 0.000000
# 6 0.000000 0.000000 0.000000 0.000000 0.000000 2.242325
#
#
# Mechanical properties :
#
#
# Convention : Reuss Voigt Hill
#
# Bulk Modulus (GPa) = 31.20024 40.31468 35.75746
# Shear Modulus (GPa) = 1.93443 12.10811 7.02127
#
# Velocity S-wave (km/s) = 1.32912 3.32527 2.53219
# Velocity P-wave (km/s) = 5.55412 7.18050 6.41903
#
# Compressibility (1/GPa) = 0.03205103
#
# Stress axis : x y z
#
# Youngs Moduli (GPa) = 26.91620 26.91620 89.81914
#
# Poissons Ratio (x) = 0.43166 0.47858
# Poissons Ratio (y) = 0.43166 0.47858
# Poissons Ratio (z) = 0.14342 0.14342
#
# Static dielectric constant tensor:
#      x y z
#    x 2.057830 0.000000 0.000000 
#    y 0.000000 2.057830 0.000000 
#    z 0.000000 0.000000 2.696900 
# 
# 
# High freq. dielectric constant tensor:
#      x y z
#    x 1.366910 0.000000 0.000000 
#    y 0.000000 1.366910 0.000000 
#    z 0.000000 0.000000 1.439680 
# 
# From -- ./inp_files/1996.got.cif
#   From: 2010.03.12/outbox.cif.g09.slc.cpg/sg115_1_cif.got.tgz:1996.got - 2010.04.14 02:11:21.
