data_PCOD8309520
_publ_section_title
;
Structure prediction by ZEFSAII (Michael W. Deem and Ramdas Pophale) SiO2 
 PCOD8309520
Probable space group: P -4 M 2
;
_chemical_formula_sum "Si O2"
_cell_formula_units_Z 44
_cell_length_a 8.980705
_cell_length_b 8.980705
_cell_length_c 28.891530
_cell_angle_alpha 90.000000
_cell_angle_beta 90.000000
_cell_angle_gamma 90.000000
_cell_volume 2330.190369
_symmetry_space_group_name_H-M "P -4 M 2"
_symmetry_group_IT_number 115
_symmetry_cell_setting 'tetragonal'
loop_
_space_group_symop_operation_xyz
x,y,z
y,-x,-z
-x,-y,z
-y,x,-z
y,x,-z
-y,-x,-z
-x,y,z
x,-y,z
loop_
_atom_site_type_symbol
_atom_site_label
_atom_site_fract_x
_atom_site_fract_y
_atom_site_fract_z
Si Si1 0.326412 0.673589 0.500000
Si Si2 0.670897 0.675797 0.670257
Si Si3 0.663135 0.823086 0.139734
Si Si4 0.833536 0.676925 0.959328
Si Si5 0.171816 0.824639 0.585656
Si Si6 0.166803 0.322361 0.761293
O O1 0.500000 0.705976 0.493255
O O2 0.270270 0.758529 0.544895
O O3 0.500000 0.721708 0.662584
O O4 0.693556 0.500000 0.664255
O O5 0.774685 0.758102 0.633908
O O6 0.720995 0.729828 0.721229
O O7 0.500000 0.748280 0.139966
O O8 0.742928 0.777839 0.090967
O O9 0.744064 0.778545 0.188454
O O10 0.646342 0.000000 0.139538
O O11 0.832303 0.500000 0.955673
O O12 0.000000 0.734606 0.970370
O O13 0.725471 0.725471 0.000000
O O14 0.000000 0.781874 0.577532
O O15 0.195028 0.000000 0.586556
O O16 0.165100 0.500000 0.765376
O O17 0.000000 0.265430 0.749371
#
# Coordination Sequence:
#
# PCOD8309520 Si02
#       6
#     4   8   8   8   8   8
#     4  11  24  41  62  88 114 139 170 209 254 302
#     4  10  20  33  51  78 109 137 167 205 251 302
#     4   7  11  22  41  64  89 119 157 200 245 293
#     4   9  17  29  45  66  93 124 159 201 247 296
#     4  11  24  40  58  81 108 140 179 216 249 291
#     4   8  13  24  45  70  94 123 161 205 251 296
#
# _framework density 18.882577999999999
#
# number of rings (size 3 to 8) (size 9 to 14) (size 15 to 20)
#    0.000    2.818    0.000    4.364    0.000    6.909 
#    0.000    0.909    0.000    4.364    0.000    2.545 
#    0.000    0.000    0.000    0.000    0.000    0.000 
#
# Total GULP energy -545134.040792 kJ/mol
# GULP energy per Si atom -12389.410018 kJ/mol
# Density = 1.883960 g / cm^3
# Si number density = 18.882578 Si / 1000 Ang^3
#
#
#
# Elastic Constant Matrix: (Units=GPa)
#
#
# Indices 1 2 3 4 5 6 
#
# 1 34.6800 25.6989 25.9314 0.0000 0.0000 0.0000
# 2 25.6989 34.6828 25.9332 0.0000 0.0000 0.0000
# 3 25.9314 25.9332 150.8909 0.0000 0.0000 0.0000
# 4 0.0000 0.0000 0.0000 39.6994 0.0000 0.0000
# 5 0.0000 0.0000 0.0000 0.0000 39.6963 0.0000
# 6 0.0000 0.0000 0.0000 0.0000 0.0000 20.1450
#
#
#
# Elastic Compliance Matrix: (Units=1/GPa)
#
#
# Indices 1 2 3 4 5 6 
#
# 1 0.065381 -0.045949 -0.003339 0.000000 0.000000 0.000000
# 2 -0.045949 0.065376 -0.003340 0.000000 0.000000 0.000000
# 3 -0.003339 -0.003340 0.007775 0.000000 0.000000 0.000000
# 4 0.000000 0.000000 0.000000 0.025189 0.000000 0.000000
# 5 0.000000 0.000000 0.000000 0.000000 0.025191 0.000000
# 6 0.000000 0.000000 0.000000 0.000000 0.000000 0.049640
#
#
# Mechanical properties :
#
#
# Convention : Reuss Voigt Hill
#
# Bulk Modulus (GPa) = 30.04981 41.70895 35.87938
# Shear Modulus (GPa) = 14.08846 29.42082 21.75464
#
# Velocity S-wave (km/s) = 2.73446 3.95155 3.39794
# Velocity P-wave (km/s) = 5.09100 6.55410 5.86833
#
# Compressibility (1/GPa) = 0.03327808
#
# Stress axis : x y z
#
# Youngs Moduli (GPa) = 15.29495 15.29604 128.61590
#
# Poissons Ratio (x) = 0.70283 0.42945
# Poissons Ratio (y) = 0.70278 0.42952
# Poissons Ratio (z) = 0.05107 0.05108
#
# Static dielectric constant tensor:
#      x y z
#    x 3.147750 0.000000 0.000000 
#    y 0.000000 3.147750 0.000000 
#    z 0.000000 0.000000 4.239540 
# 
# 
# High freq. dielectric constant tensor:
#      x y z
#    x 1.697980 0.000000 0.000000 
#    y 0.000000 1.697980 0.000000 
#    z 0.000000 0.000000 1.765560 
# 
# From -- ./inp_files/5804.got.cif
#   From: 2010.03.12/outbox.cif.g09.slc.cpg/sg115_3_cif.got.tgz:5804.got - 2010.04.14 02:11:21.
