data_PCOD8309148
_publ_section_title
;
Structure prediction by ZEFSAII (Michael W. Deem and Ramdas Pophale) SiO2 
 PCOD8309148
Probable space group: P -4 21 C
;
_chemical_formula_sum "Si O2"
_cell_formula_units_Z 20
_cell_length_a 9.306023
_cell_length_b 9.306023
_cell_length_c 9.058447
_cell_angle_alpha 90.000000
_cell_angle_beta 90.000000
_cell_angle_gamma 90.000000
_cell_volume 784.480208
_symmetry_space_group_name_H-M "P -4 21 C"
_symmetry_group_IT_number 114
_symmetry_cell_setting 'tetragonal'
loop_
_space_group_symop_operation_xyz
x,y,z
y,-x,-z
-x,-y,z
-y,x,-z
1/2+x,1/2-y,1/2-z
1/2-x,1/2+y,1/2-z
1/2-y,1/2-x,1/2+z
1/2+y,1/2+x,1/2+z
loop_
_atom_site_type_symbol
_atom_site_label
_atom_site_fract_x
_atom_site_fract_y
_atom_site_fract_z
Si Si1 0.756235 0.602914 0.800508
Si Si2 0.710300 0.813475 0.570305
Si Si3 0.000000 0.500000 0.119034
O O1 0.654681 0.689827 0.684772
O O2 0.711035 0.436777 0.828813
O O3 0.916027 0.609032 0.727927
O O4 0.759444 0.676084 0.960667
O O5 0.578755 0.883212 0.482859
#
# Coordination Sequence:
#
# PCOD8309148 Si02
#       3
#     8   8   4
#     4  12  27  48  81 122 162 217 275 344 423 497
#     4  12  27  48  84 119 162 219 273 347 421 498
#     4  12  26  52  84 114 172 218 284 356 416 496
#
# _framework density 25.494586000000002
#
# number of rings (size 3 to 8) (size 9 to 14) (size 15 to 20)
#    0.000    0.000    8.000    1.200    0.000    0.800 
#    0.000    4.000    0.000    0.000    0.000    0.000 
#    0.000    0.000    0.000    0.000    0.000    0.000 
#
# Total GULP energy -247834.576314 kJ/mol
# GULP energy per Si atom -12391.728816 kJ/mol
# Density = 2.543656 g / cm^3
# Si number density = 25.494586 Si / 1000 Ang^3
#
#
#
# Elastic Constant Matrix: (Units=GPa)
#
#
# Indices 1 2 3 4 5 6 
#
# 1 108.9702 48.3471 81.7738 0.0000 0.0000 0.0000
# 2 48.3471 108.9702 81.7738 0.0000 0.0000 0.0000
# 3 81.7738 81.7738 201.4794 0.0000 0.0000 0.0000
# 4 0.0000 0.0000 0.0000 62.3334 0.0000 0.0000
# 5 0.0000 0.0000 0.0000 0.0000 62.3334 0.0000
# 6 0.0000 0.0000 0.0000 0.0000 0.0000 31.8271
#
#
#
# Elastic Compliance Matrix: (Units=1/GPa)
#
#
# Indices 1 2 3 4 5 6 
#
# 1 0.013746 -0.002749 -0.004463 0.000000 0.000000 0.000000
# 2 -0.002749 0.013746 -0.004463 0.000000 0.000000 0.000000
# 3 -0.004463 -0.004463 0.008586 0.000000 0.000000 0.000000
# 4 0.000000 0.000000 0.000000 0.016043 0.000000 0.000000
# 5 0.000000 0.000000 0.000000 0.000000 0.016043 0.000000
# 6 0.000000 0.000000 0.000000 0.000000 0.000000 0.031420
#
#
# Mechanical properties :
#
#
# Convention : Reuss Voigt Hill
#
# Bulk Modulus (GPa) = 78.57542 93.68991 86.13266
# Shear Modulus (GPa) = 39.31539 45.13378 42.22458
#
# Velocity S-wave (km/s) = 3.93123 4.21209 4.07408
# Velocity P-wave (km/s) = 7.17589 7.77717 7.48257
#
# Compressibility (1/GPa) = 0.01272663
#
# Stress axis : x y z
#
# Youngs Moduli (GPa) = 72.74910 72.74910 116.46709
#
# Poissons Ratio (x) = 0.20002 0.51980
# Poissons Ratio (y) = 0.20002 0.51980
# Poissons Ratio (z) = 0.32468 0.32468
#
# Static dielectric constant tensor:
#      x y z
#    x 4.527550 0.000000 0.000000 
#    y 0.000000 4.527550 0.000000 
#    z 0.000000 0.000000 5.338410 
# 
# 
# High freq. dielectric constant tensor:
#      x y z
#    x 1.994350 0.000000 0.000000 
#    y 0.000000 1.994350 0.000000 
#    z 0.000000 0.000000 2.065770 
# 
# From -- ./inp_files/416.got.cif
#   From: 2010.03.12/outbox.cif.g09.slc.cpg/sg114_1_cif.got.tgz:416.got - 2010.04.14 02:08:34.
