data_PCOD8310527
_publ_section_title
;
Structure prediction by ZEFSAII (Michael W. Deem and Ramdas Pophale) SiO2 
 PCOD8310527
Probable space group: P -4 N 2
;
_chemical_formula_sum "Si O2"
_cell_formula_units_Z 36
_cell_length_a 9.026178
_cell_length_b 9.026178
_cell_length_c 20.472309
_cell_angle_alpha 90.000000
_cell_angle_beta 90.000000
_cell_angle_gamma 90.000000
_cell_volume 1667.917692
_symmetry_space_group_name_H-M "P -4 N 2"
_symmetry_group_IT_number 118
_symmetry_cell_setting 'tetragonal'
loop_
_space_group_symop_operation_xyz
x,y,z
y,-x,-z
-x,-y,z
-y,x,-z
1/2+y,1/2+x,1/2-z
1/2-y,1/2-x,1/2-z
1/2-x,1/2+y,1/2+z
1/2+x,1/2-y,1/2+z
loop_
_atom_site_type_symbol
_atom_site_label
_atom_site_fract_x
_atom_site_fract_y
_atom_site_fract_z
Si Si1 0.336655 0.506673 0.342655
Si Si2 0.273559 0.773559 0.750000
Si Si3 0.228871 0.177958 0.053848
Si Si4 0.166926 0.058043 0.361736
Si Si5 0.213354 0.347196 0.585640
O O1 0.500000 0.500000 0.311073
O O2 0.223024 0.422572 0.294307
O O3 0.336429 0.434399 0.415222
O O4 0.302741 0.678987 0.353855
O O5 0.122944 0.773747 0.707241
O O6 0.308398 0.319943 0.086724
O O7 0.310133 0.022111 0.071474
O O8 0.227405 0.214639 0.977964
O O9 0.277726 0.938556 0.391419
O O10 0.000000 0.000000 0.355990
#
# Coordination Sequence:
#
# PCOD8310527 Si02
#       5
#     8   4   8   8   8
#     4   9  19  38  68  93 125 174 219 278 329 393
#     4  10  22  48  64  92 136 178 234 274 332 400
#     4  10  21  39  65 101 136 166 219 276 337 407
#     4  11  26  44  66  99 139 185 217 280 340 395
#     4  11  21  40  68 105 129 174 223 276 345 402
#
# _framework density 21.5838
#
# number of rings (size 3 to 8) (size 9 to 14) (size 15 to 20)
#    0.000    1.778    2.222    1.333    3.111    0.000 
#    0.000   35.556    0.000    0.000    0.000    0.000 
#    0.000    0.000    0.000    0.000    0.000    0.000 
#
# Total GULP energy -446041.485309 kJ/mol
# GULP energy per Si atom -12390.041259 kJ/mol
# Density = 2.153467 g / cm^3
# Si number density = 21.583800 Si / 1000 Ang^3
#
#
#
# Elastic Constant Matrix: (Units=GPa)
#
#
# Indices 1 2 3 4 5 6 
#
# 1 82.5125 37.3095 38.3023 0.0000 0.0000 0.0000
# 2 37.3095 82.5125 38.3023 0.0000 0.0000 0.0000
# 3 38.3023 38.3023 109.3626 0.0000 0.0000 0.0000
# 4 0.0000 0.0000 0.0000 23.3037 0.0000 0.0000
# 5 0.0000 0.0000 0.0000 0.0000 23.3037 0.0000
# 6 0.0000 0.0000 0.0000 0.0000 0.0000 34.9009
#
#
#
# Elastic Compliance Matrix: (Units=1/GPa)
#
#
# Indices 1 2 3 4 5 6 
#
# 1 0.016438 -0.005684 -0.003766 0.000000 0.000000 0.000000
# 2 -0.005684 0.016438 -0.003766 0.000000 0.000000 0.000000
# 3 -0.003766 -0.003766 0.011782 0.000000 0.000000 0.000000
# 4 0.000000 0.000000 0.000000 0.042912 0.000000 0.000000
# 5 0.000000 0.000000 0.000000 0.000000 0.042912 0.000000
# 6 0.000000 0.000000 0.000000 0.000000 0.000000 0.028653
#
#
# Mechanical properties :
#
#
# Convention : Reuss Voigt Hill
#
# Bulk Modulus (GPa) = 54.87225 55.80176 55.33701
# Shear Modulus (GPa) = 26.09026 26.99989 26.54508
#
# Velocity S-wave (km/s) = 3.48054 3.54069 3.51074
# Velocity P-wave (km/s) = 6.45215 6.52878 6.49058
#
# Compressibility (1/GPa) = 0.01822415
#
# Stress axis : x y z
#
# Youngs Moduli (GPa) = 60.83471 60.83471 84.87514
#
# Poissons Ratio (x) = 0.34581 0.31966
# Poissons Ratio (y) = 0.34581 0.31966
# Poissons Ratio (z) = 0.22912 0.22912
#
# Static dielectric constant tensor:
#      x y z
#    x 3.830930 0.000000 0.000000 
#    y 0.000000 3.830930 0.000000 
#    z 0.000000 0.000000 3.884890 
# 
# 
# High freq. dielectric constant tensor:
#      x y z
#    x 1.840250 0.000000 0.000000 
#    y 0.000000 1.840250 0.000000 
#    z 0.000000 0.000000 1.850160 
# 
# From -- ./inp_files/5461.got.cif
#   From: 2010.03.12/outbox.cif.g09.slc.cpg/sg118_3_cif.got.tgz:5461.got - 2010.04.14 02:21:17.
