data_PCOD8310572
_publ_section_title
;
Structure prediction by ZEFSAII (Michael W. Deem and Ramdas Pophale) SiO2 
 PCOD8310572
Probable space group: P -4 N 2
;
_chemical_formula_sum "Si O2"
_cell_formula_units_Z 48
_cell_length_a 8.716886
_cell_length_b 8.716886
_cell_length_c 29.151670
_cell_angle_alpha 90.000000
_cell_angle_beta 90.000000
_cell_angle_gamma 90.000000
_cell_volume 2215.063453
_symmetry_space_group_name_H-M "P -4 N 2"
_symmetry_group_IT_number 118
_symmetry_cell_setting 'tetragonal'
loop_
_space_group_symop_operation_xyz
x,y,z
y,-x,-z
-x,-y,z
-y,x,-z
1/2+y,1/2+x,1/2-z
1/2-y,1/2-x,1/2-z
1/2-x,1/2+y,1/2+z
1/2+x,1/2-y,1/2+z
loop_
_atom_site_type_symbol
_atom_site_label
_atom_site_fract_x
_atom_site_fract_y
_atom_site_fract_z
Si Si1 0.000000 0.500000 0.661898
Si Si2 0.722879 0.442198 0.478266
Si Si3 0.817114 0.476497 0.376256
Si Si4 0.733356 0.311646 0.882750
Si Si5 0.000000 0.000000 0.332782
Si Si6 0.290497 0.591696 0.983997
Si Si7 0.747603 0.213512 0.301247
O O1 0.920962 0.374659 0.629525
O O2 0.866217 0.580638 0.692043
O O3 0.602128 0.315729 0.497765
O O4 0.726941 0.437485 0.423205
O O5 0.888183 0.379023 0.494592
O O6 0.743196 0.640653 0.362526
O O7 0.776420 0.349748 0.337872
O O8 0.000000 0.500000 0.382925
O O9 0.572187 0.368289 0.863552
O O10 0.705619 0.314605 0.936823
O O11 0.870262 0.077657 0.302534
O O12 0.412481 0.669626 0.019777
O O13 0.773828 0.273828 0.250000
#
# Coordination Sequence:
#
# PCOD8310572 Si02
#       7
#     4   8   8   8   4   8   8
#     4  10  27  44  74 100 146 192 242 298 375 454
#     4  11  26  42  60  97 142 184 228 286 353 425
#     4  12  25  46  73 106 143 188 243 316 367 434
#     4  11  23  45  68 102 142 192 240 297 363 440
#     4  10  22  46  71 100 140 182 237 290 358 458
#     4  11  24  39  65  97 135 183 241 282 342 425
#     4  11  26  47  76 108 143 189 245 307 388 447
#
# _framework density 21.669806999999999
#
# number of rings (size 3 to 8) (size 9 to 14) (size 15 to 20)
#    0.000    1.000    3.333    2.250    7.000    2.333 
#    0.000    1.667    0.000    0.000    0.000    0.000 
#    0.000    0.000    0.000    0.000    0.000    0.000 
#
# Total GULP energy -594836.990322 kJ/mol
# GULP energy per Si atom -12392.437298 kJ/mol
# Density = 2.162049 g / cm^3
# Si number density = 21.669807 Si / 1000 Ang^3
#
#
#
# Elastic Constant Matrix: (Units=GPa)
#
#
# Indices 1 2 3 4 5 6 
#
# 1 94.1373 32.1019 48.8882 0.0000 0.0000 0.0000
# 2 32.1019 94.1373 48.8882 0.0000 0.0000 0.0000
# 3 48.8882 48.8882 138.9246 0.0000 0.0000 0.0000
# 4 0.0000 0.0000 0.0000 24.7961 0.0000 0.0000
# 5 0.0000 0.0000 0.0000 0.0000 24.7961 0.0000
# 6 0.0000 0.0000 0.0000 0.0000 0.0000 39.9485
#
#
#
# Elastic Compliance Matrix: (Units=1/GPa)
#
#
# Indices 1 2 3 4 5 6 
#
# 1 0.013505 -0.002615 -0.003832 0.000000 0.000000 0.000000
# 2 -0.002615 0.013505 -0.003832 0.000000 0.000000 0.000000
# 3 -0.003832 -0.003832 0.009895 0.000000 0.000000 0.000000
# 4 0.000000 0.000000 0.000000 0.040329 0.000000 0.000000
# 5 0.000000 0.000000 0.000000 0.000000 0.040329 0.000000
# 6 0.000000 0.000000 0.000000 0.000000 0.000000 0.025032
#
#
# Mechanical properties :
#
#
# Convention : Reuss Voigt Hill
#
# Bulk Modulus (GPa) = 61.17717 65.21730 63.19724
# Shear Modulus (GPa) = 29.65564 31.06286 30.35925
#
# Velocity S-wave (km/s) = 3.70337 3.79022 3.74704
# Velocity P-wave (km/s) = 6.82491 7.02251 6.92441
#
# Compressibility (1/GPa) = 0.01634597
#
# Stress axis : x y z
#
# Youngs Moduli (GPa) = 74.04843 74.04843 101.05916
#
# Poissons Ratio (x) = 0.19365 0.38727
# Poissons Ratio (y) = 0.19365 0.38727
# Poissons Ratio (z) = 0.28376 0.28376
#
# Static dielectric constant tensor:
#      x y z
#    x 4.255400 0.000000 0.000000 
#    y 0.000000 4.255400 0.000000 
#    z 0.000000 0.000000 3.670870 
# 
# 
# High freq. dielectric constant tensor:
#      x y z
#    x 1.865920 0.000000 0.000000 
#    y 0.000000 1.865920 0.000000 
#    z 0.000000 0.000000 1.831080 
# 
# From -- ./inp_files/6900.got.cif
#   From: 2010.03.12/outbox.cif.g09.slc.cpg/sg118_4_cif.got.tgz:6900.got - 2010.04.14 02:21:17.
