data_PCOD8310551
_publ_section_title
;
Structure prediction by ZEFSAII (Michael W. Deem and Ramdas Pophale) SiO2 
 PCOD8310551
Probable space group: P -4 N 2
;
_chemical_formula_sum "Si O2"
_cell_formula_units_Z 36
_cell_length_a 8.199533
_cell_length_b 8.199533
_cell_length_c 26.688415
_cell_angle_alpha 90.000000
_cell_angle_beta 90.000000
_cell_angle_gamma 90.000000
_cell_volume 1794.324629
_symmetry_space_group_name_H-M "P -4 N 2"
_symmetry_group_IT_number 118
_symmetry_cell_setting 'tetragonal'
loop_
_space_group_symop_operation_xyz
x,y,z
y,-x,-z
-x,-y,z
-y,x,-z
1/2+y,1/2+x,1/2-z
1/2-y,1/2-x,1/2-z
1/2-x,1/2+y,1/2+z
1/2+x,1/2-y,1/2+z
loop_
_atom_site_type_symbol
_atom_site_label
_atom_site_fract_x
_atom_site_fract_y
_atom_site_fract_z
Si Si1 0.500000 0.500000 0.651121
Si Si2 0.691288 0.670591 0.423909
Si Si3 0.689801 0.474474 0.106883
Si Si4 0.843973 0.388668 0.477628
Si Si5 0.387393 0.160699 0.694157
O O1 0.656591 0.456596 0.615824
O O2 0.470507 0.336049 0.683157
O O3 0.854901 0.712886 0.393181
O O4 0.703282 0.493562 0.450812
O O5 0.661443 0.805459 0.465868
O O6 0.500000 0.500000 0.110910
O O7 0.728014 0.376918 0.055505
O O8 0.743061 0.367051 0.154509
O O9 0.000000 0.500000 0.480640
O O10 0.318677 0.181324 0.750000
O O11 0.500000 0.000000 0.690587
#
# Coordination Sequence:
#
# PCOD8310551 Si02
#       5
#     4   8   8   8   8
#     4  12  22  43  74  96 130 174 229 284 338 410
#     4  11  22  38  64  92 133 177 218 268 327 409
#     4  11  24  41  63  97 140 172 226 283 341 403
#     4  10  22  37  58  93 132 178 219 259 332 405
#     4  11  24  47  72  97 130 178 229 283 356 415
#
# _framework density 20.063258000000001
#
# number of rings (size 3 to 8) (size 9 to 14) (size 15 to 20)
#    0.000    1.111    4.444    2.000    7.778    0.000 
#    0.000    0.000    0.000    1.333    0.000    0.000 
#    0.000    0.000    0.000    0.000    0.000    0.000 
#
# Total GULP energy -446216.633969 kJ/mol
# GULP energy per Si atom -12394.906499 kJ/mol
# Density = 2.001759 g / cm^3
# Si number density = 20.063258 Si / 1000 Ang^3
#
#
#
# Elastic Constant Matrix: (Units=GPa)
#
#
# Indices 1 2 3 4 5 6 
#
# 1 102.2799 25.0046 55.9562 0.0000 0.0000 0.0000
# 2 25.0046 102.2798 55.9562 0.0000 0.0000 0.0000
# 3 55.9562 55.9562 159.3768 0.0000 0.0000 0.0000
# 4 0.0000 0.0000 0.0000 25.9092 0.0000 0.0000
# 5 0.0000 0.0000 0.0000 0.0000 25.9091 0.0000
# 6 0.0000 0.0000 0.0000 0.0000 0.0000 17.0070
#
#
#
# Elastic Compliance Matrix: (Units=1/GPa)
#
#
# Indices 1 2 3 4 5 6 
#
# 1 0.012153 -0.000788 -0.003990 0.000000 0.000000 0.000000
# 2 -0.000788 0.012153 -0.003990 0.000000 0.000000 0.000000
# 3 -0.003990 -0.003990 0.009076 0.000000 0.000000 0.000000
# 4 0.000000 0.000000 0.000000 0.038596 0.000000 0.000000
# 5 0.000000 0.000000 0.000000 0.000000 0.038596 0.000000
# 6 0.000000 0.000000 0.000000 0.000000 0.000000 0.058799
#
#
# Mechanical properties :
#
#
# Convention : Reuss Voigt Hill
#
# Bulk Modulus (GPa) = 63.11054 70.86339 66.98697
# Shear Modulus (GPa) = 26.01570 28.89970 27.45770
#
# Velocity S-wave (km/s) = 3.60486 3.79942 3.70341
# Velocity P-wave (km/s) = 6.98933 7.39216 7.19357
#
# Compressibility (1/GPa) = 0.01584521
#
# Stress axis : x y z
#
# Youngs Moduli (GPa) = 82.28653 82.28644 110.17839
#
# Poissons Ratio (x) = 0.06485 0.43962
# Poissons Ratio (y) = 0.06485 0.43962
# Poissons Ratio (z) = 0.32833 0.32833
#
# Static dielectric constant tensor:
#      x y z
#    x 3.684060 0.000000 0.000000 
#    y 0.000000 3.684060 0.000000 
#    z 0.000000 0.000000 3.968520 
# 
# 
# High freq. dielectric constant tensor:
#      x y z
#    x 1.777130 0.000000 0.000000 
#    y 0.000000 1.777130 0.000000 
#    z 0.000000 0.000000 1.786930 
# 
# From -- ./inp_files/6024.got.cif
#   From: 2010.03.12/outbox.cif.g09.slc.cpg/sg118_4_cif.got.tgz:6024.got - 2010.04.14 02:21:17.
