data_PCOD8310995
_publ_section_title
;
Structure prediction by ZEFSAII (Michael W. Deem and Ramdas Pophale) SiO2 
 PCOD8310995
Probable space group: I -4 M 2
;
_chemical_formula_sum "Si O2"
_cell_formula_units_Z 64
_cell_length_a 14.073372
_cell_length_b 14.073372
_cell_length_c 15.524478
_cell_angle_alpha 90.000000
_cell_angle_beta 90.000000
_cell_angle_gamma 90.000000
_cell_volume 3074.774999
_symmetry_space_group_name_H-M "I -4 M 2"
_symmetry_group_IT_number 119
_symmetry_cell_setting 'tetragonal'
loop_
_space_group_symop_operation_xyz
x,y,z
y,-x,-z
-x,-y,z
-y,x,-z
y,x,-z
-y,-x,-z
-x,y,z
x,-y,z
1/2+x,1/2+y,1/2+z
1/2+y,1/2-x,1/2-z
1/2-x,1/2-y,1/2+z
1/2-y,1/2+x,1/2-z
1/2+y,1/2+x,1/2-z
1/2-y,1/2-x,1/2-z
1/2-x,1/2+y,1/2+z
1/2+x,1/2-y,1/2+z
loop_
_atom_site_type_symbol
_atom_site_label
_atom_site_fract_x
_atom_site_fract_y
_atom_site_fract_z
Si Si1 0.764009 0.388482 0.989484
Si Si2 0.889551 0.304762 0.837106
Si Si3 0.394296 0.605015 0.267123
Si Si4 0.289653 0.104343 0.677624
O O1 0.746744 0.500000 0.972990
O O2 0.828990 0.344347 0.915820
O O3 0.663169 0.336832 0.000000
O O4 0.819841 0.371566 0.080298
O O5 0.853703 0.353703 0.750000
O O6 0.873563 0.190355 0.834441
O O7 0.000000 0.330298 0.850970
O O8 0.500000 0.618388 0.229417
O O9 0.383272 0.500000 0.312017
O O10 0.325176 0.611130 0.184624
O O11 0.325560 0.174441 0.750000
O O12 0.326849 0.000000 0.702319
#
# Coordination Sequence:
#
# PCOD8310995 Si02
#       4
#    16  16  16  16
#     4  11  24  40  60  89 121 156 203 253 306 371
#     4  11  23  40  64  92 125 164 205 255 315 378
#     4   9  18  35  62  92 119 153 197 245 303 369
#     4  10  21  37  58  83 113 150 192 239 291 349
#
# _framework density 20.814532
#
# number of rings (size 3 to 8) (size 9 to 14) (size 15 to 20)
#    0.000    1.750    0.000    4.500    0.000    6.250 
#    0.000    6.250    0.000    1.500    0.000    7.000 
#    0.000    0.000    0.000    0.000    0.000    0.000 
#
# Total GULP energy -396519.959678 kJ/mol
# GULP energy per Si atom -12391.248740 kJ/mol
# Density = 2.076716 g / cm^3
# Si number density = 20.814532 Si / 1000 Ang^3
#
#
#
# Elastic Constant Matrix: (Units=GPa)
#
#
# Indices 1 2 3 4 5 6 
#
# 1 134.0424 67.8467 75.4718 0.0000 0.0000 0.0000
# 2 67.8467 134.0405 75.4697 0.0000 0.0000 0.0000
# 3 75.4718 75.4697 149.1468 0.0000 0.0000 0.0000
# 4 0.0000 0.0000 0.0000 25.0275 0.0000 0.0000
# 5 0.0000 0.0000 0.0000 0.0000 25.0280 0.0000
# 6 0.0000 0.0000 0.0000 0.0000 0.0000 28.8984
#
#
#
# Elastic Compliance Matrix: (Units=1/GPa)
#
#
# Indices 1 2 3 4 5 6 
#
# 1 0.011537 -0.003570 -0.004032 0.000000 0.000000 0.000000
# 2 -0.003570 0.011537 -0.004032 0.000000 0.000000 0.000000
# 3 -0.004032 -0.004032 0.010785 0.000000 0.000000 0.000000
# 4 0.000000 0.000000 0.000000 0.039956 0.000000 0.000000
# 5 0.000000 0.000000 0.000000 0.000000 0.039955 0.000000
# 6 0.000000 0.000000 0.000000 0.000000 0.000000 0.034604
#
#
# Mechanical properties :
#
#
# Convention : Reuss Voigt Hill
#
# Bulk Modulus (GPa) = 94.39951 94.97846 94.68899
# Shear Modulus (GPa) = 28.54335 29.02021 28.78178
#
# Velocity S-wave (km/s) = 3.70715 3.73799 3.72260
# Velocity P-wave (km/s) = 7.98593 8.02247 8.00422
#
# Compressibility (1/GPa) = 0.01059328
#
# Stress axis : x y z
#
# Youngs Moduli (GPa) = 86.67570 86.67601 92.72123
#
# Poissons Ratio (x) = 0.30941 0.37384
# Poissons Ratio (y) = 0.30941 0.37381
# Poissons Ratio (z) = 0.34946 0.34944
#
# Static dielectric constant tensor:
#      x y z
#    x 4.082410 0.000000 0.000000 
#    y 0.000000 4.082420 0.000000 
#    z 0.000000 0.000000 3.612460 
# 
# 
# High freq. dielectric constant tensor:
#      x y z
#    x 1.826770 0.000000 0.000000 
#    y 0.000000 1.826770 0.000000 
#    z 0.000000 0.000000 1.793540 
# 
# From -- ./inp_files/5067.got.cif
#   From: 2010.03.12/outbox.cif.g09.slc.cpg/sg119_3_cif.got.tgz:5067.got - 2010.04.14 02:25:26.
