data_PCOD8310479
_publ_section_title
;
Structure prediction by ZEFSAII (Michael W. Deem and Ramdas Pophale) SiO2 
 PCOD8310479
Probable space group: P -4 N 2
;
_chemical_formula_sum "Si O2"
_cell_formula_units_Z 48
_cell_length_a 11.374125
_cell_length_b 11.374125
_cell_length_c 20.580024
_cell_angle_alpha 90.000000
_cell_angle_beta 90.000000
_cell_angle_gamma 90.000000
_cell_volume 2662.452513
_symmetry_space_group_name_H-M "P -4 N 2"
_symmetry_group_IT_number 118
_symmetry_cell_setting 'tetragonal'
loop_
_space_group_symop_operation_xyz
x,y,z
y,-x,-z
-x,-y,z
-y,x,-z
1/2+y,1/2+x,1/2-z
1/2-y,1/2-x,1/2-z
1/2-x,1/2+y,1/2+z
1/2+x,1/2-y,1/2+z
loop_
_atom_site_type_symbol
_atom_site_label
_atom_site_fract_x
_atom_site_fract_y
_atom_site_fract_z
Si Si1 0.366902 0.993274 0.609971
Si Si2 0.812640 0.813670 0.806309
Si Si3 0.562821 0.621523 0.315752
Si Si4 0.767780 0.129534 0.932798
Si Si5 0.043420 0.261973 0.260516
Si Si6 0.264354 0.142055 0.944330
O O1 0.336888 0.865451 0.583454
O O2 0.275699 0.017779 0.669366
O O3 0.500000 0.000000 0.636959
O O4 0.351253 0.092897 0.554438
O O5 0.771834 0.728167 0.750000
O O6 0.775850 0.786445 0.880080
O O7 0.953139 0.794588 0.801681
O O8 0.754071 0.942916 0.794387
O O9 0.500000 0.500000 0.335699
O O10 0.645783 0.666584 0.374222
O O11 0.641264 0.617227 0.249291
O O12 0.782168 0.991556 0.946624
O O13 0.794887 0.209249 0.994394
O O14 0.123169 0.376832 0.250000
#
# Coordination Sequence:
#
# PCOD8310479 Si02
#       6
#     8   8   8   8   8   8
#     4  10  21  36  56  89 110 143 193 234 282 333
#     4  11  21  34  54  85 116 142 186 240 281 328
#     4  10  20  34  52  90 113 143 192 229 287 341
#     4  11  21  36  57  81 117 148 185 236 276 347
#     4  11  18  32  59  84 112 138 181 243 282 323
#     4  11  21  34  57  83 112 148 186 228 290 326
#
# _framework density 18.028490000000001
#
# number of rings (size 3 to 8) (size 9 to 14) (size 15 to 20)
#    0.000    1.333    6.667    2.000    0.000    0.000 
#    0.000    1.667    0.000    0.500    0.000    0.000 
#    0.000    0.000    0.000    0.000    0.000    0.000 
#
# Total GULP energy -594798.949068 kJ/mol
# GULP energy per Si atom -12391.644772 kJ/mol
# Density = 1.798746 g / cm^3
# Si number density = 18.028490 Si / 1000 Ang^3
#
#
#
# Elastic Constant Matrix: (Units=GPa)
#
#
# Indices 1 2 3 4 5 6 
#
# 1 94.8147 46.8764 57.3603 0.0000 0.0000 0.0000
# 2 46.8764 94.8123 57.3601 0.0000 0.0000 0.0000
# 3 57.3603 57.3601 117.6093 0.0000 0.0000 0.0000
# 4 0.0000 0.0000 0.0000 28.6331 0.0000 0.0000
# 5 0.0000 0.0000 0.0000 0.0000 28.6329 0.0000
# 6 0.0000 0.0000 0.0000 0.0000 0.0000 17.2141
#
#
#
# Elastic Compliance Matrix: (Units=1/GPa)
#
#
# Indices 1 2 3 4 5 6 
#
# 1 0.016262 -0.004599 -0.005688 0.000000 0.000000 0.000000
# 2 -0.004599 0.016262 -0.005689 0.000000 0.000000 0.000000
# 3 -0.005688 -0.005689 0.014051 0.000000 0.000000 0.000000
# 4 0.000000 0.000000 0.000000 0.034925 0.000000 0.000000
# 5 0.000000 0.000000 0.000000 0.000000 0.034925 0.000000
# 6 0.000000 0.000000 0.000000 0.000000 0.000000 0.058092
#
#
# Mechanical properties :
#
#
# Convention : Reuss Voigt Hill
#
# Bulk Modulus (GPa) = 68.37880 70.04775 69.21328
# Shear Modulus (GPa) = 23.65827 24.60534 24.13181
#
# Velocity S-wave (km/s) = 3.62646 3.69833 3.66257
# Velocity P-wave (km/s) = 7.45288 7.56143 7.50735
#
# Compressibility (1/GPa) = 0.01462442
#
# Stress axis : x y z
#
# Youngs Moduli (GPa) = 61.49404 61.49200 71.16715
#
# Poissons Ratio (x) = 0.28278 0.40482
# Poissons Ratio (y) = 0.28279 0.40484
# Poissons Ratio (z) = 0.34980 0.34980
#
# Static dielectric constant tensor:
#      x y z
#    x 3.454070 0.000000 0.000000 
#    y 0.000000 3.454070 0.000000 
#    z 0.000000 0.000000 3.320710 
# 
# 
# High freq. dielectric constant tensor:
#      x y z
#    x 1.684900 0.000000 0.000000 
#    y 0.000000 1.684900 0.000000 
#    z 0.000000 0.000000 1.689130 
# 
# From -- ./inp_files/5636.got.cif
#   From: 2010.03.12/outbox.cif.g09.slc.cpg/sg118_3_cif.got.tgz:5636.got - 2010.04.14 02:21:17.
