data_PCOD8310225
_publ_section_title
;
Structure prediction by ZEFSAII (Michael W. Deem and Ramdas Pophale) SiO2 
 PCOD8310225
Probable space group: P -4 C 2
;
_chemical_formula_sum "Si O2"
_cell_formula_units_Z 40
_cell_length_a 8.476478
_cell_length_b 8.476478
_cell_length_c 24.250907
_cell_angle_alpha 90.000000
_cell_angle_beta 90.000000
_cell_angle_gamma 90.000000
_cell_volume 1742.444141
_symmetry_space_group_name_H-M "P -4 C 2"
_symmetry_group_IT_number 116
_symmetry_cell_setting 'tetragonal'
loop_
_space_group_symop_operation_xyz
x,y,z
y,-x,-z
-x,-y,z
-y,x,-z
y,x,1/2-z
-y,-x,1/2-z
-x,y,1/2+z
x,-y,1/2+z
loop_
_atom_site_type_symbol
_atom_site_label
_atom_site_fract_x
_atom_site_fract_y
_atom_site_fract_z
Si Si1 0.234843 0.391614 0.198348
Si Si2 0.406212 0.160084 0.512897
Si Si3 0.110272 0.259082 0.698449
Si Si4 0.173294 0.949271 0.094149
Si Si5 0.666470 0.278535 0.586844
O O1 0.335993 0.335993 0.250000
O O2 0.195973 0.574524 0.206249
O O3 0.344801 0.371735 0.144371
O O4 0.077152 0.285397 0.191996
O O5 0.235958 0.145989 0.541375
O O6 0.504358 0.279812 0.551989
O O7 0.375157 0.211279 0.450588
O O8 0.500000 0.000000 0.507722
O O9 0.146360 0.146360 0.750000
O O10 0.178190 0.165694 0.646340
O O11 0.283864 0.100895 0.103414
O O12 0.000000 0.000000 0.078423
#
# Coordination Sequence:
#
# PCOD8310225 Si02
#       5
#     8   8   8   8   8
#     4  11  26  47  73 104 143 188 233 299 363 430
#     4  10  27  44  70 108 148 188 239 296 361 439
#     4  11  26  45  73 105 141 182 245 299 356 430
#     4  11  24  43  74 101 136 187 243 298 351 425
#     4  11  25  46  72 101 149 187 237 291 362 429
#
# _framework density 22.956257000000001
#
# number of rings (size 3 to 8) (size 9 to 14) (size 15 to 20)
#    0.000    1.200    2.000    1.200   14.000    0.800 
#    0.000    0.000    0.000    0.000    0.000    0.000 
#    0.000    0.000    0.000    0.000    0.000    0.000 
#
# Total GULP energy -496084.344344 kJ/mol
# GULP energy per Si atom -12402.108609 kJ/mol
# Density = 2.290401 g / cm^3
# Si number density = 22.956257 Si / 1000 Ang^3
#
#
#
# Elastic Constant Matrix: (Units=GPa)
#
#
# Indices 1 2 3 4 5 6 
#
# 1 86.2127 28.9056 51.8365 0.0000 0.0000 0.0000
# 2 28.9056 86.2127 51.8365 0.0000 0.0000 0.0000
# 3 51.8365 51.8365 190.9930 0.0000 0.0000 0.0000
# 4 0.0000 0.0000 0.0000 30.6240 0.0000 0.0000
# 5 0.0000 0.0000 0.0000 0.0000 30.6240 0.0000
# 6 0.0000 0.0000 0.0000 0.0000 0.0000 32.0840
#
#
#
# Elastic Compliance Matrix: (Units=1/GPa)
#
#
# Indices 1 2 3 4 5 6 
#
# 1 0.014473 -0.002977 -0.003120 0.000000 0.000000 0.000000
# 2 -0.002977 0.014473 -0.003120 0.000000 0.000000 0.000000
# 3 -0.003120 -0.003120 0.006930 0.000000 0.000000 0.000000
# 4 0.000000 0.000000 0.000000 0.032654 0.000000 0.000000
# 5 0.000000 0.000000 0.000000 0.000000 0.032654 0.000000
# 6 0.000000 0.000000 0.000000 0.000000 0.000000 0.031168
#
#
# Mechanical properties :
#
#
# Convention : Reuss Voigt Hill
#
# Bulk Modulus (GPa) = 57.33314 69.84173 63.58743
# Shear Modulus (GPa) = 31.92835 34.05574 32.99204
#
# Velocity S-wave (km/s) = 3.73343 3.85581 3.79512
# Velocity P-wave (km/s) = 6.60408 7.09316 6.85298
#
# Compressibility (1/GPa) = 0.01744192
#
# Stress axis : x y z
#
# Youngs Moduli (GPa) = 69.09273 69.09273 144.31024
#
# Poissons Ratio (x) = 0.20566 0.45029
# Poissons Ratio (y) = 0.20566 0.45029
# Poissons Ratio (z) = 0.21559 0.21559
#
# Static dielectric constant tensor:
#      x y z
#    x 4.232850 0.000000 0.000000 
#    y 0.000000 4.232850 0.000000 
#    z 0.000000 0.000000 4.212630 
# 
# 
# High freq. dielectric constant tensor:
#      x y z
#    x 1.910070 0.000000 0.000000 
#    y 0.000000 1.910070 0.000000 
#    z 0.000000 0.000000 1.918240 
# 
# From -- ./inp_files/4435.got.cif
#   From: 2010.03.12/outbox.cif.g09.slc.cpg/sg116_3_cif.got.tgz:4435.got - 2010.04.14 02:15:44.
