data_PCOD8310338
_publ_section_title
;
Structure prediction by ZEFSAII (Michael W. Deem and Ramdas Pophale) SiO2 
 PCOD8310338
Probable space group: P -4 B 2
;
_chemical_formula_sum "Si O2"
_cell_formula_units_Z 56
_cell_length_a 13.678420
_cell_length_b 13.678420
_cell_length_c 15.809678
_cell_angle_alpha 90.000000
_cell_angle_beta 90.000000
_cell_angle_gamma 90.000000
_cell_volume 2957.977690
_symmetry_space_group_name_H-M "P -4 B 2"
_symmetry_group_IT_number 117
_symmetry_cell_setting 'tetragonal'
loop_
_space_group_symop_operation_xyz
x,y,z
y,-x,-z
-x,-y,z
-y,x,-z
1/2+y,1/2+x,-z
1/2-y,1/2-x,-z
1/2-x,1/2+y,z
1/2+x,1/2-y,z
loop_
_atom_site_type_symbol
_atom_site_label
_atom_site_fract_x
_atom_site_fract_y
_atom_site_fract_z
Si Si1 0.842426 0.999394 0.499905
Si Si2 0.610936 0.883208 0.907393
Si Si3 0.621742 0.224747 0.258393
Si Si4 0.392572 0.880295 0.092522
Si Si5 0.240523 0.081236 0.667581
Si Si6 0.238836 0.918621 0.332165
Si Si7 0.773553 0.378940 0.257835
O O1 0.772694 0.034660 0.424631
O O2 0.910276 0.088976 0.532069
O O3 0.771584 0.963792 0.574443
O O4 0.494834 0.875960 0.899269
O O5 0.653853 0.815869 0.833424
O O6 0.645283 0.993845 0.896957
O O7 0.650205 0.849796 0.000000
O O8 0.657150 0.179626 0.168406
O O9 0.505967 0.237221 0.267156
O O10 0.667344 0.153322 0.330542
O O11 0.666995 0.332085 0.267645
O O12 0.349855 0.849855 0.000000
O O13 0.141998 0.140852 0.693304
O O14 0.334025 0.153601 0.670723
O O15 0.260008 0.005326 0.266048
#
# Coordination Sequence:
#
# PCOD8310338 Si02
#       7
#     8   8   8   8   8   8   8
#     4   9  18  36  58  77 110 156 188 223 274 329
#     4   9  17  32  55  79 107 144 183 225 275 325
#     4  11  21  34  57  83 111 148 181 230 283 322
#     4   9  17  32  55  79 107 144 183 225 275 325
#     4  10  22  37  55  83 112 143 190 230 273 335
#     4  10  22  37  55  83 112 143 190 230 273 335
#     4  11  21  34  57  83 111 148 181 230 283 322
#
# _framework density 18.931851999999999
#
# number of rings (size 3 to 8) (size 9 to 14) (size 15 to 20)
#    0.000    2.143    2.857    1.714    0.000    4.000 
#    0.000    4.286    0.000    1.714    0.000    0.000 
#    0.000    0.000    0.000    0.000    0.000    0.000 
#
# Total GULP energy -694058.880455 kJ/mol
# GULP energy per Si atom -12393.908580 kJ/mol
# Density = 1.888876 g / cm^3
# Si number density = 18.931852 Si / 1000 Ang^3
#
#
#
# Elastic Constant Matrix: (Units=GPa)
#
#
# Indices 1 2 3 4 5 6 
#
# 1 74.4374 38.6885 29.7074 0.0000 0.0000 0.0000
# 2 38.6885 74.4370 29.7075 0.0000 0.0000 0.0000
# 3 29.7074 29.7075 103.2002 0.0000 0.0000 0.0000
# 4 0.0000 0.0000 0.0000 21.5038 0.0000 0.0000
# 5 0.0000 0.0000 0.0000 0.0000 21.5038 0.0000
# 6 0.0000 0.0000 0.0000 0.0000 0.0000 16.5205
#
#
#
# Elastic Compliance Matrix: (Units=1/GPa)
#
#
# Indices 1 2 3 4 5 6 
#
# 1 0.019194 -0.008779 -0.002998 0.000000 0.000000 0.000000
# 2 -0.008779 0.019194 -0.002998 0.000000 0.000000 0.000000
# 3 -0.002998 -0.002998 0.011416 0.000000 0.000000 0.000000
# 4 0.000000 0.000000 0.000000 0.046503 0.000000 0.000000
# 5 0.000000 0.000000 0.000000 0.000000 0.046503 0.000000
# 6 0.000000 0.000000 0.000000 0.000000 0.000000 0.060531
#
#
# Mechanical properties :
#
#
# Convention : Reuss Voigt Hill
#
# Bulk Modulus (GPa) = 49.37575 49.80905 49.59240
# Shear Modulus (GPa) = 20.86445 22.17036 21.51740
#
# Velocity S-wave (km/s) = 3.32336 3.42579 3.37497
# Velocity P-wave (km/s) = 6.39247 6.48188 6.43733
#
# Compressibility (1/GPa) = 0.02025286
#
# Stress axis : x y z
#
# Youngs Moduli (GPa) = 52.10073 52.10038 87.59751
#
# Poissons Ratio (x) = 0.45741 0.26260
# Poissons Ratio (y) = 0.45741 0.26261
# Poissons Ratio (z) = 0.15619 0.15619
#
# Static dielectric constant tensor:
#      x y z
#    x 3.350080 0.000000 0.000000 
#    y 0.000000 3.350080 0.000000 
#    z 0.000000 0.000000 3.616540 
# 
# 
# High freq. dielectric constant tensor:
#      x y z
#    x 1.725320 0.000000 0.000000 
#    y 0.000000 1.725320 0.000000 
#    z 0.000000 0.000000 1.733780 
# 
# From -- ./inp_files/3227.got.cif
#   From: 2010.03.12/outbox.cif.g09.slc.cpg/sg117_2_cif.got.tgz:3227.got - 2010.04.14 02:19:01.
