data_PCOD8310461
_publ_section_title
;
Structure prediction by ZEFSAII (Michael W. Deem and Ramdas Pophale) SiO2 
 PCOD8310461
Probable space group: P -4 N 2
;
_chemical_formula_sum "Si O2"
_cell_formula_units_Z 32
_cell_length_a 7.312134
_cell_length_b 7.312134
_cell_length_c 33.047456
_cell_angle_alpha 90.000000
_cell_angle_beta 90.000000
_cell_angle_gamma 90.000000
_cell_volume 1766.958364
_symmetry_space_group_name_H-M "P -4 N 2"
_symmetry_group_IT_number 118
_symmetry_cell_setting 'tetragonal'
loop_
_space_group_symop_operation_xyz
x,y,z
y,-x,-z
-x,-y,z
-y,x,-z
1/2+y,1/2+x,1/2-z
1/2-y,1/2-x,1/2-z
1/2-x,1/2+y,1/2+z
1/2+x,1/2-y,1/2+z
loop_
_atom_site_type_symbol
_atom_site_label
_atom_site_fract_x
_atom_site_fract_y
_atom_site_fract_z
Si Si1 0.500000 0.000000 0.617321
Si Si2 0.221360 0.721360 0.750000
Si Si3 0.500000 0.500000 0.000000
Si Si4 0.146594 0.361019 0.039693
Si Si5 0.694532 0.194532 0.250000
Si Si6 0.500000 0.500000 0.500000
Si Si7 0.518097 0.711011 0.684419
O O1 0.653509 0.089886 0.587802
O O2 0.440879 0.169113 0.645055
O O3 0.245748 0.511220 0.762391
O O4 0.341527 0.773602 0.710694
O O5 0.353555 0.389148 0.026008
O O6 0.000000 0.500000 0.018580
O O7 0.082908 0.154944 0.029577
O O8 0.751741 0.305741 0.289001
O O9 0.500000 0.500000 0.671247
#
# Coordination Sequence:
#
# PCOD8310461 Si02
#       7
#     4   4   2   8   4   2   8
#     4  10  22  37  50  90 118 150 184 242 294 359
#     4   9  18  33  54  76 100 151 198 231 280 340
#     4  12  20  48  64  96 112 158 204 240 284 368
#     4  10  23  37  65  90 120 152 196 243 291 355
#     4   9  18  33  54  76 100 147 202 235 276 336
#     4  12  20  44  72  88 116 162 196 244 288 360
#     4  10  19  33  53  75 114 146 189 239 288 339
#
# _framework density 18.110216999999999
#
# number of rings (size 3 to 8) (size 9 to 14) (size 15 to 20)
#    0.750    1.250    2.500    1.500    1.750    0.000 
#    4.500    0.000    0.000    0.000    0.000    0.000 
#    0.000    0.000    0.000    0.000    0.000    0.000 
#
# Total GULP energy -396418.252304 kJ/mol
# GULP energy per Si atom -12388.070385 kJ/mol
# Density = 1.806900 g / cm^3
# Si number density = 18.110217 Si / 1000 Ang^3
#
#
#
# Elastic Constant Matrix: (Units=GPa)
#
#
# Indices 1 2 3 4 5 6 
#
# 1 125.8745 37.3430 63.2918 0.0000 0.0000 0.0000
# 2 37.3430 125.8745 63.2918 0.0000 0.0000 0.0000
# 3 63.2918 63.2918 131.5225 0.0000 0.0000 0.0000
# 4 0.0000 0.0000 0.0000 33.3806 0.0000 0.0000
# 5 0.0000 0.0000 0.0000 0.0000 33.3806 0.0000
# 6 0.0000 0.0000 0.0000 0.0000 0.0000 24.4525
#
#
#
# Elastic Compliance Matrix: (Units=1/GPa)
#
#
# Indices 1 2 3 4 5 6 
#
# 1 0.010535 -0.000760 -0.004704 0.000000 0.000000 0.000000
# 2 -0.000760 0.010535 -0.004704 0.000000 0.000000 0.000000
# 3 -0.004704 -0.004704 0.012131 0.000000 0.000000 0.000000
# 4 0.000000 0.000000 0.000000 0.029958 0.000000 0.000000
# 5 0.000000 0.000000 0.000000 0.000000 0.029958 0.000000
# 6 0.000000 0.000000 0.000000 0.000000 0.000000 0.040896
#
#
# Mechanical properties :
#
#
# Convention : Reuss Voigt Hill
#
# Bulk Modulus (GPa) = 77.73216 79.01386 78.37301
# Shear Modulus (GPa) = 31.51867 32.86571 32.19219
#
# Velocity S-wave (km/s) = 4.17631 4.26462 4.22070
# Velocity P-wave (km/s) = 8.14066 8.24460 8.19280
#
# Compressibility (1/GPa) = 0.01286469
#
# Stress axis : x y z
#
# Youngs Moduli (GPa) = 94.92012 94.92012 82.43644
#
# Poissons Ratio (x) = 0.07216 0.38778
# Poissons Ratio (y) = 0.07216 0.38778
# Poissons Ratio (z) = 0.44650 0.44650
#
# Static dielectric constant tensor:
#      x y z
#    x 3.431730 0.000000 0.000000 
#    y 0.000000 3.431730 0.000000 
#    z 0.000000 0.000000 3.032770 
# 
# 
# High freq. dielectric constant tensor:
#      x y z
#    x 1.709080 0.000000 0.000000 
#    y 0.000000 1.709080 0.000000 
#    z 0.000000 0.000000 1.680140 
# 
# From -- ./inp_files/6371.got.cif
#   From: 2010.03.12/outbox.cif.g09.slc.cpg/sg118_4_cif.got.tgz:6371.got - 2010.04.14 02:21:17.
