data_PCOD8310751
_publ_section_title
;
Structure prediction by ZEFSAII (Michael W. Deem and Ramdas Pophale) SiO2 
 PCOD8310751
Probable space group: I -4 M 2
;
_chemical_formula_sum "Si O2"
_cell_formula_units_Z 96
_cell_length_a 17.836736
_cell_length_b 17.836736
_cell_length_c 18.920575
_cell_angle_alpha 90.000000
_cell_angle_beta 90.000000
_cell_angle_gamma 90.000000
_cell_volume 6019.564875
_symmetry_space_group_name_H-M "I -4 M 2"
_symmetry_group_IT_number 119
_symmetry_cell_setting 'tetragonal'
loop_
_space_group_symop_operation_xyz
x,y,z
y,-x,-z
-x,-y,z
-y,x,-z
y,x,-z
-y,-x,-z
-x,y,z
x,-y,z
1/2+x,1/2+y,1/2+z
1/2+y,1/2-x,1/2-z
1/2-x,1/2-y,1/2+z
1/2-y,1/2+x,1/2-z
1/2+y,1/2+x,1/2-z
1/2-y,1/2-x,1/2-z
1/2-x,1/2+y,1/2+z
1/2+x,1/2-y,1/2+z
loop_
_atom_site_type_symbol
_atom_site_label
_atom_site_fract_x
_atom_site_fract_y
_atom_site_fract_z
Si Si1 0.291137 0.085472 0.903134
Si Si2 0.085770 0.087323 0.418432
Si Si3 0.912807 0.656524 0.318215
Si Si4 0.914257 0.198160 0.964753
Si Si5 0.702812 0.311552 0.661913
Si Si6 0.175113 0.804797 0.318046
O O1 0.371150 0.123756 0.887488
O O2 0.225864 0.123582 0.857297
O O3 0.293799 0.000000 0.878173
O O4 0.272009 0.093305 0.986150
O O5 0.104561 0.104561 0.500000
O O6 0.143750 0.132367 0.370149
O O7 0.000000 0.110915 0.401777
O O8 0.096829 0.000000 0.402174
O O9 0.893143 0.606857 0.250000
O O10 0.887357 0.741457 0.304624
O O11 0.000000 0.653385 0.334559
O O12 0.881792 0.219922 0.888323
O O13 0.000000 0.173249 0.955988
O O14 0.871027 0.128974 0.000000
O O15 0.768199 0.250187 0.649610
O O16 0.697034 0.340706 0.742358
#
# Coordination Sequence:
#
# PCOD8310751 Si02
#       6
#    16  16  16  16  16  16
#     4   9  17  30  44  62  91 125 156 190 234 276
#     4   9  19  34  50  71  99 129 160 198 246 294
#     4  11  20  29  44  68  97 128 162 194 232 282
#     4   9  18  32  50  68  92 124 158 200 244 288
#     4   9  18  31  47  69  92 120 161 198 238 282
#     4  10  18  32  49  70  95 126 159 197 240 285
#
# _framework density 15.947997000000001
#
# number of rings (size 3 to 8) (size 9 to 14) (size 15 to 20)
#    0.000    2.500    3.333    1.500    0.000    6.000 
#    0.000    0.000    0.000    0.000    0.000    0.000 
#    0.000    0.000    0.000    3.667    0.000    0.000 
#
# Total GULP energy -595096.172425 kJ/mol
# GULP energy per Si atom -12397.836926 kJ/mol
# Density = 1.591170 g / cm^3
# Si number density = 15.947997 Si / 1000 Ang^3
#
#
#
# Elastic Constant Matrix: (Units=GPa)
#
#
# Indices 1 2 3 4 5 6 
#
# 1 83.1510 34.6436 55.1512 0.0000 0.0000 0.0000
# 2 34.6436 83.1512 55.1511 0.0000 0.0000 0.0000
# 3 55.1512 55.1511 104.5793 0.0000 0.0000 0.0000
# 4 0.0000 0.0000 0.0000 26.8653 0.0000 0.0000
# 5 0.0000 0.0000 0.0000 0.0000 26.8652 0.0000
# 6 0.0000 0.0000 0.0000 0.0000 0.0000 19.7999
#
#
#
# Elastic Compliance Matrix: (Units=1/GPa)
#
#
# Indices 1 2 3 4 5 6 
#
# 1 0.018693 -0.001922 -0.008845 0.000000 0.000000 0.000000
# 2 -0.001922 0.018693 -0.008845 0.000000 0.000000 0.000000
# 3 -0.008845 -0.008845 0.018891 0.000000 0.000000 0.000000
# 4 0.000000 0.000000 0.000000 0.037223 0.000000 0.000000
# 5 0.000000 0.000000 0.000000 0.000000 0.037223 0.000000
# 6 0.000000 0.000000 0.000000 0.000000 0.000000 0.050505
#
#
# Mechanical properties :
#
#
# Convention : Reuss Voigt Hill
#
# Bulk Modulus (GPa) = 58.63341 62.30815 60.47078
# Shear Modulus (GPa) = 22.11063 23.10181 22.60622
#
# Velocity S-wave (km/s) = 3.72751 3.81014 3.76905
# Velocity P-wave (km/s) = 7.44116 7.64922 7.54591
#
# Compressibility (1/GPa) = 0.01705512
#
# Stress axis : x y z
#
# Youngs Moduli (GPa) = 53.49480 53.49505 52.93606
#
# Poissons Ratio (x) = 0.10282 0.46820
# Poissons Ratio (y) = 0.10282 0.46820
# Poissons Ratio (z) = 0.47314 0.47314
#
# Static dielectric constant tensor:
#      x y z
#    x 2.932720 0.000000 0.000000 
#    y 0.000000 2.932720 0.000000 
#    z 0.000000 0.000000 3.132000 
# 
# 
# High freq. dielectric constant tensor:
#      x y z
#    x 1.600410 0.000000 0.000000 
#    y 0.000000 1.600410 0.000000 
#    z 0.000000 0.000000 1.612660 
# 
# From -- ./inp_files/6619.got.cif
#   From: 2010.03.12/outbox.cif.g09.slc.cpg/sg119_4_cif.got.tgz:6619.got - 2010.04.14 02:25:26.
