data_PCOD8310747
_publ_section_title
;
Structure prediction by ZEFSAII (Michael W. Deem and Ramdas Pophale) SiO2 
 PCOD8310747
Probable space group: I -4 M 2
;
_chemical_formula_sum "Si O2"
_cell_formula_units_Z 96
_cell_length_a 17.117792
_cell_length_b 17.117792
_cell_length_c 17.143632
_cell_angle_alpha 90.000000
_cell_angle_beta 90.000000
_cell_angle_gamma 90.000000
_cell_volume 5023.406527
_symmetry_space_group_name_H-M "I -4 M 2"
_symmetry_group_IT_number 119
_symmetry_cell_setting 'tetragonal'
loop_
_space_group_symop_operation_xyz
x,y,z
y,-x,-z
-x,-y,z
-y,x,-z
y,x,-z
-y,-x,-z
-x,y,z
x,-y,z
1/2+x,1/2+y,1/2+z
1/2+y,1/2-x,1/2-z
1/2-x,1/2-y,1/2+z
1/2-y,1/2+x,1/2-z
1/2+y,1/2+x,1/2-z
1/2-y,1/2-x,1/2-z
1/2-x,1/2+y,1/2+z
1/2+x,1/2-y,1/2+z
loop_
_atom_site_type_symbol
_atom_site_label
_atom_site_fract_x
_atom_site_fract_y
_atom_site_fract_z
Si Si1 0.000000 0.759519 0.771431
Si Si2 0.086316 0.000000 0.302145
Si Si3 0.747654 0.223743 0.589719
Si Si4 0.348433 0.000000 0.364954
Si Si5 0.000000 0.588524 0.474285
Si Si6 0.913200 0.329154 0.054988
Si Si7 0.588286 0.643618 0.915890
Si Si8 0.173397 0.377961 0.627028
O O1 0.074951 0.728284 0.815650
O O2 0.000000 0.853351 0.770148
O O3 0.000000 0.733957 0.679899
O O4 0.099236 0.924719 0.354587
O O5 0.000000 0.000000 0.264904
O O6 0.761814 0.238187 0.500000
O O7 0.652987 0.220077 0.601709
O O8 0.784041 0.140591 0.613062
O O9 0.793150 0.290286 0.637667
O O10 0.343357 0.000000 0.459119
O O11 0.389619 0.916805 0.343761
O O12 0.921187 0.598488 0.423862
O O13 0.000000 0.500000 0.511519
O O14 0.906567 0.318396 0.961679
O O15 0.000000 0.300941 0.080965
O O16 0.500000 0.674226 0.919165
O O17 0.613064 0.613064 0.000000
#
# Coordination Sequence:
#
# PCOD8310747 Si02
#       8
#     8   8  16   8   8  16  16  16
#     4  12  22  35  52  70 103 142 178 218 257 299
#     4  10  22  36  53  75 102 136 178 212 266 317
#     4   9  19  30  47  74  99 130 178 216 266 310
#     4  10  20  30  50  72 100 139 178 196 256 315
#     4   8  16  28  46  70 110 136 161 211 249 310
#     4   9  16  31  50  71 100 136 171 213 267 306
#     4  10  18  31  52  74 103 134 167 213 260 318
#     4  10  20  35  47  71 103 141 173 223 252 307
#
# _framework density 19.110537000000001
#
# number of rings (size 3 to 8) (size 9 to 14) (size 15 to 20)
#    0.000    2.333    1.667    1.500    2.333    1.333 
#    6.000    0.833    0.000    0.000    0.000    0.000 
#    0.000    0.000    0.000    0.000    0.000    0.000 
#
# Total GULP energy -594659.151263 kJ/mol
# GULP energy per Si atom -12388.732318 kJ/mol
# Density = 1.906704 g / cm^3
# Si number density = 19.110537 Si / 1000 Ang^3
#
#
#
# Elastic Constant Matrix: (Units=GPa)
#
#
# Indices 1 2 3 4 5 6 
#
# 1 146.5828 66.4175 26.8083 0.0000 0.0000 0.0000
# 2 66.4175 146.5828 26.8083 0.0000 0.0000 0.0000
# 3 26.8083 26.8083 25.2512 0.0000 0.0000 0.0000
# 4 0.0000 0.0000 0.0000 14.0021 0.0000 0.0000
# 5 0.0000 0.0000 0.0000 0.0000 14.0020 0.0000
# 6 0.0000 0.0000 0.0000 0.0000 0.0000 23.0648
#
#
#
# Elastic Compliance Matrix: (Units=1/GPa)
#
#
# Indices 1 2 3 4 5 6 
#
# 1 0.009441 -0.003034 -0.006802 0.000000 0.000000 0.000000
# 2 -0.003034 0.009441 -0.006802 0.000000 0.000000 0.000000
# 3 -0.006802 -0.006802 0.054045 0.000000 0.000000 0.000000
# 4 0.000000 0.000000 0.000000 0.071418 0.000000 0.000000
# 5 0.000000 0.000000 0.000000 0.000000 0.071418 0.000000
# 6 0.000000 0.000000 0.000000 0.000000 0.000000 0.043356
#
#
# Mechanical properties :
#
#
# Convention : Reuss Voigt Hill
#
# Bulk Modulus (GPa) = 25.22015 62.05388 43.63702
# Shear Modulus (GPa) = 16.36062 23.43929 19.89995
#
# Velocity S-wave (km/s) = 2.92910 3.50596 3.23043
# Velocity P-wave (km/s) = 4.96640 6.99503 6.06612
#
# Compressibility (1/GPa) = 0.03965083
#
# Stress axis : x y z
#
# Youngs Moduli (GPa) = 105.92487 105.92492 18.50297
#
# Poissons Ratio (x) = 0.32133 0.12586
# Poissons Ratio (y) = 0.32133 0.12586
# Poissons Ratio (z) = 0.72052 0.72052
#
# Static dielectric constant tensor:
#      x y z
#    x 3.758640 0.000000 0.000000 
#    y 0.000000 3.758650 0.000000 
#    z 0.000000 0.000000 2.957980 
# 
# 
# High freq. dielectric constant tensor:
#      x y z
#    x 1.747110 0.000000 0.000000 
#    y 0.000000 1.747110 0.000000 
#    z 0.000000 0.000000 1.680260 
# 
# From -- ./inp_files/7969.got.cif
#   From: 2010.03.12/outbox.cif.g09.slc.cpg/sg119_4_cif.got.tgz:7969.got - 2010.04.14 02:25:26.
