data_PCOD8310439
_publ_section_title
;
Structure prediction by ZEFSAII (Michael W. Deem and Ramdas Pophale) SiO2 
 PCOD8310439
Probable space group: P -4 N 2
;
_chemical_formula_sum "Si O2"
_cell_formula_units_Z 52
_cell_length_a 17.710443
_cell_length_b 17.710443
_cell_length_c 9.841741
_cell_angle_alpha 90.000000
_cell_angle_beta 90.000000
_cell_angle_gamma 90.000000
_cell_volume 3086.958428
_symmetry_space_group_name_H-M "P -4 N 2"
_symmetry_group_IT_number 118
_symmetry_cell_setting 'tetragonal'
loop_
_space_group_symop_operation_xyz
x,y,z
y,-x,-z
-x,-y,z
-y,x,-z
1/2+y,1/2+x,1/2-z
1/2-y,1/2-x,1/2-z
1/2-x,1/2+y,1/2+z
1/2+x,1/2-y,1/2+z
loop_
_atom_site_type_symbol
_atom_site_label
_atom_site_fract_x
_atom_site_fract_y
_atom_site_fract_z
Si Si1 0.558732 0.304275 0.741264
Si Si2 0.016697 0.359449 0.250996
Si Si3 0.121159 0.003274 0.013755
Si Si4 0.131102 0.631102 0.750000
Si Si5 0.912180 0.194200 0.739006
Si Si6 0.062539 0.564266 0.022769
Si Si7 0.120669 0.016779 0.511670
O O1 0.566264 0.215324 0.760896
O O2 0.522074 0.317876 0.595503
O O3 0.642033 0.338010 0.755961
O O4 0.500125 0.337882 0.848611
O O5 0.068453 0.431548 0.250000
O O6 0.966144 0.367405 0.386648
O O7 0.970333 0.364811 0.109404
O O8 0.167412 0.030282 0.144473
O O9 0.068663 0.068919 0.949733
O O10 0.114675 0.720269 0.755102
O O11 0.094483 0.593308 0.881115
O O12 0.955029 0.182285 0.596742
O O13 0.000000 0.500000 0.992713
O O14 0.058663 0.080586 0.544241
#
# Coordination Sequence:
#
# PCOD8310439 Si02
#       7
#     8   8   8   4   8   8   8
#     4  10  18  30  49  70  97 130 154 185 238 279
#     4   9  18  33  53  70  93 118 166 200 228 271
#     4   9  17  31  49  70  94 124 163 196 221 265
#     4  12  21  32  48  70 108 119 148 190 248 292
#     4  10  21  30  45  73 100 126 151 187 239 284
#     4   9  19  35  53  73  85 121 164 206 231 264
#     4   9  17  31  49  70  94 124 163 196 221 265
#
# _framework density 16.845061000000001
#
# number of rings (size 3 to 8) (size 9 to 14) (size 15 to 20)
#    0.000    2.462    0.000    3.923    1.077    3.692 
#    0.000    0.000    0.000    0.000    0.000    0.000 
#    0.000    0.000    0.000    0.000    0.000    0.000 
#
# Total GULP energy -644574.464387 kJ/mol
# GULP energy per Si atom -12395.662777 kJ/mol
# Density = 1.680672 g / cm^3
# Si number density = 16.845061 Si / 1000 Ang^3
#
#
#
# Elastic Constant Matrix: (Units=GPa)
#
#
# Indices 1 2 3 4 5 6 
#
# 1 83.4560 27.3525 37.0382 0.0000 0.0000 0.0000
# 2 27.3525 83.4533 37.0384 0.0000 0.0000 0.0000
# 3 37.0382 37.0384 91.7868 0.0000 0.0000 0.0000
# 4 0.0000 0.0000 0.0000 14.5913 0.0000 0.0000
# 5 0.0000 0.0000 0.0000 0.0000 14.5895 0.0000
# 6 0.0000 0.0000 0.0000 0.0000 0.0000 17.8096
#
#
#
# Elastic Compliance Matrix: (Units=1/GPa)
#
#
# Indices 1 2 3 4 5 6 
#
# 1 0.015091 -0.002733 -0.004987 0.000000 0.000000 0.000000
# 2 -0.002733 0.015092 -0.004987 0.000000 0.000000 0.000000
# 3 -0.004987 -0.004987 0.014920 0.000000 0.000000 0.000000
# 4 0.000000 0.000000 0.000000 0.068534 0.000000 0.000000
# 5 0.000000 0.000000 0.000000 0.000000 0.068542 0.000000
# 6 0.000000 0.000000 0.000000 0.000000 0.000000 0.056150
#
#
# Mechanical properties :
#
#
# Convention : Reuss Voigt Hill
#
# Bulk Modulus (GPa) = 50.79046 51.28383 51.03715
# Shear Modulus (GPa) = 18.49759 19.88256 19.19007
#
# Velocity S-wave (km/s) = 3.31736 3.43931 3.37888
# Velocity P-wave (km/s) = 6.70001 6.80311 6.75176
#
# Compressibility (1/GPa) = 0.01968874
#
# Stress axis : x y z
#
# Youngs Moduli (GPa) = 66.26336 66.26062 67.02607
#
# Poissons Ratio (x) = 0.18109 0.33425
# Poissons Ratio (y) = 0.18110 0.33427
# Poissons Ratio (z) = 0.33045 0.33045
#
# Static dielectric constant tensor:
#      x y z
#    x 3.127570 0.000000 0.000000 
#    y 0.000000 3.127560 0.000000 
#    z 0.000000 0.000000 3.208180 
# 
# 
# High freq. dielectric constant tensor:
#      x y z
#    x 1.642250 0.000000 0.000000 
#    y 0.000000 1.642250 0.000000 
#    z 0.000000 0.000000 1.658600 
# 
# From -- ./inp_files/2169.got.cif
#   From: 2010.03.12/outbox.cif.g09.slc.cpg/sg118_2_cif.got.tgz:2169.got - 2010.04.14 02:21:17.
