data_PCOD8310027
_publ_section_title
;
Structure prediction by ZEFSAII (Michael W. Deem and Ramdas Pophale) SiO2 
 PCOD8310027
Probable space group: P -4 M 2
;
_chemical_formula_sum "Si O2"
_cell_formula_units_Z 40
_cell_length_a 9.339441
_cell_length_b 9.339441
_cell_length_c 26.103415
_cell_angle_alpha 90.000000
_cell_angle_beta 90.000000
_cell_angle_gamma 90.000000
_cell_volume 2276.874503
_symmetry_space_group_name_H-M "P -4 M 2"
_symmetry_group_IT_number 115
_symmetry_cell_setting 'tetragonal'
loop_
_space_group_symop_operation_xyz
x,y,z
y,-x,-z
-x,-y,z
-y,x,-z
y,x,-z
-y,-x,-z
-x,y,z
x,-y,z
loop_
_atom_site_type_symbol
_atom_site_label
_atom_site_fract_x
_atom_site_fract_y
_atom_site_fract_z
Si Si1 0.659788 0.329534 0.443655
Si Si2 0.834641 0.332070 0.152827
Si Si3 0.329456 0.662168 0.748941
Si Si4 0.170526 0.159351 0.055748
Si Si5 0.329115 0.161644 0.651732
O O1 0.716843 0.283158 0.500000
O O2 0.500000 0.268381 0.433488
O O3 0.653110 0.500000 0.441670
O O4 0.766517 0.269565 0.400364
O O5 0.815569 0.500000 0.145916
O O6 0.742094 0.273444 0.200286
O O7 0.773490 0.260385 0.101185
O O8 0.000000 0.291392 0.162930
O O9 0.500000 0.662322 0.748079
O O10 0.270275 0.500000 0.747933
O O11 0.270245 0.747417 0.699700
O O12 0.000000 0.154763 0.055149
O O13 0.232047 0.000000 0.065168
O O14 0.220085 0.220085 0.000000
O O15 0.500000 0.161282 0.651879
O O16 0.269969 0.000000 0.655356
#
# Coordination Sequence:
#
# PCOD8310027 Si02
#       5
#     8   8   8   8   8
#     4   8  13  21  33  50  74 103 131 159 197 247
#     4   9  16  26  41  61  83 106 135 172 209 243
#     4   9  16  25  37  54  80 113 142 168 205 252
#     4   8  14  26  44  63  82 107 139 171 204 246
#     4   9  15  22  34  54  79 105 135 172 209 243
#
# _framework density 17.567943
#
# number of rings (size 3 to 8) (size 9 to 14) (size 15 to 20)
#    0.000    3.400    0.000    2.400    0.000    4.800 
#    0.000    1.000    0.000    1.800    0.000    1.400 
#    0.000    5.200    0.000    0.000    0.000    0.000 
#
# Total GULP energy -495751.068394 kJ/mol
# GULP energy per Si atom -12393.776710 kJ/mol
# Density = 1.752796 g / cm^3
# Si number density = 17.567943 Si / 1000 Ang^3
#
#
#
# Elastic Constant Matrix: (Units=GPa)
#
#
# Indices 1 2 3 4 5 6 
#
# 1 58.8105 21.0079 58.3510 0.0000 0.0000 0.0000
# 2 21.0079 58.8107 58.3510 0.0000 0.0000 0.0000
# 3 58.3510 58.3510 202.9734 0.0000 0.0000 0.0000
# 4 0.0000 0.0000 0.0000 15.4672 0.0000 0.0000
# 5 0.0000 0.0000 0.0000 0.0000 15.4672 0.0000
# 6 0.0000 0.0000 0.0000 0.0000 0.0000 6.3577
#
#
#
# Elastic Compliance Matrix: (Units=1/GPa)
#
#
# Indices 1 2 3 4 5 6 
#
# 1 0.024033 -0.002420 -0.006213 0.000000 0.000000 0.000000
# 2 -0.002420 0.024033 -0.006213 0.000000 0.000000 0.000000
# 3 -0.006213 -0.006213 0.008499 0.000000 0.000000 0.000000
# 4 0.000000 0.000000 0.000000 0.064653 0.000000 0.000000
# 5 0.000000 0.000000 0.000000 0.000000 0.064653 0.000000
# 6 0.000000 0.000000 0.000000 0.000000 0.000000 0.157290
#
#
# Mechanical properties :
#
#
# Convention : Reuss Voigt Hill
#
# Bulk Modulus (GPa) = 37.21390 66.22382 51.71886
# Shear Modulus (GPa) = 13.09545 19.65072 16.37309
#
# Velocity S-wave (km/s) = 2.73320 3.34811 3.05616
# Velocity P-wave (km/s) = 5.58474 7.26114 6.47740
#
# Compressibility (1/GPa) = 0.02687168
#
# Stress axis : x y z
#
# Youngs Moduli (GPa) = 41.60942 41.60954 117.65885
#
# Poissons Ratio (x) = 0.10070 0.73105
# Poissons Ratio (y) = 0.10070 0.73105
# Poissons Ratio (z) = 0.25853 0.25853
#
# Static dielectric constant tensor:
#      x y z
#    x 2.947590 0.000000 0.000000 
#    y 0.000000 2.947590 0.000000 
#    z 0.000000 0.000000 3.716140 
# 
# 
# High freq. dielectric constant tensor:
#      x y z
#    x 1.631130 0.000000 0.000000 
#    y 0.000000 1.631130 0.000000 
#    z 0.000000 0.000000 1.701230 
# 
# From -- ./inp_files/5440.got.cif
#   From: 2010.03.12/outbox.cif.g09.slc.cpg/sg115_3_cif.got.tgz:5440.got - 2010.04.14 02:11:21.
