data_PCOD8310463
_publ_section_title
;
Structure prediction by ZEFSAII (Michael W. Deem and Ramdas Pophale) SiO2 
 PCOD8310463
Probable space group: P -4 N 2
;
_chemical_formula_sum "Si O2"
_cell_formula_units_Z 36
_cell_length_a 12.934004
_cell_length_b 12.934004
_cell_length_c 11.935517
_cell_angle_alpha 90.000000
_cell_angle_beta 90.000000
_cell_angle_gamma 90.000000
_cell_volume 1996.674252
_symmetry_space_group_name_H-M "P -4 N 2"
_symmetry_group_IT_number 118
_symmetry_cell_setting 'tetragonal'
loop_
_space_group_symop_operation_xyz
x,y,z
y,-x,-z
-x,-y,z
-y,x,-z
1/2+y,1/2+x,1/2-z
1/2-y,1/2-x,1/2-z
1/2-x,1/2+y,1/2+z
1/2+x,1/2-y,1/2+z
loop_
_atom_site_type_symbol
_atom_site_label
_atom_site_fract_x
_atom_site_fract_y
_atom_site_fract_z
Si Si1 0.596856 0.070209 0.577352
Si Si2 0.917945 0.089338 0.633823
Si Si3 0.491351 0.762439 0.723959
Si Si4 0.222555 0.722555 0.250000
Si Si5 0.590339 0.272434 0.081376
O O1 0.570221 0.186164 0.620724
O O2 0.663584 0.010202 0.668884
O O3 0.656077 0.076544 0.460469
O O4 0.500000 0.000000 0.552350
O O5 0.847637 0.061376 0.742619
O O6 0.847897 0.106637 0.524638
O O7 0.987987 0.192518 0.651717
O O8 0.000000 0.000000 0.611590
O O9 0.611797 0.756844 0.690880
O O10 0.308012 0.730110 0.154988
#
# Coordination Sequence:
#
# PCOD8310463 Si02
#       5
#     8   8   8   4   8
#     4  10  19  35  56  82 108 143 183 233 282 331
#     4  11  18  34  59  85 106 141 192 237 271 322
#     4  10  19  33  59  83 106 138 188 236 273 326
#     4  12  20  33  55  84 110 146 186 232 276 334
#     4  11  21  33  56  83 112 146 190 232 279 338
#
# _framework density 18.029983000000001
#
# number of rings (size 3 to 8) (size 9 to 14) (size 15 to 20)
#    0.000    1.333    6.667    2.000    0.000    0.000 
#    0.000    2.778    9.778    0.000    0.000    0.000 
#    0.000    0.000    0.000    0.000    0.000    0.000 
#
# Total GULP energy -446177.263040 kJ/mol
# GULP energy per Si atom -12393.812862 kJ/mol
# Density = 1.798895 g / cm^3
# Si number density = 18.029983 Si / 1000 Ang^3
#
#
#
# Elastic Constant Matrix: (Units=GPa)
#
#
# Indices 1 2 3 4 5 6 
#
# 1 128.1413 60.1107 48.8180 0.0000 0.0000 0.0000
# 2 60.1107 128.1413 48.8180 0.0000 0.0000 0.0000
# 3 48.8180 48.8180 43.8325 0.0000 0.0000 0.0000
# 4 0.0000 0.0000 0.0000 17.0153 0.0000 0.0000
# 5 0.0000 0.0000 0.0000 0.0000 17.0153 0.0000
# 6 0.0000 0.0000 0.0000 0.0000 0.0000 27.3234
#
#
#
# Elastic Compliance Matrix: (Units=1/GPa)
#
#
# Indices 1 2 3 4 5 6 
#
# 1 0.013638 -0.001061 -0.014007 0.000000 0.000000 0.000000
# 2 -0.001061 0.013638 -0.014007 0.000000 0.000000 0.000000
# 3 -0.014007 -0.014007 0.054015 0.000000 0.000000 0.000000
# 4 0.000000 0.000000 0.000000 0.058771 0.000000 0.000000
# 5 0.000000 0.000000 0.000000 0.000000 0.058771 0.000000
# 6 0.000000 0.000000 0.000000 0.000000 0.000000 0.036599
#
#
# Mechanical properties :
#
#
# Convention : Reuss Voigt Hill
#
# Bulk Modulus (GPa) = 43.21612 68.40092 55.80852
# Shear Modulus (GPa) = 16.59496 21.76203 19.17850
#
# Velocity S-wave (km/s) = 3.03712 3.47795 3.26498
# Velocity P-wave (km/s) = 6.02659 7.35852 6.72561
#
# Compressibility (1/GPa) = 0.02313951
#
# Stress axis : x y z
#
# Youngs Moduli (GPa) = 73.32414 73.32414 18.51332
#
# Poissons Ratio (x) = 0.07781 0.25932
# Poissons Ratio (y) = 0.07781 0.25932
# Poissons Ratio (z) = 1.02708 1.02708
#
# Static dielectric constant tensor:
#      x y z
#    x 3.804880 0.000000 0.000000 
#    y 0.000000 3.804880 0.000000 
#    z 0.000000 0.000000 3.027390 
# 
# 
# High freq. dielectric constant tensor:
#      x y z
#    x 1.705670 0.000000 0.000000 
#    y 0.000000 1.705670 0.000000 
#    z 0.000000 0.000000 1.651650 
# 
# From -- ./inp_files/3955.got.cif
#   From: 2010.03.12/outbox.cif.g09.slc.cpg/sg118_2_cif.got.tgz:3955.got - 2010.04.14 02:21:17.
