data_PCOD8310088
_publ_section_title
;
Structure prediction by ZEFSAII (Michael W. Deem and Ramdas Pophale) SiO2 
 PCOD8310088
Probable space group: P -4 C 2
;
_chemical_formula_sum "Si O2"
_cell_formula_units_Z 64
_cell_length_a 26.451387
_cell_length_b 26.451387
_cell_length_c 5.290429
_cell_angle_alpha 90.000000
_cell_angle_beta 90.000000
_cell_angle_gamma 90.000000
_cell_volume 3701.585536
_symmetry_space_group_name_H-M "P -4 C 2"
_symmetry_group_IT_number 116
_symmetry_cell_setting 'tetragonal'
loop_
_space_group_symop_operation_xyz
x,y,z
y,-x,-z
-x,-y,z
-y,x,-z
y,x,1/2-z
-y,-x,1/2-z
-x,y,1/2+z
x,-y,1/2+z
loop_
_atom_site_type_symbol
_atom_site_label
_atom_site_fract_x
_atom_site_fract_y
_atom_site_fract_z
Si Si1 0.444803 0.978496 0.738146
Si Si2 0.566963 0.862161 0.268408
Si Si3 0.174857 0.387504 0.731781
Si Si4 0.808003 0.727704 0.765822
Si Si5 0.772229 0.146383 0.734632
Si Si6 0.219559 0.972705 0.785784
Si Si7 0.025402 0.100940 0.195053
Si Si8 0.485638 0.229685 0.767815
O O1 0.452981 0.918857 0.766920
O O2 0.500000 0.000000 0.687859
O O3 0.416089 0.995780 0.478567
O O4 0.602034 0.857351 0.516176
O O5 0.519188 0.823147 0.268448
O O6 0.602748 0.856492 0.023602
O O7 0.197927 0.331885 0.731320
O O8 0.221654 0.426077 0.732722
O O9 0.752381 0.752381 0.750000
O O10 0.842976 0.749789 0.542833
O O11 0.830874 0.738286 0.041650
O O12 0.828624 0.171377 0.750000
O O13 0.770291 0.086644 0.772263
O O14 0.160288 0.979725 0.797836
O O15 0.242592 0.001899 0.540871
O O16 0.082794 0.082794 0.250000
O O17 0.991174 0.078969 0.423613
O O18 0.500087 0.261268 0.517950
#
# Coordination Sequence:
#
# PCOD8310088 Si02
#       8
#     8   8   8   8   8   8   8   8
#     4  10  21  27  43  63  88 121 161 203 242 258
#     4  10  19  31  47  69  91 124 162 190 230 284
#     4  10  19  31  51  67  94 118 145 192 242 277
#     4  10  21  36  55  79  95 118 156 201 249 293
#     4  10  20  36  58  76  92 115 153 192 229 278
#     4  10  20  34  53  75  89 111 135 169 216 258
#     4  10  20  31  44  64  90 111 133 151 174 223
#     4   8  16  25  44  64  88 115 150 180 218 263
#
# _framework density 17.289888999999999
#
# number of rings (size 3 to 8) (size 9 to 14) (size 15 to 20)
#    0.000    2.250    0.000    3.000   10.500    0.750 
#    0.000    3.750    0.000   15.000    0.000    0.000 
#    0.000    0.000    0.000    0.000    0.000    0.000 
#
# Total GULP energy -792842.478785 kJ/mol
# GULP energy per Si atom -12388.163731 kJ/mol
# Density = 1.725054 g / cm^3
# Si number density = 17.289889 Si / 1000 Ang^3
#
#
#
# Elastic Constant Matrix: (Units=GPa)
#
#
# Indices 1 2 3 4 5 6 
#
# 1 -126.8911 213.2414 16.7230 0.0000 0.0000 0.0000
# 2 213.2414 -126.8584 16.7729 0.0000 0.0000 0.0000
# 3 16.7230 16.7729 143.4123 0.0000 0.0000 0.0000
# 4 0.0000 0.0000 0.0000 14.5006 0.0000 0.0000
# 5 0.0000 0.0000 0.0000 0.0000 14.5004 0.0000
# 6 0.0000 0.0000 0.0000 0.0000 0.0000 10.1921
#
#
#
# Elastic Compliance Matrix: (Units=1/GPa)
#
#
# Indices 1 2 3 4 5 6 
#
# 1 0.004593 0.007534 -0.001417 0.000000 0.000000 0.000000
# 2 0.007534 0.004594 -0.001416 0.000000 0.000000 0.000000
# 3 -0.001417 -0.001416 0.007304 0.000000 0.000000 0.000000
# 4 0.000000 0.000000 0.000000 0.068963 0.000000 0.000000
# 5 0.000000 0.000000 0.000000 0.000000 0.068964 0.000000
# 6 0.000000 0.000000 0.000000 0.000000 0.000000 0.098116
#
#
# Mechanical properties :
#
#
# Convention : Reuss Voigt Hill
#
# Bulk Modulus (GPa) = 38.61878 42.57081 40.59480
# Shear Modulus (GPa) = 19.86002 -15.96637 1.94683
#
# Velocity S-wave (km/s) = 3.39285 -3.04213 1.06228
# Velocity P-wave (km/s) = 6.14273 3.51224 5.00345
#
# Compressibility (1/GPa) = 0.02589414
#
# Stress axis : x y z
#
# Youngs Moduli (GPa) = 217.70101 217.66537 136.91692
#
# Poissons Ratio (x) = -1.63989 0.19398
# Poissons Ratio (y) = -1.64016 0.19385
# Poissons Ratio (z) = 0.30843 0.30818
#
# Static dielectric constant tensor:
#      x y z
#    x 2.850910 0.000000 0.000000 
#    y 0.000000 2.850900 0.000000 
#    z 0.000000 0.000000 4.395560 
# 
# 
# High freq. dielectric constant tensor:
#      x y z
#    x 1.621200 0.000000 0.000000 
#    y 0.000000 1.621200 0.000000 
#    z 0.000000 0.000000 1.713200 
# 
# From -- ./inp_files/264.got.cif
#   From: 2010.03.12/outbox.cif.g09.slc.cpg/sg116_1_cif.got.tgz:264.got - 2010.04.14 02:15:44.
