data_PCOD8310444
_publ_section_title
;
Structure prediction by ZEFSAII (Michael W. Deem and Ramdas Pophale) SiO2 
 PCOD8310444
Probable space group: P -4 N 2
;
_chemical_formula_sum "Si O2"
_cell_formula_units_Z 56
_cell_length_a 13.180330
_cell_length_b 13.180330
_cell_length_c 18.079773
_cell_angle_alpha 90.000000
_cell_angle_beta 90.000000
_cell_angle_gamma 90.000000
_cell_volume 3140.838034
_symmetry_space_group_name_H-M "P -4 N 2"
_symmetry_group_IT_number 118
_symmetry_cell_setting 'tetragonal'
loop_
_space_group_symop_operation_xyz
x,y,z
y,-x,-z
-x,-y,z
-y,x,-z
1/2+y,1/2+x,1/2-z
1/2-y,1/2-x,1/2-z
1/2-x,1/2+y,1/2+z
1/2+x,1/2-y,1/2+z
loop_
_atom_site_type_symbol
_atom_site_label
_atom_site_fract_x
_atom_site_fract_y
_atom_site_fract_z
Si Si1 0.329432 0.729744 0.893498
Si Si2 0.906008 0.565397 0.337259
Si Si3 0.683105 0.376568 0.566270
Si Si4 0.886044 0.039492 0.170441
Si Si5 0.619520 0.484447 0.829872
Si Si6 0.215383 0.032587 0.914366
Si Si7 0.133866 0.922765 0.476602
O O1 0.402250 0.822341 0.871006
O O2 0.211181 0.758547 0.888659
O O3 0.352066 0.634184 0.840146
O O4 0.348891 0.710100 0.980631
O O5 0.916644 0.583357 0.250000
O O6 0.809893 0.500866 0.364694
O O7 0.000000 0.500000 0.367502
O O8 0.687264 0.475864 0.617291
O O9 0.564915 0.346721 0.555552
O O10 0.738437 0.401753 0.488267
O O11 0.839302 0.029084 0.252803
O O12 0.893137 0.153734 0.140734
O O13 0.000000 0.000000 0.173643
O O14 0.500000 0.500000 0.837935
O O15 0.673607 0.549702 0.894805
O O16 0.023062 0.872138 0.471936
#
# Coordination Sequence:
#
# PCOD8310444 Si02
#       7
#     8   8   8   8   8   8   8
#     4  10  21  31  55  78 111 149 184 238 288 343
#     4  10  24  39  52  78 116 155 189 228 287 362
#     4  10  19  33  53  83 108 142 187 239 282 333
#     4   9  19  29  53  82 104 140 180 232 285 324
#     4  10  18  31  51  80 107 142 181 234 288 332
#     4  10  19  36  57  78 111 144 189 236 282 337
#     4   9  15  30  47  71 105 137 178 227 266 331
#
# _framework density 17.829636000000001
#
# number of rings (size 3 to 8) (size 9 to 14) (size 15 to 20)
#    0.000    2.286    4.286    0.000    8.000    2.286 
#    0.000    0.000    0.000    0.000    0.000    0.000 
#    0.000    0.000    0.000    0.000    0.000    0.000 
#
# Total GULP energy -693936.336980 kJ/mol
# GULP energy per Si atom -12391.720303 kJ/mol
# Density = 1.778906 g / cm^3
# Si number density = 17.829636 Si / 1000 Ang^3
#
#
#
# Elastic Constant Matrix: (Units=GPa)
#
#
# Indices 1 2 3 4 5 6 
#
# 1 70.3352 36.4561 39.3126 0.0000 0.0000 0.0000
# 2 36.4561 70.3351 39.3126 0.0000 0.0000 0.0000
# 3 39.3126 39.3126 132.9013 0.0000 0.0000 0.0000
# 4 0.0000 0.0000 0.0000 22.0713 0.0000 0.0000
# 5 0.0000 0.0000 0.0000 0.0000 22.0712 0.0000
# 6 0.0000 0.0000 0.0000 0.0000 0.0000 26.6741
#
#
#
# Elastic Compliance Matrix: (Units=1/GPa)
#
#
# Indices 1 2 3 4 5 6 
#
# 1 0.020744 -0.008773 -0.003541 0.000000 0.000000 0.000000
# 2 -0.008773 0.020744 -0.003541 0.000000 0.000000 0.000000
# 3 -0.003541 -0.003541 0.009619 0.000000 0.000000 0.000000
# 4 0.000000 0.000000 0.000000 0.045308 0.000000 0.000000
# 5 0.000000 0.000000 0.000000 0.000000 0.045308 0.000000
# 6 0.000000 0.000000 0.000000 0.000000 0.000000 0.037489
#
#
# Mechanical properties :
#
#
# Convention : Reuss Voigt Hill
#
# Bulk Modulus (GPa) = 51.55363 55.97047 53.76205
# Shear Modulus (GPa) = 23.00031 24.72934 23.86483
#
# Velocity S-wave (km/s) = 3.59556 3.72826 3.66251
# Velocity P-wave (km/s) = 6.79814 7.07058 6.93570
#
# Compressibility (1/GPa) = 0.01939728
#
# Stress axis : x y z
#
# Youngs Moduli (GPa) = 48.20670 48.20669 103.95741
#
# Poissons Ratio (x) = 0.42291 0.36813
# Poissons Ratio (y) = 0.42291 0.36813
# Poissons Ratio (z) = 0.17071 0.17071
#
# Static dielectric constant tensor:
#      x y z
#    x 3.144750 0.000000 0.000000 
#    y 0.000000 3.144750 0.000000 
#    z 0.000000 0.000000 3.631550 
# 
# 
# High freq. dielectric constant tensor:
#      x y z
#    x 1.666040 0.000000 0.000000 
#    y 0.000000 1.666040 0.000000 
#    z 0.000000 0.000000 1.700170 
# 
# From -- ./inp_files/5697.got.cif
#   From: 2010.03.12/outbox.cif.g09.slc.cpg/sg118_3_cif.got.tgz:5697.got - 2010.04.14 02:21:17.
