data_PCOD8310597
_publ_section_title
;
Structure prediction by ZEFSAII (Michael W. Deem and Ramdas Pophale) SiO2 
 PCOD8310597
Probable space group: P -4 N 2
;
_chemical_formula_sum "Si O2"
_cell_formula_units_Z 48
_cell_length_a 11.139359
_cell_length_b 11.139359
_cell_length_c 20.556651
_cell_angle_alpha 90.000000
_cell_angle_beta 90.000000
_cell_angle_gamma 90.000000
_cell_volume 2550.778595
_symmetry_space_group_name_H-M "P -4 N 2"
_symmetry_group_IT_number 118
_symmetry_cell_setting 'tetragonal'
loop_
_space_group_symop_operation_xyz
x,y,z
y,-x,-z
-x,-y,z
-y,x,-z
1/2+y,1/2+x,1/2-z
1/2-y,1/2-x,1/2-z
1/2-x,1/2+y,1/2+z
1/2+x,1/2-y,1/2+z
loop_
_atom_site_type_symbol
_atom_site_label
_atom_site_fract_x
_atom_site_fract_y
_atom_site_fract_z
Si Si1 0.122161 0.442671 0.082831
Si Si2 0.855616 0.202682 0.465735
Si Si3 0.381288 0.559218 0.604937
Si Si4 0.531226 0.636003 0.098923
Si Si5 0.762537 0.753957 0.326233
Si Si6 0.231200 0.893770 0.007523
O O1 0.223306 0.539257 0.067129
O O2 0.170589 0.362434 0.141468
O O3 0.000000 0.500000 0.108961
O O4 0.092134 0.367874 0.017424
O O5 0.890235 0.135369 0.532871
O O6 0.747819 0.294591 0.480815
O O7 0.806118 0.099216 0.416330
O O8 0.500000 0.500000 0.639206
O O9 0.295461 0.632335 0.653025
O O10 0.439582 0.641211 0.548308
O O11 0.290380 0.462334 0.574487
O O12 0.500000 0.500000 0.121020
O O13 0.606496 0.711347 0.153125
O O14 0.764532 0.735469 0.250000
#
# Coordination Sequence:
#
# PCOD8310597 Si02
#       6
#     8   8   8   8   8   8
#     4  11  23  34  59  93 124 155 193 254 315 366
#     4  12  19  34  62  99 126 148 194 263 328 357
#     4  11  21  37  59  87 124 161 198 251 303 376
#     4  12  18  36  63  92 121 153 199 259 307 364
#     4  11  26  43  59  84 120 170 214 245 295 373
#     4  11  19  33  58  92 126 146 190 249 321 369
#
# _framework density 18.817782000000001
#
# number of rings (size 3 to 8) (size 9 to 14) (size 15 to 20)
#    0.000    0.667   10.000    1.000    2.333    1.000 
#    0.000    0.000    0.000    2.000    0.000    0.000 
#    0.000    0.000    0.000    0.000    0.000    0.000 
#
# Total GULP energy -594966.524198 kJ/mol
# GULP energy per Si atom -12395.135921 kJ/mol
# Density = 1.877495 g / cm^3
# Si number density = 18.817782 Si / 1000 Ang^3
#
#
#
# Elastic Constant Matrix: (Units=GPa)
#
#
# Indices 1 2 3 4 5 6 
#
# 1 101.5266 47.8805 41.5609 0.0000 0.0000 0.0000
# 2 47.8805 101.5268 41.5611 0.0000 0.0000 0.0000
# 3 41.5609 41.5611 97.2393 0.0000 0.0000 0.0000
# 4 0.0000 0.0000 0.0000 17.3791 0.0000 0.0000
# 5 0.0000 0.0000 0.0000 0.0000 17.3789 0.0000
# 6 0.0000 0.0000 0.0000 0.0000 0.0000 43.3816
#
#
#
# Elastic Compliance Matrix: (Units=1/GPa)
#
#
# Indices 1 2 3 4 5 6 
#
# 1 0.013711 -0.004930 -0.003753 0.000000 0.000000 0.000000
# 2 -0.004930 0.013711 -0.003753 0.000000 0.000000 0.000000
# 3 -0.003753 -0.003753 0.013492 0.000000 0.000000 0.000000
# 4 0.000000 0.000000 0.000000 0.057541 0.000000 0.000000
# 5 0.000000 0.000000 0.000000 0.000000 0.057541 0.000000
# 6 0.000000 0.000000 0.000000 0.000000 0.000000 0.023051
#
#
# Mechanical properties :
#
#
# Convention : Reuss Voigt Hill
#
# Bulk Modulus (GPa) = 62.33677 62.47751 62.40714
# Shear Modulus (GPa) = 23.89303 26.91393 25.40348
#
# Velocity S-wave (km/s) = 3.56716 3.78595 3.67818
# Velocity P-wave (km/s) = 7.08270 7.23772 7.16063
#
# Compressibility (1/GPa) = 0.01604190
#
# Stress axis : x y z
#
# Youngs Moduli (GPa) = 72.93459 72.93466 74.11709
#
# Poissons Ratio (x) = 0.35955 0.27817
# Poissons Ratio (y) = 0.35955 0.27817
# Poissons Ratio (z) = 0.27373 0.27374
#
# Static dielectric constant tensor:
#      x y z
#    x 3.657500 0.000000 0.000000 
#    y 0.000000 3.657500 0.000000 
#    z 0.000000 0.000000 2.991760 
# 
# 
# High freq. dielectric constant tensor:
#      x y z
#    x 1.743350 0.000000 0.000000 
#    y 0.000000 1.743350 0.000000 
#    z 0.000000 0.000000 1.674200 
# 
# From -- ./inp_files/4916.got.cif
#   From: 2010.03.12/outbox.cif.g09.slc.cpg/sg118_3_cif.got.tgz:4916.got - 2010.04.14 02:21:17.
