data_PCOD8310729
_publ_section_title
;
Structure prediction by ZEFSAII (Michael W. Deem and Ramdas Pophale) SiO2 
 PCOD8310729
Probable space group: I -4 M 2
;
_chemical_formula_sum "Si O2"
_cell_formula_units_Z 112
_cell_length_a 20.349093
_cell_length_b 20.349093
_cell_length_c 16.524559
_cell_angle_alpha 90.000000
_cell_angle_beta 90.000000
_cell_angle_gamma 90.000000
_cell_volume 6842.581696
_symmetry_space_group_name_H-M "I -4 M 2"
_symmetry_group_IT_number 119
_symmetry_cell_setting 'tetragonal'
loop_
_space_group_symop_operation_xyz
x,y,z
y,-x,-z
-x,-y,z
-y,x,-z
y,x,-z
-y,-x,-z
-x,y,z
x,-y,z
1/2+x,1/2+y,1/2+z
1/2+y,1/2-x,1/2-z
1/2-x,1/2-y,1/2+z
1/2-y,1/2+x,1/2-z
1/2+y,1/2+x,1/2-z
1/2-y,1/2-x,1/2-z
1/2-x,1/2+y,1/2+z
1/2+x,1/2-y,1/2+z
loop_
_atom_site_type_symbol
_atom_site_label
_atom_site_fract_x
_atom_site_fract_y
_atom_site_fract_z
Si Si1 0.320953 0.926285 0.555506
Si Si2 0.296403 0.646128 0.602541
Si Si3 0.207677 0.813438 0.270701
Si Si4 0.679704 0.240374 0.057320
Si Si5 0.073533 0.748608 0.283322
Si Si6 0.155700 0.572603 0.358986
Si Si7 0.787936 0.072326 0.951924
O O1 0.302392 0.879317 0.480577
O O2 0.262885 0.927047 0.620804
O O3 0.382719 0.902459 0.607808
O O4 0.334041 0.000000 0.522012
O O5 0.279544 0.634803 0.697369
O O6 0.245944 0.698856 0.565871
O O7 0.289222 0.580377 0.549762
O O8 0.371165 0.671486 0.593215
O O9 0.244873 0.744873 0.250000
O O10 0.232865 0.843829 0.354980
O O11 0.129348 0.802770 0.269955
O O12 0.697697 0.302304 0.000000
O O13 0.091846 0.683994 0.229891
O O14 0.000000 0.772947 0.255800
O O15 0.125546 0.500000 0.354640
O O16 0.213417 0.577563 0.424165
O O17 0.816996 0.000000 0.931508
#
# Coordination Sequence:
#
# PCOD8310729 Si02
#       7
#    16  16  16  16  16  16  16
#     4  11  21  32  46  69 103 134 166 211 255 288
#     4  10  18  31  48  70  97 128 161 199 251 296
#     4  10  19  28  48  70  93 125 163 205 253 300
#     4  11  18  31  49  70  94 124 169 212 249 294
#     4  10  19  28  43  71 103 132 164 202 244 294
#     4  10  18  30  47  67  99 136 169 199 234 295
#     4  10  18  28  48  75 100 126 161 200 238 290
#
# _framework density 16.368089999999999
#
# number of rings (size 3 to 8) (size 9 to 14) (size 15 to 20)
#    0.000    1.714    5.714    1.286    0.000    0.286 
#    0.000    0.714    0.000    6.000    0.000    0.000 
#    0.000    3.143    0.000    0.000    0.000    0.000 
#
# Total GULP energy -693776.261632 kJ/mol
# GULP energy per Si atom -12388.861815 kJ/mol
# Density = 1.633084 g / cm^3
# Si number density = 16.368090 Si / 1000 Ang^3
#
#
#
# Elastic Constant Matrix: (Units=GPa)
#
#
# Indices 1 2 3 4 5 6 
#
# 1 58.6765 14.3340 28.4411 0.0000 0.0000 0.0000
# 2 14.3340 58.6761 28.4410 0.0000 0.0000 0.0000
# 3 28.4411 28.4410 121.0601 0.0000 0.0000 0.0000
# 4 0.0000 0.0000 0.0000 13.9223 0.0000 0.0000
# 5 0.0000 0.0000 0.0000 0.0000 13.9226 0.0000
# 6 0.0000 0.0000 0.0000 0.0000 0.0000 9.0131
#
#
#
# Elastic Compliance Matrix: (Units=1/GPa)
#
#
# Indices 1 2 3 4 5 6 
#
# 1 0.019659 -0.002893 -0.003939 0.000000 0.000000 0.000000
# 2 -0.002893 0.019659 -0.003939 0.000000 0.000000 0.000000
# 3 -0.003939 -0.003939 0.010111 0.000000 0.000000 0.000000
# 4 0.000000 0.000000 0.000000 0.071827 0.000000 0.000000
# 5 0.000000 0.000000 0.000000 0.000000 0.071826 0.000000
# 6 0.000000 0.000000 0.000000 0.000000 0.000000 0.110950
#
#
# Mechanical properties :
#
#
# Convention : Reuss Voigt Hill
#
# Bulk Modulus (GPa) = 35.85926 42.31611 39.08768
# Shear Modulus (GPa) = 14.93125 18.51803 16.72464
#
# Velocity S-wave (km/s) = 3.02357 3.36720 3.20000
# Velocity P-wave (km/s) = 5.84336 6.40518 6.13071
#
# Compressibility (1/GPa) = 0.02788680
#
# Stress axis : x y z
#
# Youngs Moduli (GPa) = 50.86855 50.86812 98.90169
#
# Poissons Ratio (x) = 0.14717 0.38955
# Poissons Ratio (y) = 0.14717 0.38955
# Poissons Ratio (z) = 0.20036 0.20036
#
# Static dielectric constant tensor:
#      x y z
#    x 2.924070 0.000000 0.000000 
#    y 0.000000 2.924070 0.000000 
#    z 0.000000 0.000000 3.381160 
# 
# 
# High freq. dielectric constant tensor:
#      x y z
#    x 1.599150 0.000000 0.000000 
#    y 0.000000 1.599150 0.000000 
#    z 0.000000 0.000000 1.642880 
# 
# From -- ./inp_files/6881.got.cif
#   From: 2010.03.12/outbox.cif.g09.slc.cpg/sg119_4_cif.got.tgz:6881.got - 2010.04.14 02:25:26.
