data_PCOD8310458
_publ_section_title
;
Structure prediction by ZEFSAII (Michael W. Deem and Ramdas Pophale) SiO2 
 PCOD8310458
Probable space group: P -4 N 2
;
_chemical_formula_sum "Si O2"
_cell_formula_units_Z 42
_cell_length_a 11.183553
_cell_length_b 11.183553
_cell_length_c 19.945996
_cell_angle_alpha 90.000000
_cell_angle_beta 90.000000
_cell_angle_gamma 90.000000
_cell_volume 2494.682773
_symmetry_space_group_name_H-M "P -4 N 2"
_symmetry_group_IT_number 118
_symmetry_cell_setting 'tetragonal'
loop_
_space_group_symop_operation_xyz
x,y,z
y,-x,-z
-x,-y,z
-y,x,-z
1/2+y,1/2+x,1/2-z
1/2-y,1/2-x,1/2-z
1/2-x,1/2+y,1/2+z
1/2+x,1/2-y,1/2+z
loop_
_atom_site_type_symbol
_atom_site_label
_atom_site_fract_x
_atom_site_fract_y
_atom_site_fract_z
Si Si1 0.647291 0.726859 0.966493
Si Si2 0.448869 0.876392 0.890983
Si Si3 0.796671 0.151732 0.945073
Si Si4 0.715436 0.725159 0.176003
Si Si5 0.860830 0.989364 0.404730
Si Si6 0.000000 0.000000 0.000000
O O1 0.551820 0.813057 0.933155
O O2 0.691065 0.622898 0.915127
O O3 0.761509 0.803668 0.989999
O O4 0.594980 0.657130 0.030770
O O5 0.337135 0.905029 0.940883
O O6 0.401037 0.789157 0.831489
O O7 0.500000 0.000000 0.860643
O O8 0.820694 0.226954 0.876388
O O9 0.896210 0.050167 0.951998
O O10 0.722791 0.777209 0.250000
O O11 0.575820 0.703353 0.158131
O O12 0.000000 0.000000 0.389537
#
# Coordination Sequence:
#
# PCOD8310458 Si02
#       6
#     8   8   8   8   8   2
#     4  11  15  30  53  84 103 116 171 228 285 285
#     4  10  19  30  48  77 105 134 165 210 263 301
#     4   9  21  31  53  69 103 139 162 224 245 322
#     4   9  20  34  45  76 104 137 172 201 263 306
#     4  11  14  27  55  80 102 124 161 232 261 301
#     4  12  20  40  44  72 108 140 188 186 272 336
#
# _framework density 16.835808
#
# number of rings (size 3 to 8) (size 9 to 14) (size 15 to 20)
#    1.143    0.762    5.714    1.143    0.000    0.381 
#    1.714    0.000    0.000    0.000    0.000    1.333 
#    0.000    0.000    0.000    0.000    0.000    0.000 
#
# Total GULP energy -520373.930057 kJ/mol
# GULP energy per Si atom -12389.855478 kJ/mol
# Density = 1.679749 g / cm^3
# Si number density = 16.835808 Si / 1000 Ang^3
#
#
#
# Elastic Constant Matrix: (Units=GPa)
#
#
# Indices 1 2 3 4 5 6 
#
# 1 72.2567 41.2776 30.6668 0.0000 0.0000 0.0000
# 2 41.2776 72.2566 30.6668 0.0000 0.0000 0.0000
# 3 30.6668 30.6668 78.8178 0.0000 0.0000 0.0000
# 4 0.0000 0.0000 0.0000 16.2732 0.0000 0.0000
# 5 0.0000 0.0000 0.0000 0.0000 16.2732 0.0000
# 6 0.0000 0.0000 0.0000 0.0000 0.0000 33.8324
#
#
#
# Elastic Compliance Matrix: (Units=1/GPa)
#
#
# Indices 1 2 3 4 5 6 
#
# 1 0.021716 -0.010564 -0.004339 0.000000 0.000000 0.000000
# 2 -0.010564 0.021716 -0.004339 0.000000 0.000000 0.000000
# 3 -0.004339 -0.004339 0.016064 0.000000 0.000000 0.000000
# 4 0.000000 0.000000 0.000000 0.061451 0.000000 0.000000
# 5 0.000000 0.000000 0.000000 0.000000 0.061451 0.000000
# 6 0.000000 0.000000 0.000000 0.000000 0.000000 0.029558
#
#
# Mechanical properties :
#
#
# Convention : Reuss Voigt Hill
#
# Bulk Modulus (GPa) = 47.59252 47.61706 47.60479
# Shear Modulus (GPa) = 19.42181 21.32376 20.37279
#
# Velocity S-wave (km/s) = 3.40016 3.56275 3.48240
# Velocity P-wave (km/s) = 6.61398 6.72822 6.67134
#
# Compressibility (1/GPa) = 0.02101171
#
# Stress axis : x y z
#
# Youngs Moduli (GPa) = 46.04920 46.04914 62.25101
#
# Poissons Ratio (x) = 0.48646 0.27011
# Poissons Ratio (y) = 0.48646 0.27011
# Poissons Ratio (z) = 0.19981 0.19981
#
# Static dielectric constant tensor:
#      x y z
#    x 3.139840 0.000000 0.000000 
#    y 0.000000 3.139840 0.000000 
#    z 0.000000 0.000000 2.757770 
# 
# 
# High freq. dielectric constant tensor:
#      x y z
#    x 1.642450 0.000000 0.000000 
#    y 0.000000 1.642450 0.000000 
#    z 0.000000 0.000000 1.603090 
# 
# From -- ./inp_files/4837.got.cif
#   From: 2010.03.12/outbox.cif.g09.slc.cpg/sg118_3_cif.got.tgz:4837.got - 2010.04.14 02:21:17.
