data_PCOD8310140
_publ_section_title
;
Structure prediction by ZEFSAII (Michael W. Deem and Ramdas Pophale) SiO2 
 PCOD8310140
Probable space group: P -4 C 2
;
_chemical_formula_sum "Si O2"
_cell_formula_units_Z 60
_cell_length_a 11.516425
_cell_length_b 11.516425
_cell_length_c 20.589928
_cell_angle_alpha 90.000000
_cell_angle_beta 90.000000
_cell_angle_gamma 90.000000
_cell_volume 2730.801893
_symmetry_space_group_name_H-M "P -4 C 2"
_symmetry_group_IT_number 116
_symmetry_cell_setting 'tetragonal'
loop_
_space_group_symop_operation_xyz
x,y,z
y,-x,-z
-x,-y,z
-y,x,-z
y,x,1/2-z
-y,-x,1/2-z
-x,y,1/2+z
x,-y,1/2+z
loop_
_atom_site_type_symbol
_atom_site_label
_atom_site_fract_x
_atom_site_fract_y
_atom_site_fract_z
Si Si1 0.567406 0.319673 0.498302
Si Si2 0.651951 0.194801 0.826494
Si Si3 0.236545 0.236545 0.750000
Si Si4 0.828567 0.055532 0.512279
Si Si5 0.835873 0.672169 0.390467
Si Si6 0.404035 0.773785 0.356559
Si Si7 0.365634 0.990941 0.724613
Si Si8 0.001281 0.624657 0.079705
O O1 0.432626 0.352957 0.490831
O O2 0.586749 0.224946 0.556211
O O3 0.607124 0.268306 0.430000
O O4 0.742318 0.299389 0.834320
O O5 0.524990 0.253334 0.820244
O O6 0.689510 0.112479 0.767439
O O7 0.655568 0.125980 0.895284
O O8 0.283183 0.303367 0.686543
O O9 0.278082 0.102660 0.734664
O O10 0.793798 0.121517 0.577743
O O11 0.715214 0.052561 0.469497
O O12 0.926243 0.125937 0.472377
O O13 0.948228 0.624467 0.351215
O O14 0.386029 0.913937 0.357421
O O15 0.500000 0.000000 0.748084
O O16 0.000000 0.500000 0.042982
#
# Coordination Sequence:
#
# PCOD8310140 Si02
#       8
#     8   8   4   8   8   8   8   8
#     4  11  25  44  68 105 148 185 239 309 381 446
#     4  11  21  48  69  95 137 187 235 287 366 427
#     4  12  26  46  77 105 146 196 252 308 372 452
#     4  11  24  41  61  96 141 176 226 288 345 423
#     4  12  26  42  71 105 139 189 236 305 358 435
#     4  11  22  42  75  98 132 194 238 291 365 437
#     4  12  27  48  69 108 144 187 250 310 364 446
#     4  10  20  38  68  91 124 181 231 268 346 424
#
# _framework density 21.971568999999999
#
# number of rings (size 3 to 8) (size 9 to 14) (size 15 to 20)
#    0.000    0.800    6.667    0.800    3.733    0.533 
#    0.000    0.667    0.000    0.800    0.000    0.000 
#    0.000    0.000    0.000    0.000    0.000    0.000 
#
# Total GULP energy -743357.946573 kJ/mol
# GULP energy per Si atom -12389.299110 kJ/mol
# Density = 2.192156 g / cm^3
# Si number density = 21.971569 Si / 1000 Ang^3
#
#
#
# Elastic Constant Matrix: (Units=GPa)
#
#
# Indices 1 2 3 4 5 6 
#
# 1 94.5231 41.1272 41.6451 0.0000 0.0000 0.0000
# 2 41.1272 94.5231 41.6451 0.0000 0.0000 0.0000
# 3 41.6451 41.6451 104.0422 0.0000 0.0000 0.0000
# 4 0.0000 0.0000 0.0000 34.0821 0.0000 0.0000
# 5 0.0000 0.0000 0.0000 0.0000 34.0821 0.0000
# 6 0.0000 0.0000 0.0000 0.0000 0.0000 33.4902
#
#
#
# Elastic Compliance Matrix: (Units=1/GPa)
#
#
# Indices 1 2 3 4 5 6 
#
# 1 0.014251 -0.004477 -0.003912 0.000000 0.000000 0.000000
# 2 -0.004477 0.014251 -0.003912 0.000000 0.000000 0.000000
# 3 -0.003912 -0.003912 0.012743 0.000000 0.000000 0.000000
# 4 0.000000 0.000000 0.000000 0.029341 0.000000 0.000000
# 5 0.000000 0.000000 0.000000 0.000000 0.029341 0.000000
# 6 0.000000 0.000000 0.000000 0.000000 0.000000 0.029859
#
#
# Mechanical properties :
#
#
# Convention : Reuss Voigt Hill
#
# Bulk Modulus (GPa) = 60.08732 60.21369 60.15051
# Shear Modulus (GPa) = 31.26225 31.57563 31.41894
#
# Velocity S-wave (km/s) = 3.77616 3.79504 3.78561
# Velocity P-wave (km/s) = 6.81320 6.83139 6.82230
#
# Compressibility (1/GPa) = 0.01664245
#
# Stress axis : x y z
#
# Youngs Moduli (GPa) = 70.17032 70.17032 78.47186
#
# Poissons Ratio (x) = 0.31415 0.30700
# Poissons Ratio (y) = 0.31415 0.30700
# Poissons Ratio (z) = 0.27453 0.27453
#
# Static dielectric constant tensor:
#      x y z
#    x 4.075170 0.000000 0.000000 
#    y 0.000000 4.075170 0.000000 
#    z 0.000000 0.000000 3.869100 
# 
# 
# High freq. dielectric constant tensor:
#      x y z
#    x 1.863690 0.000000 0.000000 
#    y 0.000000 1.863690 0.000000 
#    z 0.000000 0.000000 1.863590 
# 
# From -- ./inp_files/4202.got.cif
#   From: 2010.03.12/outbox.cif.g09.slc.cpg/sg116_3_cif.got.tgz:4202.got - 2010.04.14 02:15:44.
