data_PCOD8310902
_publ_section_title
;
Structure prediction by ZEFSAII (Michael W. Deem and Ramdas Pophale) SiO2 
 PCOD8310902
Probable space group: I -4 M 2
;
_chemical_formula_sum "Si O2"
_cell_formula_units_Z 120
_cell_length_a 27.075356
_cell_length_b 27.075356
_cell_length_c 9.160882
_cell_angle_alpha 90.000000
_cell_angle_beta 90.000000
_cell_angle_gamma 90.000000
_cell_volume 6715.612679
_symmetry_space_group_name_H-M "I -4 M 2"
_symmetry_group_IT_number 119
_symmetry_cell_setting 'tetragonal'
loop_
_space_group_symop_operation_xyz
x,y,z
y,-x,-z
-x,-y,z
-y,x,-z
y,x,-z
-y,-x,-z
-x,y,z
x,-y,z
1/2+x,1/2+y,1/2+z
1/2+y,1/2-x,1/2-z
1/2-x,1/2-y,1/2+z
1/2-y,1/2+x,1/2-z
1/2+y,1/2+x,1/2-z
1/2-y,1/2-x,1/2-z
1/2-x,1/2+y,1/2+z
1/2+x,1/2-y,1/2+z
loop_
_atom_site_type_symbol
_atom_site_label
_atom_site_fract_x
_atom_site_fract_y
_atom_site_fract_z
Si Si1 0.159856 0.863874 0.343124
Si Si2 0.256357 0.199476 0.388951
Si Si3 0.609466 0.892954 0.011178
Si Si4 0.941525 0.785063 0.826629
Si Si5 0.873300 0.803258 0.083247
Si Si6 0.443318 0.056683 0.750000
Si Si7 0.327609 0.942155 0.255573
Si Si8 0.194029 0.336861 0.397538
O O1 0.132946 0.867055 0.500000
O O2 0.212904 0.838106 0.356513
O O3 0.174450 0.918112 0.284865
O O4 0.122634 0.832848 0.237187
O O5 0.241667 0.241667 0.500000
O O6 0.270864 0.229137 0.250000
O O7 0.304857 0.176089 0.462092
O O8 0.633939 0.931075 0.125699
O O9 0.584897 0.846666 0.097741
O O10 0.570169 0.917246 0.903061
O O11 0.652601 0.878561 0.898003
O O12 0.924618 0.728570 0.787437
O O13 0.000000 0.790392 0.819631
O O14 0.923415 0.803076 0.987377
O O15 0.861607 0.746647 0.100922
O O16 0.827852 0.827852 0.000000
O O17 0.500000 0.068378 0.722056
O O18 0.326908 0.000000 0.286645
O O19 0.194399 0.305602 0.250000
#
# Coordination Sequence:
#
# PCOD8310902 Si02
#       8
#    16  16  16  16  16   8  16  16
#     4  10  20  34  52  78 114 147 183 225 266 314
#     4  11  20  30  47  74 109 149 185 217 255 313
#     4  11  22  36  55  80 101 132 181 233 296 346
#     4  10  20  37  56  79 109 151 189 221 267 323
#     4  10  20  34  53  77 109 149 187 220 261 315
#     4  11  24  44  62  74  96 134 186 252 320 364
#     4  10  21  37  56  78 107 138 180 235 284 337
#     4  12  21  31  48  76 110 143 178 221 272 329
#
# _framework density 17.868808000000001
#
# number of rings (size 3 to 8) (size 9 to 14) (size 15 to 20)
#    0.000    1.400    2.000    6.400    1.867    0.000 
#    0.000    0.667    0.000    3.200    0.000    0.000 
#    0.000   31.467    0.000    0.000    0.000    0.000 
#
# Total GULP energy -743457.082008 kJ/mol
# GULP energy per Si atom -12390.951367 kJ/mol
# Density = 1.782814 g / cm^3
# Si number density = 17.868808 Si / 1000 Ang^3
#
#
#
# Elastic Constant Matrix: (Units=GPa)
#
#
# Indices 1 2 3 4 5 6 
#
# 1 79.4933 39.1789 44.7849 0.0000 0.0000 0.0000
# 2 39.1789 79.4963 44.7862 0.0000 0.0000 0.0000
# 3 44.7849 44.7862 131.0701 0.0000 0.0000 0.0000
# 4 0.0000 0.0000 0.0000 22.0321 0.0000 0.0000
# 5 0.0000 0.0000 0.0000 0.0000 22.0320 0.0000
# 6 0.0000 0.0000 0.0000 0.0000 0.0000 24.7818
#
#
#
# Elastic Compliance Matrix: (Units=1/GPa)
#
#
# Indices 1 2 3 4 5 6 
#
# 1 0.018080 -0.006725 -0.003880 0.000000 0.000000 0.000000
# 2 -0.006725 0.018079 -0.003880 0.000000 0.000000 0.000000
# 3 -0.003880 -0.003880 0.010281 0.000000 0.000000 0.000000
# 4 0.000000 0.000000 0.000000 0.045388 0.000000 0.000000
# 5 0.000000 0.000000 0.000000 0.000000 0.045389 0.000000
# 6 0.000000 0.000000 0.000000 0.000000 0.000000 0.040352
#
#
# Mechanical properties :
#
#
# Convention : Reuss Voigt Hill
#
# Bulk Modulus (GPa) = 57.23701 60.83998 59.03849
# Shear Modulus (GPa) = 23.54477 24.52315 24.03396
#
# Velocity S-wave (km/s) = 3.63388 3.70861 3.67143
# Velocity P-wave (km/s) = 7.05040 7.24296 7.14733
#
# Compressibility (1/GPa) = 0.01747121
#
# Stress axis : x y z
#
# Youngs Moduli (GPa) = 55.31037 55.31224 97.26732
#
# Poissons Ratio (x) = 0.37195 0.37738
# Poissons Ratio (y) = 0.37194 0.37739
# Poissons Ratio (z) = 0.21460 0.21461
#
# Static dielectric constant tensor:
#      x y z
#    x 3.199470 0.000000 0.000000 
#    y 0.000000 3.199490 0.000000 
#    z 0.000000 0.000000 3.853810 
# 
# 
# High freq. dielectric constant tensor:
#      x y z
#    x 1.673840 0.000000 0.000000 
#    y 0.000000 1.673840 0.000000 
#    z 0.000000 0.000000 1.707660 
# 
# From -- ./inp_files/2898.got.cif
#   From: 2010.03.12/outbox.cif.g09.slc.cpg/sg119_2_cif.got.tgz:2898.got - 2010.04.14 02:25:26.
