data_PCOD8310382
_publ_section_title
;
Structure prediction by ZEFSAII (Michael W. Deem and Ramdas Pophale) SiO2 
 PCOD8310382
Probable space group: P -4 B 2
;
_chemical_formula_sum "Si O2"
_cell_formula_units_Z 40
_cell_length_a 13.811429
_cell_length_b 13.811429
_cell_length_c 9.120200
_cell_angle_alpha 90.000000
_cell_angle_beta 90.000000
_cell_angle_gamma 90.000000
_cell_volume 1739.728959
_symmetry_space_group_name_H-M "P -4 B 2"
_symmetry_group_IT_number 117
_symmetry_cell_setting 'tetragonal'
loop_
_space_group_symop_operation_xyz
x,y,z
y,-x,-z
-x,-y,z
-y,x,-z
1/2+y,1/2+x,-z
1/2-y,1/2-x,-z
1/2-x,1/2+y,z
1/2+x,1/2-y,z
loop_
_atom_site_type_symbol
_atom_site_label
_atom_site_fract_x
_atom_site_fract_y
_atom_site_fract_z
Si Si1 0.266786 0.339029 0.228670
Si Si2 0.038742 0.400051 0.835180
Si Si3 0.379829 0.252545 0.739816
Si Si4 0.382753 0.408486 0.970905
Si Si5 0.088505 0.880281 0.478928
O O1 0.152870 0.370949 0.249499
O O2 0.289111 0.226791 0.242485
O O3 0.290061 0.375295 0.064465
O O4 0.337404 0.390533 0.343432
O O5 0.000000 0.500000 0.759349
O O6 0.951151 0.323231 0.818433
O O7 0.071635 0.428366 0.000000
O O8 0.397146 0.279735 0.569357
O O9 0.387437 0.355602 0.817191
O O10 0.379803 0.522077 0.935184
O O11 0.976927 0.886167 0.425549
#
# Coordination Sequence:
#
# PCOD8310382 Si02
#       5
#     8   8   8   8   8
#     4  12  25  43  72 106 146 195 252 307 382 466
#     4  11  26  46  70 108 159 202 251 313 392 466
#     4  12  25  43  70 106 142 195 249 301 386 456
#     4  11  22  39  68 105 138 174 245 321 374 434
#     4  11  23  46  75 103 142 182 242 325 381 442
#
# _framework density 22.992087000000001
#
# number of rings (size 3 to 8) (size 9 to 14) (size 15 to 20)
#    0.000    0.600    4.000    3.600    5.600    4.800 
#    0.000    0.000    0.000    0.000    0.000    0.000 
#    0.000    0.000    0.000    0.000    0.000    0.000 
#
# Total GULP energy -495619.155219 kJ/mol
# GULP energy per Si atom -12390.478880 kJ/mol
# Density = 2.293976 g / cm^3
# Si number density = 22.992087 Si / 1000 Ang^3
#
#
#
# Elastic Constant Matrix: (Units=GPa)
#
#
# Indices 1 2 3 4 5 6 
#
# 1 125.2372 23.0774 24.6379 0.0000 0.0000 0.0000
# 2 23.0774 125.2371 24.6379 0.0000 0.0000 0.0000
# 3 24.6379 24.6379 48.6588 0.0000 0.0000 0.0000
# 4 0.0000 0.0000 0.0000 26.0703 0.0000 0.0000
# 5 0.0000 0.0000 0.0000 0.0000 26.0703 0.0000
# 6 0.0000 0.0000 0.0000 0.0000 0.0000 40.3700
#
#
#
# Elastic Compliance Matrix: (Units=1/GPa)
#
#
# Indices 1 2 3 4 5 6 
#
# 1 0.008947 -0.000841 -0.004104 0.000000 0.000000 0.000000
# 2 -0.000841 0.008947 -0.004104 0.000000 0.000000 0.000000
# 3 -0.004104 -0.004104 0.024708 0.000000 0.000000 0.000000
# 4 0.000000 0.000000 0.000000 0.038358 0.000000 0.000000
# 5 0.000000 0.000000 0.000000 0.000000 0.038358 0.000000
# 6 0.000000 0.000000 0.000000 0.000000 0.000000 0.024771
#
#
# Mechanical properties :
#
#
# Convention : Reuss Voigt Hill
#
# Bulk Modulus (GPa) = 40.81270 49.31549 45.06410
# Shear Modulus (GPa) = 29.35021 33.62079 31.48550
#
# Velocity S-wave (km/s) = 3.57674 3.82812 3.70456
# Velocity P-wave (km/s) = 5.90311 6.40584 6.15961
#
# Compressibility (1/GPa) = 0.02450217
#
# Stress axis : x y z
#
# Youngs Moduli (GPa) = 111.76521 111.76514 40.47317
#
# Poissons Ratio (x) = 0.09402 0.16612
# Poissons Ratio (y) = 0.09402 0.16612
# Poissons Ratio (z) = 0.45873 0.45873
#
# Static dielectric constant tensor:
#      x y z
#    x 4.434490 0.000000 0.000000 
#    y 0.000000 4.434500 0.000000 
#    z 0.000000 0.000000 3.745310 
# 
# 
# High freq. dielectric constant tensor:
#      x y z
#    x 1.920060 0.000000 0.000000 
#    y 0.000000 1.920060 0.000000 
#    z 0.000000 0.000000 1.874990 
# 
# From -- ./inp_files/1720.got.cif
#   From: 2010.03.12/outbox.cif.g09.slc.cpg/sg117_1_cif.got.tgz:1720.got - 2010.04.14 02:19:01.
