data_PCOD8310409
_publ_section_title
;
Structure prediction by ZEFSAII (Michael W. Deem and Ramdas Pophale) SiO2 
 PCOD8310409
Probable space group: P -4 B 2
;
_chemical_formula_sum "Si O2"
_cell_formula_units_Z 56
_cell_length_a 14.101194
_cell_length_b 14.101194
_cell_length_c 12.497034
_cell_angle_alpha 90.000000
_cell_angle_beta 90.000000
_cell_angle_gamma 90.000000
_cell_volume 2484.956132
_symmetry_space_group_name_H-M "P -4 B 2"
_symmetry_group_IT_number 117
_symmetry_cell_setting 'tetragonal'
loop_
_space_group_symop_operation_xyz
x,y,z
y,-x,-z
-x,-y,z
-y,x,-z
1/2+y,1/2+x,-z
1/2-y,1/2-x,-z
1/2-x,1/2+y,z
1/2+x,1/2-y,z
loop_
_atom_site_type_symbol
_atom_site_label
_atom_site_fract_x
_atom_site_fract_y
_atom_site_fract_z
Si Si1 0.861754 0.212194 0.882605
Si Si2 0.181224 0.403453 0.888672
Si Si3 0.034527 0.103269 0.788948
Si Si4 0.576639 0.081693 0.321137
Si Si5 0.611647 0.746153 0.124880
Si Si6 0.980150 0.324640 0.498971
Si Si7 0.373246 0.532962 0.447732
O O1 0.784038 0.133605 0.853573
O O2 0.823470 0.311380 0.830773
O O3 0.967980 0.183119 0.845819
O O4 0.857293 0.213878 0.009074
O O5 0.109473 0.376921 0.792471
O O6 0.193487 0.516206 0.887020
O O7 0.138356 0.361644 0.000000
O O8 0.147673 0.112931 0.808347
O O9 0.018071 0.116922 0.664478
O O10 0.000000 0.000000 0.829548
O O11 0.528498 0.172888 0.381149
O O12 0.500000 0.000000 0.300383
O O13 0.660673 0.051807 0.401732
O O14 0.911506 0.411506 0.500000
O O15 0.923498 0.228627 0.524511
O O16 0.452324 0.613110 0.460293
#
# Coordination Sequence:
#
# PCOD8310409 Si02
#       7
#     8   8   8   8   8   8   8
#     4  11  26  45  67 107 142 178 252 284 341 444
#     4  12  25  43  71 103 147 183 234 297 353 423
#     4  12  25  46  74  98 140 199 230 289 370 423
#     4   9  22  42  69  98 134 182 226 278 355 426
#     4  11  26  47  72 104 143 188 235 297 349 430
#     4   9  21  45  70  96 134 179 230 284 347 423
#     4  11  25  44  64  97 141 171 230 291 342 415
#
# _framework density 22.535608
#
# number of rings (size 3 to 8) (size 9 to 14) (size 15 to 20)
#    0.000    1.286    4.286    1.714    6.000    4.857 
#    2.571    0.000    0.000    0.000    0.000    0.000 
#    0.000    0.000    0.000    0.000    0.000    0.000 
#
# Total GULP energy -693787.329682 kJ/mol
# GULP energy per Si atom -12389.059459 kJ/mol
# Density = 2.248432 g / cm^3
# Si number density = 22.535608 Si / 1000 Ang^3
#
#
#
# Elastic Constant Matrix: (Units=GPa)
#
#
# Indices 1 2 3 4 5 6 
#
# 1 90.1901 12.5269 18.0786 0.0000 0.0000 0.0000
# 2 12.5269 90.1900 18.0787 0.0000 0.0000 0.0000
# 3 18.0786 18.0787 113.8765 0.0000 0.0000 0.0000
# 4 0.0000 0.0000 0.0000 18.0482 0.0000 0.0000
# 5 0.0000 0.0000 0.0000 0.0000 18.0483 0.0000
# 6 0.0000 0.0000 0.0000 0.0000 0.0000 32.9087
#
#
#
# Elastic Compliance Matrix: (Units=1/GPa)
#
#
# Indices 1 2 3 4 5 6 
#
# 1 0.011594 -0.001282 -0.001637 0.000000 0.000000 0.000000
# 2 -0.001282 0.011594 -0.001637 0.000000 0.000000 0.000000
# 3 -0.001637 -0.001637 0.009301 0.000000 0.000000 0.000000
# 4 0.000000 0.000000 0.000000 0.055407 0.000000 0.000000
# 5 0.000000 0.000000 0.000000 0.000000 0.055407 0.000000
# 6 0.000000 0.000000 0.000000 0.000000 0.000000 0.030387
#
#
# Mechanical properties :
#
#
# Convention : Reuss Voigt Hill
#
# Bulk Modulus (GPa) = 42.77799 43.51387 43.14593
# Shear Modulus (GPa) = 26.23364 30.17255 28.20309
#
# Velocity S-wave (km/s) = 3.41559 3.66304 3.54148
# Velocity P-wave (km/s) = 5.88036 6.10257 5.99249
#
# Compressibility (1/GPa) = 0.02337651
#
# Stress axis : x y z
#
# Youngs Moduli (GPa) = 86.25204 86.25195 107.51268
#
# Poissons Ratio (x) = 0.11059 0.17600
# Poissons Ratio (y) = 0.11059 0.17600
# Poissons Ratio (z) = 0.14120 0.14120
#
# Static dielectric constant tensor:
#      x y z
#    x 4.240450 0.000000 0.000000 
#    y 0.000000 4.240460 0.000000 
#    z 0.000000 0.000000 4.197890 
# 
# 
# High freq. dielectric constant tensor:
#      x y z
#    x 1.888170 0.000000 0.000000 
#    y 0.000000 1.888170 0.000000 
#    z 0.000000 0.000000 1.890710 
# 
# From -- ./inp_files/2868.got.cif
#   From: 2010.03.12/outbox.cif.g09.slc.cpg/sg117_2_cif.got.tgz:2868.got - 2010.04.14 02:19:01.
