data_PCOD8310370
_publ_section_title
;
Structure prediction by ZEFSAII (Michael W. Deem and Ramdas Pophale) SiO2 
 PCOD8310370
Probable space group: P -4 B 2
;
_chemical_formula_sum "Si O2"
_cell_formula_units_Z 32
_cell_length_a 11.374174
_cell_length_b 11.374174
_cell_length_c 9.806331
_cell_angle_alpha 90.000000
_cell_angle_beta 90.000000
_cell_angle_gamma 90.000000
_cell_volume 1268.663028
_symmetry_space_group_name_H-M "P -4 B 2"
_symmetry_group_IT_number 117
_symmetry_cell_setting 'tetragonal'
loop_
_space_group_symop_operation_xyz
x,y,z
y,-x,-z
-x,-y,z
-y,x,-z
1/2+y,1/2+x,-z
1/2-y,1/2-x,-z
1/2-x,1/2+y,z
1/2+x,1/2-y,z
loop_
_atom_site_type_symbol
_atom_site_label
_atom_site_fract_x
_atom_site_fract_y
_atom_site_fract_z
Si Si1 0.320992 0.597766 0.197903
Si Si2 0.652744 0.500193 0.579855
Si Si3 0.069425 0.621956 0.286259
Si Si4 0.549131 0.223336 0.038765
O O1 0.439868 0.591519 0.287463
O O2 0.209375 0.603946 0.299973
O O3 0.338958 0.714685 0.108569
O O4 0.301403 0.491569 0.090752
O O5 0.585950 0.375451 0.550475
O O6 0.792423 0.478943 0.593884
O O7 0.000000 0.500000 0.297065
O O8 0.055601 0.692894 0.144027
O O9 0.594074 0.094074 0.000000
#
# Coordination Sequence:
#
# PCOD8310370 Si02
#       4
#     8   8   8   8
#     4  11  25  42  72 111 151 198 249 313 401 460
#     4  10  26  52  74 100 149 207 266 325 369 446
#     4  11  23  47  79 113 151 198 255 325 399 468
#     4  11  22  40  73 112 156 188 237 314 395 486
#
# _framework density 25.223402
#
# number of rings (size 3 to 8) (size 9 to 14) (size 15 to 20)
#    0.000    1.250    2.500    2.250    0.000   13.500 
#    4.500    1.250    0.000    0.000    0.000    0.000 
#    0.000    0.000    0.000    0.000    0.000    0.000 
#
# Total GULP energy -396423.558432 kJ/mol
# GULP energy per Si atom -12388.236201 kJ/mol
# Density = 2.516599 g / cm^3
# Si number density = 25.223402 Si / 1000 Ang^3
#
#
#
# Elastic Constant Matrix: (Units=GPa)
#
#
# Indices 1 2 3 4 5 6 
#
# 1 135.2090 55.8614 45.7216 0.0000 0.0000 0.0000
# 2 55.8614 135.2090 45.7216 0.0000 0.0000 0.0000
# 3 45.7216 45.7216 103.8837 0.0000 0.0000 0.0000
# 4 0.0000 0.0000 0.0000 35.2564 0.0000 0.0000
# 5 0.0000 0.0000 0.0000 0.0000 35.2564 0.0000
# 6 0.0000 0.0000 0.0000 0.0000 0.0000 38.8334
#
#
#
# Elastic Compliance Matrix: (Units=1/GPa)
#
#
# Indices 1 2 3 4 5 6 
#
# 1 0.009617 -0.002986 -0.002918 0.000000 0.000000 0.000000
# 2 -0.002986 0.009617 -0.002918 0.000000 0.000000 0.000000
# 3 -0.002918 -0.002918 0.012195 0.000000 0.000000 0.000000
# 4 0.000000 0.000000 0.000000 0.028364 0.000000 0.000000
# 5 0.000000 0.000000 0.000000 0.000000 0.028364 0.000000
# 6 0.000000 0.000000 0.000000 0.000000 0.000000 0.025751
#
#
# Mechanical properties :
#
#
# Convention : Reuss Voigt Hill
#
# Bulk Modulus (GPa) = 72.55414 74.32343 73.43879
# Shear Modulus (GPa) = 36.72544 37.00239 36.86392
#
# Velocity S-wave (km/s) = 3.81991 3.83428 3.82710
# Velocity P-wave (km/s) = 6.94857 7.00944 6.97907
#
# Compressibility (1/GPa) = 0.01378281
#
# Stress axis : x y z
#
# Youngs Moduli (GPa) = 103.98792 103.98792 82.00207
#
# Poissons Ratio (x) = 0.31054 0.23929
# Poissons Ratio (y) = 0.31054 0.23929
# Poissons Ratio (z) = 0.30345 0.30345
#
# Static dielectric constant tensor:
#      x y z
#    x 4.474400 0.000000 0.000000 
#    y 0.000000 4.474400 0.000000 
#    z 0.000000 0.000000 4.786630 
# 
# 
# High freq. dielectric constant tensor:
#      x y z
#    x 2.002020 0.000000 0.000000 
#    y 0.000000 2.002020 0.000000 
#    z 0.000000 0.000000 2.010950 
# 
# From -- ./inp_files/2402.got.cif
#   From: 2010.03.12/outbox.cif.g09.slc.cpg/sg117_2_cif.got.tgz:2402.got - 2010.04.14 02:19:01.
