data_PCOD8310815
_publ_section_title
;
Structure prediction by ZEFSAII (Michael W. Deem and Ramdas Pophale) SiO2 
 PCOD8310815
Probable space group: I -4 M 2
;
_chemical_formula_sum "Si O2"
_cell_formula_units_Z 96
_cell_length_a 17.075449
_cell_length_b 17.075449
_cell_length_c 16.862409
_cell_angle_alpha 90.000000
_cell_angle_beta 90.000000
_cell_angle_gamma 90.000000
_cell_volume 4916.588756
_symmetry_space_group_name_H-M "I -4 M 2"
_symmetry_group_IT_number 119
_symmetry_cell_setting 'tetragonal'
loop_
_space_group_symop_operation_xyz
x,y,z
y,-x,-z
-x,-y,z
-y,x,-z
y,x,-z
-y,-x,-z
-x,y,z
x,-y,z
1/2+x,1/2+y,1/2+z
1/2+y,1/2-x,1/2-z
1/2-x,1/2-y,1/2+z
1/2-y,1/2+x,1/2-z
1/2+y,1/2+x,1/2-z
1/2-y,1/2-x,1/2-z
1/2-x,1/2+y,1/2+z
1/2+x,1/2-y,1/2+z
loop_
_atom_site_type_symbol
_atom_site_label
_atom_site_fract_x
_atom_site_fract_y
_atom_site_fract_z
Si Si1 0.138195 0.313555 0.125462
Si Si2 0.341720 0.587195 0.426184
Si Si3 0.089873 0.586857 0.979945
Si Si4 0.672080 0.909129 0.176435
Si Si5 0.759827 0.089942 0.712415
Si Si6 0.349080 0.411738 0.719136
O O1 0.148591 0.230517 0.080584
O O2 0.090694 0.290520 0.205733
O O3 0.219536 0.355011 0.147007
O O4 0.095259 0.373010 0.066149
O O5 0.394843 0.605158 0.500000
O O6 0.305796 0.500000 0.433819
O O7 0.399927 0.589201 0.351503
O O8 0.129554 0.500000 0.981647
O O9 0.125473 0.638990 0.907383
O O10 0.000000 0.576017 0.960051
O O11 0.634074 0.865927 0.250000
O O12 0.764652 0.894692 0.180581
O O13 0.651855 0.000000 0.184774
O O14 0.846636 0.127826 0.716072
O O15 0.764749 0.000000 0.683607
O O16 0.355126 0.500000 0.754377
#
# Coordination Sequence:
#
# PCOD8310815 Si02
#       6
#    16  16  16  16  16  16
#     4  10  20  35  54  80 113 148 190 236 281 338
#     4  11  22  35  55  83 116 154 188 230 286 343
#     4  10  19  32  52  78 111 149 186 227 276 333
#     4  10  21  35  55  80 113 148 188 234 283 342
#     4  10  21  36  57  81 111 151 191 236 288 340
#     4  10  21  35  54  80 110 147 189 237 285 342
#
# _framework density 19.525732000000001
#
# number of rings (size 3 to 8) (size 9 to 14) (size 15 to 20)
#    0.000    1.833    0.000    5.500    4.667    4.333 
#    0.000    0.000    0.000    6.000    0.000    0.000 
#    0.000    0.000    0.000    0.000    0.000    0.000 
#
# Total GULP energy -594759.036526 kJ/mol
# GULP energy per Si atom -12390.813261 kJ/mol
# Density = 1.948129 g / cm^3
# Si number density = 19.525732 Si / 1000 Ang^3
#
#
#
# Elastic Constant Matrix: (Units=GPa)
#
#
# Indices 1 2 3 4 5 6 
#
# 1 207.1012 -37.2813 34.9635 0.0000 0.0000 0.0000
# 2 -37.2813 207.1403 34.9472 0.0000 0.0000 0.0000
# 3 34.9635 34.9472 71.0832 0.0000 0.0000 0.0000
# 4 0.0000 0.0000 0.0000 -3.3646 0.0000 0.0000
# 5 0.0000 0.0000 0.0000 0.0000 -3.3469 0.0000
# 6 0.0000 0.0000 0.0000 0.0000 0.0000 27.2633
#
#
#
# Elastic Compliance Matrix: (Units=1/GPa)
#
#
# Indices 1 2 3 4 5 6 
#
# 1 0.005738 0.001645 -0.003631 0.000000 0.000000 0.000000
# 2 0.001645 0.005736 -0.003629 0.000000 0.000000 0.000000
# 3 -0.003631 -0.003629 0.017638 0.000000 0.000000 0.000000
# 4 0.000000 0.000000 0.000000 -0.297209 0.000001 0.000000
# 5 0.000000 0.000000 0.000000 0.000001 -0.298787 0.000000
# 6 0.000000 0.000000 0.000000 0.000000 0.000000 0.036679
#
#
# Mechanical properties :
#
#
# Convention : Reuss Voigt Hill
#
# Bulk Modulus (GPa) = 55.92246 61.17593 58.54920
# Shear Modulus (GPa) = -9.74633 34.29006 12.27187
#
# Velocity S-wave (km/s) = -2.23660 4.19519 2.50970
# Velocity P-wave (km/s) = 4.69391 7.40710 6.20072
#
# Compressibility (1/GPa) = 0.01788190
#
# Stress axis : x y z
#
# Youngs Moduli (GPa) = 174.28441 174.33498 56.69466
#
# Poissons Ratio (x) = -0.28683 0.20586
# Poissons Ratio (y) = -0.28675 0.20576
# Poissons Ratio (z) = 0.63284 0.63272
#
# Static dielectric constant tensor:
#      x y z
#    x 3.782590 0.000000 0.000000 
#    y 0.000000 3.782600 0.000000 
#    z 0.000000 0.000000 3.282930 
# 
# 
# High freq. dielectric constant tensor:
#      x y z
#    x 1.756760 0.000000 0.000000 
#    y 0.000000 1.756760 0.000000 
#    z 0.000000 0.000000 1.740330 
# 
# From -- ./inp_files/6637.got.cif
#   From: 2010.03.12/outbox.cif.g09.slc.cpg/sg119_4_cif.got.tgz:6637.got - 2010.04.14 02:25:26.
