data_PCOD8310953
_publ_section_title
;
Structure prediction by ZEFSAII (Michael W. Deem and Ramdas Pophale) SiO2 
 PCOD8310953
Probable space group: I -4 M 2
;
_chemical_formula_sum "Si O2"
_cell_formula_units_Z 96
_cell_length_a 15.052937
_cell_length_b 15.052937
_cell_length_c 21.188268
_cell_angle_alpha 90.000000
_cell_angle_beta 90.000000
_cell_angle_gamma 90.000000
_cell_volume 4801.068977
_symmetry_space_group_name_H-M "I -4 M 2"
_symmetry_group_IT_number 119
_symmetry_cell_setting 'tetragonal'
loop_
_space_group_symop_operation_xyz
x,y,z
y,-x,-z
-x,-y,z
-y,x,-z
y,x,-z
-y,-x,-z
-x,y,z
x,-y,z
1/2+x,1/2+y,1/2+z
1/2+y,1/2-x,1/2-z
1/2-x,1/2-y,1/2+z
1/2-y,1/2+x,1/2-z
1/2+y,1/2+x,1/2-z
1/2-y,1/2-x,1/2-z
1/2-x,1/2+y,1/2+z
1/2+x,1/2-y,1/2+z
loop_
_atom_site_type_symbol
_atom_site_label
_atom_site_fract_x
_atom_site_fract_y
_atom_site_fract_z
Si Si1 0.900025 0.792125 0.235945
Si Si2 0.334714 0.799013 0.855572
Si Si3 0.826111 0.723287 0.911697
Si Si4 0.269467 0.901127 0.216033
Si Si5 0.397924 0.103319 0.977150
Si Si6 0.594769 0.404244 0.571981
O O1 0.871499 0.720942 0.183467
O O2 0.898390 0.750962 0.306271
O O3 0.833657 0.875854 0.227072
O O4 0.000000 0.824666 0.223171
O O5 0.275054 0.718760 0.886412
O O6 0.389888 0.850731 0.909052
O O7 0.897173 0.700517 0.857302
O O8 0.830979 0.829537 0.922846
O O9 0.844390 0.664021 0.972914
O O10 0.329539 0.829539 0.250000
O O11 0.286865 0.000000 0.241965
O O12 0.500000 0.110955 0.999452
O O13 0.368405 0.000000 0.973846
O O14 0.577333 0.422668 0.500000
O O15 0.500000 0.370660 0.601461
O O16 0.622516 0.500000 0.603057
#
# Coordination Sequence:
#
# PCOD8310953 Si02
#       6
#    16  16  16  16  16  16
#     4  10  20  39  64  89 121 158 200 251 307 359
#     4  10  20  38  58  87 117 161 199 247 303 361
#     4  11  21  37  57  80 115 157 195 243 304 350
#     4  11  23  42  62  87 119 156 203 247 300 362
#     4  11  23  36  54  86 122 159 206 250 291 349
#     4   9  17  28  45  75 112 147 182 221 276 350
#
# _framework density 19.995545
#
# number of rings (size 3 to 8) (size 9 to 14) (size 15 to 20)
#    0.000    1.667    3.333    4.500    0.000    5.833 
#    0.000    0.000    0.000    4.000    0.000    0.000 
#    0.000    1.333    0.000    0.000    0.000    0.000 
#
# Total GULP energy -594665.151390 kJ/mol
# GULP energy per Si atom -12388.857321 kJ/mol
# Density = 1.995003 g / cm^3
# Si number density = 19.995545 Si / 1000 Ang^3
#
#
#
# Elastic Constant Matrix: (Units=GPa)
#
#
# Indices 1 2 3 4 5 6 
#
# 1 76.8919 23.7656 27.2196 0.0000 0.0000 0.0000
# 2 23.7656 76.8920 27.2197 0.0000 0.0000 0.0000
# 3 27.2196 27.2197 116.0114 0.0000 0.0000 0.0000
# 4 0.0000 0.0000 0.0000 -2.4406 0.0000 0.0000
# 5 0.0000 0.0000 0.0000 0.0000 -2.4412 0.0000
# 6 0.0000 0.0000 0.0000 0.0000 0.0000 3.1293
#
#
#
# Elastic Compliance Matrix: (Units=1/GPa)
#
#
# Indices 1 2 3 4 5 6 
#
# 1 0.015101 -0.003722 -0.002670 0.000000 0.000000 0.000000
# 2 -0.003722 0.015101 -0.002670 0.000000 0.000000 0.000000
# 3 -0.002670 -0.002670 0.009873 0.000000 0.000000 0.000000
# 4 0.000000 0.000000 0.000000 -0.409727 0.000000 0.000000
# 5 0.000000 0.000000 0.000000 0.000000 -0.409631 0.000000
# 6 0.000000 0.000000 0.000000 0.000000 0.000000 0.319564
#
#
# Mechanical properties :
#
#
# Convention : Reuss Voigt Hill
#
# Bulk Modulus (GPa) = 45.55640 47.35612 46.45626
# Shear Modulus (GPa) = -11.51335 12.42217 0.45441
#
# Velocity S-wave (km/s) = -2.40218 2.49519 0.47723
# Velocity P-wave (km/s) = 3.89086 5.66004 4.85669
#
# Compressibility (1/GPa) = 0.02195081
#
# Stress axis : x y z
#
# Youngs Moduli (GPa) = 66.22160 66.22161 101.29004
#
# Poissons Ratio (x) = 0.24649 0.27042
# Poissons Ratio (y) = 0.24649 0.27042
# Poissons Ratio (z) = 0.17679 0.17679
#
# Static dielectric constant tensor:
#      x y z
#    x 3.601210 0.000000 0.000000 
#    y 0.000000 3.601210 0.000000 
#    z 0.000000 0.000000 3.934380 
# 
# 
# High freq. dielectric constant tensor:
#      x y z
#    x 1.765630 0.000000 0.000000 
#    y 0.000000 1.765630 0.000000 
#    z 0.000000 0.000000 1.791650 
# 
# From -- ./inp_files/7805.got.cif
#   From: 2010.03.12/outbox.cif.g09.slc.cpg/sg119_4_cif.got.tgz:7805.got - 2010.04.14 02:25:26.
