data_PCOD8310866
_publ_section_title
;
Structure prediction by ZEFSAII (Michael W. Deem and Ramdas Pophale) SiO2 
 PCOD8310866
Probable space group: I -4 M 2
;
_chemical_formula_sum "Si O2"
_cell_formula_units_Z 112
_cell_length_a 14.634294
_cell_length_b 14.634294
_cell_length_c 25.159603
_cell_angle_alpha 90.000000
_cell_angle_beta 90.000000
_cell_angle_gamma 90.000000
_cell_volume 5388.245009
_symmetry_space_group_name_H-M "I -4 M 2"
_symmetry_group_IT_number 119
_symmetry_cell_setting 'tetragonal'
loop_
_space_group_symop_operation_xyz
x,y,z
y,-x,-z
-x,-y,z
-y,x,-z
y,x,-z
-y,-x,-z
-x,y,z
x,-y,z
1/2+x,1/2+y,1/2+z
1/2+y,1/2-x,1/2-z
1/2-x,1/2-y,1/2+z
1/2-y,1/2+x,1/2-z
1/2+y,1/2+x,1/2-z
1/2-y,1/2-x,1/2-z
1/2-x,1/2+y,1/2+z
1/2+x,1/2-y,1/2+z
loop_
_atom_site_type_symbol
_atom_site_label
_atom_site_fract_x
_atom_site_fract_y
_atom_site_fract_z
Si Si1 0.895605 0.104960 0.258949
Si Si2 0.216441 0.901209 0.156038
Si Si3 0.398384 0.900597 0.003074
Si Si4 0.789216 0.890620 0.454705
Si Si5 0.861422 0.100732 0.940094
Si Si6 0.787351 0.792509 0.651987
Si Si7 0.400017 0.164046 0.607669
O O1 0.863104 0.119322 0.198698
O O2 0.833486 0.167070 0.296175
O O3 0.000000 0.137792 0.262833
O O4 0.885729 0.000000 0.276910
O O5 0.169717 0.913243 0.098759
O O6 0.288194 0.817973 0.157516
O O7 0.264260 0.000000 0.168593
O O8 0.500000 0.905829 0.026226
O O9 0.352005 0.812907 0.031468
O O10 0.349776 0.000000 0.015129
O O11 0.408887 0.884688 0.939334
O O12 0.859756 0.859756 0.500000
O O13 0.820982 0.845307 0.399595
O O14 0.792569 0.000000 0.450213
O O15 0.756425 0.099915 0.925436
O O16 0.905174 0.000000 0.934758
O O17 0.865708 0.134292 0.000000
O O18 0.683934 0.833889 0.649170
O O19 0.500000 0.149134 0.636042
#
# Coordination Sequence:
#
# PCOD8310866 Si02
#       7
#    16  16  16  16  16  16  16
#     4  10  22  42  66  90 118 156 203 255 311 369
#     4  10  22  38  59  86 120 160 196 240 300 366
#     4   9  18  33  53  76 109 156 201 239 290 361
#     4  11  23  38  57  86 124 164 206 256 310 360
#     4  10  20  31  49  81 116 149 184 227 281 348
#     4  11  22  37  62  89 120 156 209 259 306 360
#     4   9  19  33  52  80 118 154 191 241 297 356
#
# _framework density 20.785989000000001
#
# number of rings (size 3 to 8) (size 9 to 14) (size 15 to 20)
#    0.000    2.000    1.429    1.714    4.000    4.000 
#    0.000    0.000    0.000    1.286    0.000    4.000 
#    0.000    0.286    0.000    0.000    0.000    0.000 
#
# Total GULP energy -693984.188711 kJ/mol
# GULP energy per Si atom -12392.574798 kJ/mol
# Density = 2.073868 g / cm^3
# Si number density = 20.785989 Si / 1000 Ang^3
#
#
#
# Elastic Constant Matrix: (Units=GPa)
#
#
# Indices 1 2 3 4 5 6 
#
# 1 86.1049 30.4492 36.7990 0.0000 0.0000 0.0000
# 2 30.4492 86.1049 36.7990 0.0000 0.0000 0.0000
# 3 36.7990 36.7990 109.1254 0.0000 0.0000 0.0000
# 4 0.0000 0.0000 0.0000 18.7518 0.0000 0.0000
# 5 0.0000 0.0000 0.0000 0.0000 18.7518 0.0000
# 6 0.0000 0.0000 0.0000 0.0000 0.0000 16.7245
#
#
#
# Elastic Compliance Matrix: (Units=1/GPa)
#
#
# Indices 1 2 3 4 5 6 
#
# 1 0.014434 -0.003533 -0.003676 0.000000 0.000000 0.000000
# 2 -0.003533 0.014434 -0.003676 0.000000 0.000000 0.000000
# 3 -0.003676 -0.003676 0.011643 0.000000 0.000000 0.000000
# 4 0.000000 0.000000 0.000000 0.053328 0.000000 0.000000
# 5 0.000000 0.000000 0.000000 0.000000 0.053328 0.000000
# 6 0.000000 0.000000 0.000000 0.000000 0.000000 0.059792
#
#
# Mechanical properties :
#
#
# Convention : Reuss Voigt Hill
#
# Bulk Modulus (GPa) = 53.35930 54.38106 53.87018
# Shear Modulus (GPa) = 21.27862 22.66485 21.97174
#
# Velocity S-wave (km/s) = 3.20300 3.30569 3.25475
# Velocity P-wave (km/s) = 6.27738 6.38665 6.33225
#
# Compressibility (1/GPa) = 0.01874088
#
# Stress axis : x y z
#
# Youngs Moduli (GPa) = 69.27971 69.27971 85.88872
#
# Poissons Ratio (x) = 0.24479 0.31572
# Poissons Ratio (y) = 0.24479 0.31572
# Poissons Ratio (z) = 0.25467 0.25467
#
# Static dielectric constant tensor:
#      x y z
#    x 3.932870 0.000000 0.000000 
#    y 0.000000 3.932870 0.000000 
#    z 0.000000 0.000000 3.558370 
# 
# 
# High freq. dielectric constant tensor:
#      x y z
#    x 1.811990 0.000000 0.000000 
#    y 0.000000 1.811990 0.000000 
#    z 0.000000 0.000000 1.793460 
# 
# From -- ./inp_files/8849.got.cif
#   From: 2010.03.12/outbox.cif.g09.slc.cpg/sg119_5_cif.got.tgz:8849.got - 2010.04.14 02:25:26.
