data_PCOD8311268
_publ_section_title
;
Structure prediction by ZEFSAII (Michael W. Deem and Ramdas Pophale) SiO2 
 PCOD8311268
Probable space group: I -4 C 2
;
_chemical_formula_sum "Si O2"
_cell_formula_units_Z 96
_cell_length_a 13.924204
_cell_length_b 13.924204
_cell_length_c 21.276777
_cell_angle_alpha 90.000000
_cell_angle_beta 90.000000
_cell_angle_gamma 90.000000
_cell_volume 4125.215079
_symmetry_space_group_name_H-M "I -4 C 2"
_symmetry_group_IT_number 120
_symmetry_cell_setting 'tetragonal'
loop_
_space_group_symop_operation_xyz
x,y,z
y,-x,-z
-x,-y,z
-y,x,-z
y,x,1/2-z
-y,-x,1/2-z
-x,y,1/2+z
x,-y,1/2+z
1/2+x,1/2+y,1/2+z
1/2+y,1/2-x,1/2-z
1/2-x,1/2-y,1/2+z
1/2-y,1/2+x,1/2-z
1/2+y,1/2+x,-z
1/2-y,1/2-x,-z
1/2-x,1/2+y,z
1/2+x,1/2-y,z
loop_
_atom_site_type_symbol
_atom_site_label
_atom_site_fract_x
_atom_site_fract_y
_atom_site_fract_z
Si Si1 0.422299 0.924693 0.651928
Si Si2 0.781442 0.482599 0.442699
Si Si3 0.221773 0.774056 0.569802
Si Si4 0.095780 0.937485 0.382012
Si Si5 0.754168 0.986202 0.080630
Si Si6 0.758116 0.152706 0.307571
O O1 0.457438 0.864638 0.591054
O O2 0.326479 0.983713 0.635014
O O3 0.400289 0.844006 0.705423
O O4 0.500000 0.000000 0.677607
O O5 0.791550 0.371983 0.421050
O O6 0.671449 0.517177 0.430778
O O7 0.800758 0.488639 0.516511
O O8 0.266142 0.766142 0.500000
O O9 0.191130 0.884728 0.577959
O O10 0.296294 0.747382 0.624337
O O11 0.153637 0.923221 0.315568
O O12 0.068257 0.831567 0.406324
O O13 0.000000 0.000000 0.371695
O O14 0.775406 0.224595 0.250000
#
# Coordination Sequence:
#
# PCOD8311268 Si02
#       6
#    16  16  16  16  16  16
#     4  10  24  42  66  99 137 183 240 286 358 429
#     4  11  22  37  62 101 140 178 231 291 351 422
#     4  11  22  40  67  99 137 184 229 287 358 417
#     4  11  23  40  65  99 134 178 240 291 353 417
#     4  11  21  38  63  97 143 179 231 292 350 421
#     4  10  24  48  72  96 142 187 232 292 358 428
#
# _framework density 23.271514
#
# number of rings (size 3 to 8) (size 9 to 14) (size 15 to 20)
#    0.000    1.333    1.667    5.500    4.667    1.000 
#    0.000    6.667    3.667    0.000    0.000    0.000 
#    0.000    0.000    0.000    0.000    0.000    0.000 
#
# Total GULP energy -595026.075170 kJ/mol
# GULP energy per Si atom -12396.376566 kJ/mol
# Density = 2.321855 g / cm^3
# Si number density = 23.271514 Si / 1000 Ang^3
#
#
#
# Elastic Constant Matrix: (Units=GPa)
#
#
# Indices 1 2 3 4 5 6 
#
# 1 110.7210 28.4095 26.8765 0.0000 0.0000 0.0000
# 2 28.4095 110.7209 26.8765 0.0000 0.0000 0.0000
# 3 26.8765 26.8765 86.2282 0.0000 0.0000 0.0000
# 4 0.0000 0.0000 0.0000 16.7474 0.0000 0.0000
# 5 0.0000 0.0000 0.0000 0.0000 16.7478 0.0000
# 6 0.0000 0.0000 0.0000 0.0000 0.0000 42.7057
#
#
#
# Elastic Compliance Matrix: (Units=1/GPa)
#
#
# Indices 1 2 3 4 5 6 
#
# 1 0.010160 -0.001989 -0.002547 0.000000 0.000000 0.000000
# 2 -0.001989 0.010160 -0.002547 0.000000 0.000000 0.000000
# 3 -0.002547 -0.002547 0.013185 0.000000 0.000000 0.000000
# 4 0.000000 0.000000 0.000000 0.059711 0.000000 0.000000
# 5 0.000000 0.000000 0.000000 0.000000 0.059709 0.000000
# 6 0.000000 0.000000 0.000000 0.000000 0.000000 0.023416
#
#
# Mechanical properties :
#
#
# Convention : Reuss Voigt Hill
#
# Bulk Modulus (GPa) = 51.70633 52.44389 52.07511
# Shear Modulus (GPa) = 25.38666 30.27402 27.83034
#
# Velocity S-wave (km/s) = 3.30645 3.61072 3.46193
# Velocity P-wave (km/s) = 6.06990 6.32200 6.19723
#
# Compressibility (1/GPa) = 0.01933999
#
# Stress axis : x y z
#
# Youngs Moduli (GPa) = 98.42283 98.42273 75.84449
#
# Poissons Ratio (x) = 0.19574 0.19317
# Poissons Ratio (y) = 0.19574 0.19317
# Poissons Ratio (z) = 0.25068 0.25068
#
# Static dielectric constant tensor:
#      x y z
#    x 4.471420 0.000000 0.000000 
#    y 0.000000 4.471420 0.000000 
#    z 0.000000 0.000000 3.667770 
# 
# 
# High freq. dielectric constant tensor:
#      x y z
#    x 1.935740 0.000000 0.000000 
#    y 0.000000 1.935740 0.000000 
#    z 0.000000 0.000000 1.876790 
# 
# From -- ./inp_files/5331.got.cif
#   From: 2010.03.12/outbox.cif.g09.slc.cpg/sg120_3_cif.got.tgz:5331.got - 2010.04.06 16:00:44.
