data_PCOD8311902
_publ_section_title
;
Structure prediction by ZEFSAII (Michael W. Deem and Ramdas Pophale) SiO2 
 PCOD8311902
Probable space group: I -4 2 D
;
_chemical_formula_sum "Si O2"
_cell_formula_units_Z 76
_cell_length_a 13.410861
_cell_length_b 13.410861
_cell_length_c 21.401616
_cell_angle_alpha 90.000000
_cell_angle_beta 90.000000
_cell_angle_gamma 90.000000
_cell_volume 3849.106165
_symmetry_space_group_name_H-M "I -4 2 D"
_symmetry_group_IT_number 122
_symmetry_cell_setting 'tetragonal'
loop_
_space_group_symop_operation_xyz
x,y,z
y,-x,-z
-x,-y,z
-y,x,-z
x,1/2-y,1/4-z
-x,1/2+y,1/4-z
-y,1/2-x,1/4+z
y,1/2+x,1/4+z
1/2+x,1/2+y,1/2+z
1/2+y,1/2-x,1/2-z
1/2-x,1/2-y,1/2+z
1/2-y,1/2+x,1/2-z
1/2+x,-y,3/4-z
1/2-x,y,3/4-z
1/2-y,-x,3/4+z
1/2+y,x,3/4+z
loop_
_atom_site_type_symbol
_atom_site_label
_atom_site_fract_x
_atom_site_fract_y
_atom_site_fract_z
Si Si1 0.161869 0.524740 0.527517
Si Si2 0.978190 0.847279 0.737632
Si Si3 0.500000 0.500000 0.500000
Si Si4 0.574121 0.270340 0.363884
Si Si5 0.317060 0.543023 0.427090
Si Si6 0.377152 0.250000 0.125000
O O1 0.113929 0.422909 0.499017
O O2 0.225099 0.506792 0.589473
O O3 0.237149 0.577251 0.478849
O O4 0.072404 0.598375 0.543498
O O5 0.944688 0.768918 0.685636
O O6 0.012788 0.796847 0.801901
O O7 0.402939 0.473781 0.457817
O O8 0.627511 0.364598 0.395367
O O9 0.657657 0.188280 0.351427
O O10 0.250000 0.485298 0.375000
#
# Coordination Sequence:
#
# PCOD8311902 Si02
#       6
#    16  16   4  16  16   8
#     4  10  22  38  58  90 121 163 210 256 314 386
#     4  10  22  40  63  85 123 163 210 262 321 381
#     4  12  28  40  64 108 132 172 232 266 332 416
#     4  11  21  39  61  88 122 164 205 264 318 377
#     4  12  23  38  65  91 135 170 209 268 326 391
#     4  10  22  40  64  88 118 158 216 266 320 386
#
# _framework density 19.744845000000002
#
# number of rings (size 3 to 8) (size 9 to 14) (size 15 to 20)
#    0.000    1.263    5.263    0.000    2.947    1.684 
#    0.000    0.000    2.316    0.000    0.000    0.000 
#    0.000    0.000    0.000    0.000    0.000    0.000 
#
# Total GULP energy -470981.720639 kJ/mol
# GULP energy per Si atom -12394.255806 kJ/mol
# Density = 1.969990 g / cm^3
# Si number density = 19.744845 Si / 1000 Ang^3
#
#
#
# Elastic Constant Matrix: (Units=GPa)
#
#
# Indices 1 2 3 4 5 6 
#
# 1 84.6038 24.8467 68.9274 0.0000 0.0000 0.0000
# 2 24.8467 84.6038 68.9274 0.0000 0.0000 0.0000
# 3 68.9274 68.9274 157.1953 0.0000 0.0000 0.0000
# 4 0.0000 0.0000 0.0000 31.7984 0.0000 0.0000
# 5 0.0000 0.0000 0.0000 0.0000 31.7984 0.0000
# 6 0.0000 0.0000 0.0000 0.0000 0.0000 19.6932
#
#
#
# Elastic Compliance Matrix: (Units=1/GPa)
#
#
# Indices 1 2 3 4 5 6 
#
# 1 0.018571 0.001836 -0.008948 0.000000 0.000000 0.000000
# 2 0.001836 0.018571 -0.008948 0.000000 0.000000 0.000000
# 3 -0.008948 -0.008948 0.014209 0.000000 0.000000 0.000000
# 4 0.000000 0.000000 0.000000 0.031448 0.000000 0.000000
# 5 0.000000 0.000000 0.000000 0.000000 0.031448 0.000000
# 6 0.000000 0.000000 0.000000 0.000000 0.000000 0.050779
#
#
# Mechanical properties :
#
#
# Convention : Reuss Voigt Hill
#
# Bulk Modulus (GPa) = 52.00198 72.42290 62.21244
# Shear Modulus (GPa) = 24.56345 27.57143 26.06744
#
# Velocity S-wave (km/s) = 3.53093 3.74088 3.63742
# Velocity P-wave (km/s) = 6.55877 7.44432 7.01553
#
# Compressibility (1/GPa) = 0.01923004
#
# Stress axis : x y z
#
# Youngs Moduli (GPa) = 53.84868 53.84868 70.37994
#
# Poissons Ratio (x) = -0.09887 0.62976
# Poissons Ratio (y) = -0.09887 0.62976
# Poissons Ratio (z) = 0.48184 0.48184
#
# Static dielectric constant tensor:
#      x y z
#    x 3.713300 0.000000 0.000000 
#    y 0.000000 3.713300 0.000000 
#    z 0.000000 0.000000 3.732320 
# 
# 
# High freq. dielectric constant tensor:
#      x y z
#    x 1.767290 0.000000 0.000000 
#    y 0.000000 1.767290 0.000000 
#    z 0.000000 0.000000 1.774340 
# 
# From -- ./inp_files/7101.got.cif
#   From: 2010.03.12/outbox.cif.g09.slc.cpg/sg122_4_cif.got.tgz:7101.got - 2010.04.06 16:17:16.
