data_PCOD8311586
_publ_section_title
;
Structure prediction by ZEFSAII (Michael W. Deem and Ramdas Pophale) SiO2 
 PCOD8311586
Probable space group: I -4 2 M
;
_chemical_formula_sum "Si O2"
_cell_formula_units_Z 64
_cell_length_a 11.950568
_cell_length_b 11.950568
_cell_length_c 21.982238
_cell_angle_alpha 90.000000
_cell_angle_beta 90.000000
_cell_angle_gamma 90.000000
_cell_volume 3139.416962
_symmetry_space_group_name_H-M "I -4 2 M"
_symmetry_group_IT_number 121
_symmetry_cell_setting 'tetragonal'
loop_
_space_group_symop_operation_xyz
x,y,z
y,-x,-z
-x,-y,z
-y,x,-z
x,-y,-z
-x,y,-z
-y,-x,z
y,x,z
1/2+x,1/2+y,1/2+z
1/2+y,1/2-x,1/2-z
1/2-x,1/2-y,1/2+z
1/2-y,1/2+x,1/2-z
1/2+x,1/2-y,1/2-z
1/2-x,1/2+y,1/2-z
1/2-y,1/2-x,1/2+z
1/2+y,1/2+x,1/2+z
loop_
_atom_site_type_symbol
_atom_site_label
_atom_site_fract_x
_atom_site_fract_y
_atom_site_fract_z
Si Si1 0.413250 0.586751 0.914988
Si Si2 0.667268 0.978737 0.726562
Si Si3 0.823695 0.498635 0.084507
Si Si4 0.621838 0.809426 0.505745
Si Si5 0.411442 0.588559 0.770490
O O1 0.500000 0.500000 0.942183
O O2 0.451408 0.706125 0.939089
O O3 0.412890 0.587111 0.842455
O O4 0.583750 0.874126 0.733795
O O5 0.668308 0.015562 0.656473
O O6 0.788036 0.944285 0.752367
O O7 0.843451 0.377000 0.055303
O O8 0.902653 0.598298 0.059374
O O9 0.500000 0.750049 0.500000
O O10 0.714641 0.714641 0.521058
O O11 0.500000 0.500000 0.743324
#
# Coordination Sequence:
#
# PCOD8311586 Si02
#       5
#     8  16  16  16   8
#     4   9  16  32  60  89 124 152 194 259 324 364
#     4  10  23  38  64  91 125 168 215 263 318 374
#     4  10  20  40  62  93 123 158 204 266 316 375
#     4  11  24  40  64  90 124 165 208 259 316 376
#     4   9  20  38  58  86 123 167 209 261 308 364
#
# _framework density 20.385950000000001
#
# number of rings (size 3 to 8) (size 9 to 14) (size 15 to 20)
#    0.000    2.000    1.250    2.250    8.750    1.250 
#    0.000    0.000    0.000    0.000    0.000    0.000 
#    0.000    0.000    0.000    0.000    0.000    0.000 
#
# Total GULP energy -396624.301206 kJ/mol
# GULP energy per Si atom -12394.509413 kJ/mol
# Density = 2.033955 g / cm^3
# Si number density = 20.385950 Si / 1000 Ang^3
#
#
#
# Elastic Constant Matrix: (Units=GPa)
#
#
# Indices 1 2 3 4 5 6 
#
# 1 118.5085 52.1242 7.0525 0.0000 0.0000 0.0000
# 2 52.1242 118.5098 7.0523 0.0000 0.0000 0.0000
# 3 7.0525 7.0523 55.1016 0.0000 0.0000 0.0000
# 4 0.0000 0.0000 0.0000 7.1309 0.0000 0.0000
# 5 0.0000 0.0000 0.0000 0.0000 7.1305 0.0000
# 6 0.0000 0.0000 0.0000 0.0000 0.0000 30.0459
#
#
#
# Elastic Compliance Matrix: (Units=1/GPa)
#
#
# Indices 1 2 3 4 5 6 
#
# 1 0.010493 -0.004570 -0.000758 0.000000 0.000000 0.000000
# 2 -0.004570 0.010493 -0.000758 0.000000 0.000000 0.000000
# 3 -0.000758 -0.000758 0.018342 0.000000 0.000000 0.000000
# 4 0.000000 0.000000 0.000000 0.140234 0.000000 0.000000
# 5 0.000000 0.000000 0.000000 0.000000 0.140243 0.000000
# 6 0.000000 0.000000 0.000000 0.000000 0.000000 0.033282
#
#
# Mechanical properties :
#
#
# Convention : Reuss Voigt Hill
#
# Bulk Modulus (GPa) = 36.82384 47.17532 41.99958
# Shear Modulus (GPa) = 13.35777 23.92085 18.63931
#
# Velocity S-wave (km/s) = 2.56255 3.42921 3.02705
# Velocity P-wave (km/s) = 5.18248 6.23463 5.73274
#
# Compressibility (1/GPa) = 0.02715632
#
# Stress axis : x y z
#
# Youngs Moduli (GPa) = 95.29720 95.29836 54.51861
#
# Poissons Ratio (x) = 0.43554 0.04133
# Poissons Ratio (y) = 0.43553 0.04133
# Poissons Ratio (z) = 0.07225 0.07224
#
# Static dielectric constant tensor:
#      x y z
#    x 3.810580 0.000000 0.000000 
#    y 0.000000 3.810560 0.000000 
#    z 0.000000 0.000000 3.383620 
# 
# 
# High freq. dielectric constant tensor:
#      x y z
#    x 1.799690 0.000000 0.000000 
#    y 0.000000 1.799690 0.000000 
#    z 0.000000 0.000000 1.776940 
# 
# From -- ./inp_files/6938.got.cif
#   From: 2010.03.12/outbox.cif.g09.slc.cpg/sg121_4_cif.got.tgz:6938.got - 2010.04.06 16:06:48.
