data_PCOD8311885
_publ_section_title
;
Structure prediction by ZEFSAII (Michael W. Deem and Ramdas Pophale) SiO2 
 PCOD8311885
Probable space group: I -4 2 D
;
_chemical_formula_sum "Si O2"
_cell_formula_units_Z 72
_cell_length_a 11.917481
_cell_length_b 11.917481
_cell_length_c 23.048408
_cell_angle_alpha 90.000000
_cell_angle_beta 90.000000
_cell_angle_gamma 90.000000
_cell_volume 3273.481340
_symmetry_space_group_name_H-M "I -4 2 D"
_symmetry_group_IT_number 122
_symmetry_cell_setting 'tetragonal'
loop_
_space_group_symop_operation_xyz
x,y,z
y,-x,-z
-x,-y,z
-y,x,-z
x,1/2-y,1/4-z
-x,1/2+y,1/4-z
-y,1/2-x,1/4+z
y,1/2+x,1/4+z
1/2+x,1/2+y,1/2+z
1/2+y,1/2-x,1/2-z
1/2-x,1/2-y,1/2+z
1/2-y,1/2+x,1/2-z
1/2+x,-y,3/4-z
1/2-x,y,3/4-z
1/2-y,-x,3/4+z
1/2+y,x,3/4+z
loop_
_atom_site_type_symbol
_atom_site_label
_atom_site_fract_x
_atom_site_fract_y
_atom_site_fract_z
Si Si1 0.106165 0.345184 0.173745
Si Si2 0.437477 0.107339 0.971875
Si Si3 0.965565 0.761123 0.375391
Si Si4 0.680051 0.864290 0.797953
Si Si5 0.500000 0.000000 0.082705
O O1 0.123667 0.250000 0.125000
O O2 0.193955 0.444836 0.162958
O O3 0.138828 0.304801 0.238775
O O4 0.976809 0.385124 0.180090
O O5 0.479126 0.223055 0.942527
O O6 0.307258 0.094839 0.958136
O O7 0.500000 0.000000 0.941745
O O8 0.467789 0.105869 0.040605
O O9 0.844152 0.727065 0.348525
O O10 0.976207 0.894994 0.373901
#
# Coordination Sequence:
#
# PCOD8311885 Si02
#       5
#    16  16  16  16   8
#     4  12  23  36  61 100 131 166 212 271 347 403
#     4  10  21  42  64  95 137 170 210 281 343 393
#     4  12  23  38  66  89 135 178 219 270 339 399
#     4  12  22  39  62 101 133 164 220 279 343 412
#     4  10  24  44  60 102 136 172 228 284 330 398
#
# _framework density 21.994933
#
# number of rings (size 3 to 8) (size 9 to 14) (size 15 to 20)
#    0.667    0.000    4.444    5.333    3.111    0.000 
#    0.000    2.222    0.000    0.000    0.000    0.000 
#    0.000    0.000    0.000    0.000    0.000    0.000 
#
# Total GULP energy -445987.211083 kJ/mol
# GULP energy per Si atom -12388.533641 kJ/mol
# Density = 2.194487 g / cm^3
# Si number density = 21.994933 Si / 1000 Ang^3
#
#
#
# Elastic Constant Matrix: (Units=GPa)
#
#
# Indices 1 2 3 4 5 6 
#
# 1 132.1518 40.8204 35.6059 0.0000 0.0000 0.0000
# 2 40.8204 132.1518 35.6059 0.0000 0.0000 0.0000
# 3 35.6059 35.6059 79.4188 0.0000 0.0000 0.0000
# 4 0.0000 0.0000 0.0000 26.9195 0.0000 0.0000
# 5 0.0000 0.0000 0.0000 0.0000 26.9195 0.0000
# 6 0.0000 0.0000 0.0000 0.0000 0.0000 15.1871
#
#
#
# Elastic Compliance Matrix: (Units=1/GPa)
#
#
# Indices 1 2 3 4 5 6 
#
# 1 0.009020 -0.001930 -0.003179 0.000000 0.000000 0.000000
# 2 -0.001930 0.009020 -0.003179 0.000000 0.000000 0.000000
# 3 -0.003179 -0.003179 0.015442 0.000000 0.000000 0.000000
# 4 0.000000 0.000000 0.000000 0.037148 0.000000 0.000000
# 5 0.000000 0.000000 0.000000 0.000000 0.037148 0.000000
# 6 0.000000 0.000000 0.000000 0.000000 0.000000 0.065845
#
#
# Mechanical properties :
#
#
# Convention : Reuss Voigt Hill
#
# Bulk Modulus (GPa) = 59.14734 63.08745 61.11739
# Shear Modulus (GPa) = 25.53222 29.25122 27.39172
#
# Velocity S-wave (km/s) = 3.41078 3.65075 3.53280
# Velocity P-wave (km/s) = 6.51621 6.82023 6.66995
#
# Compressibility (1/GPa) = 0.01690693
#
# Stress axis : x y z
#
# Youngs Moduli (GPa) = 110.87061 110.87061 64.76002
#
# Poissons Ratio (x) = 0.21394 0.20585
# Poissons Ratio (y) = 0.21394 0.20585
# Poissons Ratio (z) = 0.35242 0.35242
#
# Static dielectric constant tensor:
#      x y z
#    x 3.785020 0.000000 0.000000 
#    y 0.000000 3.785020 0.000000 
#    z 0.000000 0.000000 4.022100 
# 
# 
# High freq. dielectric constant tensor:
#      x y z
#    x 1.845160 0.000000 0.000000 
#    y 0.000000 1.845160 0.000000 
#    z 0.000000 0.000000 1.862830 
# 
# From -- ./inp_files/8598.got.cif
#   From: 2010.03.12/outbox.cif.g09.slc.cpg/sg122_5_cif.got.tgz:8598.got - 2010.04.06 16:17:16.
