data_PCOD8311025
_publ_section_title
;
Structure prediction by ZEFSAII (Michael W. Deem and Ramdas Pophale) SiO2 
 PCOD8311025
Probable space group: I -4 M 2
;
_chemical_formula_sum "Si O2"
_cell_formula_units_Z 40
_cell_length_a 7.516682
_cell_length_b 7.516682
_cell_length_c 32.077193
_cell_angle_alpha 90.000000
_cell_angle_beta 90.000000
_cell_angle_gamma 90.000000
_cell_volume 1812.377709
_symmetry_space_group_name_H-M "I -4 M 2"
_symmetry_group_IT_number 119
_symmetry_cell_setting 'tetragonal'
loop_
_space_group_symop_operation_xyz
x,y,z
y,-x,-z
-x,-y,z
-y,x,-z
y,x,-z
-y,-x,-z
-x,y,z
x,-y,z
1/2+x,1/2+y,1/2+z
1/2+y,1/2-x,1/2-z
1/2-x,1/2-y,1/2+z
1/2-y,1/2+x,1/2-z
1/2+y,1/2+x,1/2-z
1/2-y,1/2-x,1/2-z
1/2-x,1/2+y,1/2+z
1/2+x,1/2-y,1/2+z
loop_
_atom_site_type_symbol
_atom_site_label
_atom_site_fract_x
_atom_site_fract_y
_atom_site_fract_z
Si Si1 0.301175 0.800225 0.089457
Si Si2 0.308210 0.000000 0.850619
Si Si3 0.794920 0.794920 0.500000
Si Si4 0.000000 0.792579 0.238001
O O1 0.500000 0.714411 0.090356
O O2 0.225756 0.799731 0.042035
O O3 0.173687 0.698314 0.120618
O O4 0.307581 0.000000 0.105716
O O5 0.500000 0.000000 0.828597
O O6 0.173595 0.000000 0.812040
O O7 0.000000 0.752420 0.493128
O O8 0.180315 0.680315 0.250000
O O9 0.000000 0.000000 0.256227
#
# Coordination Sequence:
#
# PCOD8311025 Si02
#       4
#    16   8   8   8
#     4  10  22  38  59  91 129 173 226 283 337 406
#     4  12  24  43  69  96 135 177 228 285 349 416
#     4   9  18  34  53  80 124 174 225 275 334 392
#     4  11  25  50  77 111 148 187 235 300 369 449
#
# _framework density 22.070452
#
# number of rings (size 3 to 8) (size 9 to 14) (size 15 to 20)
#    0.000    1.600    2.000    3.000    2.800    4.400 
#    0.000    0.000    0.000    0.000    0.000    0.000 
#    0.000    0.000    0.000    0.000    0.000    0.000 
#
# Total GULP energy -247777.551201 kJ/mol
# GULP energy per Si atom -12388.877560 kJ/mol
# Density = 2.202022 g / cm^3
# Si number density = 22.070452 Si / 1000 Ang^3
#
#
#
# Elastic Constant Matrix: (Units=GPa)
#
#
# Indices 1 2 3 4 5 6 
#
# 1 107.4171 32.2498 30.5555 0.0000 0.0000 0.0000
# 2 32.2498 107.4171 30.5555 0.0000 0.0000 0.0000
# 3 30.5555 30.5555 117.8741 0.0000 0.0000 0.0000
# 4 0.0000 0.0000 0.0000 27.6218 0.0000 0.0000
# 5 0.0000 0.0000 0.0000 0.0000 27.6218 0.0000
# 6 0.0000 0.0000 0.0000 0.0000 0.0000 21.0123
#
#
#
# Elastic Compliance Matrix: (Units=1/GPa)
#
#
# Indices 1 2 3 4 5 6 
#
# 1 0.010690 -0.002614 -0.002093 0.000000 0.000000 0.000000
# 2 -0.002614 0.010690 -0.002093 0.000000 0.000000 0.000000
# 3 -0.002093 -0.002093 0.009569 0.000000 0.000000 0.000000
# 4 0.000000 0.000000 0.000000 0.036203 0.000000 0.000000
# 5 0.000000 0.000000 0.000000 0.000000 0.036203 0.000000
# 6 0.000000 0.000000 0.000000 0.000000 0.000000 0.047591
#
#
# Mechanical properties :
#
#
# Convention : Reuss Voigt Hill
#
# Bulk Modulus (GPa) = 57.64703 57.71443 57.68073
# Shear Modulus (GPa) = 29.35475 31.20767 30.28121
#
# Velocity S-wave (km/s) = 3.65094 3.76440 3.70810
# Velocity P-wave (km/s) = 6.62938 6.71574 6.67270
#
# Compressibility (1/GPa) = 0.01734695
#
# Stress axis : x y z
#
# Youngs Moduli (GPa) = 93.54741 93.54746 104.50462
#
# Poissons Ratio (x) = 0.24452 0.21877
# Poissons Ratio (y) = 0.24452 0.21877
# Poissons Ratio (z) = 0.19584 0.19584
#
# Static dielectric constant tensor:
#      x y z
#    x 4.021380 0.000000 0.000000 
#    y 0.000000 4.021380 0.000000 
#    z 0.000000 0.000000 4.087850 
# 
# 
# High freq. dielectric constant tensor:
#      x y z
#    x 1.863980 0.000000 0.000000 
#    y 0.000000 1.863980 0.000000 
#    z 0.000000 0.000000 1.865000 
# 
# From -- ./inp_files/9148.got.cif
#   From: 2010.03.12/outbox.cif.g09.slc.cpg/sg119_5_cif.got.tgz:9148.got - 2010.04.14 02:25:26.
