data_PCOD8311414
_publ_section_title
;
Structure prediction by ZEFSAII (Michael W. Deem and Ramdas Pophale) SiO2 
 PCOD8311414
Probable space group: I -4 2 M
;
_chemical_formula_sum "Si O2"
_cell_formula_units_Z 76
_cell_length_a 14.813298
_cell_length_b 14.813298
_cell_length_c 17.673881
_cell_angle_alpha 90.000000
_cell_angle_beta 90.000000
_cell_angle_gamma 90.000000
_cell_volume 3878.246827
_symmetry_space_group_name_H-M "I -4 2 M"
_symmetry_group_IT_number 121
_symmetry_cell_setting 'tetragonal'
loop_
_space_group_symop_operation_xyz
x,y,z
y,-x,-z
-x,-y,z
-y,x,-z
x,-y,-z
-x,y,-z
-y,-x,z
y,x,z
1/2+x,1/2+y,1/2+z
1/2+y,1/2-x,1/2-z
1/2-x,1/2-y,1/2+z
1/2-y,1/2+x,1/2-z
1/2+x,1/2-y,1/2-z
1/2-x,1/2+y,1/2-z
1/2-y,1/2-x,1/2+z
1/2+y,1/2+x,1/2+z
loop_
_atom_site_type_symbol
_atom_site_label
_atom_site_fract_x
_atom_site_fract_y
_atom_site_fract_z
Si Si1 0.037685 0.290772 0.583565
Si Si2 0.629927 0.370074 0.838344
Si Si3 0.761849 0.238152 0.210779
Si Si4 0.918084 0.665549 0.153829
Si Si5 0.119415 0.381839 0.324723
Si Si6 0.142161 0.857840 0.811013
Si Si7 0.500000 0.500000 0.253158
O O1 0.067222 0.191647 0.609184
O O2 0.123313 0.357805 0.586849
O O3 0.000000 0.285283 0.500000
O O4 0.963552 0.329357 0.640363
O O5 0.691659 0.308342 0.783878
O O6 0.563932 0.436068 0.794668
O O7 0.833330 0.286074 0.155840
O O8 0.686749 0.313252 0.236170
O O9 0.885276 0.623630 0.233536
O O10 0.906780 0.773866 0.146254
O O11 0.018758 0.628960 0.142025
O O12 0.065821 0.934180 0.800723
#
# Coordination Sequence:
#
# PCOD8311414 Si02
#       7
#    16   8   8  16  16   8   4
#     4  12  26  40  62  94 133 176 221 268 349 419
#     4  12  22  44  60  87 137 177 208 281 340 396
#     4  10  18  37  63  89 121 172 224 259 334 397
#     4  11  20  37  61  87 124 174 215 276 333 393
#     4  11  20  35  63  91 122 165 222 278 325 395
#     4  10  20  36  58  94 128 162 215 274 333 381
#     4  12  24  34  67 104 128 159 238 286 322 404
#
# _framework density 19.596485000000001
#
# number of rings (size 3 to 8) (size 9 to 14) (size 15 to 20)
#    0.000    0.842    6.316    4.421    0.000    3.368 
#    0.000    0.000    0.000    0.000    0.000    1.474 
#    0.000    1.684    0.000    0.000    0.000    0.000 
#
# Total GULP energy -470981.301767 kJ/mol
# GULP energy per Si atom -12394.244783 kJ/mol
# Density = 1.955188 g / cm^3
# Si number density = 19.596485 Si / 1000 Ang^3
#
#
#
# Elastic Constant Matrix: (Units=GPa)
#
#
# Indices 1 2 3 4 5 6 
#
# 1 159.4963 56.3416 51.0304 0.0000 0.0000 0.0000
# 2 56.3416 159.4948 51.0312 0.0000 0.0000 0.0000
# 3 51.0304 51.0312 49.2093 0.0000 0.0000 0.0000
# 4 0.0000 0.0000 0.0000 21.7883 0.0000 0.0000
# 5 0.0000 0.0000 0.0000 0.0000 21.7883 0.0000
# 6 0.0000 0.0000 0.0000 0.0000 0.0000 55.9260
#
#
#
# Elastic Compliance Matrix: (Units=1/GPa)
#
#
# Indices 1 2 3 4 5 6 
#
# 1 0.009393 -0.000302 -0.009427 0.000000 0.000000 0.000000
# 2 -0.000302 0.009393 -0.009428 0.000000 0.000000 0.000000
# 3 -0.009427 -0.009428 0.039874 0.000000 0.000000 0.000000
# 4 0.000000 0.000000 0.000000 0.045896 0.000000 0.000000
# 5 0.000000 0.000000 0.000000 0.000000 0.045896 0.000000
# 6 0.000000 0.000000 0.000000 0.000000 0.000000 0.017881
#
#
# Mechanical properties :
#
#
# Convention : Reuss Voigt Hill
#
# Bulk Modulus (GPa) = 49.14907 76.11187 62.63047
# Shear Modulus (GPa) = 23.42703 33.88700 28.65702
#
# Velocity S-wave (km/s) = 3.46131 4.16292 3.82822
# Velocity P-wave (km/s) = 6.41165 7.87594 7.18121
#
# Compressibility (1/GPa) = 0.02034627
#
# Stress axis : x y z
#
# Youngs Moduli (GPa) = 106.46760 106.46445 25.07871
#
# Poissons Ratio (x) = 0.03211 0.23643
# Poissons Ratio (y) = 0.03211 0.23644
# Poissons Ratio (z) = 1.00371 1.00373
#
# Static dielectric constant tensor:
#      x y z
#    x 3.985970 0.000000 0.000000 
#    y 0.000000 3.985990 0.000000 
#    z 0.000000 0.000000 3.149060 
# 
# 
# High freq. dielectric constant tensor:
#      x y z
#    x 1.786290 0.000000 0.000000 
#    y 0.000000 1.786290 0.000000 
#    z 0.000000 0.000000 1.701400 
# 
# From -- ./inp_files/6264.got.cif
#   From: 2010.03.12/outbox.cif.g09.slc.cpg/sg121_4_cif.got.tgz:6264.got - 2010.04.06 16:06:48.
