data_PCOD8311665
_publ_section_title
;
Structure prediction by ZEFSAII (Michael W. Deem and Ramdas Pophale) SiO2 
 PCOD8311665
Probable space group: I -4 2 M
;
_chemical_formula_sum "Si O2"
_cell_formula_units_Z 88
_cell_length_a 17.546412
_cell_length_b 17.546412
_cell_length_c 15.900094
_cell_angle_alpha 90.000000
_cell_angle_beta 90.000000
_cell_angle_gamma 90.000000
_cell_volume 4895.266468
_symmetry_space_group_name_H-M "I -4 2 M"
_symmetry_group_IT_number 121
_symmetry_cell_setting 'tetragonal'
loop_
_space_group_symop_operation_xyz
x,y,z
y,-x,-z
-x,-y,z
-y,x,-z
x,-y,-z
-x,y,-z
-y,-x,z
y,x,z
1/2+x,1/2+y,1/2+z
1/2+y,1/2-x,1/2-z
1/2-x,1/2-y,1/2+z
1/2-y,1/2+x,1/2-z
1/2+x,1/2-y,1/2-z
1/2-x,1/2+y,1/2-z
1/2-y,1/2-x,1/2+z
1/2+y,1/2+x,1/2+z
loop_
_atom_site_type_symbol
_atom_site_label
_atom_site_fract_x
_atom_site_fract_y
_atom_site_fract_z
Si Si1 0.104654 0.231649 0.140433
Si Si2 0.730921 0.145296 0.369146
Si Si3 0.939472 0.939472 0.699159
Si Si4 0.938546 0.061454 0.103154
Si Si5 0.723426 0.495401 0.194626
Si Si6 0.418077 0.293546 0.966919
Si Si7 0.500000 0.305418 0.500000
O O1 0.153196 0.153196 0.139342
O O2 0.157101 0.304911 0.151325
O O3 0.042761 0.226364 0.214514
O O4 0.061955 0.243935 0.051114
O O5 0.806675 0.193326 0.344797
O O6 0.721557 0.069436 0.311522
O O7 0.734656 0.122185 0.468198
O O8 0.935622 0.935622 0.798498
O O9 0.857698 0.967747 0.666752
O O10 0.000000 0.000000 0.666228
O O11 0.855534 0.040614 0.070688
O O12 0.000000 0.000000 0.070809
O O13 0.745244 0.430927 0.125105
O O14 0.368304 0.368304 0.954400
O O15 0.500000 0.319465 0.000000
#
# Coordination Sequence:
#
# PCOD8311665 Si02
#       7
#    16  16   8   8  16  16   8
#     4  11  22  36  57  84 116 148 190 230 274 340
#     4   9  20  39  54  77 116 152 186 230 276 332
#     4  11  20  28  49  84 123 147 176 224 279 353
#     4  11  18  28  45  72 119 153 174 211 272 338
#     4  11  20  35  55  82 112 148 186 227 282 331
#     4   9  18  32  51  76 108 144 181 218 272 330
#     4  12  19  32  50  78 111 154 184 220 276 336
#
# _framework density 17.97655
#
# number of rings (size 3 to 8) (size 9 to 14) (size 15 to 20)
#    0.000    1.636    4.545    1.636    1.273    0.182 
#    3.273    0.000    0.000    0.545    0.000    0.000 
#    0.000    0.000    0.000    0.000    0.000    0.000 
#
# Total GULP energy -545368.508823 kJ/mol
# GULP energy per Si atom -12394.738837 kJ/mol
# Density = 1.793563 g / cm^3
# Si number density = 17.976550 Si / 1000 Ang^3
#
#
#
# Elastic Constant Matrix: (Units=GPa)
#
#
# Indices 1 2 3 4 5 6 
#
# 1 75.6852 38.3420 32.4376 0.0000 0.0000 0.0000
# 2 38.3420 75.6861 32.4378 0.0000 0.0000 0.0000
# 3 32.4376 32.4378 88.7040 0.0000 0.0000 0.0000
# 4 0.0000 0.0000 0.0000 26.4125 0.0000 0.0000
# 5 0.0000 0.0000 0.0000 0.0000 26.4144 0.0000
# 6 0.0000 0.0000 0.0000 0.0000 0.0000 24.0150
#
#
#
# Elastic Compliance Matrix: (Units=1/GPa)
#
#
# Indices 1 2 3 4 5 6 
#
# 1 0.018926 -0.007852 -0.004050 0.000000 0.000000 0.000000
# 2 -0.007852 0.018926 -0.004049 0.000000 0.000000 0.000000
# 3 -0.004050 -0.004049 0.014235 0.000000 0.000000 0.000000
# 4 0.000000 0.000000 0.000000 0.037861 0.000000 0.000000
# 5 0.000000 0.000000 0.000000 0.000000 0.037858 0.000000
# 6 0.000000 0.000000 0.000000 0.000000 0.000000 0.041641
#
#
# Mechanical properties :
#
#
# Convention : Reuss Voigt Hill
#
# Bulk Modulus (GPa) = 49.54267 49.61224 49.57745
# Shear Modulus (GPa) = 24.02950 24.49224 24.26087
#
# Velocity S-wave (km/s) = 3.66008 3.69515 3.67765
# Velocity P-wave (km/s) = 6.74396 6.77228 6.75813
#
# Compressibility (1/GPa) = 0.02018462
#
# Stress axis : x y z
#
# Youngs Moduli (GPa) = 52.83700 52.83760 70.24875
#
# Poissons Ratio (x) = 0.41490 0.28447
# Poissons Ratio (y) = 0.41489 0.28447
# Poissons Ratio (z) = 0.21396 0.21397
#
# Static dielectric constant tensor:
#      x y z
#    x 3.073680 0.000000 0.000000 
#    y 0.000000 3.073660 0.000000 
#    z 0.000000 0.000000 3.561230 
# 
# 
# High freq. dielectric constant tensor:
#      x y z
#    x 1.671380 0.000000 0.000000 
#    y 0.000000 1.671380 0.000000 
#    z 0.000000 0.000000 1.709530 
# 
# From -- ./inp_files/4427.got.cif
#   From: 2010.03.12/outbox.cif.g09.slc.cpg/sg121_3_cif.got.tgz:4427.got - 2010.04.06 16:06:48.
