data_PCOD8311132
_publ_section_title
;
Structure prediction by ZEFSAII (Michael W. Deem and Ramdas Pophale) SiO2 
 PCOD8311132
Probable space group: I -4 C 2
;
_chemical_formula_sum "Si O2"
_cell_formula_units_Z 96
_cell_length_a 13.921175
_cell_length_b 13.921175
_cell_length_c 25.831119
_cell_angle_alpha 90.000000
_cell_angle_beta 90.000000
_cell_angle_gamma 90.000000
_cell_volume 5006.047960
_symmetry_space_group_name_H-M "I -4 C 2"
_symmetry_group_IT_number 120
_symmetry_cell_setting 'tetragonal'
loop_
_space_group_symop_operation_xyz
x,y,z
y,-x,-z
-x,-y,z
-y,x,-z
y,x,1/2-z
-y,-x,1/2-z
-x,y,1/2+z
x,-y,1/2+z
1/2+x,1/2+y,1/2+z
1/2+y,1/2-x,1/2-z
1/2-x,1/2-y,1/2+z
1/2-y,1/2+x,1/2-z
1/2+y,1/2+x,-z
1/2-y,1/2-x,-z
1/2-x,1/2+y,z
1/2+x,1/2-y,z
loop_
_atom_site_type_symbol
_atom_site_label
_atom_site_fract_x
_atom_site_fract_y
_atom_site_fract_z
Si Si1 0.263682 0.830864 0.945780
Si Si2 0.241884 0.433983 0.110800
Si Si3 0.750261 0.137788 0.639376
Si Si4 0.848613 0.966219 0.506471
Si Si5 0.146731 0.805536 0.191647
Si Si6 0.097211 0.047600 0.308470
O O1 0.361843 0.839627 0.911736
O O2 0.189024 0.762689 0.915850
O O3 0.277605 0.777605 0.000000
O O4 0.225867 0.937252 0.960459
O O5 0.199527 0.533411 0.133703
O O6 0.308901 0.467141 0.063996
O O7 0.302202 0.384069 0.155825
O O8 0.679152 0.198531 0.675824
O O9 0.858474 0.129406 0.660990
O O10 0.930158 0.885541 0.507921
O O11 0.178992 0.821009 0.250000
O O12 0.031339 0.817528 0.187732
O O13 0.077785 0.077785 0.250000
O O14 0.000000 0.000000 0.332000
#
# Coordination Sequence:
#
# PCOD8311132 Si02
#       6
#    16  16  16  16  16  16
#     4   9  20  35  49  81 119 156 191 253 307 366
#     4  10  20  35  55  84 121 155 204 251 309 372
#     4  11  21  35  59  86 119 159 202 254 311 379
#     4  10  19  30  54  88 120 156 202 256 314 368
#     4  11  22  36  57  90 124 160 202 255 320 368
#     4  11  20  36  60  89 122 150 199 261 306 362
#
# _framework density 19.176801999999999
#
# number of rings (size 3 to 8) (size 9 to 14) (size 15 to 20)
#    0.000    1.667    5.000    0.500    2.333    0.000 
#    0.000    0.000    0.000    4.000    0.000    9.333 
#    0.000    0.000    0.000    0.000    0.000    0.000 
#
# Total GULP energy -594935.110535 kJ/mol
# GULP energy per Si atom -12394.481469 kJ/mol
# Density = 1.913316 g / cm^3
# Si number density = 19.176802 Si / 1000 Ang^3
#
#
#
# Elastic Constant Matrix: (Units=GPa)
#
#
# Indices 1 2 3 4 5 6 
#
# 1 113.5209 53.9534 29.8338 0.0000 0.0000 0.0000
# 2 53.9534 113.5209 29.8338 0.0000 0.0000 0.0000
# 3 29.8338 29.8338 69.0241 0.0000 0.0000 0.0000
# 4 0.0000 0.0000 0.0000 18.9086 0.0000 0.0000
# 5 0.0000 0.0000 0.0000 0.0000 18.9084 0.0000
# 6 0.0000 0.0000 0.0000 0.0000 0.0000 35.2488
#
#
#
# Elastic Compliance Matrix: (Units=1/GPa)
#
#
# Indices 1 2 3 4 5 6 
#
# 1 0.011923 -0.004865 -0.003051 0.000000 0.000000 0.000000
# 2 -0.004865 0.011923 -0.003051 0.000000 0.000000 0.000000
# 3 -0.003051 -0.003051 0.017125 0.000000 0.000000 0.000000
# 4 0.000000 0.000000 0.000000 0.052886 0.000000 0.000000
# 5 0.000000 0.000000 0.000000 0.000000 0.052886 0.000000
# 6 0.000000 0.000000 0.000000 0.000000 0.000000 0.028370
#
#
# Mechanical properties :
#
#
# Convention : Reuss Voigt Hill
#
# Bulk Modulus (GPa) = 52.52586 58.14532 55.33559
# Shear Modulus (GPa) = 24.58320 26.77615 25.67967
#
# Velocity S-wave (km/s) = 3.58428 3.74073 3.66334
# Velocity P-wave (km/s) = 6.67677 7.00314 6.84190
#
# Compressibility (1/GPa) = 0.01903824
#
# Stress axis : x y z
#
# Youngs Moduli (GPa) = 83.87292 83.87288 58.39491
#
# Poissons Ratio (x) = 0.40803 0.17814
# Poissons Ratio (y) = 0.40803 0.17814
# Poissons Ratio (z) = 0.25586 0.25586
#
# Static dielectric constant tensor:
#      x y z
#    x 3.688370 0.000000 0.000000 
#    y 0.000000 3.688370 0.000000 
#    z 0.000000 0.000000 3.708180 
# 
# 
# High freq. dielectric constant tensor:
#      x y z
#    x 1.730410 0.000000 0.000000 
#    y 0.000000 1.730410 0.000000 
#    z 0.000000 0.000000 1.764300 
# 
# From -- ./inp_files/5343.got.cif
#   From: 2010.03.12/outbox.cif.g09.slc.cpg/sg120_3_cif.got.tgz:5343.got - 2010.04.06 16:00:44.
