data_PCOD8311394
_publ_section_title
;
Structure prediction by ZEFSAII (Michael W. Deem and Ramdas Pophale) SiO2 
 PCOD8311394
Probable space group: I -4 2 M
;
_chemical_formula_sum "Si O2"
_cell_formula_units_Z 88
_cell_length_a 12.069069
_cell_length_b 12.069069
_cell_length_c 29.255441
_cell_angle_alpha 90.000000
_cell_angle_beta 90.000000
_cell_angle_gamma 90.000000
_cell_volume 4261.418525
_symmetry_space_group_name_H-M "I -4 2 M"
_symmetry_group_IT_number 121
_symmetry_cell_setting 'tetragonal'
loop_
_space_group_symop_operation_xyz
x,y,z
y,-x,-z
-x,-y,z
-y,x,-z
x,-y,-z
-x,y,-z
-y,-x,z
y,x,z
1/2+x,1/2+y,1/2+z
1/2+y,1/2-x,1/2-z
1/2-x,1/2-y,1/2+z
1/2-y,1/2+x,1/2-z
1/2+x,1/2-y,1/2-z
1/2-x,1/2+y,1/2-z
1/2-y,1/2-x,1/2+z
1/2+y,1/2+x,1/2+z
loop_
_atom_site_type_symbol
_atom_site_label
_atom_site_fract_x
_atom_site_fract_y
_atom_site_fract_z
Si Si1 0.379994 0.960689 0.821619
Si Si2 0.182406 0.000000 0.000000
Si Si3 0.403554 0.222104 0.586024
Si Si4 0.760299 0.575710 0.242136
Si Si5 0.947342 0.765010 0.546446
Si Si6 0.906865 0.093136 0.605593
Si Si7 0.592530 0.592530 0.793585
O O1 0.301605 0.962866 0.865983
O O2 0.386432 0.837556 0.799949
O O3 0.500000 0.000000 0.837355
O O4 0.335092 0.052598 0.786293
O O5 0.257840 0.991844 0.954602
O O6 0.109681 0.109681 0.994144
O O7 0.332030 0.332030 0.592956
O O8 0.329693 0.117678 0.572655
O O9 0.673192 0.673192 0.252332
O O10 0.698014 0.459024 0.232295
O O11 0.868849 0.868849 0.533918
O O12 0.000000 0.717711 0.500000
O O13 0.046529 0.800036 0.579713
O O14 0.869595 0.130406 0.656015
O O15 0.000000 0.000000 0.608501
O O16 0.500000 0.500000 0.798486
#
# Coordination Sequence:
#
# PCOD8311394 Si02
#       7
#    16   8  16  16  16   8   8
#     4  12  24  43  63  92 128 171 210 259 329 390
#     4   9  20  44  69  90 122 162 209 272 323 366
#     4  10  23  39  64  91 121 163 209 259 318 373
#     4  11  23  41  65  91 128 165 214 272 323 381
#     4  10  18  31  53  85 124 162 197 242 297 361
#     4   9  16  28  50  79 118 160 196 239 296 360
#     4   9  20  36  58  89 116 157 213 260 313 378
#
# _framework density 20.650400999999999
#
# number of rings (size 3 to 8) (size 9 to 14) (size 15 to 20)
#    0.000    1.727    2.727    1.636    2.545    5.091 
#    0.000    0.000    0.000    0.000    0.000    0.000 
#    0.000    0.000    0.000    0.000    0.000    0.000 
#
# Total GULP energy -545735.384651 kJ/mol
# GULP energy per Si atom -12403.076924 kJ/mol
# Density = 2.060340 g / cm^3
# Si number density = 20.650401 Si / 1000 Ang^3
#
#
#
# Elastic Constant Matrix: (Units=GPa)
#
#
# Indices 1 2 3 4 5 6 
#
# 1 67.6956 20.4944 35.8806 0.0000 0.0000 0.0000
# 2 20.4944 67.6958 35.8805 0.0000 0.0000 0.0000
# 3 35.8806 35.8805 147.0541 0.0000 0.0000 0.0000
# 4 0.0000 0.0000 0.0000 31.8909 0.0000 0.0000
# 5 0.0000 0.0000 0.0000 0.0000 31.8909 0.0000
# 6 0.0000 0.0000 0.0000 0.0000 0.0000 25.3278
#
#
#
# Elastic Compliance Matrix: (Units=1/GPa)
#
#
# Indices 1 2 3 4 5 6 
#
# 1 0.017667 -0.003519 -0.003452 0.000000 0.000000 0.000000
# 2 -0.003519 0.017667 -0.003452 0.000000 0.000000 0.000000
# 3 -0.003452 -0.003452 0.008485 0.000000 0.000000 0.000000
# 4 0.000000 0.000000 0.000000 0.031357 0.000000 0.000000
# 5 0.000000 0.000000 0.000000 0.000000 0.031357 0.000000
# 6 0.000000 0.000000 0.000000 0.000000 0.000000 0.039482
#
#
# Mechanical properties :
#
#
# Convention : Reuss Voigt Hill
#
# Bulk Modulus (GPa) = 43.52985 51.88406 47.70695
# Shear Modulus (GPa) = 28.65026 30.50126 29.57576
#
# Velocity S-wave (km/s) = 3.72882 3.84738 3.78856
# Velocity P-wave (km/s) = 6.29793 6.70194 6.50307
#
# Compressibility (1/GPa) = 0.02297274
#
# Stress axis : x y z
#
# Youngs Moduli (GPa) = 56.60262 56.60284 117.85775
#
# Poissons Ratio (x) = 0.19918 0.40686
# Poissons Ratio (y) = 0.19918 0.40685
# Poissons Ratio (z) = 0.19540 0.19540
#
# Static dielectric constant tensor:
#      x y z
#    x 3.637370 0.000000 0.000000 
#    y 0.000000 3.637370 0.000000 
#    z 0.000000 0.000000 3.774210 
# 
# 
# High freq. dielectric constant tensor:
#      x y z
#    x 1.799020 0.000000 0.000000 
#    y 0.000000 1.799020 0.000000 
#    z 0.000000 0.000000 1.813510 
# 
# From -- ./inp_files/8268.got.cif
#   From: 2010.03.12/outbox.cif.g09.slc.cpg/sg121_5_cif.got.tgz:8268.got - 2010.04.06 16:06:48.
