data_PCOD8311295
_publ_section_title
;
Structure prediction by ZEFSAII (Michael W. Deem and Ramdas Pophale) SiO2 
 PCOD8311295
Probable space group: I -4 C 2
;
_chemical_formula_sum "Si O2"
_cell_formula_units_Z 96
_cell_length_a 26.645829
_cell_length_b 26.645829
_cell_length_c 10.076912
_cell_angle_alpha 90.000000
_cell_angle_beta 90.000000
_cell_angle_gamma 90.000000
_cell_volume 7154.609567
_symmetry_space_group_name_H-M "I -4 C 2"
_symmetry_group_IT_number 120
_symmetry_cell_setting 'tetragonal'
loop_
_space_group_symop_operation_xyz
x,y,z
y,-x,-z
-x,-y,z
-y,x,-z
y,x,1/2-z
-y,-x,1/2-z
-x,y,1/2+z
x,-y,1/2+z
1/2+x,1/2+y,1/2+z
1/2+y,1/2-x,1/2-z
1/2-x,1/2-y,1/2+z
1/2-y,1/2+x,1/2-z
1/2+y,1/2+x,-z
1/2-y,1/2-x,-z
1/2-x,1/2+y,z
1/2+x,1/2-y,z
loop_
_atom_site_type_symbol
_atom_site_label
_atom_site_fract_x
_atom_site_fract_y
_atom_site_fract_z
Si Si1 0.682461 0.101260 0.655654
Si Si2 0.352497 0.001609 0.729855
Si Si3 0.398667 0.817136 0.656736
Si Si4 0.263737 0.320700 0.352736
Si Si5 0.179146 0.763671 0.852536
Si Si6 0.581192 0.001813 0.480078
O O1 0.636136 0.136284 0.701298
O O2 0.678924 0.090517 0.499233
O O3 0.735188 0.128201 0.690532
O O4 0.680473 0.049239 0.736864
O O5 0.317770 0.049340 0.762663
O O6 0.398709 0.998407 0.831067
O O7 0.373777 0.006812 0.581982
O O8 0.371592 0.764522 0.691033
O O9 0.308435 0.308435 0.250000
O O10 0.223495 0.276450 0.355074
O O11 0.286951 0.326835 0.500108
O O12 0.191545 0.808456 0.750000
O O13 0.556912 0.056912 0.500000
O O14 0.540183 0.959818 0.500000
#
# Coordination Sequence:
#
# PCOD8311295 Si02
#       6
#    16  16  16  16  16  16
#     4   9  17  30  44  56  76 104 129 161 207 248
#     4  12  20  31  44  56  76 102 136 171 210 252
#     4   9  17  30  44  56  76 104 129 161 207 248
#     4   8  14  26  43  60  76  94 118 151 195 245
#     4   8  14  26  43  60  76  94 118 151 195 245
#     4  11  22  32  42  54  70  98 138 182 216 241
#
# _framework density 13.417922000000001
#
# number of rings (size 3 to 8) (size 9 to 14) (size 15 to 20)
#    0.000    2.500    1.667    5.000    0.000    1.333 
#    3.000    0.000    0.000    0.000    0.000    0.000 
#    0.000    0.000    0.000    0.000    0.000    0.833 
#
# Total GULP energy -595066.417782 kJ/mol
# GULP energy per Si atom -12397.217037 kJ/mol
# Density = 1.338738 g / cm^3
# Si number density = 13.417922 Si / 1000 Ang^3
#
#
#
# Elastic Constant Matrix: (Units=GPa)
#
#
# Indices 1 2 3 4 5 6 
#
# 1 64.4296 48.7637 34.9406 0.0000 0.0000 0.0000
# 2 48.7637 64.4290 34.9406 0.0000 0.0000 0.0000
# 3 34.9406 34.9406 49.1819 0.0000 0.0000 0.0000
# 4 0.0000 0.0000 0.0000 21.3225 0.0000 0.0000
# 5 0.0000 0.0000 0.0000 0.0000 21.3227 0.0000
# 6 0.0000 0.0000 0.0000 0.0000 0.0000 27.0693
#
#
#
# Elastic Compliance Matrix: (Units=1/GPa)
#
#
# Indices 1 2 3 4 5 6 
#
# 1 0.039785 -0.024049 -0.011179 0.000000 0.000000 0.000000
# 2 -0.024049 0.039786 -0.011180 0.000000 0.000000 0.000000
# 3 -0.011179 -0.011180 0.036218 0.000000 0.000000 0.000000
# 4 0.000000 0.000000 0.000000 0.046899 0.000000 0.000000
# 5 0.000000 0.000000 0.000000 0.000000 0.046898 0.000000
# 6 0.000000 0.000000 0.000000 0.000000 0.000000 0.036942
#
#
# Mechanical properties :
#
#
# Convention : Reuss Voigt Hill
#
# Bulk Modulus (GPa) = 43.53203 46.14780 44.83992
# Shear Modulus (GPa) = 14.40916 17.90260 16.15588
#
# Velocity S-wave (km/s) = 3.28056 3.65667 3.47371
# Velocity P-wave (km/s) = 6.84566 7.23158 7.04126
#
# Compressibility (1/GPa) = 0.02297159
#
# Stress axis : x y z
#
# Youngs Moduli (GPa) = 25.13509 25.13471 27.61094
#
# Poissons Ratio (x) = 0.60446 0.30868
# Poissons Ratio (y) = 0.60447 0.30869
# Poissons Ratio (z) = 0.28100 0.28100
#
# Static dielectric constant tensor:
#      x y z
#    x 2.595060 0.000000 0.000000 
#    y 0.000000 2.595060 0.000000 
#    z 0.000000 0.000000 2.780570 
# 
# 
# High freq. dielectric constant tensor:
#      x y z
#    x 1.480480 0.000000 0.000000 
#    y 0.000000 1.480480 0.000000 
#    z 0.000000 0.000000 1.513810 
# 
# From -- ./inp_files/1615.got.cif
#   From: 2010.03.12/outbox.cif.g09.slc.cpg/sg120_1_cif.got.tgz:1615.got - 2010.04.06 16:00:44.
