data_PCOD8311165
_publ_section_title
;
Structure prediction by ZEFSAII (Michael W. Deem and Ramdas Pophale) SiO2 
 PCOD8311165
Probable space group: I -4 C 2
;
_chemical_formula_sum "Si O2"
_cell_formula_units_Z 64
_cell_length_a 15.368142
_cell_length_b 15.368142
_cell_length_c 14.665444
_cell_angle_alpha 90.000000
_cell_angle_beta 90.000000
_cell_angle_gamma 90.000000
_cell_volume 3463.681463
_symmetry_space_group_name_H-M "I -4 C 2"
_symmetry_group_IT_number 120
_symmetry_cell_setting 'tetragonal'
loop_
_space_group_symop_operation_xyz
x,y,z
y,-x,-z
-x,-y,z
-y,x,-z
y,x,1/2-z
-y,-x,1/2-z
-x,y,1/2+z
x,-y,1/2+z
1/2+x,1/2+y,1/2+z
1/2+y,1/2-x,1/2-z
1/2-x,1/2-y,1/2+z
1/2-y,1/2+x,1/2-z
1/2+y,1/2+x,-z
1/2-y,1/2-x,-z
1/2-x,1/2+y,z
1/2+x,1/2-y,z
loop_
_atom_site_type_symbol
_atom_site_label
_atom_site_fract_x
_atom_site_fract_y
_atom_site_fract_z
Si Si1 0.755509 0.558692 0.488322
Si Si2 0.695551 0.695551 0.750000
Si Si3 0.500000 0.000000 0.250000
Si Si4 0.101059 0.848012 0.566153
Si Si5 0.360896 0.121265 0.152953
Si Si6 0.500000 0.500000 0.000000
O O1 0.726528 0.458703 0.478067
O O2 0.680309 0.632033 0.497275
O O3 0.806619 0.582544 0.397699
O O4 0.809667 0.561832 0.581080
O O5 0.676115 0.631329 0.833183
O O6 0.795501 0.673729 0.721165
O O7 0.427419 0.053725 0.196364
O O8 0.044663 0.935435 0.571784
#
# Coordination Sequence:
#
# PCOD8311165 Si02
#       6
#    16   8   4  16  16   4
#     4   9  19  36  55  77 105 143 182 218 272 339
#     4  10  20  35  54  78 108 141 182 232 270 318
#     4  12  24  38  56  84 116 142 180 236 284 322
#     4   9  17  33  55  77 105 137 176 224 273 324
#     4  10  22  37  54  79 109 143 185 225 273 333
#     4   8  16  30  52  80 104 134 172 216 272 338
#
# _framework density 18.477450000000001
#
# number of rings (size 3 to 8) (size 9 to 14) (size 15 to 20)
#    0.000    2.500    0.000    1.500    0.000    4.500 
#    0.000   10.000    0.000    0.000    0.000    0.000 
#    0.000    0.000    0.000    0.000    0.000    0.000 
#
# Total GULP energy -396490.312058 kJ/mol
# GULP energy per Si atom -12390.322252 kJ/mol
# Density = 1.843539 g / cm^3
# Si number density = 18.477450 Si / 1000 Ang^3
#
#
#
# Elastic Constant Matrix: (Units=GPa)
#
#
# Indices 1 2 3 4 5 6 
#
# 1 129.7658 71.7121 58.3424 0.0000 0.0000 0.0000
# 2 71.7121 129.7658 58.3424 0.0000 0.0000 0.0000
# 3 58.3424 58.3424 86.7296 0.0000 0.0000 0.0000
# 4 0.0000 0.0000 0.0000 25.3947 0.0000 0.0000
# 5 0.0000 0.0000 0.0000 0.0000 25.3947 0.0000
# 6 0.0000 0.0000 0.0000 0.0000 0.0000 40.6212
#
#
#
# Elastic Compliance Matrix: (Units=1/GPa)
#
#
# Indices 1 2 3 4 5 6 
#
# 1 0.012678 -0.004547 -0.005470 0.000000 0.000000 0.000000
# 2 -0.004547 0.012678 -0.005470 0.000000 0.000000 0.000000
# 3 -0.005470 -0.005470 0.018889 0.000000 0.000000 0.000000
# 4 0.000000 0.000000 0.000000 0.039378 0.000000 0.000000
# 5 0.000000 0.000000 0.000000 0.000000 0.039378 0.000000
# 6 0.000000 0.000000 0.000000 0.000000 0.000000 0.024618
#
#
# Mechanical properties :
#
#
# Convention : Reuss Voigt Hill
#
# Bulk Modulus (GPa) = 75.34514 80.33943 77.84229
# Shear Modulus (GPa) = 27.31986 28.80641 28.06314
#
# Velocity S-wave (km/s) = 3.84937 3.95271 3.90138
# Velocity P-wave (km/s) = 7.78602 8.02533 7.90658
#
# Compressibility (1/GPa) = 0.01327226
#
# Stress axis : x y z
#
# Youngs Moduli (GPa) = 78.87515 78.87515 52.94089
#
# Poissons Ratio (x) = 0.35866 0.28957
# Poissons Ratio (y) = 0.35866 0.28957
# Poissons Ratio (z) = 0.43143 0.43143
#
# Static dielectric constant tensor:
#      x y z
#    x 3.637930 0.000000 0.000000 
#    y 0.000000 3.637930 0.000000 
#    z 0.000000 0.000000 3.284780 
# 
# 
# High freq. dielectric constant tensor:
#      x y z
#    x 1.726860 0.000000 0.000000 
#    y 0.000000 1.726860 0.000000 
#    z 0.000000 0.000000 1.708780 
# 
# From -- ./inp_files/2417.got.cif
#   From: 2010.03.12/outbox.cif.g09.slc.cpg/sg120_2_cif.got.tgz:2417.got - 2010.04.06 16:00:44.
