data_PCOD8311393
_publ_section_title
;
Structure prediction by ZEFSAII (Michael W. Deem and Ramdas Pophale) SiO2 
 PCOD8311393
Probable space group: I -4 2 M
;
_chemical_formula_sum "Si O2"
_cell_formula_units_Z 96
_cell_length_a 15.331760
_cell_length_b 15.331760
_cell_length_c 23.442951
_cell_angle_alpha 90.000000
_cell_angle_beta 90.000000
_cell_angle_gamma 90.000000
_cell_volume 5510.567219
_symmetry_space_group_name_H-M "I -4 2 M"
_symmetry_group_IT_number 121
_symmetry_cell_setting 'tetragonal'
loop_
_space_group_symop_operation_xyz
x,y,z
y,-x,-z
-x,-y,z
-y,x,-z
x,-y,-z
-x,y,-z
-y,-x,z
y,x,z
1/2+x,1/2+y,1/2+z
1/2+y,1/2-x,1/2-z
1/2-x,1/2-y,1/2+z
1/2-y,1/2+x,1/2-z
1/2+x,1/2-y,1/2-z
1/2-x,1/2+y,1/2-z
1/2-y,1/2-x,1/2+z
1/2+y,1/2+x,1/2+z
loop_
_atom_site_type_symbol
_atom_site_label
_atom_site_fract_x
_atom_site_fract_y
_atom_site_fract_z
Si Si1 0.502955 0.641283 0.935854
Si Si2 0.927340 0.927340 0.865323
Si Si3 0.074471 0.074471 0.734293
Si Si4 0.635259 0.963741 0.251323
Si Si5 0.545788 0.253093 0.836444
Si Si6 0.782196 0.642574 0.653071
Si Si7 0.687604 0.457419 0.440410
O O1 0.423789 0.576211 0.922198
O O2 0.593636 0.593636 0.923266
O O3 0.495839 0.725530 0.897108
O O4 0.500000 0.674771 0.000000
O O5 0.903539 0.903539 0.800121
O O6 0.965071 0.843389 0.898317
O O7 0.000000 0.000000 0.862873
O O8 0.163457 0.045661 0.704477
O O9 0.000000 0.000000 0.726799
O O10 0.557736 0.899341 0.268953
O O11 0.697907 0.927594 0.202017
O O12 0.685850 0.977947 0.309872
O O13 0.640190 0.212411 0.849568
O O14 0.693068 0.693068 0.669629
O O15 0.766247 0.593961 0.592148
O O16 0.720987 0.500000 0.500000
O O17 0.607676 0.392325 0.454797
#
# Coordination Sequence:
#
# PCOD8311393 Si02
#       7
#    16   8   8  16  16  16  16
#     4   9  17  30  49  74 102 134 174 218 264 323
#     4   9  18  28  45  76 102 130 174 225 259 308
#     4  11  20  30  51  84 116 137 178 231 279 331
#     4   9  20  37  56  75 104 146 185 220 268 337
#     4  11  19  33  53  77 108 144 177 221 280 324
#     4  10  20  34  53  80 108 141 179 225 276 333
#     4  10  18  31  51  74 105 142 180 218 269 322
#
# _framework density 17.421074000000001
#
# number of rings (size 3 to 8) (size 9 to 14) (size 15 to 20)
#    0.000    2.167    2.500    2.000    0.000    2.667 
#    0.000    1.667    0.000    0.000    0.000    0.000 
#    0.000    0.000    0.000    0.000    0.000    0.000 
#
# Total GULP energy -595011.016355 kJ/mol
# GULP energy per Si atom -12396.062841 kJ/mol
# Density = 1.738142 g / cm^3
# Si number density = 17.421074 Si / 1000 Ang^3
#
#
#
# Elastic Constant Matrix: (Units=GPa)
#
#
# Indices 1 2 3 4 5 6 
#
# 1 83.3539 48.4040 65.8954 0.0000 0.0000 0.0000
# 2 48.4040 83.3539 65.8957 0.0000 0.0000 0.0000
# 3 65.8954 65.8957 136.4346 0.0000 0.0000 0.0000
# 4 0.0000 0.0000 0.0000 24.6258 0.0000 0.0000
# 5 0.0000 0.0000 0.0000 0.0000 24.6259 0.0000
# 6 0.0000 0.0000 0.0000 0.0000 0.0000 23.3142
#
#
#
# Elastic Compliance Matrix: (Units=1/GPa)
#
#
# Indices 1 2 3 4 5 6 
#
# 1 0.021648 -0.006965 -0.007092 0.000000 0.000000 0.000000
# 2 -0.006965 0.021648 -0.007092 0.000000 0.000000 0.000000
# 3 -0.007092 -0.007092 0.014180 0.000000 0.000000 0.000000
# 4 0.000000 0.000000 0.000000 0.040608 0.000000 0.000000
# 5 0.000000 0.000000 0.000000 0.000000 0.040608 0.000000
# 6 0.000000 0.000000 0.000000 0.000000 0.000000 0.042892
#
#
# Mechanical properties :
#
#
# Convention : Reuss Voigt Hill
#
# Bulk Modulus (GPa) = 65.87892 73.72581 69.80237
# Shear Modulus (GPa) = 21.83987 22.70967 22.27477
#
# Velocity S-wave (km/s) = 3.54453 3.61442 3.57965
# Velocity P-wave (km/s) = 7.39252 7.73502 7.56571
#
# Compressibility (1/GPa) = 0.01517936
#
# Stress axis : x y z
#
# Youngs Moduli (GPa) = 46.19426 46.19397 70.52246
#
# Poissons Ratio (x) = 0.32172 0.50012
# Poissons Ratio (y) = 0.32172 0.50013
# Poissons Ratio (z) = 0.32759 0.32760
#
# Static dielectric constant tensor:
#      x y z
#    x 3.211530 0.000000 0.000000 
#    y 0.000000 3.211530 0.000000 
#    z 0.000000 0.000000 3.354540 
# 
# 
# High freq. dielectric constant tensor:
#      x y z
#    x 1.661900 0.000000 0.000000 
#    y 0.000000 1.661900 0.000000 
#    z 0.000000 0.000000 1.676230 
# 
# From -- ./inp_files/7132.got.cif
#   From: 2010.03.12/outbox.cif.g09.slc.cpg/sg121_4_cif.got.tgz:7132.got - 2010.04.06 16:06:48.
