data_PCOD8311377
_publ_section_title
;
Structure prediction by ZEFSAII (Michael W. Deem and Ramdas Pophale) SiO2 
 PCOD8311377
Probable space group: I -4 2 M
;
_chemical_formula_sum "Si O2"
_cell_formula_units_Z 112
_cell_length_a 14.827094
_cell_length_b 14.827094
_cell_length_c 29.762819
_cell_angle_alpha 90.000000
_cell_angle_beta 90.000000
_cell_angle_gamma 90.000000
_cell_volume 6543.138979
_symmetry_space_group_name_H-M "I -4 2 M"
_symmetry_group_IT_number 121
_symmetry_cell_setting 'tetragonal'
loop_
_space_group_symop_operation_xyz
x,y,z
y,-x,-z
-x,-y,z
-y,x,-z
x,-y,-z
-x,y,-z
-y,-x,z
y,x,z
1/2+x,1/2+y,1/2+z
1/2+y,1/2-x,1/2-z
1/2-x,1/2-y,1/2+z
1/2-y,1/2+x,1/2-z
1/2+x,1/2-y,1/2-z
1/2-x,1/2+y,1/2-z
1/2-y,1/2-x,1/2+z
1/2+y,1/2+x,1/2+z
loop_
_atom_site_type_symbol
_atom_site_label
_atom_site_fract_x
_atom_site_fract_y
_atom_site_fract_z
Si Si1 0.093943 0.389908 0.244583
Si Si2 0.755661 0.609206 0.172499
Si Si3 0.173000 0.680195 0.421914
Si Si4 0.998593 0.608035 0.946497
Si Si5 0.266067 0.402929 0.998251
Si Si6 0.403121 0.744759 0.181102
Si Si7 0.829704 0.311809 0.589199
O O1 0.116168 0.487395 0.266722
O O2 0.151105 0.375040 0.199288
O O3 0.122341 0.311684 0.278643
O O4 0.679425 0.679425 0.189214
O O5 0.775143 0.622945 0.120022
O O6 0.718978 0.508589 0.180904
O O7 0.273369 0.726632 0.427495
O O8 0.168914 0.572247 0.419193
O O9 0.110171 0.684009 0.467184
O O10 0.000000 0.500000 0.934564
O O11 0.913492 0.660769 0.926330
O O12 0.000000 0.621499 0.000000
O O13 0.339808 0.339808 0.020793
O O14 0.247282 0.382501 0.946970
O O15 0.308267 0.500000 0.000000
O O16 0.347541 0.652460 0.186384
O O17 0.378542 0.798079 0.136249
O O18 0.725671 0.274330 0.591256
#
# Coordination Sequence:
#
# PCOD8311377 Si02
#       7
#    16  16  16  16  16  16  16
#     4   9  19  34  52  76 103 129 162 208 258 303
#     4  10  20  34  52  74 102 135 169 206 252 306
#     4  10  21  34  49  73 104 134 163 207 261 303
#     4  11  20  30  52  79 101 131 175 216 248 293
#     4  10  18  30  45  65  98 132 164 200 240 290
#     4  10  20  34  52  74 102 135 169 206 252 306
#     4  10  21  34  49  73 104 134 163 207 261 303
#
# _framework density 17.117167999999999
#
# number of rings (size 3 to 8) (size 9 to 14) (size 15 to 20)
#    0.000    2.000    1.429    3.000    2.000    0.429 
#    0.000    0.000    0.000    5.571    0.000    1.000 
#    0.000    0.000    0.000    0.000    0.000    0.000 
#
# Total GULP energy -693764.768501 kJ/mol
# GULP energy per Si atom -12388.656580 kJ/mol
# Density = 1.707821 g / cm^3
# Si number density = 17.117168 Si / 1000 Ang^3
#
#
#
# Elastic Constant Matrix: (Units=GPa)
#
#
# Indices 1 2 3 4 5 6 
#
# 1 95.5304 44.9767 17.2716 0.0000 0.0000 0.0000
# 2 44.9767 95.5321 17.2724 0.0000 0.0000 0.0000
# 3 17.2716 17.2724 57.9216 0.0000 0.0000 0.0000
# 4 0.0000 0.0000 0.0000 23.8867 0.0000 0.0000
# 5 0.0000 0.0000 0.0000 0.0000 23.8869 0.0000
# 6 0.0000 0.0000 0.0000 0.0000 0.0000 54.3042
#
#
#
# Elastic Compliance Matrix: (Units=1/GPa)
#
#
# Indices 1 2 3 4 5 6 
#
# 1 0.013730 -0.006050 -0.002290 0.000000 0.000000 0.000000
# 2 -0.006050 0.013730 -0.002290 0.000000 0.000000 0.000000
# 3 -0.002290 -0.002290 0.018631 0.000000 0.000000 0.000000
# 4 0.000000 0.000000 0.000000 0.041864 0.000000 0.000000
# 5 0.000000 0.000000 0.000000 0.000000 0.041864 0.000000
# 6 0.000000 0.000000 0.000000 0.000000 0.000000 0.018415
#
#
# Mechanical properties :
#
#
# Convention : Reuss Voigt Hill
#
# Bulk Modulus (GPa) = 40.27382 45.33618 42.80500
# Shear Modulus (GPa) = 28.12589 31.71311 29.91950
#
# Velocity S-wave (km/s) = 4.05796 4.30898 4.18535
# Velocity P-wave (km/s) = 6.74800 7.16238 6.95827
#
# Compressibility (1/GPa) = 0.02483002
#
# Stress axis : x y z
#
# Youngs Moduli (GPa) = 72.83090 72.83191 53.67521
#
# Poissons Ratio (x) = 0.44065 0.12292
# Poissons Ratio (y) = 0.44065 0.12293
# Poissons Ratio (z) = 0.16679 0.16681
#
# Static dielectric constant tensor:
#      x y z
#    x 3.284470 0.000000 0.000000 
#    y 0.000000 3.284470 0.000000 
#    z 0.000000 0.000000 3.317450 
# 
# 
# High freq. dielectric constant tensor:
#      x y z
#    x 1.654650 0.000000 0.000000 
#    y 0.000000 1.654650 0.000000 
#    z 0.000000 0.000000 1.666650 
# 
# From -- ./inp_files/7754.got.cif
#   From: 2010.03.12/outbox.cif.g09.slc.cpg/sg121_4_cif.got.tgz:7754.got - 2010.04.06 16:06:48.
