data_PCOD8311859
_publ_section_title
;
Structure prediction by ZEFSAII (Michael W. Deem and Ramdas Pophale) SiO2 
 PCOD8311859
Probable space group: I -4 2 D
;
_chemical_formula_sum "Si O2"
_cell_formula_units_Z 112
_cell_length_a 14.424937
_cell_length_b 14.424937
_cell_length_c 28.769975
_cell_angle_alpha 90.000000
_cell_angle_beta 90.000000
_cell_angle_gamma 90.000000
_cell_volume 5986.422088
_symmetry_space_group_name_H-M "I -4 2 D"
_symmetry_group_IT_number 122
_symmetry_cell_setting 'tetragonal'
loop_
_space_group_symop_operation_xyz
x,y,z
y,-x,-z
-x,-y,z
-y,x,-z
x,1/2-y,1/4-z
-x,1/2+y,1/4-z
-y,1/2-x,1/4+z
y,1/2+x,1/4+z
1/2+x,1/2+y,1/2+z
1/2+y,1/2-x,1/2-z
1/2-x,1/2-y,1/2+z
1/2-y,1/2+x,1/2-z
1/2+x,-y,3/4-z
1/2-x,y,3/4-z
1/2-y,-x,3/4+z
1/2+y,x,3/4+z
loop_
_atom_site_type_symbol
_atom_site_label
_atom_site_fract_x
_atom_site_fract_y
_atom_site_fract_z
Si Si1 0.898711 0.023548 0.707317
Si Si2 0.623832 0.434375 0.518681
Si Si3 0.233592 0.506724 0.144551
Si Si4 0.780941 0.173719 0.163549
Si Si5 0.672324 0.669530 0.660043
Si Si6 0.981352 0.395464 0.061642
Si Si7 0.705809 0.196006 0.010497
O O1 0.821795 0.975856 0.674865
O O2 0.873875 0.133649 0.713981
O O3 0.893901 0.972719 0.756332
O O4 0.000000 0.000000 0.685702
O O5 0.525265 0.381000 0.514763
O O6 0.648208 0.460294 0.572107
O O7 0.703273 0.366225 0.500774
O O8 0.270323 0.585662 0.108994
O O9 0.198237 0.425241 0.113424
O O10 0.779819 0.250000 0.125000
O O11 0.885958 0.144262 0.170681
O O12 0.729279 0.212379 0.209469
O O13 0.701249 0.750000 0.625000
O O14 0.562816 0.671703 0.670749
O O15 0.728041 0.674537 0.709089
O O16 0.000000 0.500000 0.079489
#
# Coordination Sequence:
#
# PCOD8311859 Si02
#       7
#    16  16  16  16  16  16  16
#     4   9  20  39  63  84 116 155 206 256 313 368
#     4  10  21  34  54  85 129 166 200 238 295 365
#     4  11  23  39  63  90 120 166 211 259 315 383
#     4  12  22  38  62  89 124 166 217 255 307 380
#     4  11  23  38  57  87 128 161 207 255 311 378
#     4  10  21  36  58  90 123 168 203 244 305 369
#     4  10  23  38  59  88 117 167 206 264 312 363
#
# _framework density 18.709005000000001
#
# number of rings (size 3 to 8) (size 9 to 14) (size 15 to 20)
#    0.000    1.571    4.286    1.286    8.000    3.429 
#    0.000    0.000    6.286    0.000    0.000    0.000 
#    0.000    0.000    0.000    0.000    0.000    0.000 
#
# Total GULP energy -694125.443712 kJ/mol
# GULP energy per Si atom -12395.097209 kJ/mol
# Density = 1.866642 g / cm^3
# Si number density = 18.709005 Si / 1000 Ang^3
#
#
#
# Elastic Constant Matrix: (Units=GPa)
#
#
# Indices 1 2 3 4 5 6 
#
# 1 72.8275 5.4780 29.9579 0.0000 0.0000 0.0000
# 2 5.4780 72.8275 29.9579 0.0000 0.0000 0.0000
# 3 29.9579 29.9579 109.9423 0.0000 0.0000 0.0000
# 4 0.0000 0.0000 0.0000 36.8239 0.0000 0.0000
# 5 0.0000 0.0000 0.0000 0.0000 36.8239 0.0000
# 6 0.0000 0.0000 0.0000 0.0000 0.0000 23.7648
#
#
#
# Elastic Compliance Matrix: (Units=1/GPa)
#
#
# Indices 1 2 3 4 5 6 
#
# 1 0.015491 0.000643 -0.004396 0.000000 0.000000 0.000000
# 2 0.000643 0.015491 -0.004396 0.000000 0.000000 0.000000
# 3 -0.004396 -0.004396 0.011492 0.000000 0.000000 0.000000
# 4 0.000000 0.000000 0.000000 0.027156 0.000000 0.000000
# 5 0.000000 0.000000 0.000000 0.000000 0.027156 0.000000
# 6 0.000000 0.000000 0.000000 0.000000 0.000000 0.042079
#
#
# Mechanical properties :
#
#
# Convention : Reuss Voigt Hill
#
# Bulk Modulus (GPa) = 38.20474 42.93168 40.56821
# Shear Modulus (GPa) = 30.50833 32.16276 31.33555
#
# Velocity S-wave (km/s) = 4.04254 4.15071 4.09698
# Velocity P-wave (km/s) = 6.50034 6.77997 6.64163
#
# Compressibility (1/GPa) = 0.02617477
#
# Stress axis : x y z
#
# Youngs Moduli (GPa) = 64.55285 64.55285 87.01986
#
# Poissons Ratio (x) = -0.04152 0.38258
# Poissons Ratio (y) = -0.04152 0.38258
# Poissons Ratio (z) = 0.28380 0.28380
#
# Static dielectric constant tensor:
#      x y z
#    x 3.397600 0.000000 0.000000 
#    y 0.000000 3.397600 0.000000 
#    z 0.000000 0.000000 3.555400 
# 
# 
# High freq. dielectric constant tensor:
#      x y z
#    x 1.708380 0.000000 0.000000 
#    y 0.000000 1.708380 0.000000 
#    z 0.000000 0.000000 1.733120 
# 
# From -- ./inp_files/9675.got.cif
#   From: 2010.03.12/outbox.cif.g09.slc.cpg/sg122_5_cif.got.tgz:9675.got - 2010.04.06 16:17:16.
