data_PCOD8311425
_publ_section_title
;
Structure prediction by ZEFSAII (Michael W. Deem and Ramdas Pophale) SiO2 
 PCOD8311425
Probable space group: I -4 2 M
;
_chemical_formula_sum "Si O2"
_cell_formula_units_Z 128
_cell_length_a 20.456747
_cell_length_b 20.456747
_cell_length_c 19.003625
_cell_angle_alpha 90.000000
_cell_angle_beta 90.000000
_cell_angle_gamma 90.000000
_cell_volume 7952.608443
_symmetry_space_group_name_H-M "I -4 2 M"
_symmetry_group_IT_number 121
_symmetry_cell_setting 'tetragonal'
loop_
_space_group_symop_operation_xyz
x,y,z
y,-x,-z
-x,-y,z
-y,x,-z
x,-y,-z
-x,y,-z
-y,-x,z
y,x,z
1/2+x,1/2+y,1/2+z
1/2+y,1/2-x,1/2-z
1/2-x,1/2-y,1/2+z
1/2-y,1/2+x,1/2-z
1/2+x,1/2-y,1/2-z
1/2-x,1/2+y,1/2-z
1/2-y,1/2-x,1/2+z
1/2+y,1/2+x,1/2+z
loop_
_atom_site_type_symbol
_atom_site_label
_atom_site_fract_x
_atom_site_fract_y
_atom_site_fract_z
Si Si1 0.247133 0.356890 0.047266
Si Si2 0.139505 0.248584 0.703544
Si Si3 0.828518 0.063939 0.048577
Si Si4 0.825926 0.715555 0.306293
Si Si5 0.167678 0.276817 0.947592
Si Si6 0.319563 0.428285 0.802958
Si Si7 0.549663 0.656117 0.287245
Si Si8 0.332277 0.559230 0.043079
O O1 0.307091 0.307091 0.050036
O O2 0.231901 0.384636 0.125310
O O3 0.183391 0.320462 0.016244
O O4 0.266282 0.416830 0.996078
O O5 0.196683 0.196683 0.696637
O O6 0.166942 0.313228 0.741300
O O7 0.082582 0.219484 0.752182
O O8 0.886080 0.113921 0.025347
O O9 0.756722 0.096936 0.041607
O O10 0.837581 0.043901 0.129426
O O11 0.832244 0.000000 0.000000
O O12 0.771399 0.771399 0.311074
O O13 0.822944 0.673339 0.378540
O O14 0.896998 0.747535 0.291708
O O15 0.218485 0.218485 0.937477
O O16 0.369666 0.369666 0.805589
O O17 0.345031 0.476573 0.742656
O O18 0.317198 0.465284 0.878076
O O19 0.590457 0.590457 0.267378
O O20 0.382392 0.617609 0.045719
O O21 0.364011 0.500000 0.000000
#
# Coordination Sequence:
#
# PCOD8311425 Si02
#       8
#    16  16  16  16  16  16  16  16
#     4   9  16  26  44  68  89 113 151 199 248 296
#     4   9  16  27  46  68  88 119 159 194 239 301
#     4  10  21  35  52  71  96 135 177 211 245 290
#     4   9  15  28  48  67  88 119 156 199 256 301
#     4   9  15  29  50  68  90 122 157 199 258 307
#     4  10  20  31  46  67  93 126 165 207 246 286
#     4  10  20  34  48  65  96 138 172 201 242 296
#     4  10  19  30  42  60  90 127 160 196 237 281
#
# _framework density 16.095347
#
# number of rings (size 3 to 8) (size 9 to 14) (size 15 to 20)
#    0.000    2.500    2.500    0.750    0.000    3.500 
#    0.000    5.000    0.000    0.000    0.000    0.000 
#    0.000    1.000    1.500    0.000    0.000    0.000 
#
# Total GULP energy -793156.912814 kJ/mol
# GULP energy per Si atom -12393.076763 kJ/mol
# Density = 1.605871 g / cm^3
# Si number density = 16.095347 Si / 1000 Ang^3
#
#
#
# Elastic Constant Matrix: (Units=GPa)
#
#
# Indices 1 2 3 4 5 6 
#
# 1 40.8898 37.3377 33.8263 0.0000 0.0000 0.0000
# 2 37.3377 40.8914 33.8268 0.0000 0.0000 0.0000
# 3 33.8263 33.8268 105.8192 0.0000 0.0000 0.0000
# 4 0.0000 0.0000 0.0000 24.0615 0.0000 0.0000
# 5 0.0000 0.0000 0.0000 0.0000 24.0614 0.0000
# 6 0.0000 0.0000 0.0000 0.0000 0.0000 9.9515
#
#
#
# Elastic Compliance Matrix: (Units=1/GPa)
#
#
# Indices 1 2 3 4 5 6 
#
# 1 0.149566 -0.131895 -0.005648 0.000000 0.000000 0.000000
# 2 -0.131895 0.149559 -0.005647 0.000000 0.000000 0.000000
# 3 -0.005648 -0.005647 0.013061 0.000000 0.000000 0.000000
# 4 0.000000 0.000000 0.000000 0.041560 0.000000 0.000000
# 5 0.000000 0.000000 0.000000 0.000000 0.041560 0.000000
# 6 0.000000 0.000000 0.000000 0.000000 0.000000 0.100487
#
#
# Mechanical properties :
#
#
# Convention : Reuss Voigt Hill
#
# Bulk Modulus (GPa) = 38.75234 44.17577 41.46405
# Shear Modulus (GPa) = 6.32291 17.12220 11.72255
#
# Velocity S-wave (km/s) = 1.98417 3.26513 2.70167
# Velocity P-wave (km/s) = 5.42017 6.45915 5.96234
#
# Compressibility (1/GPa) = 0.02580489
#
# Stress axis : x y z
#
# Youngs Moduli (GPa) = 6.68603 6.68633 76.56543
#
# Poissons Ratio (x) = 0.88189 0.43244
# Poissons Ratio (y) = 0.88185 0.43238
# Poissons Ratio (z) = 0.03776 0.03776
#
# Static dielectric constant tensor:
#      x y z
#    x 2.865980 0.000000 0.000000 
#    y 0.000000 2.865980 0.000000 
#    z 0.000000 0.000000 3.324090 
# 
# 
# High freq. dielectric constant tensor:
#      x y z
#    x 1.584690 0.000000 0.000000 
#    y 0.000000 1.584690 0.000000 
#    z 0.000000 0.000000 1.634830 
# 
# From -- ./inp_files/5659.got.cif
#   From: 2010.03.12/outbox.cif.g09.slc.cpg/sg121_3_cif.got.tgz:5659.got - 2010.04.06 16:06:48.
