data_PCOD8311810
_publ_section_title
;
Structure prediction by ZEFSAII (Michael W. Deem and Ramdas Pophale) SiO2 
 PCOD8311810
Probable space group: I -4 2 D
;
_chemical_formula_sum "Si O2"
_cell_formula_units_Z 60
_cell_length_a 18.614717
_cell_length_b 18.614717
_cell_length_c 7.860722
_cell_angle_alpha 90.000000
_cell_angle_beta 90.000000
_cell_angle_gamma 90.000000
_cell_volume 2723.800614
_symmetry_space_group_name_H-M "I -4 2 D"
_symmetry_group_IT_number 122
_symmetry_cell_setting 'tetragonal'
loop_
_space_group_symop_operation_xyz
x,y,z
y,-x,-z
-x,-y,z
-y,x,-z
x,1/2-y,1/4-z
-x,1/2+y,1/4-z
-y,1/2-x,1/4+z
y,1/2+x,1/4+z
1/2+x,1/2+y,1/2+z
1/2+y,1/2-x,1/2-z
1/2-x,1/2-y,1/2+z
1/2-y,1/2+x,1/2-z
1/2+x,-y,3/4-z
1/2-x,y,3/4-z
1/2-y,-x,3/4+z
1/2+y,x,3/4+z
loop_
_atom_site_type_symbol
_atom_site_label
_atom_site_fract_x
_atom_site_fract_y
_atom_site_fract_z
Si Si1 0.519819 0.385392 0.485954
Si Si2 0.000000 0.000000 0.500000
Si Si3 0.911778 0.798360 0.471823
Si Si4 0.446047 0.861149 0.127493
Si Si5 0.960736 0.750000 0.125000
O O1 0.443013 0.423134 0.443886
O O2 0.549258 0.341583 0.321305
O O3 0.508222 0.322935 0.625323
O O4 0.946126 0.961305 0.372464
O O5 0.880741 0.750000 0.625000
O O6 0.856207 0.865670 0.455372
O O7 0.911737 0.753786 0.295273
O O8 0.995269 0.818067 0.514100
#
# Coordination Sequence:
#
# PCOD8311810 Si02
#       5
#    16   4  16  16   8
#     4  11  22  37  62  99 133 165 215 273 334 396
#     4   8  16  28  54  84 112 148 186 240 316 358
#     4  11  23  39  60  94 126 165 210 265 323 384
#     4  10  20  36  59  88 125 160 204 257 320 382
#     4  12  24  36  60 100 128 170 208 272 334 392
#
# _framework density 22.028044000000001
#
# number of rings (size 3 to 8) (size 9 to 14) (size 15 to 20)
#    0.000    1.333    5.333    1.600    7.467    0.000 
#    0.000    0.000    0.000    0.000   27.733    0.000 
#    0.000    0.000    0.000    0.000    0.000    0.000 
#
# Total GULP energy -371811.163527 kJ/mol
# GULP energy per Si atom -12393.705451 kJ/mol
# Density = 2.197791 g / cm^3
# Si number density = 22.028044 Si / 1000 Ang^3
#
#
#
# Elastic Constant Matrix: (Units=GPa)
#
#
# Indices 1 2 3 4 5 6 
#
# 1 71.1256 1.3758 3.8862 0.0000 0.0000 0.0000
# 2 1.3758 71.1256 3.8862 0.0000 0.0000 0.0000
# 3 3.8862 3.8862 121.8450 0.0000 0.0000 0.0000
# 4 0.0000 0.0000 0.0000 29.7580 0.0000 0.0000
# 5 0.0000 0.0000 0.0000 0.0000 29.7580 0.0000
# 6 0.0000 0.0000 0.0000 0.0000 0.0000 19.9046
#
#
#
# Elastic Compliance Matrix: (Units=1/GPa)
#
#
# Indices 1 2 3 4 5 6 
#
# 1 0.014089 -0.000248 -0.000441 0.000000 0.000000 0.000000
# 2 -0.000248 0.014089 -0.000441 0.000000 0.000000 0.000000
# 3 -0.000441 -0.000441 0.008235 0.000000 0.000000 0.000000
# 4 0.000000 0.000000 0.000000 0.033604 0.000000 0.000000
# 5 0.000000 0.000000 0.000000 0.000000 0.033604 0.000000
# 6 0.000000 0.000000 0.000000 0.000000 0.000000 0.050240
#
#
# Mechanical properties :
#
#
# Convention : Reuss Voigt Hill
#
# Bulk Modulus (GPa) = 29.28263 31.37695 30.32979
# Shear Modulus (GPa) = 29.84955 32.88065 31.36510
#
# Velocity S-wave (km/s) = 3.68512 3.86770 3.77752
# Velocity P-wave (km/s) = 5.60616 5.84983 5.72929
#
# Compressibility (1/GPa) = 0.03414994
#
# Stress axis : x y z
#
# Youngs Moduli (GPa) = 70.97956 70.97956 121.42842
#
# Poissons Ratio (x) = 0.01763 0.05360
# Poissons Ratio (y) = 0.01763 0.05360
# Poissons Ratio (z) = 0.03133 0.03133
#
# Static dielectric constant tensor:
#      x y z
#    x 3.849270 0.000000 0.000000 
#    y 0.000000 3.849270 0.000000 
#    z 0.000000 0.000000 4.025050 
# 
# 
# High freq. dielectric constant tensor:
#      x y z
#    x 1.837790 0.000000 0.000000 
#    y 0.000000 1.837790 0.000000 
#    z 0.000000 0.000000 1.880360 
# 
# From -- ./inp_files/2305.got.cif
#   From: 2010.03.12/outbox.cif.g09.slc.cpg/sg122_2_cif.got.tgz:2305.got - 2010.04.06 16:17:16.
