data_PCOD8311197
_publ_section_title
;
Structure prediction by ZEFSAII (Michael W. Deem and Ramdas Pophale) SiO2 
 PCOD8311197
Probable space group: I -4 C 2
;
_chemical_formula_sum "Si O2"
_cell_formula_units_Z 96
_cell_length_a 22.984696
_cell_length_b 22.984696
_cell_length_c 8.608034
_cell_angle_alpha 90.000000
_cell_angle_beta 90.000000
_cell_angle_gamma 90.000000
_cell_volume 4547.592084
_symmetry_space_group_name_H-M "I -4 C 2"
_symmetry_group_IT_number 120
_symmetry_cell_setting 'tetragonal'
loop_
_space_group_symop_operation_xyz
x,y,z
y,-x,-z
-x,-y,z
-y,x,-z
y,x,1/2-z
-y,-x,1/2-z
-x,y,1/2+z
x,-y,1/2+z
1/2+x,1/2+y,1/2+z
1/2+y,1/2-x,1/2-z
1/2-x,1/2-y,1/2+z
1/2-y,1/2+x,1/2-z
1/2+y,1/2+x,-z
1/2-y,1/2-x,-z
1/2-x,1/2+y,z
1/2+x,1/2-y,z
loop_
_atom_site_type_symbol
_atom_site_label
_atom_site_fract_x
_atom_site_fract_y
_atom_site_fract_z
Si Si1 0.168689 0.279013 0.843814
Si Si2 0.348680 0.931810 0.295444
Si Si3 0.066364 0.938432 0.938389
Si Si4 0.335307 0.651311 0.493761
Si Si5 0.251952 0.637045 0.211955
Si Si6 0.553175 0.155685 0.354269
O O1 0.105665 0.300773 0.793466
O O2 0.216305 0.301091 0.716499
O O3 0.188558 0.311443 0.000000
O O4 0.162339 0.208769 0.861181
O O5 0.410786 0.901297 0.310719
O O6 0.326394 0.946545 0.466310
O O7 0.357726 0.988676 0.195387
O O8 0.066526 0.933475 0.750000
O O9 0.114528 0.896742 0.019980
O O10 0.004050 0.919390 0.007935
O O11 0.297691 0.629662 0.348849
O O12 0.364003 0.713853 0.452279
O O13 0.210130 0.582062 0.233201
#
# Coordination Sequence:
#
# PCOD8311197 Si02
#       6
#    16  16  16  16  16  16
#     4   9  20  39  63  91 127 174 208 256 328 380
#     4  10  23  41  62  93 126 171 213 265 321 371
#     4  11  23  44  70  90 127 166 210 270 329 376
#     4  10  20  41  66  94 123 169 212 256 313 386
#     4   9  19  41  61  88 131 166 201 264 317 372
#     4  10  23  41  63  91 128 168 215 265 318 377
#
# _framework density 21.110074000000001
#
# number of rings (size 3 to 8) (size 9 to 14) (size 15 to 20)
#    0.000    2.167    1.667    1.000    7.000    1.667 
#   33.000    3.333    0.000    0.000    0.000    0.000 
#    0.000    0.000    0.000    0.000    0.000    0.000 
#
# Total GULP energy -594943.115445 kJ/mol
# GULP energy per Si atom -12394.648238 kJ/mol
# Density = 2.106203 g / cm^3
# Si number density = 21.110074 Si / 1000 Ang^3
#
#
#
# Elastic Constant Matrix: (Units=GPa)
#
#
# Indices 1 2 3 4 5 6 
#
# 1 -271.7024 463.9334 37.8846 0.0000 0.0000 0.0000
# 2 463.9334 -271.6684 37.8330 0.0000 0.0000 0.0000
# 3 37.8846 37.8330 56.1404 0.0000 0.0000 0.0000
# 4 0.0000 0.0000 0.0000 27.2604 0.0000 0.0000
# 5 0.0000 0.0000 0.0000 0.0000 27.2609 0.0000
# 6 0.0000 0.0000 0.0000 0.0000 0.0000 30.1205
#
#
#
# Elastic Compliance Matrix: (Units=1/GPa)
#
#
# Indices 1 2 3 4 5 6 
#
# 1 0.002861 0.004221 -0.004775 0.000000 0.000000 0.000000
# 2 0.004221 0.002862 -0.004777 0.000000 0.000000 0.000000
# 3 -0.004775 -0.004777 0.024254 0.000000 0.000000 0.000000
# 4 0.000000 0.000000 0.000000 0.036683 0.000000 0.000000
# 5 0.000000 0.000000 0.000000 0.000000 0.036683 0.000000
# 6 0.000000 0.000000 0.000000 0.000000 0.000000 0.033200
#
#
# Mechanical properties :
#
#
# Convention : Reuss Voigt Hill
#
# Bulk Modulus (GPa) = 51.77424 65.78576 58.78000
# Shear Modulus (GPa) = 32.54253 -51.53041 -9.49394
#
# Velocity S-wave (km/s) = 3.93053 -4.94604 -2.12300
# Velocity P-wave (km/s) = 6.72145 1.17768 4.67926
#
# Compressibility (1/GPa) = 0.01931462
#
# Stress axis : x y z
#
# Youngs Moduli (GPa) = 349.50366 349.38191 41.22958
#
# Poissons Ratio (x) = -1.47478 0.19689
# Poissons Ratio (y) = -1.47529 0.19697
# Poissons Ratio (z) = 1.66902 1.66911
#
# Static dielectric constant tensor:
#      x y z
#    x 3.900260 0.000000 0.000000 
#    y 0.000000 3.900260 0.000000 
#    z 0.000000 0.000000 9.978850 
# 
# 
# High freq. dielectric constant tensor:
#      x y z
#    x 1.825630 0.000000 0.000000 
#    y 0.000000 1.825640 0.000000 
#    z 0.000000 0.000000 1.828320 
# 
# From -- ./inp_files/1534.got.cif
#   From: 2010.03.12/outbox.cif.g09.slc.cpg/sg120_1_cif.got.tgz:1534.got - 2010.04.06 16:00:44.
