data_PCOD8311949
_publ_section_title
;
Structure prediction by ZEFSAII (Michael W. Deem and Ramdas Pophale) SiO2 
 PCOD8311949
Probable space group: I -4 2 D
;
_chemical_formula_sum "Si O2"
_cell_formula_units_Z 112
_cell_length_a 12.998763
_cell_length_b 12.998763
_cell_length_c 32.022922
_cell_angle_alpha 90.000000
_cell_angle_beta 90.000000
_cell_angle_gamma 90.000000
_cell_volume 5410.843946
_symmetry_space_group_name_H-M "I -4 2 D"
_symmetry_group_IT_number 122
_symmetry_cell_setting 'tetragonal'
loop_
_space_group_symop_operation_xyz
x,y,z
y,-x,-z
-x,-y,z
-y,x,-z
x,1/2-y,1/4-z
-x,1/2+y,1/4-z
-y,1/2-x,1/4+z
y,1/2+x,1/4+z
1/2+x,1/2+y,1/2+z
1/2+y,1/2-x,1/2-z
1/2-x,1/2-y,1/2+z
1/2-y,1/2+x,1/2-z
1/2+x,-y,3/4-z
1/2-x,y,3/4-z
1/2-y,-x,3/4+z
1/2+y,x,3/4+z
loop_
_atom_site_type_symbol
_atom_site_label
_atom_site_fract_x
_atom_site_fract_y
_atom_site_fract_z
Si Si1 0.524611 0.383795 0.360526
Si Si2 0.824157 0.150375 0.199014
Si Si3 0.156553 0.531784 0.255130
Si Si4 0.540026 0.719684 0.672647
Si Si5 0.957108 0.612500 0.532100
Si Si6 0.295903 0.142431 0.419189
Si Si7 0.486539 0.720909 0.823220
O O1 0.500000 0.500000 0.376590
O O2 0.431542 0.325992 0.338498
O O3 0.615071 0.394184 0.325991
O O4 0.561015 0.314713 0.399740
O O5 0.928363 0.214950 0.194260
O O6 0.825006 0.094033 0.243817
O O7 0.724995 0.223511 0.193401
O O8 0.075686 0.604086 0.231576
O O9 0.195539 0.592122 0.297113
O O10 0.250129 0.510624 0.224412
O O11 0.528006 0.750000 0.625000
O O12 0.874150 0.593225 0.569562
O O13 0.000000 0.500000 0.517463
O O14 0.045511 0.686790 0.550224
O O15 0.250000 0.106012 0.375000
O O16 0.405479 0.189746 0.406347
#
# Coordination Sequence:
#
# PCOD8311949 Si02
#       7
#    16  16  16  16  16  16  16
#     4  10  23  36  65  95 140 167 213 264 329 400
#     4  11  21  41  65  99 125 170 220 271 337 391
#     4  11  24  36  57  92 138 175 214 256 317 398
#     4  11  22  38  59  94 137 175 209 257 322 408
#     4  10  23  43  68  96 135 174 223 278 336 393
#     4  11  23  43  72  95 123 175 232 277 327 390
#     4  11  22  41  63  98 135 174 216 267 331 400
#
# _framework density 20.699172999999998
#
# number of rings (size 3 to 8) (size 9 to 14) (size 15 to 20)
#    0.000    1.286    2.857    3.429   10.000    0.000 
#    0.000    3.571    0.000    0.000    0.000    0.000 
#    0.000    0.000    0.000    0.000    0.000    0.000 
#
# Total GULP energy -694121.028864 kJ/mol
# GULP energy per Si atom -12395.018373 kJ/mol
# Density = 2.065206 g / cm^3
# Si number density = 20.699173 Si / 1000 Ang^3
#
#
#
# Elastic Constant Matrix: (Units=GPa)
#
#
# Indices 1 2 3 4 5 6 
#
# 1 87.3108 31.9669 36.3218 0.0000 0.0000 0.0000
# 2 31.9669 87.3108 36.3218 0.0000 0.0000 0.0000
# 3 36.3218 36.3218 102.4378 0.0000 0.0000 0.0000
# 4 0.0000 0.0000 0.0000 28.9992 0.0000 0.0000
# 5 0.0000 0.0000 0.0000 0.0000 28.9992 0.0000
# 6 0.0000 0.0000 0.0000 0.0000 0.0000 34.6626
#
#
#
# Elastic Compliance Matrix: (Units=1/GPa)
#
#
# Indices 1 2 3 4 5 6 
#
# 1 0.014381 -0.003688 -0.003791 0.000000 0.000000 0.000000
# 2 -0.003688 0.014381 -0.003791 0.000000 0.000000 0.000000
# 3 -0.003791 -0.003791 0.012451 0.000000 0.000000 0.000000
# 4 0.000000 0.000000 0.000000 0.034484 0.000000 0.000000
# 5 0.000000 0.000000 0.000000 0.000000 0.034484 0.000000
# 6 0.000000 0.000000 0.000000 0.000000 0.000000 0.028850
#
#
# Mechanical properties :
#
#
# Convention : Reuss Voigt Hill
#
# Bulk Modulus (GPa) = 53.55961 54.03115 53.79538
# Shear Modulus (GPa) = 29.79833 30.02878 29.91356
#
# Velocity S-wave (km/s) = 3.79831 3.81297 3.80565
# Velocity P-wave (km/s) = 6.72069 6.74868 6.73470
#
# Compressibility (1/GPa) = 0.01867079
#
# Stress axis : x y z
#
# Youngs Moduli (GPa) = 69.53694 69.53694 80.31673
#
# Poissons Ratio (x) = 0.25645 0.30451
# Poissons Ratio (y) = 0.25645 0.30451
# Poissons Ratio (z) = 0.26364 0.26364
#
# Static dielectric constant tensor:
#      x y z
#    x 3.860150 0.000000 0.000000 
#    y 0.000000 3.860150 0.000000 
#    z 0.000000 0.000000 3.663590 
# 
# 
# High freq. dielectric constant tensor:
#      x y z
#    x 1.802050 0.000000 0.000000 
#    y 0.000000 1.802050 0.000000 
#    z 0.000000 0.000000 1.812580 
# 
# From -- ./inp_files/8792.got.cif
#   From: 2010.03.12/outbox.cif.g09.slc.cpg/sg122_5_cif.got.tgz:8792.got - 2010.04.06 16:17:16.
