data_PCOD8311331
_publ_section_title
;
Structure prediction by ZEFSAII (Michael W. Deem and Ramdas Pophale) SiO2 
 PCOD8311331
Probable space group: I -4 C 2
;
_chemical_formula_sum "Si O2"
_cell_formula_units_Z 48
_cell_length_a 8.805757
_cell_length_b 8.805757
_cell_length_c 24.361682
_cell_angle_alpha 90.000000
_cell_angle_beta 90.000000
_cell_angle_gamma 90.000000
_cell_volume 1889.037865
_symmetry_space_group_name_H-M "I -4 C 2"
_symmetry_group_IT_number 120
_symmetry_cell_setting 'tetragonal'
loop_
_space_group_symop_operation_xyz
x,y,z
y,-x,-z
-x,-y,z
-y,x,-z
y,x,1/2-z
-y,-x,1/2-z
-x,y,1/2+z
x,-y,1/2+z
1/2+x,1/2+y,1/2+z
1/2+y,1/2-x,1/2-z
1/2-x,1/2-y,1/2+z
1/2-y,1/2+x,1/2-z
1/2+y,1/2+x,-z
1/2-y,1/2-x,-z
1/2-x,1/2+y,z
1/2+x,1/2-y,z
loop_
_atom_site_type_symbol
_atom_site_label
_atom_site_fract_x
_atom_site_fract_y
_atom_site_fract_z
Si Si1 0.857757 0.110519 0.688401
Si Si2 0.149909 0.418343 0.124829
Si Si3 0.956166 0.219549 0.980921
O O1 0.830687 0.169314 0.750000
O O2 0.871968 0.244689 0.643434
O O3 0.708863 0.012033 0.677059
O O4 0.000000 0.000000 0.683235
O O5 0.266677 0.442865 0.074411
O O6 0.000000 0.500000 0.103935
O O7 0.875537 0.375537 0.000000
O O8 0.083090 0.168085 0.026295
#
# Coordination Sequence:
#
# PCOD8311331 Si02
#       3
#    16  16  16
#     4  11  28  50  81 119 160 211 276 346 419 502
#     4  12  28  48  81 115 162 217 274 343 416 494
#     4  11  28  50  80 117 164 210 272 336 411 497
#
# _framework density 25.409763000000002
#
# number of rings (size 3 to 8) (size 9 to 14) (size 15 to 20)
#    0.000    0.667    0.000    4.000   23.333    0.000 
#    0.000    0.000    0.000    0.000    0.000    0.000 
#    0.000    0.000    0.000    0.000    0.000    0.000 
#
# Total GULP energy -297563.380435 kJ/mol
# GULP energy per Si atom -12398.474185 kJ/mol
# Density = 2.535193 g / cm^3
# Si number density = 25.409763 Si / 1000 Ang^3
#
#
#
# Elastic Constant Matrix: (Units=GPa)
#
#
# Indices 1 2 3 4 5 6 
#
# 1 124.7102 50.2431 57.2807 0.0000 0.0000 0.0000
# 2 50.2431 124.7099 57.2806 0.0000 0.0000 0.0000
# 3 57.2807 57.2806 146.3588 0.0000 0.0000 0.0000
# 4 0.0000 0.0000 0.0000 46.2338 0.0000 0.0000
# 5 0.0000 0.0000 0.0000 0.0000 46.2333 0.0000
# 6 0.0000 0.0000 0.0000 0.0000 0.0000 61.3048
#
#
#
# Elastic Compliance Matrix: (Units=1/GPa)
#
#
# Indices 1 2 3 4 5 6 
#
# 1 0.010557 -0.002872 -0.003008 0.000000 0.000000 0.000000
# 2 -0.002872 0.010557 -0.003008 0.000000 0.000000 0.000000
# 3 -0.003008 -0.003008 0.009187 0.000000 0.000000 0.000000
# 4 0.000000 0.000000 0.000000 0.021629 0.000000 0.000000
# 5 0.000000 0.000000 0.000000 0.000000 0.021629 0.000000
# 6 0.000000 0.000000 0.000000 0.000000 0.000000 0.016312
#
#
# Mechanical properties :
#
#
# Convention : Reuss Voigt Hill
#
# Bulk Modulus (GPa) = 79.83205 80.59864 80.21535
# Shear Modulus (GPa) = 44.71400 46.15267 45.43334
#
# Velocity S-wave (km/s) = 4.19945 4.26647 4.23309
# Velocity P-wave (km/s) = 7.41619 7.48724 7.45180
#
# Compressibility (1/GPa) = 0.01252630
#
# Stress axis : x y z
#
# Youngs Moduli (GPa) = 94.72324 94.72309 108.85079
#
# Poissons Ratio (x) = 0.27202 0.32741
# Poissons Ratio (y) = 0.27202 0.32741
# Poissons Ratio (z) = 0.28491 0.28491
#
# Static dielectric constant tensor:
#      x y z
#    x 4.432180 0.000000 0.000000 
#    y 0.000000 4.432200 0.000000 
#    z 0.000000 0.000000 4.560770 
# 
# 
# High freq. dielectric constant tensor:
#      x y z
#    x 2.024370 0.000000 0.000000 
#    y 0.000000 2.024370 0.000000 
#    z 0.000000 0.000000 2.016930 
# 
# From -- ./inp_files/6350.got.cif
#   From: 2010.03.12/outbox.cif.g09.slc.cpg/sg120_4_cif.got.tgz:6350.got - 2010.04.06 16:00:44.
