data_PCOD8311508
_publ_section_title
;
Structure prediction by ZEFSAII (Michael W. Deem and Ramdas Pophale) SiO2 
 PCOD8311508
Probable space group: I -4 2 M
;
_chemical_formula_sum "Si O2"
_cell_formula_units_Z 104
_cell_length_a 18.314055
_cell_length_b 18.314055
_cell_length_c 16.307926
_cell_angle_alpha 90.000000
_cell_angle_beta 90.000000
_cell_angle_gamma 90.000000
_cell_volume 5469.753569
_symmetry_space_group_name_H-M "I -4 2 M"
_symmetry_group_IT_number 121
_symmetry_cell_setting 'tetragonal'
loop_
_space_group_symop_operation_xyz
x,y,z
y,-x,-z
-x,-y,z
-y,x,-z
x,-y,-z
-x,y,-z
-y,-x,z
y,x,z
1/2+x,1/2+y,1/2+z
1/2+y,1/2-x,1/2-z
1/2-x,1/2-y,1/2+z
1/2-y,1/2+x,1/2-z
1/2+x,1/2-y,1/2-z
1/2-x,1/2+y,1/2-z
1/2-y,1/2-x,1/2+z
1/2+y,1/2+x,1/2+z
loop_
_atom_site_type_symbol
_atom_site_label
_atom_site_fract_x
_atom_site_fract_y
_atom_site_fract_z
Si Si1 0.614825 0.503053 0.303933
Si Si2 0.768139 0.647009 0.170481
Si Si3 0.837366 0.715638 0.330822
Si Si4 0.817010 0.062138 0.943325
Si Si5 0.500000 0.380377 0.000000
Si Si6 0.987710 0.208613 0.658301
Si Si7 0.292754 0.829125 0.994387
O O1 0.549094 0.450907 0.330389
O O2 0.586883 0.586883 0.318119
O O3 0.686805 0.480084 0.355900
O O4 0.634592 0.490031 0.210459
O O5 0.693373 0.693373 0.170237
O O6 0.815371 0.668168 0.250960
O O7 0.752616 0.561611 0.175150
O O8 0.810077 0.657477 0.084104
O O9 0.787635 0.787635 0.335526
O O10 0.920825 0.739023 0.318681
O O11 0.832970 0.670523 0.417013
O O12 0.868058 0.131943 0.937546
O O13 0.738579 0.089462 0.975955
O O14 0.851910 0.000000 0.000000
O O15 0.522656 0.323089 0.068608
O O16 0.430610 0.430610 0.024028
O O17 0.227424 0.772577 0.000975
#
# Coordination Sequence:
#
# PCOD8311508 Si02
#       7
#    16  16  16  16   8  16  16
#     4  10  20  32  48  77 117 152 181 219 275 350
#     4  10  21  37  57  83 113 147 192 242 288 346
#     4  10  21  37  58  83 114 151 194 244 294 342
#     4  10  20  33  53  79 111 148 184 227 280 344
#     4  11  22  34  52  86 128 161 188 226 282 359
#     4  12  22  35  58  82 111 155 198 238 287 347
#     4   9  19  36  54  77 110 146 187 235 282 333
#
# _framework density 19.013655
#
# number of rings (size 3 to 8) (size 9 to 14) (size 15 to 20)
#    0.000    1.769    0.000    5.077    2.154    5.692 
#    0.000    0.000    0.000    0.462    0.000    1.077 
#    0.000    0.000    0.000    0.000    0.000    0.000 
#
# Total GULP energy -644304.008839 kJ/mol
# GULP energy per Si atom -12390.461708 kJ/mol
# Density = 1.897038 g / cm^3
# Si number density = 19.013655 Si / 1000 Ang^3
#
#
#
# Elastic Constant Matrix: (Units=GPa)
#
#
# Indices 1 2 3 4 5 6 
#
# 1 80.2914 33.6541 32.8971 0.0000 0.0000 0.0000
# 2 33.6541 80.2897 32.8967 0.0000 0.0000 0.0000
# 3 32.8971 32.8967 122.0848 0.0000 0.0000 0.0000
# 4 0.0000 0.0000 0.0000 21.1631 0.0000 0.0000
# 5 0.0000 0.0000 0.0000 0.0000 21.1603 0.0000
# 6 0.0000 0.0000 0.0000 0.0000 0.0000 27.3692
#
#
#
# Elastic Compliance Matrix: (Units=1/GPa)
#
#
# Indices 1 2 3 4 5 6 
#
# 1 0.015918 -0.005525 -0.002801 0.000000 0.000000 0.000000
# 2 -0.005525 0.015918 -0.002801 0.000000 0.000000 0.000000
# 3 -0.002801 -0.002801 0.009700 0.000000 0.000000 0.000000
# 4 0.000000 0.000000 0.000000 0.047252 0.000000 0.000000
# 5 0.000000 0.000000 0.000000 0.000000 0.047258 0.000000
# 6 0.000000 0.000000 0.000000 0.000000 0.000000 0.036537
#
#
# Mechanical properties :
#
#
# Convention : Reuss Voigt Hill
#
# Bulk Modulus (GPa) = 51.85478 53.50682 52.68080
# Shear Modulus (GPa) = 24.84305 26.15305 25.49805
#
# Velocity S-wave (km/s) = 3.61860 3.71278 3.66599
# Velocity P-wave (km/s) = 6.69258 6.82510 6.75917
#
# Compressibility (1/GPa) = 0.01928463
#
# Stress axis : x y z
#
# Youngs Moduli (GPa) = 62.82311 62.82183 103.08951
#
# Poissons Ratio (x) = 0.34706 0.28871
# Poissons Ratio (y) = 0.34707 0.28871
# Poissons Ratio (z) = 0.17594 0.17594
#
# Static dielectric constant tensor:
#      x y z
#    x 3.379080 0.000000 0.000000 
#    y 0.000000 3.379080 0.000000 
#    z 0.000000 0.000000 3.871220 
# 
# 
# High freq. dielectric constant tensor:
#      x y z
#    x 1.713180 0.000000 0.000000 
#    y 0.000000 1.713180 0.000000 
#    z 0.000000 0.000000 1.764750 
# 
# From -- ./inp_files/5460.got.cif
#   From: 2010.03.12/outbox.cif.g09.slc.cpg/sg121_3_cif.got.tgz:5460.got - 2010.04.06 16:06:48.
