data_PCOD8311383
_publ_section_title
;
Structure prediction by ZEFSAII (Michael W. Deem and Ramdas Pophale) SiO2 
 PCOD8311383
Probable space group: I -4 2 M
;
_chemical_formula_sum "Si O2"
_cell_formula_units_Z 88
_cell_length_a 13.334203
_cell_length_b 13.334203
_cell_length_c 27.078832
_cell_angle_alpha 90.000000
_cell_angle_beta 90.000000
_cell_angle_gamma 90.000000
_cell_volume 4814.642586
_symmetry_space_group_name_H-M "I -4 2 M"
_symmetry_group_IT_number 121
_symmetry_cell_setting 'tetragonal'
loop_
_space_group_symop_operation_xyz
x,y,z
y,-x,-z
-x,-y,z
-y,x,-z
x,-y,-z
-x,y,-z
-y,-x,z
y,x,z
1/2+x,1/2+y,1/2+z
1/2+y,1/2-x,1/2-z
1/2-x,1/2-y,1/2+z
1/2-y,1/2+x,1/2-z
1/2+x,1/2-y,1/2-z
1/2-x,1/2+y,1/2-z
1/2-y,1/2-x,1/2+z
1/2+y,1/2+x,1/2+z
loop_
_atom_site_type_symbol
_atom_site_label
_atom_site_fract_x
_atom_site_fract_y
_atom_site_fract_z
Si Si1 0.994430 0.837143 0.357373
Si Si2 0.251800 0.582685 0.764906
Si Si3 0.573589 0.258308 0.954859
Si Si4 0.225305 0.607701 0.418214
Si Si5 0.764365 0.402935 0.305650
Si Si6 0.000000 0.164582 0.000000
O O1 0.883938 0.883938 0.353401
O O2 0.009666 0.762375 0.311928
O O3 0.003149 0.777796 0.408094
O O4 0.078270 0.921731 0.355641
O O5 0.349098 0.650903 0.757804
O O6 0.245245 0.513707 0.716688
O O7 0.154403 0.650535 0.774401
O O8 0.650835 0.349166 0.964528
O O9 0.628807 0.152879 0.945762
O O10 0.500000 0.245218 0.000000
O O11 0.305750 0.694251 0.413894
O O12 0.200617 0.576528 0.362037
O O13 0.267320 0.516058 0.451249
O O14 0.659898 0.340103 0.303435
O O15 0.097233 0.097233 0.988945
#
# Coordination Sequence:
#
# PCOD8311383 Si02
#       6
#    16  16  16  16  16   8
#     4   9  16  28  48  75 107 138 174 219 260 308
#     4  10  20  35  55  81 109 144 187 227 275 332
#     4  10  18  30  50  77 109 145 179 213 261 319
#     4   9  18  35  56  78 108 142 174 222 281 322
#     4  10  20  36  58  81 110 147 183 227 281 330
#     4   9  18  34  59  84 102 132 181 226 268 325
#
# _framework density 18.277577999999998
#
# number of rings (size 3 to 8) (size 9 to 14) (size 15 to 20)
#    0.000    2.455    1.818    1.091    0.000    3.091 
#    0.000    4.091    4.000    4.364    0.000    0.000 
#    0.000    0.000    0.000    0.000    0.000    0.000 
#
# Total GULP energy -545486.282410 kJ/mol
# GULP energy per Si atom -12397.415509 kJ/mol
# Density = 1.823598 g / cm^3
# Si number density = 18.277578 Si / 1000 Ang^3
#
#
#
# Elastic Constant Matrix: (Units=GPa)
#
#
# Indices 1 2 3 4 5 6 
#
# 1 76.6830 36.0217 55.6349 0.0000 0.0000 0.0000
# 2 36.0217 76.6834 55.6348 0.0000 0.0000 0.0000
# 3 55.6349 55.6348 145.9992 0.0000 0.0000 0.0000
# 4 0.0000 0.0000 0.0000 17.7057 0.0000 0.0000
# 5 0.0000 0.0000 0.0000 0.0000 17.7060 0.0000
# 6 0.0000 0.0000 0.0000 0.0000 0.0000 20.2305
#
#
#
# Elastic Compliance Matrix: (Units=1/GPa)
#
#
# Indices 1 2 3 4 5 6 
#
# 1 0.019409 -0.005185 -0.005420 0.000000 0.000000 0.000000
# 2 -0.005185 0.019409 -0.005420 0.000000 0.000000 0.000000
# 3 -0.005420 -0.005420 0.010980 0.000000 0.000000 0.000000
# 4 0.000000 0.000000 0.000000 0.056479 0.000000 0.000000
# 5 0.000000 0.000000 0.000000 0.000000 0.056478 0.000000
# 6 0.000000 0.000000 0.000000 0.000000 0.000000 0.049430
#
#
# Mechanical properties :
#
#
# Convention : Reuss Voigt Hill
#
# Bulk Modulus (GPa) = 56.34683 65.99427 61.17055
# Shear Modulus (GPa) = 19.98795 21.26672 20.62733
#
# Velocity S-wave (km/s) = 3.31052 3.41477 3.36305
# Velocity P-wave (km/s) = 6.74596 7.19254 6.97283
#
# Compressibility (1/GPa) = 0.01774723
#
# Stress axis : x y z
#
# Youngs Moduli (GPa) = 51.52337 51.52375 91.07286
#
# Poissons Ratio (x) = 0.26714 0.49364
# Poissons Ratio (y) = 0.26713 0.49363
# Poissons Ratio (z) = 0.27927 0.27927
#
# Static dielectric constant tensor:
#      x y z
#    x 3.296620 0.000000 0.000000 
#    y 0.000000 3.296630 0.000000 
#    z 0.000000 0.000000 3.568760 
# 
# 
# High freq. dielectric constant tensor:
#      x y z
#    x 1.689940 0.000000 0.000000 
#    y 0.000000 1.689940 0.000000 
#    z 0.000000 0.000000 1.718130 
# 
# From -- ./inp_files/8234.got.cif
#   From: 2010.03.12/outbox.cif.g09.slc.cpg/sg121_5_cif.got.tgz:8234.got - 2010.04.06 16:06:48.
