data_PCOD8311344
_publ_section_title
;
Structure prediction by ZEFSAII (Michael W. Deem and Ramdas Pophale) SiO2 
 PCOD8311344
Probable space group: I -4 2 M
;
_chemical_formula_sum "Si O2"
_cell_formula_units_Z 112
_cell_length_a 16.560304
_cell_length_b 16.560304
_cell_length_c 24.602015
_cell_angle_alpha 90.000000
_cell_angle_beta 90.000000
_cell_angle_gamma 90.000000
_cell_volume 6746.946848
_symmetry_space_group_name_H-M "I -4 2 M"
_symmetry_group_IT_number 121
_symmetry_cell_setting 'tetragonal'
loop_
_space_group_symop_operation_xyz
x,y,z
y,-x,-z
-x,-y,z
-y,x,-z
x,-y,-z
-x,y,-z
-y,-x,z
y,x,z
1/2+x,1/2+y,1/2+z
1/2+y,1/2-x,1/2-z
1/2-x,1/2-y,1/2+z
1/2-y,1/2+x,1/2-z
1/2+x,1/2-y,1/2-z
1/2-x,1/2+y,1/2-z
1/2-y,1/2-x,1/2+z
1/2+y,1/2+x,1/2+z
loop_
_atom_site_type_symbol
_atom_site_label
_atom_site_fract_x
_atom_site_fract_y
_atom_site_fract_z
Si Si1 0.238541 0.898025 0.822453
Si Si2 0.603758 0.265684 0.117385
Si Si3 0.828418 0.692931 0.282570
Si Si4 0.059507 0.184911 0.661177
Si Si5 0.772157 0.094245 0.497524
Si Si6 0.797918 0.669642 0.101767
Si Si7 0.565314 0.697683 0.284017
O O1 0.165444 0.834557 0.822918
O O2 0.293110 0.887920 0.768274
O O3 0.297120 0.883821 0.875314
O O4 0.201896 0.988425 0.824288
O O5 0.660450 0.339551 0.133038
O O6 0.619466 0.195705 0.161565
O O7 0.513604 0.299804 0.120810
O O8 0.619630 0.234790 0.056074
O O9 0.759340 0.759340 0.280996
O O10 0.785609 0.606244 0.282347
O O11 0.100801 0.100801 0.643278
O O12 0.124528 0.256718 0.653111
O O13 0.032608 0.178828 0.723674
O O14 0.853682 0.146319 0.485236
O O15 0.702667 0.111780 0.451752
O O16 0.795109 0.000000 0.500000
O O17 0.747493 0.747493 0.083919
O O18 0.627243 0.627243 0.303611
#
# Coordination Sequence:
#
# PCOD8311344 Si02
#       7
#    16  16  16  16  16  16  16
#     4  10  18  30  50  71  94 128 164 204 250 297
#     4  10  19  29  43  65  97 133 166 200 238 281
#     4   9  17  30  45  66  94 125 160 193 235 289
#     4  10  17  26  43  68  97 130 165 201 237 285
#     4  10  19  29  44  69  97 132 173 208 241 283
#     4   9  17  30  45  64  93 130 173 204 233 287
#     4  10  19  30  48  73  99 126 159 203 253 299
#
# _framework density 16.600102
#
# number of rings (size 3 to 8) (size 9 to 14) (size 15 to 20)
#    0.000    2.286    4.286    0.000    0.000    0.714 
#    0.000    2.857    0.000    3.857    0.000    1.000 
#    0.000    0.000    0.000   11.143    0.000    0.143 
#
# Total GULP energy -693855.659400 kJ/mol
# GULP energy per Si atom -12390.279632 kJ/mol
# Density = 1.656232 g / cm^3
# Si number density = 16.600102 Si / 1000 Ang^3
#
#
#
# Elastic Constant Matrix: (Units=GPa)
#
#
# Indices 1 2 3 4 5 6 
#
# 1 54.0749 44.4513 38.6432 0.0000 0.0000 0.0000
# 2 44.4513 54.0711 38.6455 0.0000 0.0000 0.0000
# 3 38.6432 38.6455 91.6001 0.0000 0.0000 0.0000
# 4 0.0000 0.0000 0.0000 21.8118 0.0000 0.0000
# 5 0.0000 0.0000 0.0000 0.0000 21.8119 0.0000
# 6 0.0000 0.0000 0.0000 0.0000 0.0000 16.0822
#
#
#
# Elastic Compliance Matrix: (Units=1/GPa)
#
#
# Indices 1 2 3 4 5 6 
#
# 1 0.059547 -0.044381 -0.006397 0.000000 0.000000 0.000000
# 2 -0.044381 0.059556 -0.006403 0.000000 0.000000 0.000000
# 3 -0.006397 -0.006403 0.016317 0.000000 0.000000 0.000000
# 4 0.000000 0.000000 0.000000 0.045847 0.000000 0.000000
# 5 0.000000 0.000000 0.000000 0.000000 0.045847 0.000000
# 6 0.000000 0.000000 0.000000 0.000000 0.000000 0.062181
#
#
# Mechanical properties :
#
#
# Convention : Reuss Voigt Hill
#
# Bulk Modulus (GPa) = 47.48880 49.24734 48.36807
# Shear Modulus (GPa) = 12.17508 17.14158 14.65833
#
# Velocity S-wave (km/s) = 2.71114 3.21693 2.97480
# Velocity P-wave (km/s) = 6.20242 6.59768 6.40310
#
# Compressibility (1/GPa) = 0.02105760
#
# Stress axis : x y z
#
# Youngs Moduli (GPa) = 16.79352 16.79098 61.28508
#
# Poissons Ratio (x) = 0.74520 0.39204
# Poissons Ratio (y) = 0.74531 0.39243
# Poissons Ratio (z) = 0.10743 0.10752
#
# Static dielectric constant tensor:
#      x y z
#    x 2.957790 0.000000 0.000000 
#    y 0.000000 2.957800 0.000000 
#    z 0.000000 0.000000 3.267140 
# 
# 
# High freq. dielectric constant tensor:
#      x y z
#    x 1.611540 0.000000 0.000000 
#    y 0.000000 1.611540 0.000000 
#    z 0.000000 0.000000 1.636110 
# 
# From -- ./inp_files/7276.got.cif
#   From: 2010.03.12/outbox.cif.g09.slc.cpg/sg121_4_cif.got.tgz:7276.got - 2010.04.06 16:06:48.
