data_PCOD8311473
_publ_section_title
;
Structure prediction by ZEFSAII (Michael W. Deem and Ramdas Pophale) SiO2 
 PCOD8311473
Probable space group: I -4 2 M
;
_chemical_formula_sum "Si O2"
_cell_formula_units_Z 112
_cell_length_a 13.901182
_cell_length_b 13.901182
_cell_length_c 29.338423
_cell_angle_alpha 90.000000
_cell_angle_beta 90.000000
_cell_angle_gamma 90.000000
_cell_volume 5669.440798
_symmetry_space_group_name_H-M "I -4 2 M"
_symmetry_group_IT_number 121
_symmetry_cell_setting 'tetragonal'
loop_
_space_group_symop_operation_xyz
x,y,z
y,-x,-z
-x,-y,z
-y,x,-z
x,-y,-z
-x,y,-z
-y,-x,z
y,x,z
1/2+x,1/2+y,1/2+z
1/2+y,1/2-x,1/2-z
1/2-x,1/2-y,1/2+z
1/2-y,1/2+x,1/2-z
1/2+x,1/2-y,1/2-z
1/2-x,1/2+y,1/2-z
1/2-y,1/2-x,1/2+z
1/2+y,1/2+x,1/2+z
loop_
_atom_site_type_symbol
_atom_site_label
_atom_site_fract_x
_atom_site_fract_y
_atom_site_fract_z
Si Si1 0.605304 0.236769 0.486246
Si Si2 0.154575 0.004268 0.594666
Si Si3 0.057987 0.641371 0.241984
Si Si4 0.896562 0.737367 0.118404
Si Si5 0.227703 0.389992 0.353498
Si Si6 0.796554 0.363620 0.062243
Si Si7 0.609076 0.763235 0.170827
O O1 0.500000 0.271799 0.500000
O O2 0.672877 0.327124 0.496386
O O3 0.609530 0.204569 0.434079
O O4 0.635374 0.145265 0.517878
O O5 0.080377 0.919624 0.606160
O O6 0.238874 0.965653 0.561217
O O7 0.203299 0.032403 0.641953
O O8 0.096786 0.096786 0.573276
O O9 0.115492 0.553047 0.264729
O O10 0.106881 0.674540 0.195119
O O11 0.061717 0.723672 0.279974
O O12 0.831248 0.831248 0.127046
O O13 0.861341 0.642657 0.145665
O O14 0.004316 0.765682 0.133059
O O15 0.318783 0.318783 0.351308
O O16 0.148810 0.356425 0.390775
O O17 0.721045 0.278956 0.059792
O O18 0.706215 0.706215 0.178356
#
# Coordination Sequence:
#
# PCOD8311473 Si02
#       7
#    16  16  16  16  16  16  16
#     4  10  19  33  56  84 117 159 199 236 284 341
#     4   9  18  35  61  88 113 149 198 246 295 350
#     4  11  22  36  56  84 113 149 195 242 297 359
#     4  10  21  37  57  82 119 160 195 238 292 346
#     4  11  21  36  57  83 116 155 200 248 294 345
#     4   9  18  33  55  85 119 154 193 242 294 341
#     4  10  20  38  59  81 114 153 192 241 296 351
#
# _framework density 19.755033999999998
#
# number of rings (size 3 to 8) (size 9 to 14) (size 15 to 20)
#    0.000    2.000    2.857    1.286    0.000    0.429 
#    0.000    3.571    0.000    5.143    0.000    8.000 
#    0.000    0.000    0.000    0.000    0.000    0.000 
#
# Total GULP energy -694159.405472 kJ/mol
# GULP energy per Si atom -12395.703669 kJ/mol
# Density = 1.971007 g / cm^3
# Si number density = 19.755034 Si / 1000 Ang^3
#
#
#
# Elastic Constant Matrix: (Units=GPa)
#
#
# Indices 1 2 3 4 5 6 
#
# 1 77.5240 46.8007 40.6852 0.0000 0.0000 0.0000
# 2 46.8007 77.5238 40.6852 0.0000 0.0000 0.0000
# 3 40.6852 40.6852 112.2755 0.0000 0.0000 0.0000
# 4 0.0000 0.0000 0.0000 28.9590 0.0000 0.0000
# 5 0.0000 0.0000 0.0000 0.0000 28.9594 0.0000
# 6 0.0000 0.0000 0.0000 0.0000 0.0000 19.6438
#
#
#
# Elastic Compliance Matrix: (Units=1/GPa)
#
#
# Indices 1 2 3 4 5 6 
#
# 1 0.021546 -0.011002 -0.003821 0.000000 0.000000 0.000000
# 2 -0.011002 0.021546 -0.003821 0.000000 0.000000 0.000000
# 3 -0.003821 -0.003821 0.011676 0.000000 0.000000 0.000000
# 4 0.000000 0.000000 0.000000 0.034532 0.000000 0.000000
# 5 0.000000 0.000000 0.000000 0.000000 0.034531 0.000000
# 6 0.000000 0.000000 0.000000 0.000000 0.000000 0.050907
#
#
# Mechanical properties :
#
#
# Convention : Reuss Voigt Hill
#
# Bulk Modulus (GPa) = 57.20601 58.18502 57.69552
# Shear Modulus (GPa) = 22.95126 24.78926 23.87026
#
# Velocity S-wave (km/s) = 3.41221 3.54620 3.47985
# Velocity P-wave (km/s) = 6.67419 6.80328 6.73904
#
# Compressibility (1/GPa) = 0.01748068
#
# Stress axis : x y z
#
# Youngs Moduli (GPa) = 46.41148 46.41127 85.64706
#
# Poissons Ratio (x) = 0.51063 0.32725
# Poissons Ratio (y) = 0.51063 0.32725
# Poissons Ratio (z) = 0.17733 0.17733
#
# Static dielectric constant tensor:
#      x y z
#    x 3.668640 0.000000 0.000000 
#    y 0.000000 3.668640 0.000000 
#    z 0.000000 0.000000 3.705490 
# 
# 
# High freq. dielectric constant tensor:
#      x y z
#    x 1.766130 0.000000 0.000000 
#    y 0.000000 1.766130 0.000000 
#    z 0.000000 0.000000 1.771630 
# 
# From -- ./inp_files/7740.got.cif
#   From: 2010.03.12/outbox.cif.g09.slc.cpg/sg121_4_cif.got.tgz:7740.got - 2010.04.06 16:06:48.
