data_PCOD8311152
_publ_section_title
;
Structure prediction by ZEFSAII (Michael W. Deem and Ramdas Pophale) SiO2 
 PCOD8311152
Probable space group: I -4 C 2
;
_chemical_formula_sum "Si O2"
_cell_formula_units_Z 96
_cell_length_a 25.313314
_cell_length_b 25.313314
_cell_length_c 8.840818
_cell_angle_alpha 90.000000
_cell_angle_beta 90.000000
_cell_angle_gamma 90.000000
_cell_volume 5664.876717
_symmetry_space_group_name_H-M "I -4 C 2"
_symmetry_group_IT_number 120
_symmetry_cell_setting 'tetragonal'
loop_
_space_group_symop_operation_xyz
x,y,z
y,-x,-z
-x,-y,z
-y,x,-z
y,x,1/2-z
-y,-x,1/2-z
-x,y,1/2+z
x,-y,1/2+z
1/2+x,1/2+y,1/2+z
1/2+y,1/2-x,1/2-z
1/2-x,1/2-y,1/2+z
1/2-y,1/2+x,1/2-z
1/2+y,1/2+x,-z
1/2-y,1/2-x,-z
1/2-x,1/2+y,z
1/2+x,1/2-y,z
loop_
_atom_site_type_symbol
_atom_site_label
_atom_site_fract_x
_atom_site_fract_y
_atom_site_fract_z
Si Si1 0.357145 0.442536 0.928239
Si Si2 0.943275 0.754193 0.925843
Si Si3 0.142855 0.942537 0.571763
Si Si4 0.942758 0.637572 0.573593
Si Si5 0.556724 0.745807 0.074156
Si Si6 0.137572 0.557243 0.573594
O O1 0.406377 0.406377 0.975002
O O2 0.351946 0.448322 0.750001
O O3 0.303458 0.414263 0.992208
O O4 0.366138 0.500000 0.000002
O O5 0.948244 0.767468 0.750000
O O6 0.917622 0.696332 0.952019
O O7 0.999999 0.751282 0.000002
O O8 0.196543 0.914264 0.507795
O O9 0.903650 0.596351 0.500000
O O10 0.917623 0.696332 0.547979
O O11 0.948884 0.625340 0.750000
O O12 0.000001 0.631725 0.500002
O O13 0.096351 0.596351 0.500000
#
# Coordination Sequence:
#
# PCOD8311152 Si02
#       6
#    16  16  16  16  16  16
#     4  10  20  32  48  71  97 126 159 195 236 281
#     4   9  17  30  49  70  92 122 159 196 233 276
#     4  10  20  32  48  71  97 126 159 195 236 281
#     4  10  20  33  50  73  99 127 159 195 236 282
#     4   9  17  30  49  70  92 122 159 196 233 276
#     4  10  20  33  50  73  99 127 159 195 236 282
#
# _framework density 16.946529999999999
#
# number of rings (size 3 to 8) (size 9 to 14) (size 15 to 20)
#    0.000    2.333    0.000    5.000    0.000    7.333 
#    0.000    3.333    0.000    1.000    0.000    0.000 
#    0.000    0.000    0.000    0.000    0.000    0.000 
#
# Total GULP energy -594729.498734 kJ/mol
# GULP energy per Si atom -12390.197890 kJ/mol
# Density = 1.690796 g / cm^3
# Si number density = 16.946530 Si / 1000 Ang^3
#
#
#
# Elastic Constant Matrix: (Units=GPa)
#
#
# Indices 1 2 3 4 5 6 
#
# 1 109.8329 68.4390 61.7539 0.0000 0.0000 0.0000
# 2 68.4390 109.8337 61.7553 0.0000 0.0000 0.0000
# 3 61.7539 61.7553 120.4320 0.0000 0.0000 0.0000
# 4 0.0000 0.0000 0.0000 24.0428 0.0000 0.0000
# 5 0.0000 0.0000 0.0000 0.0000 24.0423 0.0000
# 6 0.0000 0.0000 0.0000 0.0000 0.0000 -1.8218
#
#
#
# Elastic Compliance Matrix: (Units=1/GPa)
#
#
# Indices 1 2 3 4 5 6 
#
# 1 0.016429 -0.007729 -0.004461 0.000000 0.000000 0.000000
# 2 -0.007729 0.016429 -0.004461 0.000000 0.000000 0.000000
# 3 -0.004461 -0.004461 0.012879 0.000000 0.000000 0.000000
# 4 0.000000 0.000000 0.000000 0.041592 0.000000 0.000000
# 5 0.000000 0.000000 0.000000 0.000000 0.041593 0.000000
# 6 0.000000 0.000000 0.000000 0.000000 0.000000 -0.548918
#
#
# Mechanical properties :
#
#
# Convention : Reuss Voigt Hill
#
# Bulk Modulus (GPa) = 80.42411 80.44389 80.43400
# Shear Modulus (GPa) = -13.07025 19.12937 3.02956
#
# Velocity S-wave (km/s) = -2.78018 3.36342 1.33851
# Velocity P-wave (km/s) = 6.10367 7.91554 7.06790
#
# Compressibility (1/GPa) = 0.01243408
#
# Stress axis : x y z
#
# Youngs Moduli (GPa) = 60.86800 60.86743 77.64766
#
# Poissons Ratio (x) = 0.47044 0.34639
# Poissons Ratio (y) = 0.47044 0.34642
# Poissons Ratio (z) = 0.27154 0.27156
#
# Static dielectric constant tensor:
#      x y z
#    x 3.524500 0.000000 0.000000 
#    y 0.000000 3.524500 0.000000 
#    z 0.000000 0.000000 3.406460 
# 
# 
# High freq. dielectric constant tensor:
#      x y z
#    x 1.638930 0.000000 0.000000 
#    y 0.000000 1.638930 0.000000 
#    z 0.000000 0.000000 1.677650 
# 
# From -- ./inp_files/1640.got.cif
#   From: 2010.03.12/outbox.cif.g09.slc.cpg/sg120_1_cif.got.tgz:1640.got - 2010.04.06 16:00:44.
