data_PCOD8311815
_publ_section_title
;
Structure prediction by ZEFSAII (Michael W. Deem and Ramdas Pophale) SiO2 
 PCOD8311815
Probable space group: I -4 2 D
;
_chemical_formula_sum "Si O2"
_cell_formula_units_Z 88
_cell_length_a 18.464897
_cell_length_b 18.464897
_cell_length_c 14.265422
_cell_angle_alpha 90.000000
_cell_angle_beta 90.000000
_cell_angle_gamma 90.000000
_cell_volume 4863.830171
_symmetry_space_group_name_H-M "I -4 2 D"
_symmetry_group_IT_number 122
_symmetry_cell_setting 'tetragonal'
loop_
_space_group_symop_operation_xyz
x,y,z
y,-x,-z
-x,-y,z
-y,x,-z
x,1/2-y,1/4-z
-x,1/2+y,1/4-z
-y,1/2-x,1/4+z
y,1/2+x,1/4+z
1/2+x,1/2+y,1/2+z
1/2+y,1/2-x,1/2-z
1/2-x,1/2-y,1/2+z
1/2-y,1/2+x,1/2-z
1/2+x,-y,3/4-z
1/2-x,y,3/4-z
1/2-y,-x,3/4+z
1/2+y,x,3/4+z
loop_
_atom_site_type_symbol
_atom_site_label
_atom_site_fract_x
_atom_site_fract_y
_atom_site_fract_z
Si Si1 0.071685 0.747636 0.895568
Si Si2 0.497477 0.250000 0.125000
Si Si3 0.889050 0.544375 0.259787
Si Si4 0.300825 0.131900 0.296083
Si Si5 0.078338 0.246381 0.443362
Si Si6 0.176267 0.378515 0.421026
O O1 0.124060 0.740313 0.804581
O O2 0.988631 0.726423 0.873409
O O3 0.072362 0.830305 0.933391
O O4 0.099848 0.689281 0.971227
O O5 0.549895 0.185278 0.164635
O O6 0.448671 0.279807 0.208378
O O7 0.906378 0.460142 0.249456
O O8 0.857009 0.553525 0.364482
O O9 0.250000 0.171598 0.375000
O O10 0.375863 0.173861 0.286441
O O11 0.125594 0.310105 0.401367
O O12 0.250000 0.353047 0.375000
#
# Coordination Sequence:
#
# PCOD8311815 Si02
#       6
#    16   8  16  16  16  16
#     4  10  21  36  56  86 115 149 195 238 281 358
#     4   8  20  34  54  82 112 146 196 230 282 348
#     4  10  20  37  58  82 118 155 189 236 290 350
#     4   9  20  35  55  86 112 146 197 232 287 343
#     4  11  18  37  61  77 119 155 177 252 290 327
#     4  10  21  35  56  87 114 146 197 230 288 351
#
# _framework density 18.092737
#
# number of rings (size 3 to 8) (size 9 to 14) (size 15 to 20)
#    0.545    1.636    1.818    1.636    0.000    1.455 
#    0.000    0.000    0.000   17.455    0.000    0.000 
#    0.000    0.000    0.000    0.000    0.000    0.000 
#
# Total GULP energy -545151.536961 kJ/mol
# GULP energy per Si atom -12389.807658 kJ/mol
# Density = 1.805156 g / cm^3
# Si number density = 18.092737 Si / 1000 Ang^3
#
#
#
# Elastic Constant Matrix: (Units=GPa)
#
#
# Indices 1 2 3 4 5 6 
#
# 1 81.0447 35.0162 38.5925 0.0000 0.0000 0.0000
# 2 35.0162 81.0447 38.5925 0.0000 0.0000 0.0000
# 3 38.5925 38.5925 129.0873 0.0000 0.0000 0.0000
# 4 0.0000 0.0000 0.0000 19.9121 0.0000 0.0000
# 5 0.0000 0.0000 0.0000 0.0000 19.9121 0.0000
# 6 0.0000 0.0000 0.0000 0.0000 0.0000 30.3514
#
#
#
# Elastic Compliance Matrix: (Units=1/GPa)
#
#
# Indices 1 2 3 4 5 6 
#
# 1 0.016240 -0.005486 -0.003215 0.000000 0.000000 0.000000
# 2 -0.005486 0.016240 -0.003215 0.000000 0.000000 0.000000
# 3 -0.003215 -0.003215 0.009669 0.000000 0.000000 0.000000
# 4 0.000000 0.000000 0.000000 0.050221 0.000000 0.000000
# 5 0.000000 0.000000 0.000000 0.000000 0.050221 0.000000
# 6 0.000000 0.000000 0.000000 0.000000 0.000000 0.032947
#
#
# Mechanical properties :
#
#
# Convention : Reuss Voigt Hill
#
# Bulk Modulus (GPa) = 54.59351 57.28658 55.94005
# Shear Modulus (GPa) = 24.33376 25.96681 25.15029
#
# Velocity S-wave (km/s) = 3.67133 3.79252 3.73242
# Velocity P-wave (km/s) = 6.94344 7.13506 7.03990
#
# Compressibility (1/GPa) = 0.01831719
#
# Stress axis : x y z
#
# Youngs Moduli (GPa) = 61.57625 61.57625 103.42185
#
# Poissons Ratio (x) = 0.33779 0.33252
# Poissons Ratio (y) = 0.33779 0.33252
# Poissons Ratio (z) = 0.19798 0.19798
#
# Static dielectric constant tensor:
#      x y z
#    x 3.222750 0.000000 0.000000 
#    y 0.000000 3.222750 0.000000 
#    z 0.000000 0.000000 3.541090 
# 
# 
# High freq. dielectric constant tensor:
#      x y z
#    x 1.690510 0.000000 0.000000 
#    y 0.000000 1.690510 0.000000 
#    z 0.000000 0.000000 1.713470 
# 
# From -- ./inp_files/5358.got.cif
#   From: 2010.03.12/outbox.cif.g09.slc.cpg/sg122_3_cif.got.tgz:5358.got - 2010.04.06 16:17:16.
