data_PCOD8311672
_publ_section_title
;
Structure prediction by ZEFSAII (Michael W. Deem and Ramdas Pophale) SiO2 
 PCOD8311672
Probable space group: I -4 2 M
;
_chemical_formula_sum "Si O2"
_cell_formula_units_Z 96
_cell_length_a 26.852630
_cell_length_b 26.852630
_cell_length_c 10.064250
_cell_angle_alpha 90.000000
_cell_angle_beta 90.000000
_cell_angle_gamma 90.000000
_cell_volume 7256.965724
_symmetry_space_group_name_H-M "I -4 2 M"
_symmetry_group_IT_number 121
_symmetry_cell_setting 'tetragonal'
loop_
_space_group_symop_operation_xyz
x,y,z
y,-x,-z
-x,-y,z
-y,x,-z
x,-y,-z
-x,y,-z
-y,-x,z
y,x,z
1/2+x,1/2+y,1/2+z
1/2+y,1/2-x,1/2-z
1/2-x,1/2-y,1/2+z
1/2-y,1/2+x,1/2-z
1/2+x,1/2-y,1/2-z
1/2-x,1/2+y,1/2-z
1/2-y,1/2-x,1/2+z
1/2+y,1/2+x,1/2+z
loop_
_atom_site_type_symbol
_atom_site_label
_atom_site_fract_x
_atom_site_fract_y
_atom_site_fract_z
Si Si1 0.231824 0.315597 0.716243
Si Si2 0.106042 0.024659 0.860839
Si Si3 0.597462 0.318835 0.546033
Si Si4 0.741323 0.825152 0.918992
Si Si5 0.190705 0.107355 0.247020
Si Si6 0.040935 0.878048 0.611022
O O1 0.271493 0.271493 0.718655
O O2 0.215253 0.325938 0.564309
O O3 0.256723 0.365675 0.778406
O O4 0.184257 0.300416 0.806039
O O5 0.065049 0.065049 0.821091
O O6 0.104977 0.982855 0.749096
O O7 0.160945 0.050564 0.869564
O O8 0.091362 0.000000 0.000000
O O9 0.638203 0.361798 0.540387
O O10 0.622203 0.269128 0.609966
O O11 0.579539 0.306490 0.395745
O O12 0.781474 0.781474 0.917180
O O13 0.148827 0.148827 0.233936
O O14 0.174607 0.069237 0.363525
O O15 0.079235 0.920766 0.562848
O O16 0.000000 0.868641 0.500000
#
# Coordination Sequence:
#
# PCOD8311672 Si02
#       6
#    16  16  16  16  16  16
#     4   8  13  22  37  55  72  89 106 126 160 210
#     4  11  20  30  44  57  66  85 122 161 196 233
#     4   8  14  26  41  55  70  86 109 144 180 215
#     4   8  13  22  36  54  74  90 104 126 161 209
#     4   8  14  27  42  52  68  92 112 135 177 227
#     4  11  22  34  42  51  70  93 119 157 206 244
#
# _framework density 13.228669
#
# number of rings (size 3 to 8) (size 9 to 14) (size 15 to 20)
#    0.000    3.000    1.667    3.000    0.000    2.000 
#    3.000    0.000    0.000    0.000    0.000    0.000 
#    0.000    0.000    0.000    0.000    0.000    0.000 
#
# Total GULP energy -594701.582231 kJ/mol
# GULP energy per Si atom -12389.616296 kJ/mol
# Density = 1.319856 g / cm^3
# Si number density = 13.228669 Si / 1000 Ang^3
#
#
#
# Elastic Constant Matrix: (Units=GPa)
#
#
# Indices 1 2 3 4 5 6 
#
# 1 22.5945 21.7012 5.4439 0.0000 0.0000 0.0000
# 2 21.7012 22.5937 5.4436 0.0000 0.0000 0.0000
# 3 5.4439 5.4436 32.4726 0.0000 0.0000 0.0000
# 4 0.0000 0.0000 0.0000 18.4796 0.0000 0.0000
# 5 0.0000 0.0000 0.0000 0.0000 18.4798 0.0000
# 6 0.0000 0.0000 0.0000 0.0000 0.0000 15.0145
#
#
#
# Elastic Compliance Matrix: (Units=1/GPa)
#
#
# Indices 1 2 3 4 5 6 
#
# 1 0.571773 -0.548237 -0.003950 0.000000 0.000000 0.000000
# 2 -0.548237 0.571792 -0.003944 0.000000 0.000000 0.000000
# 3 -0.003950 -0.003944 0.032119 0.000000 0.000000 0.000000
# 4 0.000000 0.000000 0.000000 0.054114 0.000000 0.000000
# 5 0.000000 0.000000 0.000000 0.000000 0.054113 0.000000
# 6 0.000000 0.000000 0.000000 0.000000 0.000000 0.066602
#
#
# Mechanical properties :
#
#
# Convention : Reuss Voigt Hill
#
# Bulk Modulus (GPa) = 15.76752 15.87091 15.81921
# Shear Modulus (GPa) = 2.01295 13.39959 7.70627
#
# Velocity S-wave (km/s) = 1.23489 3.18609 2.41621
# Velocity P-wave (km/s) = 3.73876 5.05552 4.44616
#
# Compressibility (1/GPa) = 0.06342151
#
# Stress axis : x y z
#
# Youngs Moduli (GPa) = 1.74895 1.74889 31.13457
#
# Poissons Ratio (x) = 0.95880 0.12299
# Poissons Ratio (y) = 0.95884 0.12280
# Poissons Ratio (z) = 0.00691 0.00690
#
# Static dielectric constant tensor:
#      x y z
#    x 2.630790 0.000000 0.000000 
#    y 0.000000 2.630800 0.000000 
#    z 0.000000 0.000000 2.733710 
# 
# 
# High freq. dielectric constant tensor:
#      x y z
#    x 1.467540 0.000000 0.000000 
#    y 0.000000 1.467540 0.000000 
#    z 0.000000 0.000000 1.501360 
# 
# From -- ./inp_files/2085.got.cif
#   From: 2010.03.12/outbox.cif.g09.slc.cpg/sg121_2_cif.got.tgz:2085.got - 2010.04.06 16:06:48.
