data_PCOD8311678
_publ_section_title
;
Structure prediction by ZEFSAII (Michael W. Deem and Ramdas Pophale) SiO2 
 PCOD8311678
Probable space group: I -4 2 M
;
_chemical_formula_sum "Si O2"
_cell_formula_units_Z 96
_cell_length_a 26.972115
_cell_length_b 26.972115
_cell_length_c 9.386437
_cell_angle_alpha 90.000000
_cell_angle_beta 90.000000
_cell_angle_gamma 90.000000
_cell_volume 6828.585869
_symmetry_space_group_name_H-M "I -4 2 M"
_symmetry_group_IT_number 121
_symmetry_cell_setting 'tetragonal'
loop_
_space_group_symop_operation_xyz
x,y,z
y,-x,-z
-x,-y,z
-y,x,-z
x,-y,-z
-x,y,-z
-y,-x,z
y,x,z
1/2+x,1/2+y,1/2+z
1/2+y,1/2-x,1/2-z
1/2-x,1/2-y,1/2+z
1/2-y,1/2+x,1/2-z
1/2+x,1/2-y,1/2-z
1/2-x,1/2+y,1/2-z
1/2-y,1/2-x,1/2+z
1/2+y,1/2+x,1/2+z
loop_
_atom_site_type_symbol
_atom_site_label
_atom_site_fract_x
_atom_site_fract_y
_atom_site_fract_z
Si Si1 0.115636 0.966746 0.867395
Si Si2 0.305382 0.386740 0.079500
Si Si3 0.115763 0.963161 0.378568
Si Si4 0.892899 0.190372 0.740109
Si Si5 0.743011 0.173522 0.914576
Si Si6 0.176099 0.740216 0.237588
O O1 0.073246 0.926755 0.905761
O O2 0.165526 0.941649 0.807546
O O3 0.094952 0.005815 0.753233
O O4 0.130984 0.000000 0.000000
O O5 0.337189 0.337189 0.061972
O O6 0.336634 0.429403 0.160470
O O7 0.258308 0.373109 0.177857
O O8 0.289786 0.404161 0.919936
O O9 0.071846 0.928155 0.437401
O O10 0.133132 0.000000 0.500000
O O11 0.850680 0.149320 0.732047
O O12 0.876073 0.235681 0.840721
O O13 0.784800 0.215201 0.917824
O O14 0.696813 0.192323 0.820512
O O15 0.725534 0.161479 0.075776
O O16 0.216935 0.783066 0.232727
#
# Coordination Sequence:
#
# PCOD8311678 Si02
#       6
#    16  16  16  16  16  16
#     4  11  23  35  45  58  76 100 132 175 224 263
#     4   9  17  29  43  58  76  96 121 155 196 243
#     4  11  21  33  47  60  74  98 134 175 219 260
#     4   9  17  30  43  56  76  98 121 154 197 243
#     4   9  16  25  40  60  80  99 117 140 177 230
#     4   9  16  25  40  61  80  98 117 140 177 230
#
# _framework density 14.058548
#
# number of rings (size 3 to 8) (size 9 to 14) (size 15 to 20)
#    0.000    2.333    1.667    2.000    2.333    6.000 
#    0.000    0.000    0.000    0.000    0.000    0.000 
#    0.000    0.000    0.000    0.000    0.000    0.000 
#
# Total GULP energy -594987.424332 kJ/mol
# GULP energy per Si atom -12395.571340 kJ/mol
# Density = 1.402655 g / cm^3
# Si number density = 14.058548 Si / 1000 Ang^3
#
#
#
# Elastic Constant Matrix: (Units=GPa)
#
#
# Indices 1 2 3 4 5 6 
#
# 1 37.3673 35.1928 23.7453 0.0000 0.0000 0.0000
# 2 35.1928 37.3662 23.7444 0.0000 0.0000 0.0000
# 3 23.7453 23.7444 91.4696 0.0000 0.0000 0.0000
# 4 0.0000 0.0000 0.0000 22.0783 0.0000 0.0000
# 5 0.0000 0.0000 0.0000 0.0000 22.0783 0.0000
# 6 0.0000 0.0000 0.0000 0.0000 0.0000 -3.4524
#
#
#
# Elastic Compliance Matrix: (Units=1/GPa)
#
#
# Indices 1 2 3 4 5 6 
#
# 1 0.238293 -0.221693 -0.004311 0.000000 0.000000 0.000000
# 2 -0.221693 0.238298 -0.004309 0.000000 0.000000 0.000000
# 3 -0.004311 -0.004309 0.013170 0.000000 0.000000 0.000000
# 4 0.000000 0.000000 0.000000 0.045293 0.000000 0.000000
# 5 0.000000 0.000000 0.000000 0.000000 0.045293 0.000000
# 6 0.000000 0.000000 0.000000 0.000000 0.000000 -0.289651
#
#
# Mechanical properties :
#
#
# Convention : Reuss Voigt Hill
#
# Bulk Modulus (GPa) = 34.32210 36.84091 35.58151
# Shear Modulus (GPa) = 6.57001 13.70887 10.13944
#
# Velocity S-wave (km/s) = 2.16413 3.12609 2.68848
# Velocity P-wave (km/s) = 5.54178 6.26835 5.91623
#
# Compressibility (1/GPa) = 0.02913575
#
# Stress axis : x y z
#
# Youngs Moduli (GPa) = 4.19652 4.19643 75.92872
#
# Poissons Ratio (x) = 0.93032 0.32735
# Poissons Ratio (y) = 0.93034 0.32714
# Poissons Ratio (z) = 0.01809 0.01808
#
# Static dielectric constant tensor:
#      x y z
#    x 2.485860 0.000000 0.000000 
#    y 0.000000 2.486100 0.000000 
#    z 0.000000 0.000000 3.290200 
# 
# 
# High freq. dielectric constant tensor:
#      x y z
#    x 1.494200 0.000000 0.000000 
#    y 0.000000 1.494200 0.000000 
#    z 0.000000 0.000000 1.556910 
# 
# From -- ./inp_files/1922.got.cif
#   From: 2010.03.12/outbox.cif.g09.slc.cpg/sg121_1_cif.got.tgz:1922.got - 2010.04.06 16:06:48.
