data_PCOD8311468
_publ_section_title
;
Structure prediction by ZEFSAII (Michael W. Deem and Ramdas Pophale) SiO2 
 PCOD8311468
Probable space group: I -4 2 M
;
_chemical_formula_sum "Si O2"
_cell_formula_units_Z 96
_cell_length_a 23.238507
_cell_length_b 23.238507
_cell_length_c 9.897666
_cell_angle_alpha 90.000000
_cell_angle_beta 90.000000
_cell_angle_gamma 90.000000
_cell_volume 5345.018829
_symmetry_space_group_name_H-M "I -4 2 M"
_symmetry_group_IT_number 121
_symmetry_cell_setting 'tetragonal'
loop_
_space_group_symop_operation_xyz
x,y,z
y,-x,-z
-x,-y,z
-y,x,-z
x,-y,-z
-x,y,-z
-y,-x,z
y,x,z
1/2+x,1/2+y,1/2+z
1/2+y,1/2-x,1/2-z
1/2-x,1/2-y,1/2+z
1/2-y,1/2+x,1/2-z
1/2+x,1/2-y,1/2-z
1/2-x,1/2+y,1/2-z
1/2-y,1/2-x,1/2+z
1/2+y,1/2+x,1/2+z
loop_
_atom_site_type_symbol
_atom_site_label
_atom_site_fract_x
_atom_site_fract_y
_atom_site_fract_z
Si Si1 0.748117 0.841998 0.275815
Si Si2 0.872917 0.965386 0.121780
Si Si3 0.626538 0.536464 0.116564
Si Si4 0.710716 0.383840 0.492905
Si Si5 0.250767 0.154183 0.736026
Si Si6 0.752540 0.067016 0.494573
O O1 0.806555 0.806555 0.312787
O O2 0.745891 0.857892 0.117462
O O3 0.692722 0.802236 0.295733
O O4 0.744446 0.900916 0.362225
O O5 0.914643 0.914643 0.171935
O O6 0.812234 0.944640 0.060485
O O7 0.855178 0.001101 0.252737
O O8 0.904090 0.000000 0.000000
O O9 0.586013 0.586013 0.173003
O O10 0.680799 0.563686 0.041793
O O11 0.593980 0.500000 0.000000
O O12 0.656031 0.343970 0.510702
O O13 0.737688 0.389413 0.641126
O O14 0.196681 0.196681 0.695321
O O15 0.273097 0.111932 0.616457
O O16 0.727613 0.000000 0.500000
#
# Coordination Sequence:
#
# PCOD8311468 Si02
#       6
#    16  16  16  16  16  16
#     4  10  19  33  54  79 107 141 183 227 269 321
#     4  11  22  34  47  63  88 128 178 229 271 306
#     4  11  22  34  48  66  93 133 177 220 262 306
#     4   9  18  31  46  67  93 123 166 219 273 319
#     4  10  19  33  55  79 105 141 184 227 269 321
#     4  11  22  35  52  78 111 143 171 211 274 335
#
# _framework density 17.960647999999999
#
# number of rings (size 3 to 8) (size 9 to 14) (size 15 to 20)
#    0.000    1.667    0.000    6.500    0.000    7.333 
#    0.000    0.000    0.000    0.000    0.000    0.000 
#    0.000    2.000    0.000    0.000    0.000    0.000 
#
# Total GULP energy -594677.314793 kJ/mol
# GULP energy per Si atom -12389.110725 kJ/mol
# Density = 1.791977 g / cm^3
# Si number density = 17.960648 Si / 1000 Ang^3
#
#
#
# Elastic Constant Matrix: (Units=GPa)
#
#
# Indices 1 2 3 4 5 6 
#
# 1 64.2399 20.8820 18.3954 0.0000 0.0000 0.0000
# 2 20.8820 64.2394 18.3962 0.0000 0.0000 0.0000
# 3 18.3954 18.3962 89.6538 0.0000 0.0000 0.0000
# 4 0.0000 0.0000 0.0000 30.4901 0.0000 0.0000
# 5 0.0000 0.0000 0.0000 0.0000 30.4902 0.0000
# 6 0.0000 0.0000 0.0000 0.0000 0.0000 16.1018
#
#
#
# Elastic Compliance Matrix: (Units=1/GPa)
#
#
# Indices 1 2 3 4 5 6 
#
# 1 0.017977 -0.005086 -0.002645 0.000000 0.000000 0.000000
# 2 -0.005086 0.017978 -0.002645 0.000000 0.000000 0.000000
# 3 -0.002645 -0.002645 0.012240 0.000000 0.000000 0.000000
# 4 0.000000 0.000000 0.000000 0.032798 0.000000 0.000000
# 5 0.000000 0.000000 0.000000 0.000000 0.032797 0.000000
# 6 0.000000 0.000000 0.000000 0.000000 0.000000 0.062105
#
#
# Mechanical properties :
#
#
# Convention : Reuss Voigt Hill
#
# Bulk Modulus (GPa) = 36.44124 37.05336 36.74730
# Shear Modulus (GPa) = 24.29604 26.11371 25.20487
#
# Velocity S-wave (km/s) = 3.68195 3.81719 3.75018
# Velocity P-wave (km/s) = 6.19751 6.33270 6.26547
#
# Compressibility (1/GPa) = 0.02744144
#
# Stress axis : x y z
#
# Youngs Moduli (GPa) = 55.62525 55.62449 81.70265
#
# Poissons Ratio (x) = 0.28293 0.21610
# Poissons Ratio (y) = 0.28293 0.21612
# Poissons Ratio (z) = 0.14713 0.14714
#
# Static dielectric constant tensor:
#      x y z
#    x 3.340490 0.000000 0.000000 
#    y 0.000000 3.340490 0.000000 
#    z 0.000000 0.000000 3.597100 
# 
# 
# High freq. dielectric constant tensor:
#      x y z
#    x 1.663230 0.000000 0.000000 
#    y 0.000000 1.663230 0.000000 
#    z 0.000000 0.000000 1.720760 
# 
# From -- ./inp_files/1918.got.cif
#   From: 2010.03.12/outbox.cif.g09.slc.cpg/sg121_1_cif.got.tgz:1918.got - 2010.04.06 16:06:48.
