data_PCOD8311177
_publ_section_title
;
Structure prediction by ZEFSAII (Michael W. Deem and Ramdas Pophale) SiO2 
 PCOD8311177
Probable space group: I -4 C 2
;
_chemical_formula_sum "Si O2"
_cell_formula_units_Z 76
_cell_length_a 17.425243
_cell_length_b 17.425243
_cell_length_c 13.647049
_cell_angle_alpha 90.000000
_cell_angle_beta 90.000000
_cell_angle_gamma 90.000000
_cell_volume 4143.777589
_symmetry_space_group_name_H-M "I -4 C 2"
_symmetry_group_IT_number 120
_symmetry_cell_setting 'tetragonal'
loop_
_space_group_symop_operation_xyz
x,y,z
y,-x,-z
-x,-y,z
-y,x,-z
y,x,1/2-z
-y,-x,1/2-z
-x,y,1/2+z
x,-y,1/2+z
1/2+x,1/2+y,1/2+z
1/2+y,1/2-x,1/2-z
1/2-x,1/2-y,1/2+z
1/2-y,1/2+x,1/2-z
1/2+y,1/2+x,-z
1/2-y,1/2-x,-z
1/2-x,1/2+y,z
1/2+x,1/2-y,z
loop_
_atom_site_type_symbol
_atom_site_label
_atom_site_fract_x
_atom_site_fract_y
_atom_site_fract_z
Si Si1 0.785051 0.577307 0.711574
Si Si2 0.120453 0.879548 0.750000
Si Si3 0.563932 0.847966 0.189586
Si Si4 0.904206 0.928558 0.034829
Si Si5 0.000000 0.500000 0.750000
Si Si6 0.880381 0.740686 0.504085
O O1 0.710631 0.608240 0.767012
O O2 0.797266 0.488845 0.740123
O O3 0.853763 0.635727 0.740705
O O4 0.777600 0.574619 0.595013
O O5 0.076756 0.908213 0.846996
O O6 0.523833 0.931283 0.176089
O O7 0.572363 0.802291 0.088391
O O8 0.833429 0.880734 0.986337
O O9 0.981692 0.894295 0.989632
O O10 0.793052 0.706949 0.500000
#
# Coordination Sequence:
#
# PCOD8311177 Si02
#       6
#    16   8  16  16   4  16
#     4   9  18  32  51  74 101 135 167 207 258 301
#     4  10  20  37  54  74 106 133 166 216 262 302
#     4   9  16  32  52  75 105 135 172 208 249 310
#     4  10  21  36  56  79 103 136 175 214 261 311
#     4   8  16  28  50  80 108 138 172 212 254 300
#     4   9  18  34  54  75 104 138 170 211 262 305
#
# _framework density 18.340751999999998
#
# number of rings (size 3 to 8) (size 9 to 14) (size 15 to 20)
#    0.000    2.737    0.000    1.263    0.000    1.684 
#    0.000   35.263    0.000    2.526    0.000    0.000 
#    0.000    0.000    0.000    0.000    0.000    0.000 
#
# Total GULP energy -470921.810510 kJ/mol
# GULP energy per Si atom -12392.679224 kJ/mol
# Density = 1.829901 g / cm^3
# Si number density = 18.340752 Si / 1000 Ang^3
#
#
#
# Elastic Constant Matrix: (Units=GPa)
#
#
# Indices 1 2 3 4 5 6 
#
# 1 134.1629 55.3862 50.0037 0.0000 0.0000 0.0000
# 2 55.3862 134.1613 50.0030 0.0000 0.0000 0.0000
# 3 50.0037 50.0030 89.3560 0.0000 0.0000 0.0000
# 4 0.0000 0.0000 0.0000 28.6796 0.0000 0.0000
# 5 0.0000 0.0000 0.0000 0.0000 28.6802 0.0000
# 6 0.0000 0.0000 0.0000 0.0000 0.0000 24.4808
#
#
#
# Elastic Compliance Matrix: (Units=1/GPa)
#
#
# Indices 1 2 3 4 5 6 
#
# 1 0.010090 -0.002604 -0.004189 0.000000 0.000000 0.000000
# 2 -0.002604 0.010090 -0.004189 0.000000 0.000000 0.000000
# 3 -0.004189 -0.004189 0.015880 0.000000 0.000000 0.000000
# 4 0.000000 0.000000 0.000000 0.034868 0.000000 0.000000
# 5 0.000000 0.000000 0.000000 0.000000 0.034867 0.000000
# 6 0.000000 0.000000 0.000000 0.000000 0.000000 0.040848
#
#
# Mechanical properties :
#
#
# Convention : Reuss Voigt Hill
#
# Bulk Modulus (GPa) = 70.94698 74.27400 72.61049
# Shear Modulus (GPa) = 28.85064 29.85392 29.35228
#
# Velocity S-wave (km/s) = 3.97045 4.03890 4.00482
# Velocity P-wave (km/s) = 7.73214 7.89525 7.81412
#
# Compressibility (1/GPa) = 0.01409503
#
# Stress axis : x y z
#
# Youngs Moduli (GPa) = 99.10787 99.10707 62.97396
#
# Poissons Ratio (x) = 0.25809 0.26380
# Poissons Ratio (y) = 0.25809 0.26380
# Poissons Ratio (z) = 0.41517 0.41516
#
# Static dielectric constant tensor:
#      x y z
#    x 3.589010 0.000000 0.000000 
#    y 0.000000 3.589040 0.000000 
#    z 0.000000 0.000000 3.207370 
# 
# 
# High freq. dielectric constant tensor:
#      x y z
#    x 1.714490 0.000000 0.000000 
#    y 0.000000 1.714500 0.000000 
#    z 0.000000 0.000000 1.695390 
# 
# From -- ./inp_files/3492.got.cif
#   From: 2010.03.12/outbox.cif.g09.slc.cpg/sg120_2_cif.got.tgz:3492.got - 2010.04.06 16:00:44.
