data_PCOD8311322
_publ_section_title
;
Structure prediction by ZEFSAII (Michael W. Deem and Ramdas Pophale) SiO2 
 PCOD8311322
Probable space group: I -4 C 2
;
_chemical_formula_sum "Si O2"
_cell_formula_units_Z 40
_cell_length_a 14.953582
_cell_length_b 14.953582
_cell_length_c 7.050359
_cell_angle_alpha 90.000000
_cell_angle_beta 90.000000
_cell_angle_gamma 90.000000
_cell_volume 1576.528059
_symmetry_space_group_name_H-M "I -4 C 2"
_symmetry_group_IT_number 120
_symmetry_cell_setting 'tetragonal'
loop_
_space_group_symop_operation_xyz
x,y,z
y,-x,-z
-x,-y,z
-y,x,-z
y,x,1/2-z
-y,-x,1/2-z
-x,y,1/2+z
x,-y,1/2+z
1/2+x,1/2+y,1/2+z
1/2+y,1/2-x,1/2-z
1/2-x,1/2-y,1/2+z
1/2-y,1/2+x,1/2-z
1/2+y,1/2+x,-z
1/2-y,1/2-x,-z
1/2-x,1/2+y,z
1/2+x,1/2-y,z
loop_
_atom_site_type_symbol
_atom_site_label
_atom_site_fract_x
_atom_site_fract_y
_atom_site_fract_z
Si Si1 0.604124 0.395877 0.750000
Si Si2 0.937718 0.380874 0.799225
Si Si3 0.924569 0.188012 0.623321
O O1 0.620380 0.490132 0.859048
O O2 0.683827 0.391775 0.595336
O O3 0.899828 0.457356 0.658942
O O4 0.939719 0.288256 0.687378
O O5 0.883246 0.383246 0.000000
O O6 0.843865 0.156136 0.750000
#
# Coordination Sequence:
#
# PCOD8311322 Si02
#       3
#     8  16  16
#     4  12  25  44  80 116 164 218 260 325 414 471
#     4  11  25  51  80 111 159 218 272 333 410 479
#     4  12  26  47  79 118 163 212 273 332 398 490
#
# _framework density 25.372207
#
# number of rings (size 3 to 8) (size 9 to 14) (size 15 to 20)
#    0.000    0.400    4.000    5.400    0.000    0.000 
#    3.600    4.000    0.000    0.000    0.000    0.000 
#    0.000    0.000    0.000    0.000    0.000    0.000 
#
# Total GULP energy -247791.741763 kJ/mol
# GULP energy per Si atom -12389.587088 kJ/mol
# Density = 2.531446 g / cm^3
# Si number density = 25.372207 Si / 1000 Ang^3
#
#
#
# Elastic Constant Matrix: (Units=GPa)
#
#
# Indices 1 2 3 4 5 6 
#
# 1 -58.8115 288.3646 60.8082 0.0000 0.0000 0.0000
# 2 288.3646 -58.6449 60.7630 0.0000 0.0000 0.0000
# 3 60.8082 60.7630 193.7678 0.0000 0.0000 0.0000
# 4 0.0000 0.0000 0.0000 11.3312 0.0000 0.0000
# 5 0.0000 0.0000 0.0000 0.0000 11.3162 0.0000
# 6 0.0000 0.0000 0.0000 0.0000 0.0000 19.9854
#
#
#
# Elastic Compliance Matrix: (Units=1/GPa)
#
#
# Indices 1 2 3 4 5 6 
#
# 1 0.001169 0.004052 -0.001637 0.000000 0.000000 0.000000
# 2 0.004052 0.001172 -0.001639 0.000000 0.000000 0.000000
# 3 -0.001637 -0.001639 0.006189 0.000000 0.000000 0.000000
# 4 0.000000 0.000000 0.000000 0.088252 0.000000 0.000000
# 5 0.000000 0.000000 0.000000 0.000000 0.088369 0.000000
# 6 0.000000 0.000000 0.000000 0.000000 0.000000 0.050036
#
#
# Mechanical properties :
#
#
# Convention : Reuss Voigt Hill
#
# Bulk Modulus (GPa) = 99.20702 99.57588 99.39145
# Shear Modulus (GPa) = 21.09735 -13.71508 3.69114
#
# Velocity S-wave (km/s) = 2.88673 -2.32751 1.20746
# Velocity P-wave (km/s) = 7.09200 5.66641 6.41890
#
# Compressibility (1/GPa) = 0.01007993
#
# Stress axis : x y z
#
# Youngs Moduli (GPa) = 855.44973 853.30897 161.58740
#
# Poissons Ratio (x) = -3.45719 0.26458
# Poissons Ratio (y) = -3.46587 0.26483
# Poissons Ratio (z) = 1.40067 1.39852
#
# Static dielectric constant tensor:
#      x y z
#    x 4.520900 0.000000 0.000000 
#    y 0.000000 4.520880 0.000000 
#    z 0.000000 0.000000 4.945640 
# 
# 
# High freq. dielectric constant tensor:
#      x y z
#    x 2.002690 0.000000 0.000000 
#    y 0.000000 2.002690 0.000000 
#    z 0.000000 0.000000 2.037460 
# 
# From -- ./inp_files/772.got.cif
#   From: 2010.03.12/outbox.cif.g09.slc.cpg/sg120_1_cif.got.tgz:772.got - 2010.04.06 16:00:44.
