data_PCOD8311319
_publ_section_title
;
Structure prediction by ZEFSAII (Michael W. Deem and Ramdas Pophale) SiO2 
 PCOD8311319
Probable space group: I -4 C 2
;
_chemical_formula_sum "Si O2"
_cell_formula_units_Z 52
_cell_length_a 16.335737
_cell_length_b 16.335737
_cell_length_c 8.711951
_cell_angle_alpha 90.000000
_cell_angle_beta 90.000000
_cell_angle_gamma 90.000000
_cell_volume 2324.839039
_symmetry_space_group_name_H-M "I -4 C 2"
_symmetry_group_IT_number 120
_symmetry_cell_setting 'tetragonal'
loop_
_space_group_symop_operation_xyz
x,y,z
y,-x,-z
-x,-y,z
-y,x,-z
y,x,1/2-z
-y,-x,1/2-z
-x,y,1/2+z
x,-y,1/2+z
1/2+x,1/2+y,1/2+z
1/2+y,1/2-x,1/2-z
1/2-x,1/2-y,1/2+z
1/2-y,1/2+x,1/2-z
1/2+y,1/2+x,-z
1/2-y,1/2-x,-z
1/2-x,1/2+y,z
1/2+x,1/2-y,z
loop_
_atom_site_type_symbol
_atom_site_label
_atom_site_fract_x
_atom_site_fract_y
_atom_site_fract_z
Si Si1 0.597308 0.776391 0.072481
Si Si2 0.931437 0.903264 0.574753
Si Si3 0.000000 0.500000 0.750000
Si Si4 0.341061 0.053812 0.601878
O O1 0.619188 0.680887 0.049359
O O2 0.589023 0.792344 0.253760
O O3 0.668677 0.831324 0.000000
O O4 0.508383 0.787608 0.996847
O O5 0.930518 0.930518 0.750000
O O6 0.026791 0.890558 0.529691
O O7 0.999022 0.419269 0.852454
O O8 0.368836 0.131165 0.500000
#
# Coordination Sequence:
#
# PCOD8311319 Si02
#       4
#    16  16   4  16
#     4  12  23  41  68 103 139 173 222 283 342 392
#     4  11  25  49  75  95 125 177 235 276 336 413
#     4  12  18  32  58  88 142 196 218 240 318 424
#     4  12  21  35  61  99 145 190 223 263 329 417
#
# _framework density 22.367142000000001
#
# number of rings (size 3 to 8) (size 9 to 14) (size 15 to 20)
#    0.000    0.308    6.154    4.154    0.000    0.000 
#    0.000   15.385    0.000    0.000    0.000    0.000 
#    0.000    0.000    0.000    0.000    0.000    0.000 
#
# Total GULP energy -322459.729520 kJ/mol
# GULP energy per Si atom -12402.297289 kJ/mol
# Density = 2.231623 g / cm^3
# Si number density = 22.367142 Si / 1000 Ang^3
#
#
#
# Elastic Constant Matrix: (Units=GPa)
#
#
# Indices 1 2 3 4 5 6 
#
# 1 132.0696 30.6615 51.9110 0.0000 0.0000 0.0000
# 2 30.6615 132.0666 51.9113 0.0000 0.0000 0.0000
# 3 51.9110 51.9113 153.3181 0.0000 0.0000 0.0000
# 4 0.0000 0.0000 0.0000 13.9476 0.0000 0.0000
# 5 0.0000 0.0000 0.0000 0.0000 13.9493 0.0000
# 6 0.0000 0.0000 0.0000 0.0000 0.0000 13.3964
#
#
#
# Elastic Compliance Matrix: (Units=1/GPa)
#
#
# Indices 1 2 3 4 5 6 
#
# 1 0.008850 -0.001011 -0.002654 0.000000 0.000000 0.000000
# 2 -0.001011 0.008850 -0.002654 0.000000 0.000000 0.000000
# 3 -0.002654 -0.002654 0.008320 0.000000 0.000000 0.000000
# 4 0.000000 0.000000 0.000000 0.071697 0.000000 0.000000
# 5 0.000000 0.000000 0.000000 0.000000 0.071688 0.000000
# 6 0.000000 0.000000 0.000000 0.000000 0.000000 0.074647
#
#
# Mechanical properties :
#
#
# Convention : Reuss Voigt Hill
#
# Bulk Modulus (GPa) = 74.73549 76.26911 75.50230
# Shear Modulus (GPa) = 19.14607 27.12337 23.13472
#
# Velocity S-wave (km/s) = 2.92891 3.48608 3.21957
# Velocity P-wave (km/s) = 6.70251 7.09764 6.90290
#
# Compressibility (1/GPa) = 0.01338052
#
# Stress axis : x y z
#
# Youngs Moduli (GPa) = 112.99793 112.99473 120.19855
#
# Poissons Ratio (x) = 0.11429 0.31900
# Poissons Ratio (y) = 0.11429 0.31901
# Poissons Ratio (z) = 0.29989 0.29989
#
# Static dielectric constant tensor:
#      x y z
#    x 3.944610 0.000000 0.000000 
#    y 0.000000 3.944610 0.000000 
#    z 0.000000 0.000000 4.195590 
# 
# 
# High freq. dielectric constant tensor:
#      x y z
#    x 1.873200 0.000000 0.000000 
#    y 0.000000 1.873200 0.000000 
#    z 0.000000 0.000000 1.896640 
# 
# From -- ./inp_files/990.got.cif
#   From: 2010.03.12/outbox.cif.g09.slc.cpg/sg120_1_cif.got.tgz:990.got - 2010.04.06 16:00:44.
