data_PCOD8311776
_publ_section_title
;
Structure prediction by ZEFSAII (Michael W. Deem and Ramdas Pophale) SiO2 
 PCOD8311776
Probable space group: I -4 2 D
;
_chemical_formula_sum "Si O2"
_cell_formula_units_Z 76
_cell_length_a 11.386621
_cell_length_b 11.386621
_cell_length_c 31.664679
_cell_angle_alpha 90.000000
_cell_angle_beta 90.000000
_cell_angle_gamma 90.000000
_cell_volume 4105.488319
_symmetry_space_group_name_H-M "I -4 2 D"
_symmetry_group_IT_number 122
_symmetry_cell_setting 'tetragonal'
loop_
_space_group_symop_operation_xyz
x,y,z
y,-x,-z
-x,-y,z
-y,x,-z
x,1/2-y,1/4-z
-x,1/2+y,1/4-z
-y,1/2-x,1/4+z
y,1/2+x,1/4+z
1/2+x,1/2+y,1/2+z
1/2+y,1/2-x,1/2-z
1/2-x,1/2-y,1/2+z
1/2-y,1/2+x,1/2-z
1/2+x,-y,3/4-z
1/2-x,y,3/4-z
1/2-y,-x,3/4+z
1/2+y,x,3/4+z
loop_
_atom_site_type_symbol
_atom_site_label
_atom_site_fract_x
_atom_site_fract_y
_atom_site_fract_z
Si Si1 0.875151 0.547689 0.437016
Si Si2 0.000000 0.000000 0.000000
Si Si3 0.221310 0.750000 0.125000
Si Si4 0.872195 0.640960 0.946706
Si Si5 0.130585 0.888739 0.282637
Si Si6 0.142497 0.211725 0.030047
O O1 0.834672 0.641646 0.402995
O O2 0.883051 0.607700 0.482569
O O3 0.786708 0.437020 0.438229
O O4 0.000000 0.500000 0.422014
O O5 0.079945 0.911848 0.972148
O O6 0.306459 0.828035 0.096777
O O7 0.809213 0.514399 0.956570
O O8 0.009786 0.618748 0.941914
O O9 0.848619 0.733260 0.983698
O O10 0.207906 0.776692 0.297063
#
# Coordination Sequence:
#
# PCOD8311776 Si02
#       6
#    16   4   8  16  16  16
#     4  11  22  39  60  92 127 158 199 257 323 362
#     4  12  16  24  56 100 112 132 208 264 280 344
#     4  12  24  38  60  94 122 158 194 276 314 348
#     4  10  20  37  60  85 121 161 201 241 309 361
#     4  10  19  38  64  84 115 169 208 238 285 390
#     4  11  19  34  62  91 116 160 210 245 294 383
#
# _framework density 18.511804999999999
#
# number of rings (size 3 to 8) (size 9 to 14) (size 15 to 20)
#    0.000    1.263   10.526    0.000    0.000    1.684 
#    1.895    5.263    0.000    3.158    0.000    0.000 
#    0.000    0.000    0.000    0.000    0.000    0.000 
#
# Total GULP energy -471090.305084 kJ/mol
# GULP energy per Si atom -12397.113292 kJ/mol
# Density = 1.846967 g / cm^3
# Si number density = 18.511805 Si / 1000 Ang^3
#
#
#
# Elastic Constant Matrix: (Units=GPa)
#
#
# Indices 1 2 3 4 5 6 
#
# 1 121.0034 52.4281 52.9354 0.0000 0.0000 0.0000
# 2 52.4281 121.0034 52.9354 0.0000 0.0000 0.0000
# 3 52.9354 52.9354 86.0009 0.0000 0.0000 0.0000
# 4 0.0000 0.0000 0.0000 15.5990 0.0000 0.0000
# 5 0.0000 0.0000 0.0000 0.0000 15.5990 0.0000
# 6 0.0000 0.0000 0.0000 0.0000 0.0000 30.3047
#
#
#
# Elastic Compliance Matrix: (Units=1/GPa)
#
#
# Indices 1 2 3 4 5 6 
#
# 1 0.011910 -0.002673 -0.005685 0.000000 0.000000 0.000000
# 2 -0.002673 0.011910 -0.005685 0.000000 0.000000 0.000000
# 3 -0.005685 -0.005685 0.018627 0.000000 0.000000 0.000000
# 4 0.000000 0.000000 0.000000 0.064107 0.000000 0.000000
# 5 0.000000 0.000000 0.000000 0.000000 0.064107 0.000000
# 6 0.000000 0.000000 0.000000 0.000000 0.000000 0.032998
#
#
# Mechanical properties :
#
#
# Convention : Reuss Voigt Hill
#
# Bulk Modulus (GPa) = 69.64495 71.62283 70.63389
# Shear Modulus (GPa) = 21.13890 23.61444 22.37667
#
# Velocity S-wave (km/s) = 3.38289 3.57549 3.48052
# Velocity P-wave (km/s) = 7.27751 7.47127 7.37503
#
# Compressibility (1/GPa) = 0.01435854
#
# Stress axis : x y z
#
# Youngs Moduli (GPa) = 83.96640 83.96640 53.68670
#
# Poissons Ratio (x) = 0.22444 0.30522
# Poissons Ratio (y) = 0.22444 0.30522
# Poissons Ratio (z) = 0.47737 0.47737
#
# Static dielectric constant tensor:
#      x y z
#    x 3.689730 0.000000 0.000000 
#    y 0.000000 3.689730 0.000000 
#    z 0.000000 0.000000 3.093160 
# 
# 
# High freq. dielectric constant tensor:
#      x y z
#    x 1.721860 0.000000 0.000000 
#    y 0.000000 1.721860 0.000000 
#    z 0.000000 0.000000 1.685590 
# 
# From -- ./inp_files/9404.got.cif
#   From: 2010.03.12/outbox.cif.g09.slc.cpg/sg122_5_cif.got.tgz:9404.got - 2010.04.06 16:17:16.
