data_PCOD8311426
_publ_section_title
;
Structure prediction by ZEFSAII (Michael W. Deem and Ramdas Pophale) SiO2 
 PCOD8311426
Probable space group: I -4 2 M
;
_chemical_formula_sum "Si O2"
_cell_formula_units_Z 112
_cell_length_a 23.758276
_cell_length_b 23.758276
_cell_length_c 12.505085
_cell_angle_alpha 90.000000
_cell_angle_beta 90.000000
_cell_angle_gamma 90.000000
_cell_volume 7058.566238
_symmetry_space_group_name_H-M "I -4 2 M"
_symmetry_group_IT_number 121
_symmetry_cell_setting 'tetragonal'
loop_
_space_group_symop_operation_xyz
x,y,z
y,-x,-z
-x,-y,z
-y,x,-z
x,-y,-z
-x,y,-z
-y,-x,z
y,x,z
1/2+x,1/2+y,1/2+z
1/2+y,1/2-x,1/2-z
1/2-x,1/2-y,1/2+z
1/2-y,1/2+x,1/2-z
1/2+x,1/2-y,1/2-z
1/2-x,1/2+y,1/2-z
1/2-y,1/2-x,1/2+z
1/2+y,1/2+x,1/2+z
loop_
_atom_site_type_symbol
_atom_site_label
_atom_site_fract_x
_atom_site_fract_y
_atom_site_fract_z
Si Si1 0.225399 0.320576 0.749302
Si Si2 0.047059 0.864335 0.915929
Si Si3 0.675358 0.581184 0.128498
Si Si4 0.365530 0.726552 0.450676
Si Si5 0.361537 0.266771 0.311603
Si Si6 0.791875 0.118275 0.588264
Si Si7 0.966164 0.122401 0.678676
O O1 0.277567 0.277567 0.749713
O O2 0.223613 0.352375 0.634191
O O3 0.166114 0.289439 0.762929
O O4 0.234818 0.365005 0.847617
O O5 0.085116 0.914885 0.962734
O O6 0.019649 0.882750 0.804094
O O7 0.084728 0.809384 0.898714
O O8 0.000000 0.849453 0.000000
O O9 0.630995 0.630995 0.122751
O O10 0.713234 0.586371 0.236124
O O11 0.639077 0.523718 0.119113
O O12 0.717134 0.586199 0.025478
O O13 0.309232 0.690769 0.466652
O O14 0.383576 0.748103 0.569044
O O15 0.316535 0.316535 0.314939
O O16 0.824042 0.175959 0.562291
O O17 0.828235 0.078868 0.665588
O O18 0.936833 0.063168 0.638897
#
# Coordination Sequence:
#
# PCOD8311426 Si02
#       7
#    16  16  16  16  16  16  16
#     4   9  16  27  44  62  79 104 136 169 218 281
#     4  10  19  30  44  59  80 111 148 189 230 270
#     4  10  20  31  43  63  88 109 142 193 236 269
#     4   9  16  28  42  58  81 105 133 172 216 268
#     4   9  18  27  41  64  86 106 130 173 229 275
#     4   9  17  30  45  60  79 107 145 185 223 271
#     4  10  19  32  46  60  80 114 155 190 229 271
#
# _framework density 15.867243999999999
#
# number of rings (size 3 to 8) (size 9 to 14) (size 15 to 20)
#    0.000    2.571    1.429    1.286    2.000    2.143 
#    0.000    1.429    0.000    2.571    0.000    0.000 
#    0.000    0.000    0.000    0.000    0.000    0.714 
#
# Total GULP energy -693827.080588 kJ/mol
# GULP energy per Si atom -12389.769296 kJ/mol
# Density = 1.583113 g / cm^3
# Si number density = 15.867244 Si / 1000 Ang^3
#
#
#
# Elastic Constant Matrix: (Units=GPa)
#
#
# Indices 1 2 3 4 5 6 
#
# 1 29.8186 29.1187 25.2062 0.0000 0.0000 0.0000
# 2 29.1187 29.8205 25.2059 0.0000 0.0000 0.0000
# 3 25.2062 25.2059 105.3829 0.0000 0.0000 0.0000
# 4 0.0000 0.0000 0.0000 20.0151 0.0000 0.0000
# 5 0.0000 0.0000 0.0000 0.0000 20.0153 0.0000
# 6 0.0000 0.0000 0.0000 0.0000 0.0000 20.5003
#
#
#
# Elastic Compliance Matrix: (Units=1/GPa)
#
#
# Indices 1 2 3 4 5 6 
#
# 1 0.724075 -0.702712 -0.005112 0.000000 0.000000 0.000000
# 2 -0.702712 0.724011 -0.005092 0.000000 0.000000 0.000000
# 3 -0.005112 -0.005092 0.011930 0.000000 0.000000 0.000000
# 4 0.000000 0.000000 0.000000 0.049962 0.000000 0.000000
# 5 0.000000 0.000000 0.000000 0.000000 0.049962 0.000000
# 6 0.000000 0.000000 0.000000 0.000000 0.000000 0.048780
#
#
# Mechanical properties :
#
#
# Convention : Reuss Voigt Hill
#
# Bulk Modulus (GPa) = 29.25389 36.00929 32.63159
# Shear Modulus (GPa) = 1.64153 17.80557 9.72355
#
# Velocity S-wave (km/s) = 1.01823 3.35350 2.47818
# Velocity P-wave (km/s) = 4.45635 6.14312 5.36642
#
# Compressibility (1/GPa) = 0.03418349
#
# Stress axis : x y z
#
# Youngs Moduli (GPa) = 1.38107 1.38119 83.82323
#
# Poissons Ratio (x) = 0.97058 0.42850
# Poissons Ratio (y) = 0.97050 0.42684
# Poissons Ratio (z) = 0.00706 0.00703
#
# Static dielectric constant tensor:
#      x y z
#    x 2.716720 0.000000 0.000000 
#    y 0.000000 2.716720 0.000000 
#    z 0.000000 0.000000 3.400460 
# 
# 
# High freq. dielectric constant tensor:
#      x y z
#    x 1.559040 0.000000 0.000000 
#    y 0.000000 1.559040 0.000000 
#    z 0.000000 0.000000 1.637120 
# 
# From -- ./inp_files/3477.got.cif
#   From: 2010.03.12/outbox.cif.g09.slc.cpg/sg121_2_cif.got.tgz:3477.got - 2010.04.06 16:06:48.
