data_PCOD8312063
_publ_section_title
;
Structure prediction by ZEFSAII (Michael W. Deem and Ramdas Pophale) SiO2 
 PCOD8312063
Probable space group: I -4 2 D
;
_chemical_formula_sum "Si O2"
_cell_formula_units_Z 28
_cell_length_a 9.409311
_cell_length_b 9.409311
_cell_length_c 13.808690
_cell_angle_alpha 90.000000
_cell_angle_beta 90.000000
_cell_angle_gamma 90.000000
_cell_volume 1222.554213
_symmetry_space_group_name_H-M "I -4 2 D"
_symmetry_group_IT_number 122
_symmetry_cell_setting 'tetragonal'
loop_
_space_group_symop_operation_xyz
x,y,z
y,-x,-z
-x,-y,z
-y,x,-z
x,1/2-y,1/4-z
-x,1/2+y,1/4-z
-y,1/2-x,1/4+z
y,1/2+x,1/4+z
1/2+x,1/2+y,1/2+z
1/2+y,1/2-x,1/2-z
1/2-x,1/2-y,1/2+z
1/2-y,1/2+x,1/2-z
1/2+x,-y,3/4-z
1/2-x,y,3/4-z
1/2-y,-x,3/4+z
1/2+y,x,3/4+z
loop_
_atom_site_type_symbol
_atom_site_label
_atom_site_fract_x
_atom_site_fract_y
_atom_site_fract_z
Si Si1 0.704506 0.392650 0.982398
Si Si2 0.081272 0.750000 0.125000
Si Si3 0.500000 0.500000 0.500000
O O1 0.750000 0.349484 0.875000
O O2 0.561389 0.311831 0.010373
O O3 0.825927 0.348981 0.056278
O O4 0.982420 0.643751 0.187041
#
# Coordination Sequence:
#
# PCOD8312063 Si02
#       3
#    16   8   4
#     4  11  24  45  76 109 149 197 251 313 381 455
#     4  12  28  50  76 114 156 204 256 320 384 458
#     4  12  32  48  84 108 166 200 260 320 384 456
#
# _framework density 22.902871000000001
#
# number of rings (size 3 to 8) (size 9 to 14) (size 15 to 20)
#    0.000    0.571    2.857    3.429   12.000    4.571 
#    0.000    0.000    0.000    0.000    0.000    0.000 
#    0.000    0.000    0.000    0.000    0.000    0.000 
#
# Total GULP energy -173722.120417 kJ/mol
# GULP energy per Si atom -12408.722887 kJ/mol
# Density = 2.285074 g / cm^3
# Si number density = 22.902871 Si / 1000 Ang^3
#
#
#
# Elastic Constant Matrix: (Units=GPa)
#
#
# Indices 1 2 3 4 5 6 
#
# 1 75.1116 29.2299 25.9359 0.0000 0.0000 0.0000
# 2 29.2299 75.1116 25.9359 0.0000 0.0000 0.0000
# 3 25.9359 25.9359 125.4636 0.0000 0.0000 0.0000
# 4 0.0000 0.0000 0.0000 23.2953 0.0000 0.0000
# 5 0.0000 0.0000 0.0000 0.0000 23.2953 0.0000
# 6 0.0000 0.0000 0.0000 0.0000 0.0000 20.5075
#
#
#
# Elastic Compliance Matrix: (Units=1/GPa)
#
#
# Indices 1 2 3 4 5 6 
#
# 1 0.016238 -0.005557 -0.002208 0.000000 0.000000 0.000000
# 2 -0.005557 0.016238 -0.002208 0.000000 0.000000 0.000000
# 3 -0.002208 -0.002208 0.008883 0.000000 0.000000 0.000000
# 4 0.000000 0.000000 0.000000 0.042927 0.000000 0.000000
# 5 0.000000 0.000000 0.000000 0.000000 0.042927 0.000000
# 6 0.000000 0.000000 0.000000 0.000000 0.000000 0.048763
#
#
# Mechanical properties :
#
#
# Convention : Reuss Voigt Hill
#
# Bulk Modulus (GPa) = 46.69798 48.65445 47.67621
# Shear Modulus (GPa) = 24.62312 26.39196 25.50754
#
# Velocity S-wave (km/s) = 3.28245 3.39830 3.34087
# Velocity P-wave (km/s) = 5.89913 6.05705 5.97861
#
# Compressibility (1/GPa) = 0.02141420
#
# Stress axis : x y z
#
# Youngs Moduli (GPa) = 61.58245 61.58244 112.57003
#
# Poissons Ratio (x) = 0.34220 0.24857
# Poissons Ratio (y) = 0.34220 0.24857
# Poissons Ratio (z) = 0.13598 0.13598
#
# Static dielectric constant tensor:
#      x y z
#    x 4.053230 0.000000 0.000000 
#    y 0.000000 4.053230 0.000000 
#    z 0.000000 0.000000 4.400460 
# 
# 
# High freq. dielectric constant tensor:
#      x y z
#    x 1.910120 0.000000 0.000000 
#    y 0.000000 1.910120 0.000000 
#    z 0.000000 0.000000 1.923930 
# 
# From -- ./inp_files/1638.got.cif
#   From: 2010.03.12/outbox.cif.g09.slc.cpg/sg122_1_cif.got.tgz:1638.got - 2010.04.06 16:17:16.
