data_PCOD8312260
_publ_section_title
;
Structure prediction by ZEFSAII (Michael W. Deem and Ramdas Pophale) SiO2 
 PCOD8312260
Probable space group: P 4/M M M
;
_chemical_formula_sum "Si O2"
_cell_formula_units_Z 128
_cell_length_a 20.733089
_cell_length_b 20.733089
_cell_length_c 19.046648
_cell_angle_alpha 90.000000
_cell_angle_beta 90.000000
_cell_angle_gamma 90.000000
_cell_volume 8187.410765
_symmetry_space_group_name_H-M "P 4/M M M"
_symmetry_group_IT_number 123
_symmetry_cell_setting 'tetragonal'
loop_
_space_group_symop_operation_xyz
x,y,z
-y,x,z
-x,-y,z
y,-x,z
x,-y,-z
-x,y,-z
y,x,-z
-y,-x,-z
-x,-y,-z
y,-x,-z
x,y,-z
-y,x,-z
-x,y,z
x,-y,z
-y,-x,z
y,x,z
loop_
_atom_site_type_symbol
_atom_site_label
_atom_site_fract_x
_atom_site_fract_y
_atom_site_fract_z
Si Si1 0.323326 0.427722 0.579365
Si Si2 0.793708 0.575436 0.816659
Si Si3 0.824802 0.072120 0.582770
Si Si4 0.930974 0.575504 0.790933
Si Si5 0.349368 0.246451 0.319229
Si Si6 0.572360 0.074144 0.631503
Si Si7 0.321329 0.573902 0.918362
Si Si8 0.694083 0.142180 0.579818
O O1 0.298729 0.418489 0.500000
O O2 0.344261 0.500000 0.595726
O O3 0.386186 0.386186 0.595208
O O4 0.264999 0.407896 0.629439
O O5 0.786939 0.500000 0.796763
O O6 0.868298 0.591626 0.839446
O O7 0.782257 0.619881 0.750050
O O8 0.744209 0.593601 0.878362
O O9 0.833660 0.069524 0.500000
O O10 0.878020 0.121981 0.614536
O O11 0.752152 0.094373 0.601109
O O12 0.835397 0.000000 0.614297
O O13 0.941647 0.500000 0.788608
O O14 0.916438 0.597475 0.711263
O O15 0.000000 0.606110 0.817690
O O16 0.308214 0.308214 0.296314
O O17 0.303221 0.198716 0.362671
O O18 0.500000 0.103615 0.621374
O O19 0.624126 0.108422 0.581769
O O20 0.570333 0.000000 0.610195
O O21 0.341304 0.500000 0.901720
O O22 0.380358 0.619643 0.894160
O O23 0.306266 0.583174 0.000000
O O24 0.704790 0.168079 0.500000
#
# Coordination Sequence:
#
# PCOD8312260 Si02
#       8
#    16  16  16  16  16  16  16  16
#     4   9  18  31  44  57  74  99 136 185 237 284
#     4  10  18  30  49  68  88 113 144 182 219 258
#     4   9  18  32  48  64  81 103 135 178 229 282
#     4   8  14  26  44  64  86 111 140 176 215 254
#     4  11  21  31  43  59  81 110 144 180 220 267
#     4   9  17  29  43  60  83 109 140 177 214 254
#     4   9  18  32  50  73  99 125 152 182 219 263
#     4  11  21  31  43  59  84 116 146 180 224 270
#
# _framework density 15.633758
#
# number of rings (size 3 to 8) (size 9 to 14) (size 15 to 20)
#    0.000    2.500    1.250    2.625    0.000    3.125 
#    0.000    2.500    0.000    0.375    0.000    4.375 
#    0.000    0.000    0.000    0.000    0.000    0.000 
#
# Total GULP energy -1586042.711502 kJ/mol
# GULP energy per Si atom -12390.958684 kJ/mol
# Density = 1.559817 g / cm^3
# Si number density = 15.633758 Si / 1000 Ang^3
#
#
#
# Elastic Constant Matrix: (Units=GPa)
#
#
# Indices 1 2 3 4 5 6 
#
# 1 90.2812 42.9384 31.6602 0.0000 0.0000 0.0000
# 2 42.9384 90.2812 31.6602 0.0000 0.0000 0.0000
# 3 31.6602 31.6602 42.7548 0.0000 0.0000 0.0000
# 4 0.0000 0.0000 0.0000 16.0679 0.0000 0.0000
# 5 0.0000 0.0000 0.0000 0.0000 16.0679 0.0000
# 6 0.0000 0.0000 0.0000 0.0000 0.0000 20.7968
#
#
#
# Elastic Compliance Matrix: (Units=1/GPa)
#
#
# Indices 1 2 3 4 5 6 
#
# 1 0.016353 -0.004770 -0.008578 0.000000 0.000000 0.000000
# 2 -0.004770 0.016353 -0.008578 0.000000 0.000000 0.000000
# 3 -0.008578 -0.008578 0.036093 0.000000 0.000000 0.000000
# 4 0.000000 0.000000 0.000000 0.062236 0.000000 0.000000
# 5 0.000000 0.000000 0.000000 0.000000 0.062236 0.000000
# 6 0.000000 0.000000 0.000000 0.000000 0.000000 0.048084
#
#
# Mechanical properties :
#
#
# Convention : Reuss Voigt Hill
#
# Bulk Modulus (GPa) = 40.08151 48.42609 44.25380
# Shear Modulus (GPa) = 17.03458 18.39041 17.71249
#
# Velocity S-wave (km/s) = 3.30449 3.43348 3.36961
# Velocity P-wave (km/s) = 6.34453 6.83820 6.59598
#
# Compressibility (1/GPa) = 0.02494916
#
# Stress axis : x y z
#
# Youngs Moduli (GPa) = 61.15104 61.15104 27.70649
#
# Poissons Ratio (x) = 0.29166 0.23765
# Poissons Ratio (y) = 0.29166 0.23765
# Poissons Ratio (z) = 0.52453 0.52453
#
# Static dielectric constant tensor:
#      x y z
#    x 3.139400 0.000000 0.000000 
#    y 0.000000 3.139400 0.000000 
#    z 0.000000 0.000000 2.664190 
# 
# 
# High freq. dielectric constant tensor:
#      x y z
#    x 1.600480 0.000000 0.000000 
#    y 0.000000 1.600480 0.000000 
#    z 0.000000 0.000000 1.550950 
# 
# From -- ./inp_files/5983.got.cif
#   From: 2010.03.12/outbox.cif.g09.slc.cpg/sg123_3_cif.got.tgz:5983.got - 2010.04.06 16:26:55.
