data_PCOD8312185
_publ_section_title
;
Structure prediction by ZEFSAII (Michael W. Deem and Ramdas Pophale) SiO2 
 PCOD8312185
Probable space group: P 4/M M M
;
_chemical_formula_sum "Si O2"
_cell_formula_units_Z 120
_cell_length_a 24.311482
_cell_length_b 24.311482
_cell_length_c 12.691834
_cell_angle_alpha 90.000000
_cell_angle_beta 90.000000
_cell_angle_gamma 90.000000
_cell_volume 7501.485095
_symmetry_space_group_name_H-M "P 4/M M M"
_symmetry_group_IT_number 123
_symmetry_cell_setting 'tetragonal'
loop_
_space_group_symop_operation_xyz
x,y,z
-y,x,z
-x,-y,z
y,-x,z
x,-y,-z
-x,y,-z
y,x,-z
-y,-x,-z
-x,-y,-z
y,-x,-z
x,y,-z
-y,x,-z
-x,y,z
x,-y,z
-y,-x,z
y,x,z
loop_
_atom_site_type_symbol
_atom_site_label
_atom_site_fract_x
_atom_site_fract_y
_atom_site_fract_z
Si Si1 0.347965 0.061626 0.122172
Si Si2 0.142620 0.560811 0.122085
Si Si3 0.437667 0.349604 0.118381
Si Si4 0.148901 0.759385 0.617615
Si Si5 0.772013 0.063318 0.204633
Si Si6 0.155991 0.935197 0.000000
Si Si7 0.762255 0.324725 0.375904
Si Si8 0.437612 0.752601 0.737037
O O1 0.395186 0.100324 0.170002
O O2 0.291369 0.072995 0.179598
O O3 0.368630 0.000000 0.141607
O O4 0.337955 0.073109 0.000000
O O5 0.117615 0.500000 0.140055
O O6 0.200253 0.567128 0.177579
O O7 0.153185 0.572254 0.000000
O O8 0.500000 0.369542 0.126854
O O9 0.401615 0.401615 0.149562
O O10 0.424668 0.302862 0.201845
O O11 0.424610 0.328305 0.000000
O O12 0.124058 0.748899 0.500000
O O13 0.193871 0.806130 0.609601
O O14 0.101357 0.782455 0.694283
O O15 0.180185 0.704202 0.660836
O O16 0.809072 0.080364 0.104188
O O17 0.784081 0.000000 0.234378
O O18 0.099651 0.900350 0.000000
O O19 0.141323 0.000000 0.000000
O O20 0.759959 0.320561 0.500000
O O21 0.709753 0.290248 0.329416
O O22 0.760572 0.389401 0.347799
O O23 0.500000 0.752039 0.687244
#
# Coordination Sequence:
#
# PCOD8312185 Si02
#       8
#    16  16  16  16  16   8  16  16
#     4   9  16  27  42  61  87 117 149 183 218 254
#     4   9  17  27  40  60  85 116 149 177 210 253
#     4   9  17  28  42  60  82 109 139 172 213 262
#     4   9  18  32  49  68  90 118 151 187 226 265
#     4  10  18  30  48  70  96 122 151 185 224 268
#     4  10  20  33  50  72  97 127 157 185 221 263
#     4   9  18  32  48  64  83 110 144 181 222 267
#     4  10  18  28  43  62  85 110 139 176 219 264
#
# _framework density 15.996831999999999
#
# number of rings (size 3 to 8) (size 9 to 14) (size 15 to 20)
#    0.000    2.667    0.667    2.800    0.000    2.600 
#    0.000    2.000    0.000    0.000    0.000    0.000 
#    0.000    0.000    0.000   49.600    0.000    0.400 
#
# Total GULP energy -1487118.172825 kJ/mol
# GULP energy per Si atom -12392.651440 kJ/mol
# Density = 1.596042 g / cm^3
# Si number density = 15.996832 Si / 1000 Ang^3
#
#
#
# Elastic Constant Matrix: (Units=GPa)
#
#
# Indices 1 2 3 4 5 6 
#
# 1 93.8388 48.3997 35.2721 0.0000 0.0000 0.0000
# 2 48.3997 93.8367 35.2719 0.0000 0.0000 0.0000
# 3 35.2721 35.2719 55.2569 0.0000 0.0000 0.0000
# 4 0.0000 0.0000 0.0000 22.5738 0.0000 0.0000
# 5 0.0000 0.0000 0.0000 0.0000 22.5738 0.0000
# 6 0.0000 0.0000 0.0000 0.0000 0.0000 25.7827
#
#
#
# Elastic Compliance Matrix: (Units=1/GPa)
#
#
# Indices 1 2 3 4 5 6 
#
# 1 0.016147 -0.005860 -0.006567 0.000000 0.000000 0.000000
# 2 -0.005860 0.016148 -0.006567 0.000000 0.000000 0.000000
# 3 -0.006567 -0.006567 0.026481 0.000000 0.000000 0.000000
# 4 0.000000 0.000000 0.000000 0.044299 0.000000 0.000000
# 5 0.000000 0.000000 0.000000 0.000000 0.044299 0.000000
# 6 0.000000 0.000000 0.000000 0.000000 0.000000 0.038786
#
#
# Mechanical properties :
#
#
# Convention : Reuss Voigt Hill
#
# Bulk Modulus (GPa) = 48.10332 53.42443 50.76388
# Shear Modulus (GPa) = 21.63781 22.45196 22.04489
#
# Velocity S-wave (km/s) = 3.68180 3.75043 3.71627
# Velocity P-wave (km/s) = 6.94335 7.22660 7.08639
#
# Compressibility (1/GPa) = 0.02078858
#
# Stress axis : x y z
#
# Youngs Moduli (GPa) = 61.92930 61.92773 37.76336
#
# Poissons Ratio (x) = 0.36292 0.24798
# Poissons Ratio (y) = 0.36293 0.24798
# Poissons Ratio (z) = 0.40666 0.40667
#
# Static dielectric constant tensor:
#      x y z
#    x 3.138190 0.000000 0.000000 
#    y 0.000000 3.138190 0.000000 
#    z 0.000000 0.000000 2.856410 
# 
# 
# High freq. dielectric constant tensor:
#      x y z
#    x 1.616260 0.000000 0.000000 
#    y 0.000000 1.616260 0.000000 
#    z 0.000000 0.000000 1.592500 
# 
# From -- ./inp_files/3495.got.cif
#   From: 2010.03.12/outbox.cif.g09.slc.cpg/sg123_2_cif.got.tgz:3495.got - 2010.04.06 16:26:55.
