data_PCOD8312621
_publ_section_title
;
Structure prediction by ZEFSAII (Michael W. Deem and Ramdas Pophale) SiO2 
 PCOD8312621
Probable space group: P 4/M M M
;
_chemical_formula_sum "Si O2"
_cell_formula_units_Z 72
_cell_length_a 19.290675
_cell_length_b 19.290675
_cell_length_c 10.587872
_cell_angle_alpha 90.000000
_cell_angle_beta 90.000000
_cell_angle_gamma 90.000000
_cell_volume 3940.066310
_symmetry_space_group_name_H-M "P 4/M M M"
_symmetry_group_IT_number 123
_symmetry_cell_setting 'tetragonal'
loop_
_space_group_symop_operation_xyz
x,y,z
-y,x,z
-x,-y,z
y,-x,z
x,-y,-z
-x,y,-z
y,x,-z
-y,-x,-z
-x,-y,-z
y,-x,-z
x,y,-z
-y,x,-z
-x,y,z
x,-y,z
-y,-x,z
y,x,z
loop_
_atom_site_type_symbol
_atom_site_label
_atom_site_fract_x
_atom_site_fract_y
_atom_site_fract_z
Si Si1 0.921975 0.193359 0.500000
Si Si2 0.284636 0.500000 0.636484
Si Si3 0.249766 0.363034 0.258761
Si Si4 0.079454 0.312750 0.000000
Si Si5 0.796911 0.581976 0.000000
Si Si6 0.750262 0.863317 0.750127
Si Si7 0.500000 0.386481 0.134480
O O1 0.872451 0.127550 0.500000
O O2 0.910659 0.238424 0.626822
O O3 0.000000 0.165601 0.500000
O O4 0.320926 0.500000 0.500000
O O5 0.240768 0.571094 0.648073
O O6 0.339872 0.500000 0.745195
O O7 0.322167 0.322167 0.280125
O O8 0.248667 0.393237 0.117701
O O9 0.185813 0.313416 0.286372
O O10 0.092257 0.266359 0.874913
O O11 0.128185 0.380292 0.000000
O O12 0.000000 0.337857 0.000000
O O13 0.811239 0.500000 0.000000
O O14 0.818039 0.818039 0.781676
O O15 0.568045 0.431956 0.139568
O O16 0.500000 0.344320 0.000000
#
# Coordination Sequence:
#
# PCOD8312621 Si02
#       7
#     8   8  16   8   8  16   8
#     4  10  20  35  58  87 117 149 180 214 258 308
#     4  12  25  35  49  76 105 133 169 225 288 335
#     4  10  21  36  55  77 103 138 182 228 276 326
#     4  10  19  32  55  83 111 142 176 219 270 324
#     4  10  19  36  55  78 105 134 176 227 276 324
#     4   9  19  35  56  80 110 145 185 226 261 307
#     4   9  20  38  54  68  92 129 171 213 265 339
#
# _framework density 18.273803999999998
#
# number of rings (size 3 to 8) (size 9 to 14) (size 15 to 20)
#    0.000    2.111    1.111    2.333    3.111    4.778 
#    0.000    0.556    0.000    0.000    0.000    0.778 
#    0.000    8.000    0.000    0.000    0.000    0.000 
#
# Total GULP energy -892522.379403 kJ/mol
# GULP energy per Si atom -12396.144158 kJ/mol
# Density = 1.823221 g / cm^3
# Si number density = 18.273804 Si / 1000 Ang^3
#
#
#
# Elastic Constant Matrix: (Units=GPa)
#
#
# Indices 1 2 3 4 5 6 
#
# 1 90.5557 25.2094 43.5759 0.0000 0.0000 0.0000
# 2 25.2094 90.5543 43.5756 0.0000 0.0000 0.0000
# 3 43.5759 43.5756 143.0679 0.0000 0.0000 0.0000
# 4 0.0000 0.0000 0.0000 13.4860 0.0000 0.0000
# 5 0.0000 0.0000 0.0000 0.0000 13.4859 0.0000
# 6 0.0000 0.0000 0.0000 0.0000 0.0000 9.8843
#
#
#
# Elastic Compliance Matrix: (Units=1/GPa)
#
#
# Indices 1 2 3 4 5 6 
#
# 1 0.013256 -0.002047 -0.003414 0.000000 0.000000 0.000000
# 2 -0.002047 0.013256 -0.003414 0.000000 0.000000 0.000000
# 3 -0.003414 -0.003414 0.009069 0.000000 0.000000 0.000000
# 4 0.000000 0.000000 0.000000 0.074151 0.000000 0.000000
# 5 0.000000 0.000000 0.000000 0.000000 0.074152 0.000000
# 6 0.000000 0.000000 0.000000 0.000000 0.000000 0.101170
#
#
# Mechanical properties :
#
#
# Convention : Reuss Voigt Hill
#
# Bulk Modulus (GPa) = 56.08362 60.98885 58.53623
# Shear Modulus (GPa) = 16.19447 21.49238 18.84343
#
# Velocity S-wave (km/s) = 2.98016 3.43320 3.21467
# Velocity P-wave (km/s) = 6.52680 7.01165 6.77357
#
# Compressibility (1/GPa) = 0.01783052
#
# Stress axis : x y z
#
# Youngs Moduli (GPa) = 75.43948 75.43829 110.26257
#
# Poissons Ratio (x) = 0.15446 0.37642
# Poissons Ratio (y) = 0.15446 0.37642
# Poissons Ratio (z) = 0.25754 0.25753
#
# Static dielectric constant tensor:
#      x y z
#    x 3.437170 0.000000 0.000000 
#    y 0.000000 3.437170 0.000000 
#    z 0.000000 0.000000 3.506930 
# 
# 
# High freq. dielectric constant tensor:
#      x y z
#    x 1.699840 0.000000 0.000000 
#    y 0.000000 1.699840 0.000000 
#    z 0.000000 0.000000 1.720510 
# 
# From -- ./inp_files/1233.got.cif
#   From: 2010.03.12/outbox.cif.g09.slc.cpg/sg123_1_cif.got.tgz:1233.got - 2010.04.06 16:26:55.
