data_PCOD8312835
_publ_section_title
;
Structure prediction by ZEFSAII (Michael W. Deem and Ramdas Pophale) SiO2 
 PCOD8312835
Probable space group: P 4/M M M
;
_chemical_formula_sum "Si O2"
_cell_formula_units_Z 92
_cell_length_a 24.395935
_cell_length_b 24.395935
_cell_length_c 8.295549
_cell_angle_alpha 90.000000
_cell_angle_beta 90.000000
_cell_angle_gamma 90.000000
_cell_volume 4937.192585
_symmetry_space_group_name_H-M "P 4/M M M"
_symmetry_group_IT_number 123
_symmetry_cell_setting 'tetragonal'
loop_
_space_group_symop_operation_xyz
x,y,z
-y,x,z
-x,-y,z
y,-x,z
x,-y,-z
-x,y,-z
y,x,-z
-y,-x,-z
-x,-y,-z
y,-x,-z
x,y,-z
-y,x,-z
-x,y,z
x,-y,z
-y,-x,z
y,x,z
loop_
_atom_site_type_symbol
_atom_site_label
_atom_site_fract_x
_atom_site_fract_y
_atom_site_fract_z
Si Si1 0.278035 0.436147 0.812938
Si Si2 0.561780 0.837160 0.314371
Si Si3 0.563482 0.563482 0.000000
Si Si4 0.935483 0.259902 0.678231
Si Si5 0.382689 0.382689 0.686531
Si Si6 0.852596 0.938597 0.809147
Si Si7 0.937527 0.626774 0.184918
O O1 0.284087 0.500000 0.758854
O O2 0.215499 0.415657 0.784051
O O3 0.318418 0.397102 0.709982
O O4 0.293312 0.429522 0.000000
O O5 0.566298 0.821203 0.500000
O O6 0.500000 0.848454 0.259547
O O7 0.592603 0.893941 0.285032
O O8 0.500000 0.577583 0.000000
O O9 0.585635 0.585635 0.829087
O O10 0.911844 0.272016 0.500000
O O11 0.910751 0.203558 0.746648
O O12 0.920688 0.309795 0.795963
O O13 0.000000 0.252109 0.672319
O O14 0.398794 0.398794 0.500000
O O15 0.902722 0.902722 0.742691
O O16 0.860947 0.000000 0.742078
O O17 0.850672 0.938887 0.000000
O O18 0.000000 0.616625 0.249277
O O19 0.933583 0.609596 0.000000
#
# Coordination Sequence:
#
# PCOD8312835 Si02
#       7
#    16  16   4  16   8  16  16
#     4  10  20  37  60  84 113 150 193 237 281 333
#     4  10  21  36  55  82 114 147 184 225 271 326
#     4  11  24  40  56  84 124 156 190 242 298 346
#     4   9  17  30  49  71  95 127 168 212 258 312
#     4  12  23  37  61  88 116 154 200 244 288 344
#     4   9  17  29  46  69  98 131 168 209 254 308
#     4  10  20  34  54  79 107 141 180 222 272 329
#
# _framework density 18.634070000000001
#
# number of rings (size 3 to 8) (size 9 to 14) (size 15 to 20)
#    0.000    2.130    0.870    2.609    0.000    7.130 
#    0.000    3.043    1.913    0.000    0.000    2.435 
#    0.000    0.000    0.000    0.000    0.000    0.000 
#
# Total GULP energy -1140361.147321 kJ/mol
# GULP energy per Si atom -12395.229862 kJ/mol
# Density = 1.859166 g / cm^3
# Si number density = 18.634070 Si / 1000 Ang^3
#
#
#
# Elastic Constant Matrix: (Units=GPa)
#
#
# Indices 1 2 3 4 5 6 
#
# 1 103.0604 53.5930 27.7607 0.0000 0.0000 0.0000
# 2 53.5930 103.0604 27.7607 0.0000 0.0000 0.0000
# 3 27.7607 27.7607 70.0262 0.0000 0.0000 0.0000
# 4 0.0000 0.0000 0.0000 25.9546 0.0000 0.0000
# 5 0.0000 0.0000 0.0000 0.0000 25.9546 0.0000
# 6 0.0000 0.0000 0.0000 0.0000 0.0000 20.2754
#
#
#
# Elastic Compliance Matrix: (Units=1/GPa)
#
#
# Indices 1 2 3 4 5 6 
#
# 1 0.013821 -0.006394 -0.002944 0.000000 0.000000 0.000000
# 2 -0.006394 0.013821 -0.002944 0.000000 0.000000 0.000000
# 3 -0.002944 -0.002944 0.016615 0.000000 0.000000 0.000000
# 4 0.000000 0.000000 0.000000 0.038529 0.000000 0.000000
# 5 0.000000 0.000000 0.000000 0.000000 0.038529 0.000000
# 6 0.000000 0.000000 0.000000 0.000000 0.000000 0.049321
#
#
# Mechanical properties :
#
#
# Convention : Reuss Voigt Hill
#
# Bulk Modulus (GPa) = 50.78301 54.93063 52.85682
# Shear Modulus (GPa) = 24.78130 25.57244 25.17687
#
# Velocity S-wave (km/s) = 3.65072 3.70854 3.67975
# Velocity P-wave (km/s) = 6.71434 6.91956 6.81772
#
# Compressibility (1/GPa) = 0.01969163
#
# Stress axis : x y z
#
# Youngs Moduli (GPa) = 72.35270 72.35270 60.18716
#
# Poissons Ratio (x) = 0.46263 0.17721
# Poissons Ratio (y) = 0.46263 0.17721
# Poissons Ratio (z) = 0.21303 0.21303
#
# Static dielectric constant tensor:
#      x y z
#    x 3.458580 0.000000 0.000000 
#    y 0.000000 3.458580 0.000000 
#    z 0.000000 0.000000 3.458960 
# 
# 
# High freq. dielectric constant tensor:
#      x y z
#    x 1.709880 0.000000 0.000000 
#    y 0.000000 1.709880 0.000000 
#    z 0.000000 0.000000 1.728980 
# 
# From -- ./inp_files/1670.got.cif
#   From: 2010.03.12/outbox.cif.g09.slc.cpg/sg123_1_cif.got.tgz:1670.got - 2010.04.06 16:26:55.
