data_PCOD8312596
_publ_section_title
;
Structure prediction by ZEFSAII (Michael W. Deem and Ramdas Pophale) SiO2 
 PCOD8312596
Probable space group: P 4/M M M
;
_chemical_formula_sum "Si O2"
_cell_formula_units_Z 120
_cell_length_a 18.322056
_cell_length_b 18.322056
_cell_length_c 21.058761
_cell_angle_alpha 90.000000
_cell_angle_beta 90.000000
_cell_angle_gamma 90.000000
_cell_volume 7069.378392
_symmetry_space_group_name_H-M "P 4/M M M"
_symmetry_group_IT_number 123
_symmetry_cell_setting 'tetragonal'
loop_
_space_group_symop_operation_xyz
x,y,z
-y,x,z
-x,-y,z
y,-x,z
x,-y,-z
-x,y,-z
y,x,-z
-y,-x,-z
-x,-y,-z
y,-x,-z
x,y,-z
-y,x,-z
-x,y,z
x,-y,z
-y,-x,z
y,x,z
loop_
_atom_site_type_symbol
_atom_site_label
_atom_site_fract_x
_atom_site_fract_y
_atom_site_fract_z
Si Si1 0.810419 0.306357 0.929967
Si Si2 0.847464 0.416847 0.301311
Si Si3 0.582852 0.304096 0.900285
Si Si4 0.080641 0.805249 0.257664
Si Si5 0.207901 0.087256 0.500000
Si Si6 0.847470 0.730479 0.625076
Si Si7 0.917892 0.339743 0.817960
Si Si8 0.693770 0.578936 0.244530
O O1 0.766181 0.233819 0.905517
O O2 0.753078 0.371506 0.940857
O O3 0.871077 0.336699 0.882059
O O4 0.844693 0.290680 0.000000
O O5 0.873351 0.500000 0.320976
O O6 0.855607 0.355810 0.356839
O O7 0.887833 0.394244 0.236153
O O8 0.761993 0.418480 0.290204
O O9 0.500000 0.303126 0.923382
O O10 0.614143 0.385858 0.910066
O O11 0.593909 0.280406 0.827073
O O12 0.129968 0.870033 0.230724
O O13 0.108222 0.777136 0.324635
O O14 0.082505 0.742094 0.206431
O O15 0.000000 0.836667 0.267080
O O16 0.129844 0.129844 0.500000
O O17 0.257464 0.111475 0.440888
O O18 0.193577 0.000000 0.500000
O O19 0.763801 0.763801 0.622873
O O20 0.000000 0.365335 0.834657
O O21 0.655166 0.500000 0.247535
O O22 0.637873 0.637873 0.270717
#
# Coordination Sequence:
#
# PCOD8312596 Si02
#       8
#    16  16  16  16   8  16  16  16
#     4  10  20  33  50  69  89 118 155 193 236 288
#     4  10  19  32  51  73  96 126 168 211 246 287
#     4   9  17  29  45  66  91 118 148 182 223 271
#     4   9  17  29  47  71  96 123 152 184 228 280
#     4  10  20  35  55  79 107 137 168 200 240 290
#     4   9  18  32  51  73 100 134 167 201 240 285
#     4  10  20  33  49  68  91 118 151 196 245 290
#     4   9  16  26  44  69  96 125 155 191 236 284
#
# _framework density 16.974616999999999
#
# number of rings (size 3 to 8) (size 9 to 14) (size 15 to 20)
#    0.000    2.533    1.333    1.200    0.000    2.867 
#    0.000    1.667    0.000    2.800    0.000    3.733 
#    0.000    0.000    0.000   12.400    0.000   40.000 
#
# Total GULP energy -1486796.847052 kJ/mol
# GULP energy per Si atom -12389.973725 kJ/mol
# Density = 1.693598 g / cm^3
# Si number density = 16.974617 Si / 1000 Ang^3
#
#
#
# Elastic Constant Matrix: (Units=GPa)
#
#
# Indices 1 2 3 4 5 6 
#
# 1 99.6054 44.8404 32.5525 0.0000 0.0000 0.0000
# 2 44.8404 99.6054 32.5525 0.0000 0.0000 0.0000
# 3 32.5525 32.5525 73.8616 0.0000 0.0000 0.0000
# 4 0.0000 0.0000 0.0000 10.7713 0.0000 0.0000
# 5 0.0000 0.0000 0.0000 0.0000 10.7713 0.0000
# 6 0.0000 0.0000 0.0000 0.0000 0.0000 17.9561
#
#
#
# Elastic Compliance Matrix: (Units=1/GPa)
#
#
# Indices 1 2 3 4 5 6 
#
# 1 0.013449 -0.004810 -0.003807 0.000000 0.000000 0.000000
# 2 -0.004810 0.013449 -0.003807 0.000000 0.000000 0.000000
# 3 -0.003807 -0.003807 0.016895 0.000000 0.000000 0.000000
# 4 0.000000 0.000000 0.000000 0.092839 0.000000 0.000000
# 5 0.000000 0.000000 0.000000 0.000000 0.092839 0.000000
# 6 0.000000 0.000000 0.000000 0.000000 0.000000 0.055691
#
#
# Mechanical properties :
#
#
# Convention : Reuss Voigt Hill
#
# Bulk Modulus (GPa) = 52.78909 54.77369 53.78139
# Shear Modulus (GPa) = 15.80637 18.77488 17.29063
#
# Velocity S-wave (km/s) = 3.05483 3.32935 3.19504
# Velocity P-wave (km/s) = 6.60371 6.86422 6.73522
#
# Compressibility (1/GPa) = 0.01894331
#
# Stress axis : x y z
#
# Youngs Moduli (GPa) = 74.35230 74.35230 59.18942
#
# Poissons Ratio (x) = 0.35766 0.22536
# Poissons Ratio (y) = 0.35766 0.22536
# Poissons Ratio (z) = 0.28309 0.28309
#
# Static dielectric constant tensor:
#      x y z
#    x 3.288170 0.000000 0.000000 
#    y 0.000000 3.288170 0.000000 
#    z 0.000000 0.000000 2.989120 
# 
# 
# High freq. dielectric constant tensor:
#      x y z
#    x 1.650500 0.000000 0.000000 
#    y 0.000000 1.650500 0.000000 
#    z 0.000000 0.000000 1.633650 
# 
# From -- ./inp_files/6773.got.cif
#   From: 2010.03.12/outbox.cif.g09.slc.cpg/sg123_4_cif.got.tgz:6773.got - 2010.04.06 16:26:55.
