data_PCOD8312936
_publ_section_title
;
Structure prediction by ZEFSAII (Michael W. Deem and Ramdas Pophale) SiO2 
 PCOD8312936
Probable space group: P 4/M M M
;
_chemical_formula_sum "Si O2"
_cell_formula_units_Z 96
_cell_length_a 23.952657
_cell_length_b 23.952657
_cell_length_c 9.086983
_cell_angle_alpha 90.000000
_cell_angle_beta 90.000000
_cell_angle_gamma 90.000000
_cell_volume 5213.472733
_symmetry_space_group_name_H-M "P 4/M M M"
_symmetry_group_IT_number 123
_symmetry_cell_setting 'tetragonal'
loop_
_space_group_symop_operation_xyz
x,y,z
-y,x,z
-x,-y,z
y,-x,z
x,-y,-z
-x,y,-z
y,x,-z
-y,-x,-z
-x,-y,-z
y,-x,-z
x,y,-z
-y,x,-z
-x,y,z
x,-y,z
-y,-x,z
y,x,z
loop_
_atom_site_type_symbol
_atom_site_label
_atom_site_fract_x
_atom_site_fract_y
_atom_site_fract_z
Si Si1 0.437787 0.934116 0.334123
Si Si2 0.855419 0.235997 0.326796
Si Si3 0.437386 0.349509 0.673412
Si Si4 0.935827 0.845643 0.170838
Si Si5 0.645183 0.859799 0.826809
Si Si6 0.563299 0.239073 0.171350
O O1 0.427823 0.911752 0.500000
O O2 0.500000 0.915089 0.279771
O O3 0.388015 0.914045 0.228394
O O4 0.434852 0.000000 0.332733
O O5 0.863124 0.243767 0.500000
O O6 0.799941 0.200060 0.289626
O O7 0.909861 0.204635 0.264839
O O8 0.850571 0.296038 0.252054
O O9 0.433739 0.342789 0.500000
O O10 0.500000 0.361812 0.726909
O O11 0.400437 0.400437 0.731248
O O12 0.414509 0.293086 0.744176
O O13 0.903340 0.903340 0.203911
O O14 0.000000 0.854203 0.217883
O O15 0.930722 0.829242 0.000000
O O16 0.604812 0.809471 0.782182
O O17 0.655774 0.864640 0.000000
O O18 0.500000 0.223525 0.219372
O O19 0.566116 0.251824 0.000000
#
# Coordination Sequence:
#
# PCOD8312936 Si02
#       6
#    16  16  16  16  16  16
#     4   9  19  36  56  79 109 142 174 212 259 308
#     4  10  22  39  56  75 103 140 180 221 264 309
#     4   9  18  32  50  73 100 130 165 205 250 301
#     4   9  18  34  57  84 113 143 174 211 256 305
#     4  11  22  35  55  80 104 135 176 218 262 315
#     4   9  19  35  52  72 100 131 164 206 255 305
#
# _framework density 18.413830999999998
#
# number of rings (size 3 to 8) (size 9 to 14) (size 15 to 20)
#    0.000    2.500    0.000    2.000    0.000    6.000 
#    0.000    7.500    0.000    0.000    0.000    4.667 
#    0.000    0.000    0.000    0.000    0.000    0.000 
#
# Total GULP energy -1190371.822079 kJ/mol
# GULP energy per Si atom -12399.706480 kJ/mol
# Density = 1.837192 g / cm^3
# Si number density = 18.413831 Si / 1000 Ang^3
#
#
#
# Elastic Constant Matrix: (Units=GPa)
#
#
# Indices 1 2 3 4 5 6 
#
# 1 121.6673 62.5720 52.5282 0.0000 0.0000 0.0000
# 2 62.5720 121.6673 52.5282 0.0000 0.0000 0.0000
# 3 52.5282 52.5282 67.6322 0.0000 0.0000 0.0000
# 4 0.0000 0.0000 0.0000 29.0528 0.0000 0.0000
# 5 0.0000 0.0000 0.0000 0.0000 29.0528 0.0000
# 6 0.0000 0.0000 0.0000 0.0000 0.0000 -50.6079
#
#
#
# Elastic Compliance Matrix: (Units=1/GPa)
#
#
# Indices 1 2 3 4 5 6 
#
# 1 0.013332 -0.003590 -0.007567 0.000000 0.000000 0.000000
# 2 -0.003590 0.013332 -0.007567 0.000000 0.000000 0.000000
# 3 -0.007567 -0.007567 0.026539 0.000000 0.000000 0.000000
# 4 0.000000 0.000000 0.000000 0.034420 0.000000 0.000000
# 5 0.000000 0.000000 0.000000 0.000000 0.034420 0.000000
# 6 0.000000 0.000000 0.000000 0.000000 0.000000 -0.019760
#
#
# Mechanical properties :
#
#
# Convention : Reuss Voigt Hill
#
# Bulk Modulus (GPa) = 63.46125 71.80260 67.63192
# Shear Modulus (GPa) = 34.48692 11.05545 22.77118
#
# Velocity S-wave (km/s) = 4.33237 2.45294 3.52040
# Velocity P-wave (km/s) = 7.71782 6.86302 7.30294
#
# Compressibility (1/GPa) = 0.01575765
#
# Stress axis : x y z
#
# Youngs Moduli (GPa) = 75.00701 75.00701 37.67972
#
# Poissons Ratio (x) = 0.26926 0.28511
# Poissons Ratio (y) = 0.26926 0.28511
# Poissons Ratio (z) = 0.56755 0.56755
#
# Static dielectric constant tensor:
#      x y z
#    x 3.480050 0.000000 0.000000 
#    y 0.000000 3.480050 0.000000 
#    z 0.000000 0.000000 3.399350 
# 
# 
# High freq. dielectric constant tensor:
#      x y z
#    x 1.715740 0.000000 0.000000 
#    y 0.000000 1.715740 0.000000 
#    z 0.000000 0.000000 1.713000 
# 
# From -- ./inp_files/1566.got.cif
#   From: 2010.03.12/outbox.cif.g09.slc.cpg/sg123_1_cif.got.tgz:1566.got - 2010.04.06 16:26:55.
