data_PCOD8312514
_publ_section_title
;
Structure prediction by ZEFSAII (Michael W. Deem and Ramdas Pophale) SiO2 
 PCOD8312514
Probable space group: P 4/M M M
;
_chemical_formula_sum "Si O2"
_cell_formula_units_Z 44
_cell_length_a 19.148611
_cell_length_b 19.148611
_cell_length_c 8.153789
_cell_angle_alpha 90.000000
_cell_angle_beta 90.000000
_cell_angle_gamma 90.000000
_cell_volume 2989.744131
_symmetry_space_group_name_H-M "P 4/M M M"
_symmetry_group_IT_number 123
_symmetry_cell_setting 'tetragonal'
loop_
_space_group_symop_operation_xyz
x,y,z
-y,x,z
-x,-y,z
y,-x,z
x,-y,-z
-x,y,-z
y,x,-z
-y,-x,-z
-x,-y,-z
y,-x,-z
x,y,-z
-y,x,-z
-x,y,z
x,-y,z
-y,-x,z
y,x,z
loop_
_atom_site_type_symbol
_atom_site_label
_atom_site_fract_x
_atom_site_fract_y
_atom_site_fract_z
Si Si1 0.424445 0.917264 0.814899
Si Si2 0.720681 0.080739 0.312185
Si Si3 0.148394 0.851607 0.815499
Si Si4 0.080386 0.919615 0.500000
O O1 0.500000 0.888962 0.748866
O O2 0.359106 0.891895 0.705723
O O3 0.427088 0.000000 0.810831
O O4 0.412783 0.890739 0.000000
O O5 0.744340 0.087361 0.500000
O O6 0.769510 0.131074 0.203752
O O7 0.727563 0.000000 0.252984
O O8 0.108500 0.891501 0.671966
O O9 0.125456 0.874545 0.000000
O O10 0.000000 0.901201 0.500000
#
# Coordination Sequence:
#
# PCOD8312514 Si02
#       4
#    16  16   8   4
#     4   8  14  25  41  62  86 109 135 167 204 252
#     4  10  19  31  46  63  85 110 140 180 220 261
#     4  12  23  35  51  66  84 112 144 181 229 275
#     4  11  24  40  52  64  82 102 138 190 234 275
#
# _framework density 14.716979
#
# number of rings (size 3 to 8) (size 9 to 14) (size 15 to 20)
#    0.000    2.273    1.818    3.273    0.000    5.091 
#    0.000    4.545    0.000    0.000    0.000    0.000 
#    0.000    0.000    0.000    0.000    0.000    0.909 
#
# Total GULP energy -545130.427734 kJ/mol
# GULP energy per Si atom -12389.327903 kJ/mol
# Density = 1.468348 g / cm^3
# Si number density = 14.716979 Si / 1000 Ang^3
#
#
#
# Elastic Constant Matrix: (Units=GPa)
#
#
# Indices 1 2 3 4 5 6 
#
# 1 82.3980 32.9178 31.4877 0.0000 0.0000 0.0000
# 2 32.9178 82.3978 31.4875 0.0000 0.0000 0.0000
# 3 31.4877 31.4875 83.5696 0.0000 0.0000 0.0000
# 4 0.0000 0.0000 0.0000 18.9925 0.0000 0.0000
# 5 0.0000 0.0000 0.0000 0.0000 18.9932 0.0000
# 6 0.0000 0.0000 0.0000 0.0000 0.0000 7.4641
#
#
#
# Elastic Compliance Matrix: (Units=1/GPa)
#
#
# Indices 1 2 3 4 5 6 
#
# 1 0.015564 -0.004646 -0.004114 0.000000 0.000000 0.000000
# 2 -0.004646 0.015564 -0.004114 0.000000 0.000000 0.000000
# 3 -0.004114 -0.004114 0.015066 0.000000 0.000000 0.000000
# 4 0.000000 0.000000 0.000000 0.052652 0.000000 0.000000
# 5 0.000000 0.000000 0.000000 0.000000 0.052650 0.000000
# 6 0.000000 0.000000 0.000000 0.000000 0.000000 0.133974
#
#
# Mechanical properties :
#
#
# Convention : Reuss Voigt Hill
#
# Bulk Modulus (GPa) = 48.90561 48.90571 48.90566
# Shear Modulus (GPa) = 15.72157 19.25481 17.48819
#
# Velocity S-wave (km/s) = 3.27197 3.62102 3.45091
# Velocity P-wave (km/s) = 6.89763 7.12638 7.01294
#
# Compressibility (1/GPa) = 0.02044755
#
# Stress axis : x y z
#
# Youngs Moduli (GPa) = 64.24955 64.24953 66.37389
#
# Poissons Ratio (x) = 0.29849 0.27306
# Poissons Ratio (y) = 0.29849 0.27305
# Poissons Ratio (z) = 0.26432 0.26431
#
# Static dielectric constant tensor:
#      x y z
#    x 3.007610 0.000000 0.000000 
#    y 0.000000 3.007600 0.000000 
#    z 0.000000 0.000000 2.898730 
# 
# 
# High freq. dielectric constant tensor:
#      x y z
#    x 1.532300 0.000000 0.000000 
#    y 0.000000 1.532300 0.000000 
#    z 0.000000 0.000000 1.570900 
# 
# From -- ./inp_files/484.got.cif
#   From: 2010.03.12/outbox.cif.g09.slc.cpg/sg123_1_cif.got.tgz:484.got - 2010.04.06 16:26:55.
