data_PCOD8312195
_publ_section_title
;
Structure prediction by ZEFSAII (Michael W. Deem and Ramdas Pophale) SiO2 
 PCOD8312195
Probable space group: P 4/M M M
;
_chemical_formula_sum "Si O2"
_cell_formula_units_Z 80
_cell_length_a 22.877791
_cell_length_b 22.877791
_cell_length_c 8.892138
_cell_angle_alpha 90.000000
_cell_angle_beta 90.000000
_cell_angle_gamma 90.000000
_cell_volume 4654.085639
_symmetry_space_group_name_H-M "P 4/M M M"
_symmetry_group_IT_number 123
_symmetry_cell_setting 'tetragonal'
loop_
_space_group_symop_operation_xyz
x,y,z
-y,x,z
-x,-y,z
y,-x,z
x,-y,-z
-x,y,-z
y,x,-z
-y,-x,-z
-x,-y,-z
y,-x,-z
x,y,-z
-y,x,-z
-x,y,z
x,-y,z
-y,-x,z
y,x,z
loop_
_atom_site_type_symbol
_atom_site_label
_atom_site_fract_x
_atom_site_fract_y
_atom_site_fract_z
Si Si1 0.500000 0.286700 0.324066
Si Si2 0.934180 0.720063 0.178742
Si Si3 0.626333 0.155065 0.173599
Si Si4 0.618285 0.712675 0.821991
Si Si5 0.839866 0.066448 0.675522
Si Si6 0.500000 0.833949 0.171886
O O1 0.500000 0.299489 0.500000
O O2 0.559136 0.313451 0.251832
O O3 0.500000 0.218025 0.290542
O O4 0.890317 0.671451 0.249630
O O5 0.912360 0.782778 0.235565
O O6 0.000000 0.707351 0.237757
O O7 0.933249 0.719351 0.000000
O O8 0.630979 0.221234 0.238074
O O9 0.559977 0.129782 0.196804
O O10 0.643101 0.158007 0.000000
O O11 0.672434 0.672434 0.772508
O O12 0.609256 0.712816 0.000000
O O13 0.826825 0.073326 0.500000
O O14 0.893934 0.106067 0.727606
O O15 0.856140 0.000000 0.717365
O O16 0.500000 0.808480 0.000000
#
# Coordination Sequence:
#
# PCOD8312195 Si02
#       6
#     8  16  16  16  16   8
#     4  10  18  28  44  66  94 121 142 177 229 273
#     4   9  17  29  45  66  93 122 148 176 217 268
#     4   8  14  26  45  67  89 115 149 186 219 253
#     4   9  17  30  48  67  87 116 154 188 217 257
#     4   9  18  32  48  65  85 111 145 183 222 264
#     4   8  14  28  47  62  81 115 156 189 216 253
#
# _framework density 17.189197
#
# number of rings (size 3 to 8) (size 9 to 14) (size 15 to 20)
#    0.000    3.200    0.000    2.100    0.000    1.800 
#    0.000    7.500    0.000    3.300    0.000    4.900 
#    0.000   16.000    0.000    0.000    0.000    0.000 
#
# Total GULP energy -991292.984833 kJ/mol
# GULP energy per Si atom -12391.162310 kJ/mol
# Density = 1.715007 g / cm^3
# Si number density = 17.189197 Si / 1000 Ang^3
#
#
#
# Elastic Constant Matrix: (Units=GPa)
#
#
# Indices 1 2 3 4 5 6 
#
# 1 120.7792 88.0004 21.2729 0.0000 0.0000 0.0000
# 2 88.0004 120.7792 21.2729 0.0000 0.0000 0.0000
# 3 21.2729 21.2729 25.7246 0.0000 0.0000 0.0000
# 4 0.0000 0.0000 0.0000 15.4126 0.0000 0.0000
# 5 0.0000 0.0000 0.0000 0.0000 15.4126 0.0000
# 6 0.0000 0.0000 0.0000 0.0000 0.0000 18.8518
#
#
#
# Elastic Compliance Matrix: (Units=1/GPa)
#
#
# Indices 1 2 3 4 5 6 
#
# 1 0.018134 -0.012374 -0.004764 0.000000 0.000000 0.000000
# 2 -0.012374 0.018134 -0.004764 0.000000 0.000000 0.000000
# 3 -0.004764 -0.004764 0.046752 0.000000 0.000000 0.000000
# 4 0.000000 0.000000 0.000000 0.064882 0.000000 0.000000
# 5 0.000000 0.000000 0.000000 0.000000 0.064882 0.000000
# 6 0.000000 0.000000 0.000000 0.000000 0.000000 0.053045
#
#
# Mechanical properties :
#
#
# Convention : Reuss Voigt Hill
#
# Bulk Modulus (GPa) = 25.49829 58.70838 42.10333
# Shear Modulus (GPa) = 15.49411 19.05119 17.27265
#
# Velocity S-wave (km/s) = 3.00557 3.33276 3.17338
# Velocity P-wave (km/s) = 5.18755 7.00272 6.16234
#
# Compressibility (1/GPa) = 0.03921831
#
# Stress axis : x y z
#
# Youngs Moduli (GPa) = 55.14495 55.14495 21.38954
#
# Poissons Ratio (x) = 0.68234 0.10189
# Poissons Ratio (y) = 0.68234 0.10189
# Poissons Ratio (z) = 0.26269 0.26269
#
# Static dielectric constant tensor:
#      x y z
#    x 3.389060 0.000000 0.000000 
#    y 0.000000 3.389060 0.000000 
#    z 0.000000 0.000000 2.871980 
# 
# 
# High freq. dielectric constant tensor:
#      x y z
#    x 1.656950 0.000000 0.000000 
#    y 0.000000 1.656950 0.000000 
#    z 0.000000 0.000000 1.631720 
# 
# From -- ./inp_files/1453.got.cif
#   From: 2010.03.12/outbox.cif.g09.slc.cpg/sg123_1_cif.got.tgz:1453.got - 2010.04.06 16:26:55.
