data_PCOD8312357
_publ_section_title
;
Structure prediction by ZEFSAII (Michael W. Deem and Ramdas Pophale) SiO2 
 PCOD8312357
Probable space group: P 4/M M M
;
_chemical_formula_sum "Si O2"
_cell_formula_units_Z 80
_cell_length_a 17.139233
_cell_length_b 17.139233
_cell_length_c 18.378440
_cell_angle_alpha 90.000000
_cell_angle_beta 90.000000
_cell_angle_gamma 90.000000
_cell_volume 5398.727543
_symmetry_space_group_name_H-M "P 4/M M M"
_symmetry_group_IT_number 123
_symmetry_cell_setting 'tetragonal'
loop_
_space_group_symop_operation_xyz
x,y,z
-y,x,z
-x,-y,z
y,-x,z
x,-y,-z
-x,y,-z
y,x,-z
-y,-x,-z
-x,-y,-z
y,-x,-z
x,y,-z
-y,x,-z
-x,y,z
x,-y,z
-y,-x,z
y,x,z
loop_
_atom_site_type_symbol
_atom_site_label
_atom_site_fract_x
_atom_site_fract_y
_atom_site_fract_z
Si Si1 0.911533 0.214834 0.076908
Si Si2 0.214505 0.092876 0.500000
Si Si3 0.000000 0.409657 0.419369
Si Si4 0.859785 0.320059 0.367061
Si Si5 0.286570 0.589060 0.415906
Si Si6 0.219366 0.091954 0.764874
O O1 0.864085 0.135916 0.075119
O O2 0.894984 0.257945 0.154089
O O3 0.000000 0.187347 0.077998
O O4 0.894601 0.262515 0.000000
O O5 0.126653 0.126653 0.500000
O O6 0.256316 0.126838 0.428998
O O7 0.209644 0.000000 0.500000
O O8 0.075935 0.387249 0.374253
O O9 0.000000 0.500000 0.432190
O O10 0.000000 0.368391 0.500000
O O11 0.775664 0.360524 0.370880
O O12 0.867679 0.279970 0.289138
O O13 0.260342 0.590341 0.500000
O O14 0.291058 0.500000 0.387321
O O15 0.371516 0.628485 0.406000
O O16 0.135567 0.135567 0.758883
O O17 0.207781 0.000000 0.746498
#
# Coordination Sequence:
#
# PCOD8312357 Si02
#       6
#    16   8   8  16  16  16
#     4   8  14  24  37  55  79 107 142 184 228 271
#     4  12  22  33  46  60  83 119 157 195 229 258
#     4  11  20  32  50  68  87 109 141 188 230 264
#     4  12  19  33  46  66  87 114 151 183 224 266
#     4  10  20  33  50  70  91 116 143 175 218 270
#     4  10  19  29  43  61  85 118 154 193 231 267
#
# _framework density 14.818307000000001
#
# number of rings (size 3 to 8) (size 9 to 14) (size 15 to 20)
#    0.000    1.700    4.000    2.400    0.000    2.300 
#    0.000    4.000    0.000    2.400    0.000    0.000 
#    0.000    4.000    0.000    0.400    0.000    0.600 
#
# Total GULP energy -991085.839934 kJ/mol
# GULP energy per Si atom -12388.572999 kJ/mol
# Density = 1.478458 g / cm^3
# Si number density = 14.818307 Si / 1000 Ang^3
#
#
#
# Elastic Constant Matrix: (Units=GPa)
#
#
# Indices 1 2 3 4 5 6 
#
# 1 73.9493 46.0820 38.0675 0.0000 0.0000 0.0000
# 2 46.0820 73.9493 38.0675 0.0000 0.0000 0.0000
# 3 38.0675 38.0675 124.1495 0.0000 0.0000 0.0000
# 4 0.0000 0.0000 0.0000 9.7979 0.0000 0.0000
# 5 0.0000 0.0000 0.0000 0.0000 9.7979 0.0000
# 6 0.0000 0.0000 0.0000 0.0000 0.0000 15.7947
#
#
#
# Elastic Compliance Matrix: (Units=1/GPa)
#
#
# Indices 1 2 3 4 5 6 
#
# 1 0.023114 -0.012771 -0.003171 0.000000 0.000000 0.000000
# 2 -0.012771 0.023114 -0.003171 0.000000 0.000000 0.000000
# 3 -0.003171 -0.003171 0.010000 0.000000 0.000000 0.000000
# 4 0.000000 0.000000 0.000000 0.102062 0.000000 0.000000
# 5 0.000000 0.000000 0.000000 0.000000 0.102062 0.000000
# 6 0.000000 0.000000 0.000000 0.000000 0.000000 0.063312
#
#
# Mechanical properties :
#
#
# Convention : Reuss Voigt Hill
#
# Bulk Modulus (GPa) = 55.55651 57.38691 56.47171
# Shear Modulus (GPa) = 13.59099 17.06685 15.32892
#
# Velocity S-wave (km/s) = 3.03178 3.39741 3.21979
# Velocity P-wave (km/s) = 7.05895 7.36213 7.21213
#
# Compressibility (1/GPa) = 0.01799969
#
# Stress axis : x y z
#
# Youngs Moduli (GPa) = 43.26472 43.26472 100.00355
#
# Poissons Ratio (x) = 0.55252 0.31715
# Poissons Ratio (y) = 0.55252 0.31715
# Poissons Ratio (z) = 0.13721 0.13721
#
# Static dielectric constant tensor:
#      x y z
#    x 2.782960 0.000000 0.000000 
#    y 0.000000 2.782960 0.000000 
#    z 0.000000 0.000000 3.248720 
# 
# 
# High freq. dielectric constant tensor:
#      x y z
#    x 1.551830 0.000000 0.000000 
#    y 0.000000 1.551830 0.000000 
#    z 0.000000 0.000000 1.559120 
# 
# From -- ./inp_files/5405.got.cif
#   From: 2010.03.12/outbox.cif.g09.slc.cpg/sg123_3_cif.got.tgz:5405.got - 2010.04.06 16:26:55.
