data_PCOD8312928
_publ_section_title
;
Structure prediction by ZEFSAII (Michael W. Deem and Ramdas Pophale) SiO2 
 PCOD8312928
Probable space group: P 4/M M M
;
_chemical_formula_sum "Si O2"
_cell_formula_units_Z 72
_cell_length_a 20.546721
_cell_length_b 20.546721
_cell_length_c 8.028382
_cell_angle_alpha 90.000000
_cell_angle_beta 90.000000
_cell_angle_gamma 90.000000
_cell_volume 3389.323916
_symmetry_space_group_name_H-M "P 4/M M M"
_symmetry_group_IT_number 123
_symmetry_cell_setting 'tetragonal'
loop_
_space_group_symop_operation_xyz
x,y,z
-y,x,z
-x,-y,z
y,-x,z
x,-y,-z
-x,y,-z
y,x,-z
-y,-x,-z
-x,-y,-z
y,-x,-z
x,y,-z
-y,x,-z
-x,y,z
x,-y,z
-y,-x,z
y,x,z
loop_
_atom_site_type_symbol
_atom_site_label
_atom_site_fract_x
_atom_site_fract_y
_atom_site_fract_z
Si Si1 0.146297 0.693712 0.810975
Si Si2 0.267085 0.371102 0.319906
Si Si3 0.178102 0.073560 0.198193
Si Si4 0.682526 0.427502 0.000000
Si Si5 0.076034 0.427946 0.690607
O O1 0.211752 0.683444 0.706678
O O2 0.105107 0.754213 0.736289
O O3 0.106043 0.626620 0.808481
O O4 0.165689 0.710038 0.000000
O O5 0.254587 0.406439 0.500000
O O6 0.335900 0.335900 0.331287
O O7 0.271162 0.420115 0.163224
O O8 0.117206 0.117206 0.261014
O O9 0.171352 0.000000 0.269881
O O10 0.179272 0.070876 0.000000
O O11 0.652962 0.500000 0.000000
O O12 0.623686 0.376315 0.000000
O O13 0.093230 0.410875 0.500000
O O14 0.103680 0.500000 0.735247
O O15 0.000000 0.428123 0.720349
#
# Coordination Sequence:
#
# PCOD8312928 Si02
#       5
#    16  16  16   8  16
#     4  11  20  32  53  81 114 151 195 245 298 364
#     4  10  21  38  60  86 118 156 196 242 297 353
#     4   9  18  31  49  76 110 151 200 255 314 375
#     4  10  22  41  64  92 125 161 202 248 300 356
#     4   9  19  35  51  69 100 142 186 235 289 344
#
# _framework density 21.243174
#
# number of rings (size 3 to 8) (size 9 to 14) (size 15 to 20)
#    0.000    2.222    1.111    2.667    0.000    4.333 
#    0.000    2.222    0.000    0.000    0.000    3.111 
#    0.000    0.000    0.000   13.778    0.000   14.222 
#
# Total GULP energy -892315.718614 kJ/mol
# GULP energy per Si atom -12393.273870 kJ/mol
# Density = 2.119482 g / cm^3
# Si number density = 21.243174 Si / 1000 Ang^3
#
#
#
# Elastic Constant Matrix: (Units=GPa)
#
#
# Indices 1 2 3 4 5 6 
#
# 1 111.1944 43.1999 29.4227 0.0000 0.0000 0.0000
# 2 43.1999 111.1964 29.4230 0.0000 0.0000 0.0000
# 3 29.4227 29.4230 109.9366 0.0000 0.0000 0.0000
# 4 0.0000 0.0000 0.0000 12.6727 0.0000 0.0000
# 5 0.0000 0.0000 0.0000 0.0000 12.6728 0.0000
# 6 0.0000 0.0000 0.0000 0.0000 0.0000 25.6339
#
#
#
# Elastic Compliance Matrix: (Units=1/GPa)
#
#
# Indices 1 2 3 4 5 6 
#
# 1 0.010960 -0.003747 -0.001930 0.000000 0.000000 0.000000
# 2 -0.003747 0.010960 -0.001930 0.000000 0.000000 0.000000
# 3 -0.001930 -0.001930 0.010129 0.000000 0.000000 0.000000
# 4 0.000000 0.000000 0.000000 0.078910 0.000000 0.000000
# 5 0.000000 0.000000 0.000000 0.000000 0.078909 0.000000
# 6 0.000000 0.000000 0.000000 0.000000 0.000000 0.039011
#
#
# Mechanical properties :
#
#
# Convention : Reuss Voigt Hill
#
# Bulk Modulus (GPa) = 59.40627 59.60207 59.50417
# Shear Modulus (GPa) = 20.02360 25.54800 22.78580
#
# Velocity S-wave (km/s) = 3.07349 3.47168 3.27864
# Velocity P-wave (km/s) = 6.37344 6.64741 6.51186
#
# Compressibility (1/GPa) = 0.01683324
#
# Stress axis : x y z
#
# Youngs Moduli (GPa) = 91.24237 91.24396 98.72240
#
# Poissons Ratio (x) = 0.34190 0.19057
# Poissons Ratio (y) = 0.34190 0.19057
# Poissons Ratio (z) = 0.17613 0.17613
#
# Static dielectric constant tensor:
#      x y z
#    x 3.603970 0.000000 0.000000 
#    y 0.000000 3.603960 0.000000 
#    z 0.000000 0.000000 3.925150 
# 
# 
# High freq. dielectric constant tensor:
#      x y z
#    x 1.824770 0.000000 0.000000 
#    y 0.000000 1.824770 0.000000 
#    z 0.000000 0.000000 1.817220 
# 
# From -- ./inp_files/1051.got.cif
#   From: 2010.03.12/outbox.cif.g09.slc.cpg/sg123_1_cif.got.tgz:1051.got - 2010.04.06 16:26:55.
