data_PCOD8312215
_publ_section_title
;
Structure prediction by ZEFSAII (Michael W. Deem and Ramdas Pophale) SiO2 
 PCOD8312215
Probable space group: P 4/M M M
;
_chemical_formula_sum "Si O2"
_cell_formula_units_Z 128
_cell_length_a 18.198771
_cell_length_b 18.198771
_cell_length_c 24.434360
_cell_angle_alpha 90.000000
_cell_angle_beta 90.000000
_cell_angle_gamma 90.000000
_cell_volume 8092.544358
_symmetry_space_group_name_H-M "P 4/M M M"
_symmetry_group_IT_number 123
_symmetry_cell_setting 'tetragonal'
loop_
_space_group_symop_operation_xyz
x,y,z
-y,x,z
-x,-y,z
y,-x,z
x,-y,-z
-x,y,-z
y,x,-z
-y,-x,-z
-x,-y,-z
y,-x,-z
x,y,-z
-y,x,-z
-x,y,z
x,-y,z
-y,-x,z
y,x,z
loop_
_atom_site_type_symbol
_atom_site_label
_atom_site_fract_x
_atom_site_fract_y
_atom_site_fract_z
Si Si1 0.311101 0.809297 0.373818
Si Si2 0.700559 0.416896 0.098703
Si Si3 0.694478 0.420650 0.777845
Si Si4 0.842342 0.416433 0.720766
Si Si5 0.701058 0.416283 0.435581
Si Si6 0.585901 0.142998 0.058871
Si Si7 0.417196 0.085582 0.170366
Si Si8 0.203135 0.915295 0.564127
O O1 0.250671 0.749330 0.352621
O O2 0.355944 0.852016 0.326386
O O3 0.371981 0.769499 0.410861
O O4 0.270455 0.873644 0.406885
O O5 0.673211 0.500000 0.091321
O O6 0.634471 0.365530 0.079355
O O7 0.724417 0.400425 0.161590
O O8 0.770109 0.400766 0.060856
O O9 0.656059 0.500000 0.781194
O O10 0.635574 0.364427 0.755478
O O11 0.756627 0.421696 0.732561
O O12 0.871621 0.500000 0.706284
O O13 0.881185 0.381638 0.774749
O O14 0.713387 0.417065 0.500000
O O15 0.698620 0.500000 0.412626
O O16 0.624363 0.375638 0.420717
O O17 0.500000 0.123247 0.059662
O O18 0.623112 0.105730 0.112643
O O19 0.618703 0.115272 0.000000
O O20 0.500000 0.118418 0.167963
O O21 0.416852 0.000000 0.177732
O O22 0.219809 0.912557 0.500000
O O23 0.126223 0.873778 0.577363
O O24 0.197279 0.000000 0.584483
#
# Coordination Sequence:
#
# PCOD8312215 Si02
#       8
#    16  16  16  16  16  16  16  16
#     4  10  19  30  46  68  92 120 155 187 220 264
#     4   9  16  26  39  55  77 105 137 173 211 251
#     4   9  16  26  40  56  77 106 140 180 223 261
#     4  10  18  29  44  61  84 115 149 184 220 259
#     4   9  17  29  45  65  90 121 158 201 244 280
#     4   9  16  27  42  58  76  98 126 163 210 261
#     4   9  17  29  43  59  78  99 127 166 212 259
#     4   9  18  33  53  76 100 123 146 176 215 260
#
# _framework density 15.817028000000001
#
# number of rings (size 3 to 8) (size 9 to 14) (size 15 to 20)
#    0.000    2.750    1.250    1.125    0.000    3.000 
#    0.000    3.750    0.000    1.125    0.000    7.875 
#    0.000    0.000    0.000    0.000    0.000    0.000 
#
# Total GULP energy -1585915.769109 kJ/mol
# GULP energy per Si atom -12389.966946 kJ/mol
# Density = 1.578103 g / cm^3
# Si number density = 15.817028 Si / 1000 Ang^3
#
#
#
# Elastic Constant Matrix: (Units=GPa)
#
#
# Indices 1 2 3 4 5 6 
#
# 1 73.4041 36.5345 39.0780 0.0000 0.0000 0.0000
# 2 36.5345 73.4041 39.0780 0.0000 0.0000 0.0000
# 3 39.0780 39.0780 76.9351 0.0000 0.0000 0.0000
# 4 0.0000 0.0000 0.0000 11.2574 0.0000 0.0000
# 5 0.0000 0.0000 0.0000 0.0000 11.2574 0.0000
# 6 0.0000 0.0000 0.0000 0.0000 0.0000 10.4657
#
#
#
# Elastic Compliance Matrix: (Units=1/GPa)
#
#
# Indices 1 2 3 4 5 6 
#
# 1 0.020680 -0.006443 -0.007231 0.000000 0.000000 0.000000
# 2 -0.006443 0.020680 -0.007231 0.000000 0.000000 0.000000
# 3 -0.007231 -0.007231 0.020344 0.000000 0.000000 0.000000
# 4 0.000000 0.000000 0.000000 0.088830 0.000000 0.000000
# 5 0.000000 0.000000 0.000000 0.000000 0.088830 0.000000
# 6 0.000000 0.000000 0.000000 0.000000 0.000000 0.095550
#
#
# Mechanical properties :
#
#
# Convention : Reuss Voigt Hill
#
# Bulk Modulus (GPa) = 50.27087 50.34714 50.30901
# Shear Modulus (GPa) = 13.04268 13.86628 13.45448
#
# Velocity S-wave (km/s) = 2.87470 2.96407 2.91972
# Velocity P-wave (km/s) = 6.54754 6.60412 6.57589
#
# Compressibility (1/GPa) = 0.01989224
#
# Stress axis : x y z
#
# Youngs Moduli (GPa) = 48.35659 48.35659 49.15432
#
# Poissons Ratio (x) = 0.31156 0.35545
# Poissons Ratio (y) = 0.31156 0.35545
# Poissons Ratio (z) = 0.34968 0.34968
#
# Static dielectric constant tensor:
#      x y z
#    x 2.868540 0.000000 0.000000 
#    y 0.000000 2.868540 0.000000 
#    z 0.000000 0.000000 3.126690 
# 
# 
# High freq. dielectric constant tensor:
#      x y z
#    x 1.581060 0.000000 0.000000 
#    y 0.000000 1.581060 0.000000 
#    z 0.000000 0.000000 1.612530 
# 
# From -- ./inp_files/7702.got.cif
#   From: 2010.03.12/outbox.cif.g09.slc.cpg/sg123_4_cif.got.tgz:7702.got - 2010.04.06 16:26:55.
