data_PCOD8312628
_publ_section_title
;
Structure prediction by ZEFSAII (Michael W. Deem and Ramdas Pophale) SiO2 
 PCOD8312628
Probable space group: P 4/M M M
;
_chemical_formula_sum "Si O2"
_cell_formula_units_Z 120
_cell_length_a 26.554265
_cell_length_b 26.554265
_cell_length_c 9.088593
_cell_angle_alpha 90.000000
_cell_angle_beta 90.000000
_cell_angle_gamma 90.000000
_cell_volume 6408.630400
_symmetry_space_group_name_H-M "P 4/M M M"
_symmetry_group_IT_number 123
_symmetry_cell_setting 'tetragonal'
loop_
_space_group_symop_operation_xyz
x,y,z
-y,x,z
-x,-y,z
y,-x,z
x,-y,-z
-x,y,-z
y,x,-z
-y,-x,-z
-x,-y,-z
y,-x,-z
x,y,-z
-y,x,-z
-x,y,z
x,-y,z
-y,-x,z
y,x,z
loop_
_atom_site_type_symbol
_atom_site_label
_atom_site_fract_x
_atom_site_fract_y
_atom_site_fract_z
Si Si1 0.233538 0.557955 0.826260
Si Si2 0.278743 0.804083 0.837391
Si Si3 0.768344 0.895913 0.667606
Si Si4 0.409487 0.877456 0.826203
Si Si5 0.055978 0.665898 0.332253
Si Si6 0.942482 0.861356 0.168603
Si Si7 0.500000 0.055883 0.824562
Si Si8 0.266536 0.349204 0.673252
O O1 0.243491 0.500000 0.780207
O O2 0.177877 0.574470 0.774026
O O3 0.273011 0.594810 0.742781
O O4 0.240260 0.564499 0.000000
O O5 0.242472 0.757529 0.858177
O O6 0.248394 0.847604 0.758306
O O7 0.326184 0.784773 0.742491
O O8 0.297959 0.821557 0.000000
O O9 0.777102 0.878876 0.500000
O O10 0.726075 0.939068 0.678673
O O11 0.819796 0.917353 0.729668
O O12 0.357010 0.897511 0.760217
O O13 0.451006 0.915964 0.764649
O O14 0.405720 0.879339 0.000000
O O15 0.061378 0.647722 0.500000
O O16 0.000000 0.651560 0.271577
O O17 0.914109 0.914109 0.191928
O O18 0.000000 0.869933 0.216047
O O19 0.938380 0.843105 0.000000
O O20 0.500000 0.000000 0.758814
O O21 0.500000 0.055905 0.000000
O O22 0.258666 0.353034 0.500000
O O23 0.315856 0.315856 0.711327
#
# Coordination Sequence:
#
# PCOD8312628 Si02
#       8
#    16  16  16  16  16  16   8  16
#     4  10  20  35  55  80 110 142 180 227 276 327
#     4  10  20  34  53  78 108 141 176 216 264 317
#     4  11  22  36  55  78 106 139 173 213 263 319
#     4  10  19  33  52  75 100 131 176 226 272 317
#     4  10  22  37  49  66  97 133 170 215 265 314
#     4  10  22  40  61  84 108 133 164 205 255 317
#     4   9  16  28  47  69  95 129 173 225 274 315
#     4  10  21  36  54  79 112 149 189 230 272 323
#
# _framework density 18.724748999999999
#
# number of rings (size 3 to 8) (size 9 to 14) (size 15 to 20)
#    0.000    1.933    0.667    3.200    0.000    9.200 
#    0.000    1.000    0.000    1.200    0.000    0.933 
#    0.000    0.267    0.000    2.933    0.000    2.133 
#
# Total GULP energy -1487964.439444 kJ/mol
# GULP energy per Si atom -12399.703662 kJ/mol
# Density = 1.868213 g / cm^3
# Si number density = 18.724749 Si / 1000 Ang^3
#
#
#
# Elastic Constant Matrix: (Units=GPa)
#
#
# Indices 1 2 3 4 5 6 
#
# 1 104.6093 40.7545 44.5967 0.0000 0.0000 0.0000
# 2 40.7545 104.6093 44.5967 0.0000 0.0000 0.0000
# 3 44.5967 44.5967 83.6578 0.0000 0.0000 0.0000
# 4 0.0000 0.0000 0.0000 21.1804 0.0000 0.0000
# 5 0.0000 0.0000 0.0000 0.0000 21.1804 0.0000
# 6 0.0000 0.0000 0.0000 0.0000 0.0000 16.0163
#
#
#
# Elastic Compliance Matrix: (Units=1/GPa)
#
#
# Indices 1 2 3 4 5 6 
#
# 1 0.012942 -0.002719 -0.005450 0.000000 0.000000 0.000000
# 2 -0.002719 0.012942 -0.005450 0.000000 0.000000 0.000000
# 3 -0.005450 -0.005450 0.017764 0.000000 0.000000 0.000000
# 4 0.000000 0.000000 0.000000 0.047213 0.000000 0.000000
# 5 0.000000 0.000000 0.000000 0.000000 0.047213 0.000000
# 6 0.000000 0.000000 0.000000 0.000000 0.000000 0.062436
#
#
# Mechanical properties :
#
#
# Convention : Reuss Voigt Hill
#
# Bulk Modulus (GPa) = 60.93474 61.41913 61.17694
# Shear Modulus (GPa) = 21.43918 22.53733 21.98825
#
# Velocity S-wave (km/s) = 3.38740 3.47307 3.43051
# Velocity P-wave (km/s) = 6.92187 6.99680 6.95944
#
# Compressibility (1/GPa) = 0.01641100
#
# Stress axis : x y z
#
# Youngs Moduli (GPa) = 77.26844 77.26844 56.29377
#
# Poissons Ratio (x) = 0.21006 0.30679
# Poissons Ratio (y) = 0.21006 0.30679
# Poissons Ratio (z) = 0.42110 0.42110
#
# Static dielectric constant tensor:
#      x y z
#    x 3.489850 0.000000 0.000000 
#    y 0.000000 3.489850 0.000000 
#    z 0.000000 0.000000 3.388400 
# 
# 
# High freq. dielectric constant tensor:
#      x y z
#    x 1.720010 0.000000 0.000000 
#    y 0.000000 1.720010 0.000000 
#    z 0.000000 0.000000 1.720780 
# 
# From -- ./inp_files/2018.got.cif
#   From: 2010.03.12/outbox.cif.g09.slc.cpg/sg123_2_cif.got.tgz:2018.got - 2010.04.06 16:26:55.
