data_PCOD8312825
_publ_section_title
;
Structure prediction by ZEFSAII (Michael W. Deem and Ramdas Pophale) SiO2 
 PCOD8312825
Probable space group: P 4/M M M
;
_chemical_formula_sum "Si O2"
_cell_formula_units_Z 80
_cell_length_a 12.744308
_cell_length_b 12.744308
_cell_length_c 27.410075
_cell_angle_alpha 90.000000
_cell_angle_beta 90.000000
_cell_angle_gamma 90.000000
_cell_volume 4451.872742
_symmetry_space_group_name_H-M "P 4/M M M"
_symmetry_group_IT_number 123
_symmetry_cell_setting 'tetragonal'
loop_
_space_group_symop_operation_xyz
x,y,z
-y,x,z
-x,-y,z
y,-x,z
x,-y,-z
-x,y,-z
y,x,-z
-y,-x,-z
-x,-y,-z
y,-x,-z
x,y,-z
-y,x,-z
-x,y,z
x,-y,z
-y,-x,z
y,x,z
loop_
_atom_site_type_symbol
_atom_site_label
_atom_site_fract_x
_atom_site_fract_y
_atom_site_fract_z
Si Si1 0.119017 0.286726 0.000000
Si Si2 0.378044 0.206247 0.387761
Si Si3 0.381583 0.789511 0.199113
Si Si4 0.000000 0.375554 0.555017
Si Si5 0.711667 0.120571 0.707217
Si Si6 0.878328 0.293898 0.105413
O O1 0.144380 0.346280 0.948628
O O2 0.177270 0.177270 0.000000
O O3 0.000000 0.252644 0.000000
O O4 0.500000 0.232730 0.398623
O O5 0.307458 0.307458 0.401807
O O6 0.336428 0.106123 0.418561
O O7 0.365736 0.177689 0.330849
O O8 0.500000 0.760124 0.211120
O O9 0.318578 0.681423 0.200588
O O10 0.337816 0.870167 0.239157
O O11 0.376804 0.843998 0.146165
O O12 0.000000 0.500000 0.556145
O O13 0.000000 0.331623 0.500000
O O14 0.826002 0.173999 0.705480
O O15 0.725581 0.000000 0.693163
O O16 0.813487 0.186514 0.112627
O O17 0.000000 0.265445 0.111572
#
# Coordination Sequence:
#
# PCOD8312825 Si02
#       6
#     8  16  16   8  16  16
#     4   8  14  25  41  61  90 124 156 194 235 280
#     4  10  20  34  54  81 111 144 182 223 269 318
#     4  10  21  35  51  71  94 123 161 205 253 303
#     4   9  18  34  56  79 105 141 183 223 262 310
#     4  10  20  34  53  78 107 139 173 209 251 301
#     4   9  17  29  45  68  96 126 160 195 236 287
#
# _framework density 17.969965999999999
#
# number of rings (size 3 to 8) (size 9 to 14) (size 15 to 20)
#    0.000    2.500    1.000    1.200    0.000    3.700 
#    0.000    2.500    0.000    9.300    0.000    3.500 
#    0.000    4.000    0.000    0.000    0.000    0.000 
#
# Total GULP energy -991515.247570 kJ/mol
# GULP energy per Si atom -12393.940595 kJ/mol
# Density = 1.792907 g / cm^3
# Si number density = 17.969966 Si / 1000 Ang^3
#
#
#
# Elastic Constant Matrix: (Units=GPa)
#
#
# Indices 1 2 3 4 5 6 
#
# 1 90.5958 48.1607 28.2609 0.0000 0.0000 0.0000
# 2 48.1607 90.5958 28.2609 0.0000 0.0000 0.0000
# 3 28.2609 28.2609 100.3492 0.0000 0.0000 0.0000
# 4 0.0000 0.0000 0.0000 20.4891 0.0000 0.0000
# 5 0.0000 0.0000 0.0000 0.0000 20.4891 0.0000
# 6 0.0000 0.0000 0.0000 0.0000 0.0000 14.0852
#
#
#
# Elastic Compliance Matrix: (Units=1/GPa)
#
#
# Indices 1 2 3 4 5 6 
#
# 1 0.015853 -0.007712 -0.002293 0.000000 0.000000 0.000000
# 2 -0.007712 0.015853 -0.002293 0.000000 0.000000 0.000000
# 3 -0.002293 -0.002293 0.011257 0.000000 0.000000 0.000000
# 4 0.000000 0.000000 0.000000 0.048806 0.000000 0.000000
# 5 0.000000 0.000000 0.000000 0.000000 0.048806 0.000000
# 6 0.000000 0.000000 0.000000 0.000000 0.000000 0.070996
#
#
# Mechanical properties :
#
#
# Convention : Reuss Voigt Hill
#
# Bulk Modulus (GPa) = 54.44400 54.54504 54.49452
# Shear Modulus (GPa) = 20.63645 22.80324 21.71985
#
# Velocity S-wave (km/s) = 3.39246 3.56612 3.48037
# Velocity P-wave (km/s) = 6.76077 6.88299 6.82216
#
# Compressibility (1/GPa) = 0.01836750
#
# Stress axis : x y z
#
# Youngs Moduli (GPa) = 63.07922 63.07922 88.83725
#
# Poissons Ratio (x) = 0.48649 0.20367
# Poissons Ratio (y) = 0.48649 0.20367
# Poissons Ratio (z) = 0.14462 0.14462
#
# Static dielectric constant tensor:
#      x y z
#    x 3.101130 0.000000 0.000000 
#    y 0.000000 3.101130 0.000000 
#    z 0.000000 0.000000 3.731170 
# 
# 
# High freq. dielectric constant tensor:
#      x y z
#    x 1.676400 0.000000 0.000000 
#    y 0.000000 1.676400 0.000000 
#    z 0.000000 0.000000 1.715190 
# 
# From -- ./inp_files/8395.got.cif
#   From: 2010.03.12/outbox.cif.g09.slc.cpg/sg123_5_cif.got.tgz:8395.got - 2010.04.06 16:26:55.
