data_PCOD8312570
_publ_section_title
;
Structure prediction by ZEFSAII (Michael W. Deem and Ramdas Pophale) SiO2 
 PCOD8312570
Probable space group: P 4/M M M
;
_chemical_formula_sum "Si O2"
_cell_formula_units_Z 80
_cell_length_a 23.215163
_cell_length_b 23.215163
_cell_length_c 8.987266
_cell_angle_alpha 90.000000
_cell_angle_beta 90.000000
_cell_angle_gamma 90.000000
_cell_volume 4843.631228
_symmetry_space_group_name_H-M "P 4/M M M"
_symmetry_group_IT_number 123
_symmetry_cell_setting 'tetragonal'
loop_
_space_group_symop_operation_xyz
x,y,z
-y,x,z
-x,-y,z
y,-x,z
x,-y,-z
-x,y,-z
y,x,-z
-y,-x,-z
-x,-y,-z
y,-x,-z
x,y,-z
-y,x,-z
-x,y,z
x,-y,z
-y,-x,z
y,x,z
loop_
_atom_site_type_symbol
_atom_site_label
_atom_site_fract_x
_atom_site_fract_y
_atom_site_fract_z
Si Si1 0.770947 0.623779 0.329684
Si Si2 0.329650 0.934559 0.676046
Si Si3 0.743786 0.832323 0.669487
Si Si4 0.433770 0.126685 0.824926
Si Si5 0.353627 0.646374 0.326317
Si Si6 0.433590 0.433590 0.835349
O O1 0.773157 0.601939 0.500000
O O2 0.790968 0.689355 0.318414
O O3 0.809368 0.580704 0.232270
O O4 0.706874 0.623698 0.260367
O O5 0.336897 0.923927 0.500000
O O6 0.277012 0.894047 0.738418
O O7 0.391013 0.919285 0.748934
O O8 0.313401 0.000000 0.714426
O O9 0.761438 0.843142 0.500000
O O10 0.799225 0.799225 0.746208
O O11 0.500000 0.111353 0.784718
O O12 0.423646 0.124249 0.000000
O O13 0.343950 0.656051 0.500000
O O14 0.400987 0.599014 0.294293
O O15 0.500000 0.420150 0.814155
O O16 0.413524 0.413524 0.000000
#
# Coordination Sequence:
#
# PCOD8312570 Si02
#       6
#    16  16  16  16   8   8
#     4   9  17  30  48  69  92 115 143 182 228 278
#     4   9  18  31  48  70  93 119 155 197 235 273
#     4   8  12  23  45  67  88 115 143 175 218 263
#     4  10  21  34  46  63  90 125 161 193 228 272
#     4  10  19  31  51  76  94 110 140 186 239 287
#     4   9  20  38  52  60  78 112 148 180 224 285
#
# _framework density 16.516535000000001
#
# number of rings (size 3 to 8) (size 9 to 14) (size 15 to 20)
#    0.000    2.900    1.000    2.100    0.000    4.400 
#    0.000    6.500    0.000    0.000    0.000    0.000 
#    0.000    0.400    0.000    5.600    0.000    0.000 
#
# Total GULP energy -991161.762609 kJ/mol
# GULP energy per Si atom -12389.522033 kJ/mol
# Density = 1.647894 g / cm^3
# Si number density = 16.516535 Si / 1000 Ang^3
#
#
#
# Elastic Constant Matrix: (Units=GPa)
#
#
# Indices 1 2 3 4 5 6 
#
# 1 77.0523 94.2524 26.5165 0.0000 0.0000 0.0000
# 2 94.2524 77.0519 26.5158 0.0000 0.0000 0.0000
# 3 26.5165 26.5158 33.3835 0.0000 0.0000 0.0000
# 4 0.0000 0.0000 0.0000 10.5048 0.0000 0.0000
# 5 0.0000 0.0000 0.0000 0.0000 10.5048 0.0000
# 6 0.0000 0.0000 0.0000 0.0000 0.0000 19.7041
#
#
#
# Elastic Compliance Matrix: (Units=1/GPa)
#
#
# Indices 1 2 3 4 5 6 
#
# 1 -0.025199 0.032940 -0.006148 0.000000 0.000000 0.000000
# 2 0.032940 -0.025199 -0.006149 0.000000 0.000000 0.000000
# 3 -0.006148 -0.006149 0.039722 0.000000 0.000000 0.000000
# 4 0.000000 0.000000 0.000000 0.095194 0.000000 0.000000
# 5 0.000000 0.000000 0.000000 0.000000 0.095195 0.000000
# 6 0.000000 0.000000 0.000000 0.000000 0.000000 0.050751
#
#
# Mechanical properties :
#
#
# Convention : Reuss Voigt Hill
#
# Bulk Modulus (GPa) = 32.66901 53.56191 43.11546
# Shear Modulus (GPa) = 25.07735 10.82294 17.95015
#
# Velocity S-wave (km/s) = 3.90079 2.56262 3.30024
# Velocity P-wave (km/s) = 6.33330 6.42306 6.37834
#
# Compressibility (1/GPa) = 0.03061005
#
# Stress axis : x y z
#
# Youngs Moduli (GPa) = -39.68421 -39.68465 25.17467
#
# Poissons Ratio (x) = 1.30721 0.15477
# Poissons Ratio (y) = 1.30719 0.15481
# Poissons Ratio (z) = -0.24398 -0.24403
#
# Static dielectric constant tensor:
#      x y z
#    x 3.171780 0.000000 0.000000 
#    y 0.000000 3.171780 0.000000 
#    z 0.000000 0.000000 2.879450 
# 
# 
# High freq. dielectric constant tensor:
#      x y z
#    x 1.625530 0.000000 0.000000 
#    y 0.000000 1.625530 0.000000 
#    z 0.000000 0.000000 1.608960 
# 
# From -- ./inp_files/1452.got.cif
#   From: 2010.03.12/outbox.cif.g09.slc.cpg/sg123_1_cif.got.tgz:1452.got - 2010.04.06 16:26:55.
