data_PCOD8312872
_publ_section_title
;
Structure prediction by ZEFSAII (Michael W. Deem and Ramdas Pophale) SiO2 
 PCOD8312872
Probable space group: P 4/M M M
;
_chemical_formula_sum "Si O2"
_cell_formula_units_Z 120
_cell_length_a 21.557912
_cell_length_b 21.557912
_cell_length_c 14.204996
_cell_angle_alpha 90.000000
_cell_angle_beta 90.000000
_cell_angle_gamma 90.000000
_cell_volume 6601.680550
_symmetry_space_group_name_H-M "P 4/M M M"
_symmetry_group_IT_number 123
_symmetry_cell_setting 'tetragonal'
loop_
_space_group_symop_operation_xyz
x,y,z
-y,x,z
-x,-y,z
y,-x,z
x,-y,-z
-x,y,-z
y,x,-z
-y,-x,-z
-x,-y,-z
y,-x,-z
x,y,-z
-y,x,-z
-x,y,z
x,-y,z
-y,-x,z
y,x,z
loop_
_atom_site_type_symbol
_atom_site_label
_atom_site_fract_x
_atom_site_fract_y
_atom_site_fract_z
Si Si1 0.928628 0.826070 0.235343
Si Si2 0.241755 0.341050 0.208494
Si Si3 0.850514 0.748762 0.103284
Si Si4 0.071311 0.265178 0.394520
Si Si5 0.500000 0.071109 0.388489
Si Si6 0.381428 0.872066 0.292085
Si Si7 0.666815 0.430837 0.888794
Si Si8 0.570979 0.927001 0.105928
O O1 0.887810 0.887810 0.222474
O O2 0.909035 0.769369 0.166612
O O3 0.919836 0.800276 0.341357
O O4 0.000000 0.843576 0.214691
O O5 0.292740 0.292740 0.249534
O O6 0.190207 0.305644 0.147789
O O7 0.203408 0.376370 0.290694
O O8 0.273587 0.393278 0.145362
O O9 0.809243 0.809243 0.092691
O O10 0.874268 0.727544 0.000000
O O11 0.098146 0.257730 0.500000
O O12 0.105937 0.319108 0.340185
O O13 0.000000 0.284926 0.397788
O O14 0.500000 0.072745 0.500000
O O15 0.560204 0.106291 0.351941
O O16 0.500000 0.000000 0.351485
O O17 0.385094 0.895657 0.183616
O O18 0.666269 0.500000 0.845354
O O19 0.603810 0.396191 0.856759
O O20 0.671002 0.433899 0.000000
O O21 0.500000 0.908581 0.128612
O O22 0.579696 0.000000 0.113046
O O23 0.588461 0.904507 0.000000
#
# Coordination Sequence:
#
# PCOD8312872 Si02
#       8
#    16  16  16  16   8  16  16  16
#     4  10  21  38  58  82 109 137 176 228 288 352
#     4  10  21  35  51  76 113 148 185 228 273 322
#     4   9  17  33  56  78 106 145 184 223 269 324
#     4  10  21  37  56  78 105 137 176 225 277 331
#     4  11  24  40  59  85 117 151 187 232 280 328
#     4  12  21  34  58  81 108 148 194 227 270 325
#     4   9  18  32  51  76 109 149 190 231 272 316
#     4   9  18  32  48  71 109 150 185 225 270 317
#
# _framework density 18.177188999999998
#
# number of rings (size 3 to 8) (size 9 to 14) (size 15 to 20)
#    0.000    2.067    2.000    2.400    0.933    4.533 
#    0.000    2.000    0.000    1.200    0.000    3.733 
#    0.000    0.000    0.000    0.000    0.000    5.867 
#
# Total GULP energy -1487421.373597 kJ/mol
# GULP energy per Si atom -12395.178113 kJ/mol
# Density = 1.813582 g / cm^3
# Si number density = 18.177189 Si / 1000 Ang^3
#
#
#
# Elastic Constant Matrix: (Units=GPa)
#
#
# Indices 1 2 3 4 5 6 
#
# 1 104.5971 64.6130 35.0413 0.0000 0.0000 0.0000
# 2 64.6130 104.5971 35.0413 0.0000 0.0000 0.0000
# 3 35.0413 35.0413 73.0591 0.0000 0.0000 0.0000
# 4 0.0000 0.0000 0.0000 21.5997 0.0000 0.0000
# 5 0.0000 0.0000 0.0000 0.0000 21.5997 0.0000
# 6 0.0000 0.0000 0.0000 0.0000 0.0000 38.9581
#
#
#
# Elastic Compliance Matrix: (Units=1/GPa)
#
#
# Indices 1 2 3 4 5 6 
#
# 1 0.016192 -0.008818 -0.003537 0.000000 0.000000 0.000000
# 2 -0.008818 0.016192 -0.003537 0.000000 0.000000 0.000000
# 3 -0.003537 -0.003537 0.017081 0.000000 0.000000 0.000000
# 4 0.000000 0.000000 0.000000 0.046297 0.000000 0.000000
# 5 0.000000 0.000000 0.000000 0.000000 0.046297 0.000000
# 6 0.000000 0.000000 0.000000 0.000000 0.000000 0.025669
#
#
# Mechanical properties :
#
#
# Convention : Reuss Voigt Hill
#
# Bulk Modulus (GPa) = 56.55614 61.29381 58.92497
# Shear Modulus (GPa) = 24.34210 26.26870 25.30540
#
# Velocity S-wave (km/s) = 3.66342 3.80563 3.73520
# Velocity P-wave (km/s) = 7.00539 7.28724 7.14770
#
# Compressibility (1/GPa) = 0.01768155
#
# Stress axis : x y z
#
# Youngs Moduli (GPa) = 61.75743 61.75743 58.54591
#
# Poissons Ratio (x) = 0.54455 0.20709
# Poissons Ratio (y) = 0.54455 0.20709
# Poissons Ratio (z) = 0.21845 0.21845
#
# Static dielectric constant tensor:
#      x y z
#    x 3.468250 0.000000 0.000000 
#    y 0.000000 3.468250 0.000000 
#    z 0.000000 0.000000 3.470710 
# 
# 
# High freq. dielectric constant tensor:
#      x y z
#    x 1.703060 0.000000 0.000000 
#    y 0.000000 1.703060 0.000000 
#    z 0.000000 0.000000 1.687840 
# 
# From -- ./inp_files/4613.got.cif
#   From: 2010.03.12/outbox.cif.g09.slc.cpg/sg123_3_cif.got.tgz:4613.got - 2010.04.06 16:26:55.
