data_PCOD8312222
_publ_section_title
;
Structure prediction by ZEFSAII (Michael W. Deem and Ramdas Pophale) SiO2 
 PCOD8312222
Probable space group: P 4/M M M
;
_chemical_formula_sum "Si O2"
_cell_formula_units_Z 88
_cell_length_a 15.148060
_cell_length_b 15.148060
_cell_length_c 22.021093
_cell_angle_alpha 90.000000
_cell_angle_beta 90.000000
_cell_angle_gamma 90.000000
_cell_volume 5053.041957
_symmetry_space_group_name_H-M "P 4/M M M"
_symmetry_group_IT_number 123
_symmetry_cell_setting 'tetragonal'
loop_
_space_group_symop_operation_xyz
x,y,z
-y,x,z
-x,-y,z
y,-x,z
x,-y,-z
-x,y,-z
y,x,-z
-y,-x,-z
-x,-y,-z
y,-x,-z
x,y,-z
-y,x,-z
-x,y,z
x,-y,z
-y,-x,z
y,x,z
loop_
_atom_site_type_symbol
_atom_site_label
_atom_site_fract_x
_atom_site_fract_y
_atom_site_fract_z
Si Si1 0.600655 0.899150 0.339298
Si Si2 0.265113 0.407788 0.000000
Si Si3 0.899324 0.243675 0.570403
Si Si4 0.238583 0.096565 0.930499
Si Si5 0.403577 0.839458 0.876519
Si Si6 0.399284 0.745247 0.246408
O O1 0.500000 0.885689 0.362252
O O2 0.666203 0.876841 0.394438
O O3 0.622800 0.833490 0.284279
O O4 0.614293 0.000000 0.316340
O O5 0.208112 0.404940 0.059771
O O6 0.319275 0.500000 0.000000
O O7 0.325448 0.325448 0.000000
O O8 0.884208 0.264932 0.500000
O O9 0.835301 0.164700 0.592371
O O10 0.000000 0.213223 0.582802
O O11 0.167802 0.167802 0.907446
O O12 0.322068 0.093377 0.884130
O O13 0.194349 0.000000 0.927646
O O14 0.267985 0.117823 0.000000
O O15 0.500000 0.885522 0.864772
O O16 0.384627 0.768911 0.823830
O O17 0.500000 0.714133 0.258384
O O18 0.334399 0.665602 0.265295
#
# Coordination Sequence:
#
# PCOD8312222 Si02
#       6
#    16   8  16  16  16  16
#     4   9  18  32  49  70  96 126 162 203 243 281
#     4  10  18  29  45  63  88 118 148 188 233 282
#     4   9  17  29  47  72 101 132 163 195 233 278
#     4  10  20  33  50  70  93 121 151 187 230 278
#     4  10  20  33  50  71  93 121 155 194 241 290
#     4  10  20  33  50  71  96 127 161 198 241 288
#
# _framework density 17.415251999999999
#
# number of rings (size 3 to 8) (size 9 to 14) (size 15 to 20)
#    0.000    2.364    0.909    2.182    0.000    2.091 
#    0.000    6.364    0.000    3.273    0.000    0.000 
#    0.000    4.364    0.000   16.909    0.000    0.364 
#
# Total GULP energy -1090494.600431 kJ/mol
# GULP energy per Si atom -12391.984096 kJ/mol
# Density = 1.737561 g / cm^3
# Si number density = 17.415252 Si / 1000 Ang^3
#
#
#
# Elastic Constant Matrix: (Units=GPa)
#
#
# Indices 1 2 3 4 5 6 
#
# 1 106.6582 69.2499 42.0618 0.0000 0.0000 0.0000
# 2 69.2499 106.6582 42.0618 0.0000 0.0000 0.0000
# 3 42.0618 42.0618 69.6015 0.0000 0.0000 0.0000
# 4 0.0000 0.0000 0.0000 21.5528 0.0000 0.0000
# 5 0.0000 0.0000 0.0000 0.0000 21.5528 0.0000
# 6 0.0000 0.0000 0.0000 0.0000 0.0000 34.0296
#
#
#
# Elastic Compliance Matrix: (Units=1/GPa)
#
#
# Indices 1 2 3 4 5 6 
#
# 1 0.017364 -0.009368 -0.004832 0.000000 0.000000 0.000000
# 2 -0.009368 0.017364 -0.004832 0.000000 0.000000 0.000000
# 3 -0.004832 -0.004832 0.020208 0.000000 0.000000 0.000000
# 4 0.000000 0.000000 0.000000 0.046398 0.000000 0.000000
# 5 0.000000 0.000000 0.000000 0.000000 0.046398 0.000000
# 6 0.000000 0.000000 0.000000 0.000000 0.000000 0.029386
#
#
# Mechanical properties :
#
#
# Convention : Reuss Voigt Hill
#
# Bulk Modulus (GPa) = 59.27310 65.51834 62.39572
# Shear Modulus (GPa) = 22.64450 24.06335 23.35392
#
# Velocity S-wave (km/s) = 3.60983 3.72121 3.66594
# Velocity P-wave (km/s) = 7.17521 7.49440 7.33654
#
# Compressibility (1/GPa) = 0.01687106
#
# Stress axis : x y z
#
# Youngs Moduli (GPa) = 57.59113 57.59113 49.48647
#
# Poissons Ratio (x) = 0.53953 0.23911
# Poissons Ratio (y) = 0.53953 0.23911
# Poissons Ratio (z) = 0.27827 0.27827
#
# Static dielectric constant tensor:
#      x y z
#    x 3.410730 0.000000 0.000000 
#    y 0.000000 3.410730 0.000000 
#    z 0.000000 0.000000 3.192230 
# 
# 
# High freq. dielectric constant tensor:
#      x y z
#    x 1.671840 0.000000 0.000000 
#    y 0.000000 1.671840 0.000000 
#    z 0.000000 0.000000 1.655540 
# 
# From -- ./inp_files/7271.got.cif
#   From: 2010.03.12/outbox.cif.g09.slc.cpg/sg123_4_cif.got.tgz:7271.got - 2010.04.06 16:26:55.
