data_PCOD8312501
_publ_section_title
;
Structure prediction by ZEFSAII (Michael W. Deem and Ramdas Pophale) SiO2 
 PCOD8312501
Probable space group: P 4/M M M
;
_chemical_formula_sum "Si O2"
_cell_formula_units_Z 96
_cell_length_a 24.174633
_cell_length_b 24.174633
_cell_length_c 9.688446
_cell_angle_alpha 90.000000
_cell_angle_beta 90.000000
_cell_angle_gamma 90.000000
_cell_volume 5662.052636
_symmetry_space_group_name_H-M "P 4/M M M"
_symmetry_group_IT_number 123
_symmetry_cell_setting 'tetragonal'
loop_
_space_group_symop_operation_xyz
x,y,z
-y,x,z
-x,-y,z
y,-x,z
x,-y,-z
-x,y,-z
y,x,-z
-y,-x,-z
-x,-y,-z
y,-x,-z
x,y,-z
-y,x,-z
-x,y,z
x,-y,z
-y,-x,z
y,x,z
loop_
_atom_site_type_symbol
_atom_site_label
_atom_site_fract_x
_atom_site_fract_y
_atom_site_fract_z
Si Si1 0.937692 0.437983 0.336302
Si Si2 0.348464 0.562715 0.158677
Si Si3 0.147651 0.762638 0.838999
Si Si4 0.146130 0.060754 0.163492
Si Si5 0.364909 0.275928 0.341850
Si Si6 0.148781 0.345744 0.338419
O O1 0.935520 0.438840 0.500000
O O2 0.923171 0.500000 0.281422
O O3 0.892669 0.393558 0.282098
O O4 0.000000 0.421513 0.287455
O O5 0.360160 0.500000 0.200194
O O6 0.404601 0.595400 0.191169
O O7 0.298510 0.585624 0.249233
O O8 0.330730 0.568948 0.000000
O O9 0.204741 0.795260 0.805144
O O10 0.095754 0.800193 0.797370
O O11 0.138601 0.709327 0.746659
O O12 0.146736 0.746360 0.000000
O O13 0.091467 0.091467 0.221253
O O14 0.150149 0.000000 0.231063
O O15 0.141802 0.056647 0.000000
O O16 0.380468 0.286842 0.500000
O O17 0.306806 0.306806 0.305347
O O18 0.362757 0.211473 0.309199
O O19 0.138772 0.333826 0.500000
#
# Coordination Sequence:
#
# PCOD8312501 Si02
#       6
#    16  16  16  16  16  16
#     4   8  15  29  47  67  93 121 147 181 227 274
#     4   9  18  32  49  69  93 121 152 185 221 262
#     4   9  18  31  45  64  94 128 154 180 224 278
#     4   8  14  25  41  62  89 121 157 195 232 270
#     4   9  18  31  45  64  92 121 148 185 231 270
#     4  10  19  30  49  74  92 113 152 193 224 263
#
# _framework density 16.954981
#
# number of rings (size 3 to 8) (size 9 to 14) (size 15 to 20)
#    0.000    3.167    0.000    2.000    0.000    3.667 
#    0.000    5.000    0.000    0.500    0.000    3.500 
#    0.000    0.000    0.000    3.667    0.000    3.667 
#
# Total GULP energy -1189873.789082 kJ/mol
# GULP energy per Si atom -12394.518636 kJ/mol
# Density = 1.691639 g / cm^3
# Si number density = 16.954981 Si / 1000 Ang^3
#
#
#
# Elastic Constant Matrix: (Units=GPa)
#
#
# Indices 1 2 3 4 5 6 
#
# 1 212.0838 20.2108 45.5085 0.0000 0.0000 0.0000
# 2 20.2108 212.0838 45.5085 0.0000 0.0000 0.0000
# 3 45.5085 45.5085 33.8781 0.0000 0.0000 0.0000
# 4 0.0000 0.0000 0.0000 18.4931 0.0000 0.0000
# 5 0.0000 0.0000 0.0000 0.0000 18.4931 0.0000
# 6 0.0000 0.0000 0.0000 0.0000 0.0000 21.9880
#
#
#
# Elastic Compliance Matrix: (Units=1/GPa)
#
#
# Indices 1 2 3 4 5 6 
#
# 1 0.007150 0.001938 -0.012208 0.000000 0.000000 0.000000
# 2 0.001938 0.007150 -0.012208 0.000000 0.000000 0.000000
# 3 -0.012208 -0.012208 0.062317 0.000000 0.000000 0.000000
# 4 0.000000 0.000000 0.000000 0.054074 0.000000 0.000000
# 5 0.000000 0.000000 0.000000 0.000000 0.054074 0.000000
# 6 0.000000 0.000000 0.000000 0.000000 0.000000 0.045479
#
#
# Mechanical properties :
#
#
# Convention : Reuss Voigt Hill
#
# Bulk Modulus (GPa) = 31.58574 75.61124 53.59849
# Shear Modulus (GPa) = 17.49754 34.91605 26.20680
#
# Velocity S-wave (km/s) = 3.21596 4.54292 3.93577
# Velocity P-wave (km/s) = 5.69732 8.49762 7.23426
#
# Compressibility (1/GPa) = 0.03165986
#
# Stress axis : x y z
#
# Youngs Moduli (GPa) = 139.85911 139.85911 16.04707
#
# Poissons Ratio (x) = -0.27108 0.19591
# Poissons Ratio (y) = -0.27108 0.19591
# Poissons Ratio (z) = 1.70745 1.70745
#
# Static dielectric constant tensor:
#      x y z
#    x 3.437210 0.000000 0.000000 
#    y 0.000000 3.437210 0.000000 
#    z 0.000000 0.000000 2.849070 
# 
# 
# High freq. dielectric constant tensor:
#      x y z
#    x 1.658330 0.000000 0.000000 
#    y 0.000000 1.658330 0.000000 
#    z 0.000000 0.000000 1.616320 
# 
# From -- ./inp_files/1621.got.cif
#   From: 2010.03.12/outbox.cif.g09.slc.cpg/sg123_1_cif.got.tgz:1621.got - 2010.04.06 16:26:55.
