data_PCOD8312613
_publ_section_title
;
Structure prediction by ZEFSAII (Michael W. Deem and Ramdas Pophale) SiO2 
 PCOD8312613
Probable space group: P 4/M M M
;
_chemical_formula_sum "Si O2"
_cell_formula_units_Z 64
_cell_length_a 12.909127
_cell_length_b 12.909127
_cell_length_c 21.976629
_cell_angle_alpha 90.000000
_cell_angle_beta 90.000000
_cell_angle_gamma 90.000000
_cell_volume 3662.307644
_symmetry_space_group_name_H-M "P 4/M M M"
_symmetry_group_IT_number 123
_symmetry_cell_setting 'tetragonal'
loop_
_space_group_symop_operation_xyz
x,y,z
-y,x,z
-x,-y,z
y,-x,z
x,-y,-z
-x,y,-z
y,x,-z
-y,-x,-z
-x,-y,-z
y,-x,-z
x,y,-z
-y,x,-z
-x,y,z
x,-y,z
-y,-x,z
y,x,z
loop_
_atom_site_type_symbol
_atom_site_label
_atom_site_fract_x
_atom_site_fract_y
_atom_site_fract_z
Si Si1 0.119396 0.383280 0.236674
Si Si2 0.709637 0.121795 0.635440
Si Si3 0.712762 0.884071 0.000000
Si Si4 0.500000 0.877341 0.568916
Si Si5 0.380321 0.216933 0.888343
O O1 0.154500 0.500000 0.254305
O O2 0.140509 0.307589 0.293017
O O3 0.178737 0.341601 0.177573
O O4 0.000000 0.383986 0.219018
O O5 0.807956 0.192045 0.614644
O O6 0.605709 0.161102 0.601088
O O7 0.732737 0.000000 0.621469
O O8 0.643365 0.867359 0.059989
O O9 0.813291 0.813291 0.000000
O O10 0.754390 0.000000 0.000000
O O11 0.500000 0.835867 0.500000
O O12 0.500000 0.000000 0.572330
O O13 0.500000 0.242498 0.886936
O O14 0.322717 0.322717 0.905246
#
# Coordination Sequence:
#
# PCOD8312613 Si02
#       5
#    16  16   8   8  16
#     4   9  16  29  50  74  98 129 172 215 251 290
#     4  10  19  32  52  78 108 138 171 212 257 307
#     4  10  21  36  52  72  96 122 159 204 252 306
#     4   9  18  34  54  75  99 132 176 213 243 291
#     4  10  20  32  48  71  99 132 169 208 250 295
#
# _framework density 17.475318999999999
#
# number of rings (size 3 to 8) (size 9 to 14) (size 15 to 20)
#    0.000    2.375    1.250    1.875    0.000    3.125 
#    0.000    0.000    0.000    2.625    0.000    7.875 
#    0.000    0.000    0.000    0.000    0.000    0.000 
#
# Total GULP energy -793404.095461 kJ/mol
# GULP energy per Si atom -12396.938992 kJ/mol
# Density = 1.743554 g / cm^3
# Si number density = 17.475319 Si / 1000 Ang^3
#
#
#
# Elastic Constant Matrix: (Units=GPa)
#
#
# Indices 1 2 3 4 5 6 
#
# 1 78.1436 53.8849 38.9035 0.0000 0.0000 0.0000
# 2 53.8849 78.1436 38.9035 0.0000 0.0000 0.0000
# 3 38.9035 38.9035 95.1236 0.0000 0.0000 0.0000
# 4 0.0000 0.0000 0.0000 18.6155 0.0000 0.0000
# 5 0.0000 0.0000 0.0000 0.0000 18.6155 0.0000
# 6 0.0000 0.0000 0.0000 0.0000 0.0000 22.8140
#
#
#
# Elastic Compliance Matrix: (Units=1/GPa)
#
#
# Indices 1 2 3 4 5 6 
#
# 1 0.025601 -0.015622 -0.004081 0.000000 0.000000 0.000000
# 2 -0.015622 0.025601 -0.004081 0.000000 0.000000 0.000000
# 3 -0.004081 -0.004081 0.013851 0.000000 0.000000 0.000000
# 4 0.000000 0.000000 0.000000 0.053719 0.000000 0.000000
# 5 0.000000 0.000000 0.000000 0.000000 0.053719 0.000000
# 6 0.000000 0.000000 0.000000 0.000000 0.000000 0.043833
#
#
# Mechanical properties :
#
#
# Convention : Reuss Voigt Hill
#
# Bulk Modulus (GPa) = 57.19408 57.19941 57.19674
# Shear Modulus (GPa) = 18.53780 19.99026 19.26403
#
# Velocity S-wave (km/s) = 3.26052 3.38585 3.32378
# Velocity P-wave (km/s) = 6.85377 6.93454 6.89428
#
# Compressibility (1/GPa) = 0.01748433
#
# Stress axis : x y z
#
# Youngs Moduli (GPa) = 39.06117 39.06117 72.19693
#
# Poissons Ratio (x) = 0.61020 0.29466
# Poissons Ratio (y) = 0.61020 0.29466
# Poissons Ratio (z) = 0.15942 0.15942
#
# Static dielectric constant tensor:
#      x y z
#    x 3.051930 0.000000 0.000000 
#    y 0.000000 3.051930 0.000000 
#    z 0.000000 0.000000 3.431330 
# 
# 
# High freq. dielectric constant tensor:
#      x y z
#    x 1.658820 0.000000 0.000000 
#    y 0.000000 1.658820 0.000000 
#    z 0.000000 0.000000 1.686450 
# 
# From -- ./inp_files/7001.got.cif
#   From: 2010.03.12/outbox.cif.g09.slc.cpg/sg123_4_cif.got.tgz:7001.got - 2010.04.06 16:26:55.
