data_PCOD8313260
_publ_section_title
;
Structure prediction by ZEFSAII (Michael W. Deem and Ramdas Pophale) SiO2 
 PCOD8313260
Probable space group: P 4/M C C
;
_chemical_formula_sum "Si O2"
_cell_formula_units_Z 96
_cell_length_a 23.114299
_cell_length_b 23.114299
_cell_length_c 9.360093
_cell_angle_alpha 90.000000
_cell_angle_beta 90.000000
_cell_angle_gamma 90.000000
_cell_volume 5000.824546
_symmetry_space_group_name_H-M "P 4/M C C"
_symmetry_group_IT_number 124
_symmetry_cell_setting 'tetragonal'
loop_
_space_group_symop_operation_xyz
x,y,z
-y,x,z
-x,-y,z
y,-x,z
x,-y,1/2-z
-x,y,1/2-z
y,x,1/2-z
-y,-x,1/2-z
-x,-y,-z
y,-x,-z
x,y,-z
-y,x,-z
-x,y,1/2+z
x,-y,1/2+z
-y,-x,1/2+z
y,x,1/2+z
loop_
_atom_site_type_symbol
_atom_site_label
_atom_site_fract_x
_atom_site_fract_y
_atom_site_fract_z
Si Si1 0.271418 0.946684 0.660294
Si Si2 0.431509 0.334721 0.500000
Si Si3 0.722049 0.627514 0.745000
Si Si4 0.055808 0.438372 0.825199
Si Si5 0.943341 0.862554 0.668390
Si Si6 0.146040 0.635771 0.832600
Si Si7 0.566891 0.340327 0.500000
O O1 0.280725 0.967630 0.500000
O O2 0.205016 0.935617 0.695284
O O3 0.303237 0.886131 0.689500
O O4 0.297020 0.000000 0.750000
O O5 0.412298 0.291572 0.622334
O O6 0.498614 0.352194 0.500000
O O7 0.400361 0.397350 0.500000
O O8 0.688655 0.688655 0.750000
O O9 0.788895 0.642635 0.722809
O O10 0.699394 0.583993 0.628796
O O11 0.058028 0.500000 0.750000
O O12 0.114695 0.408453 0.774171
O O13 0.000000 0.406813 0.750000
O O14 0.051183 0.440763 0.000000
O O15 0.889295 0.889295 0.750000
O O16 0.945493 0.878551 0.500000
O O17 0.000000 0.886049 0.750000
O O18 0.144070 0.616335 0.000000
#
# Coordination Sequence:
#
# PCOD8313260 Si02
#       7
#    16   8  16  16  16  16   8
#     4   9  20  37  58  82 113 151 194 247 299 347
#     4  10  22  37  64  88 121 153 203 237 306 356
#     4  10  22  40  60  84 123 160 197 246 304 361
#     4  11  23  40  60  86 120 157 197 247 300 350
#     4  10  20  36  57  83 115 150 192 240 296 356
#     4  11  22  39  60  86 117 158 203 247 299 357
#     4  10  20  41  60  90 117 161 189 251 296 360
#
# _framework density 19.196833000000002
#
# number of rings (size 3 to 8) (size 9 to 14) (size 15 to 20)
#    0.000    1.833    0.833    3.500    1.167    5.000 
#    0.000    0.833    0.000    3.000    0.000    0.000 
#    0.000    0.000    0.000    0.000    0.000    0.000 
#
# Total GULP energy -1189428.052693 kJ/mol
# GULP energy per Si atom -12389.875549 kJ/mol
# Density = 1.915314 g / cm^3
# Si number density = 19.196833 Si / 1000 Ang^3
#
#
#
# Elastic Constant Matrix: (Units=GPa)
#
#
# Indices 1 2 3 4 5 6 
#
# 1 136.4069 59.2742 65.3902 0.0000 0.0000 0.0000
# 2 59.2742 136.4069 65.3902 0.0000 0.0000 0.0000
# 3 65.3902 65.3902 164.3617 0.0000 0.0000 0.0000
# 4 0.0000 0.0000 0.0000 34.6262 0.0000 0.0000
# 5 0.0000 0.0000 0.0000 0.0000 34.6262 0.0000
# 6 0.0000 0.0000 0.0000 0.0000 0.0000 23.4879
#
#
#
# Elastic Compliance Matrix: (Units=1/GPa)
#
#
# Indices 1 2 3 4 5 6 
#
# 1 0.009963 -0.003002 -0.002770 0.000000 0.000000 0.000000
# 2 -0.003002 0.009963 -0.002770 0.000000 0.000000 0.000000
# 3 -0.002770 -0.002770 0.008288 0.000000 0.000000 0.000000
# 4 0.000000 0.000000 0.000000 0.028880 0.000000 0.000000
# 5 0.000000 0.000000 0.000000 0.000000 0.028880 0.000000
# 6 0.000000 0.000000 0.000000 0.000000 0.000000 0.042575
#
#
# Mechanical properties :
#
#
# Convention : Reuss Voigt Hill
#
# Bulk Modulus (GPa) = 89.82800 90.80942 90.31871
# Shear Modulus (GPa) = 33.48046 35.02278 34.25162
#
# Velocity S-wave (km/s) = 4.18073 4.27594 4.22860
# Velocity P-wave (km/s) = 8.37851 8.47262 8.42569
#
# Compressibility (1/GPa) = 0.01113239
#
# Stress axis : x y z
#
# Youngs Moduli (GPa) = 100.37137 100.37137 120.65912
#
# Poissons Ratio (x) = 0.30128 0.33417
# Poissons Ratio (y) = 0.30128 0.33417
# Poissons Ratio (z) = 0.27798 0.27798
#
# Static dielectric constant tensor:
#      x y z
#    x 3.586650 0.000000 0.000000 
#    y 0.000000 3.586650 0.000000 
#    z 0.000000 0.000000 3.804920 
# 
# 
# High freq. dielectric constant tensor:
#      x y z
#    x 1.747280 0.000000 0.000000 
#    y 0.000000 1.747280 0.000000 
#    z 0.000000 0.000000 1.765940 
# 
# From -- ./inp_files/1425.got.cif
#   From: 2010.03.12/outbox.cif.g09.slc.cpg/sg124_1_cif.got.tgz:1425.got - 2010.04.06 16:38:57.
