data_PCOD8313539
_publ_section_title
;
Structure prediction by ZEFSAII (Michael W. Deem and Ramdas Pophale) SiO2 
 PCOD8313539
Probable space group: P 4/N B M
;
_chemical_formula_sum "Si O2"
_cell_formula_units_Z 88
_cell_length_a 12.383028
_cell_length_b 12.383028
_cell_length_c 28.394545
_cell_angle_alpha 90.000000
_cell_angle_beta 90.000000
_cell_angle_gamma 90.000000
_cell_volume 4354.001995
_symmetry_space_group_name_H-M "P 4/N B M"
_symmetry_group_IT_number 125
_space_group.IT_coordinate_system_code '2'
_symmetry_cell_setting 'tetragonal'
loop_
_space_group_symop_operation_xyz
x,y,z
1/2-y,x,z
1/2-x,1/2-y,z
y,1/2-x,z
x,1/2-y,-z
1/2-x,y,-z
y,x,-z
1/2-y,1/2-x,-z
-x,-y,-z
1/2+y,-x,-z
1/2+x,1/2+y,-z
-y,1/2+x,-z
-x,1/2+y,z
1/2+x,-y,z
-y,-x,z
1/2+y,1/2+x,z
loop_
_atom_site_type_symbol
_atom_site_label
_atom_site_fract_x
_atom_site_fract_y
_atom_site_fract_z
Si Si1 0.078948 0.748394 0.174498
Si Si2 0.875502 0.375502 0.489909
Si Si3 0.727176 0.927197 0.088088
Si Si4 0.580124 0.697538 0.747708
Si Si5 0.671017 0.592698 0.357310
Si Si6 0.075836 0.750000 0.000000
Si Si7 0.986728 0.486728 0.573414
O O1 0.146641 0.853360 0.192371
O O2 0.161661 0.661661 0.152069
O O3 0.994715 0.786541 0.135520
O O4 0.020035 0.685417 0.217243
O O5 0.899993 0.250000 0.500000
O O6 0.945422 0.445422 0.524479
O O7 0.920575 0.420575 0.438447
O O8 0.630341 0.842366 0.086871
O O9 0.713310 0.003167 0.043377
O O10 0.679799 0.618132 0.756998
O O11 0.541894 0.664547 0.695136
O O12 0.796716 0.607486 0.364534
O O13 0.617733 0.521631 0.397174
O O14 0.149339 0.850662 0.984171
#
# Coordination Sequence:
#
# PCOD8313539 Si02
#       7
#    16   8  16  16  16   8   8
#     4  11  24  39  57  84 121 155 196 249 299 363
#     4  10  22  38  56  82 126 158 194 246 304 353
#     4  11  24  41  62  89 117 153 203 252 302 370
#     4   9  19  37  59  82 112 151 191 242 297 352
#     4   9  19  36  56  82 117 148 191 250 297 345
#     4  11  24  41  62  90 124 155 194 247 310 374
#     4  11  20  34  62  88 108 158 208 240 291 365
#
# _framework density 20.211292
#
# number of rings (size 3 to 8) (size 9 to 14) (size 15 to 20)
#    0.000    1.818    0.000    4.909    1.273    9.455 
#    4.909    0.000    0.000    4.364    0.000    0.000 
#    0.000    0.000    0.000    0.000    0.000    0.000 
#
# Total GULP energy -1090421.731681 kJ/mol
# GULP energy per Si atom -12391.156042 kJ/mol
# Density = 2.016529 g / cm^3
# Si number density = 20.211292 Si / 1000 Ang^3
#
#
#
# Elastic Constant Matrix: (Units=GPa)
#
#
# Indices 1 2 3 4 5 6 
#
# 1 79.3890 31.1749 34.5595 0.0000 0.0000 0.0000
# 2 31.1749 79.3890 34.5595 0.0000 0.0000 0.0000
# 3 34.5595 34.5595 104.4861 0.0000 0.0000 0.0000
# 4 0.0000 0.0000 0.0000 40.8769 0.0000 0.0000
# 5 0.0000 0.0000 0.0000 0.0000 40.8769 0.0000
# 6 0.0000 0.0000 0.0000 0.0000 0.0000 24.3617
#
#
#
# Elastic Compliance Matrix: (Units=1/GPa)
#
#
# Indices 1 2 3 4 5 6 
#
# 1 0.016071 -0.004669 -0.003771 0.000000 0.000000 0.000000
# 2 -0.004669 0.016071 -0.003771 0.000000 0.000000 0.000000
# 3 -0.003771 -0.003771 0.012065 0.000000 0.000000 0.000000
# 4 0.000000 0.000000 0.000000 0.024464 0.000000 0.000000
# 5 0.000000 0.000000 0.000000 0.000000 0.024464 0.000000
# 6 0.000000 0.000000 0.000000 0.000000 0.000000 0.041048
#
#
# Mechanical properties :
#
#
# Convention : Reuss Voigt Hill
#
# Bulk Modulus (GPa) = 50.54478 51.53910 51.04194
# Shear Modulus (GPa) = 30.26583 32.08777 31.17680
#
# Velocity S-wave (km/s) = 3.87392 3.98881 3.93178
# Velocity P-wave (km/s) = 6.71358 6.83884 6.77650
#
# Compressibility (1/GPa) = 0.01978444
#
# Stress axis : x y z
#
# Youngs Moduli (GPa) = 62.22196 62.22196 82.88125
#
# Poissons Ratio (x) = 0.29053 0.31257
# Poissons Ratio (y) = 0.29053 0.31257
# Poissons Ratio (z) = 0.23466 0.23466
#
# Static dielectric constant tensor:
#      x y z
#    x 3.599610 0.000000 0.000000 
#    y 0.000000 3.599610 0.000000 
#    z 0.000000 0.000000 3.813130 
# 
# 
# High freq. dielectric constant tensor:
#      x y z
#    x 1.791810 0.000000 0.000000 
#    y 0.000000 1.791810 0.000000 
#    z 0.000000 0.000000 1.790410 
# 
# From -- ./inp_files/6618.got.cif
#   From: 2010.03.12/outbox.cif.g09.slc.cpg/sg125_4_cif.got.tgz:6618.got - 2010.04.06 16:47:52.
