data_PCOD8313383
_publ_section_title
;
Structure prediction by ZEFSAII (Michael W. Deem and Ramdas Pophale) SiO2 
 PCOD8313383
Probable space group: P 4/M C C
;
_chemical_formula_sum "Si O2"
_cell_formula_units_Z 80
_cell_length_a 11.515782
_cell_length_b 11.515782
_cell_length_c 27.812856
_cell_angle_alpha 90.000000
_cell_angle_beta 90.000000
_cell_angle_gamma 90.000000
_cell_volume 3688.352811
_symmetry_space_group_name_H-M "P 4/M C C"
_symmetry_group_IT_number 124
_symmetry_cell_setting 'tetragonal'
loop_
_space_group_symop_operation_xyz
x,y,z
-y,x,z
-x,-y,z
y,-x,z
x,-y,1/2-z
-x,y,1/2-z
y,x,1/2-z
-y,-x,1/2-z
-x,-y,-z
y,-x,-z
x,y,-z
-y,x,-z
-x,y,1/2+z
x,-y,1/2+z
-y,-x,1/2+z
y,x,1/2+z
loop_
_atom_site_type_symbol
_atom_site_label
_atom_site_fract_x
_atom_site_fract_y
_atom_site_fract_z
Si Si1 0.894612 0.412683 0.054474
Si Si2 0.043786 0.822218 0.108121
Si Si3 0.086074 0.769571 0.787187
Si Si4 0.134129 0.469742 0.303632
Si Si5 0.500866 0.306806 0.114389
O O1 0.919027 0.303035 0.088825
O O2 0.778747 0.483112 0.069107
O O3 0.000000 0.500000 0.059953
O O4 0.880863 0.368242 0.000000
O O5 0.029244 0.828601 0.166273
O O6 0.915767 0.860383 0.089851
O O7 0.139948 0.860053 0.750000
O O8 0.164518 0.667456 0.808782
O O9 0.000000 0.701603 0.750000
O O10 0.168911 0.500000 0.250000
O O11 0.225255 0.527040 0.339664
O O12 0.000000 0.500000 0.317905
O O13 0.614621 0.385723 0.113236
#
# Coordination Sequence:
#
# PCOD8313383 Si02
#       5
#    16  16  16  16  16
#     4  11  27  48  76 104 134 180 235 293 359 432
#     4  11  25  43  69 106 147 183 223 287 351 419
#     4  12  23  36  62  99 136 181 230 272 328 408
#     4  11  24  39  63  97 135 184 232 282 341 409
#     4  11  27  46  69 100 137 182 235 296 356 420
#
# _framework density 21.689900999999999
#
# number of rings (size 3 to 8) (size 9 to 14) (size 15 to 20)
#    0.000    0.800    6.000    0.600    5.600    1.800 
#    0.000    3.000    0.000    0.000    0.000    0.000 
#    0.000    0.000    0.000    0.000    0.000    0.000 
#
# Total GULP energy -991047.665744 kJ/mol
# GULP energy per Si atom -12388.095822 kJ/mol
# Density = 2.164053 g / cm^3
# Si number density = 21.689901 Si / 1000 Ang^3
#
#
#
# Elastic Constant Matrix: (Units=GPa)
#
#
# Indices 1 2 3 4 5 6 
#
# 1 104.2415 35.4339 48.5667 0.0000 0.0000 0.0000
# 2 35.4339 104.2399 48.5670 0.0000 0.0000 0.0000
# 3 48.5667 48.5670 137.7044 0.0000 0.0000 0.0000
# 4 0.0000 0.0000 0.0000 23.3128 0.0000 0.0000
# 5 0.0000 0.0000 0.0000 0.0000 23.3130 0.0000
# 6 0.0000 0.0000 0.0000 0.0000 0.0000 25.9351
#
#
#
# Elastic Compliance Matrix: (Units=1/GPa)
#
#
# Indices 1 2 3 4 5 6 
#
# 1 0.012010 -0.002524 -0.003346 0.000000 0.000000 0.000000
# 2 -0.002524 0.012010 -0.003346 0.000000 0.000000 0.000000
# 3 -0.003346 -0.003346 0.009622 0.000000 0.000000 0.000000
# 4 0.000000 0.000000 0.000000 0.042895 0.000000 0.000000
# 5 0.000000 0.000000 0.000000 0.000000 0.042895 0.000000
# 6 0.000000 0.000000 0.000000 0.000000 0.000000 0.038558
#
#
# Mechanical properties :
#
#
# Convention : Reuss Voigt Hill
#
# Bulk Modulus (GPa) = 65.73948 67.92455 66.83202
# Shear Modulus (GPa) = 27.54984 28.75338 28.15161
#
# Velocity S-wave (km/s) = 3.56781 3.64491 3.60656
# Velocity P-wave (km/s) = 6.88091 7.00700 6.94424
#
# Compressibility (1/GPa) = 0.01521156
#
# Stress axis : x y z
#
# Youngs Moduli (GPa) = 83.26616 83.26432 103.92961
#
# Poissons Ratio (x) = 0.21013 0.34771
# Poissons Ratio (y) = 0.21013 0.34772
# Poissons Ratio (z) = 0.27858 0.27858
#
# Static dielectric constant tensor:
#      x y z
#    x 4.093760 0.000000 0.000000 
#    y 0.000000 4.093820 0.000000 
#    z 0.000000 0.000000 4.700640 
# 
# 
# High freq. dielectric constant tensor:
#      x y z
#    x 1.856930 0.000000 0.000000 
#    y 0.000000 1.856930 0.000000 
#    z 0.000000 0.000000 1.851190 
# 
# From -- ./inp_files/6904.got.cif
#   From: 2010.03.12/outbox.cif.g09.slc.cpg/sg124_4_cif.got.tgz:6904.got - 2010.04.06 16:38:57.
