data_PCOD8313037
_publ_section_title
;
Structure prediction by ZEFSAII (Michael W. Deem and Ramdas Pophale) SiO2 
 PCOD8313037
Probable space group: P 4/M M M
;
_chemical_formula_sum "Si O2"
_cell_formula_units_Z 112
_cell_length_a 18.340376
_cell_length_b 18.340376
_cell_length_c 22.176206
_cell_angle_alpha 90.000000
_cell_angle_beta 90.000000
_cell_angle_gamma 90.000000
_cell_volume 7459.396925
_symmetry_space_group_name_H-M "P 4/M M M"
_symmetry_group_IT_number 123
_symmetry_cell_setting 'tetragonal'
loop_
_space_group_symop_operation_xyz
x,y,z
-y,x,z
-x,-y,z
y,-x,z
x,-y,-z
-x,y,-z
y,x,-z
-y,-x,-z
-x,-y,-z
y,-x,-z
x,y,-z
-y,x,-z
-x,y,z
x,-y,z
-y,-x,z
y,x,z
loop_
_atom_site_type_symbol
_atom_site_label
_atom_site_fract_x
_atom_site_fract_y
_atom_site_fract_z
Si Si1 0.301748 0.580906 0.714375
Si Si2 0.083487 0.798003 0.322104
Si Si3 0.799676 0.584813 0.177591
Si Si4 0.348157 0.915908 0.254692
Si Si5 0.581543 0.162405 0.636353
Si Si6 0.416402 0.702597 0.931294
Si Si7 0.726333 0.157025 0.568442
O O1 0.333751 0.500000 0.721208
O O2 0.367352 0.632649 0.696887
O O3 0.265110 0.605761 0.776849
O O4 0.244067 0.584825 0.660777
O O5 0.133034 0.866966 0.305515
O O6 0.099931 0.735280 0.273150
O O7 0.099734 0.767554 0.388846
O O8 0.000000 0.823329 0.319783
O O9 0.820726 0.500000 0.184484
O O10 0.870509 0.632795 0.194264
O O11 0.771856 0.603958 0.110429
O O12 0.400875 0.893393 0.309590
O O13 0.361038 0.000000 0.239683
O O14 0.500000 0.144594 0.611929
O O15 0.640239 0.157668 0.582813
O O16 0.500000 0.678755 0.919501
O O17 0.366886 0.633115 0.915333
O O18 0.404426 0.728054 0.000000
O O19 0.736206 0.130147 0.500000
O O20 0.762831 0.237170 0.577750
#
# Coordination Sequence:
#
# PCOD8313037 Si02
#       7
#    16  16  16  16  16  16  16
#     4   9  16  25  37  54  77 103 132 166 202 241
#     4   9  18  31  46  65  86 106 129 157 190 230
#     4   9  17  27  40  59  81 107 138 171 206 240
#     4   9  17  29  45  64  84 105 131 162 195 236
#     4   9  17  27  40  59  80 102 129 164 203 239
#     4   9  17  28  41  58  82 112 146 182 214 243
#     4   9  17  29  44  59  77 104 134 163 197 236
#
# _framework density 15.014619
#
# number of rings (size 3 to 8) (size 9 to 14) (size 15 to 20)
#    0.000    3.000    0.000    2.143    0.000    6.143 
#    0.000    0.714    0.000    3.000    0.000    8.000 
#    0.000    0.000    0.000   13.286    0.000    0.571 
#
# Total GULP energy -1388513.538076 kJ/mol
# GULP energy per Si atom -12397.442304 kJ/mol
# Density = 1.498045 g / cm^3
# Si number density = 15.014619 Si / 1000 Ang^3
#
#
#
# Elastic Constant Matrix: (Units=GPa)
#
#
# Indices 1 2 3 4 5 6 
#
# 1 96.0556 59.4404 35.3704 0.0000 0.0000 0.0000
# 2 59.4404 96.0556 35.3704 0.0000 0.0000 0.0000
# 3 35.3704 35.3704 66.7048 0.0000 0.0000 0.0000
# 4 0.0000 0.0000 0.0000 17.0773 0.0000 0.0000
# 5 0.0000 0.0000 0.0000 0.0000 17.0773 0.0000
# 6 0.0000 0.0000 0.0000 0.0000 0.0000 21.7101
#
#
#
# Elastic Compliance Matrix: (Units=1/GPa)
#
#
# Indices 1 2 3 4 5 6 
#
# 1 0.017893 -0.009418 -0.004494 0.000000 0.000000 0.000000
# 2 -0.009418 0.017893 -0.004494 0.000000 0.000000 0.000000
# 3 -0.004494 -0.004494 0.019758 0.000000 0.000000 0.000000
# 4 0.000000 0.000000 0.000000 0.058557 0.000000 0.000000
# 5 0.000000 0.000000 0.000000 0.000000 0.058557 0.000000
# 6 0.000000 0.000000 0.000000 0.000000 0.000000 0.046062
#
#
# Mechanical properties :
#
#
# Convention : Reuss Voigt Hill
#
# Bulk Modulus (GPa) = 53.38483 57.68652 55.53567
# Shear Modulus (GPa) = 19.10024 19.74857 19.42440
#
# Velocity S-wave (km/s) = 3.57053 3.63063 3.60071
# Velocity P-wave (km/s) = 7.25470 7.48859 7.37257
#
# Compressibility (1/GPa) = 0.01873191
#
# Stress axis : x y z
#
# Youngs Moduli (GPa) = 55.88663 55.88663 50.61351
#
# Poissons Ratio (x) = 0.52633 0.22747
# Poissons Ratio (y) = 0.52633 0.22747
# Poissons Ratio (z) = 0.25117 0.25117
#
# Static dielectric constant tensor:
#      x y z
#    x 2.852200 0.000000 0.000000 
#    y 0.000000 2.852200 0.000000 
#    z 0.000000 0.000000 2.778680 
# 
# 
# High freq. dielectric constant tensor:
#      x y z
#    x 1.567920 0.000000 0.000000 
#    y 0.000000 1.567920 0.000000 
#    z 0.000000 0.000000 1.552160 
# 
# From -- ./inp_files/6687.got.cif
#   From: 2010.03.12/outbox.cif.g09.slc.cpg/sg123_4_cif.got.tgz:6687.got - 2010.04.06 16:26:55.
