data_PCOD8313376
_publ_section_title
;
Structure prediction by ZEFSAII (Michael W. Deem and Ramdas Pophale) SiO2 
 PCOD8313376
Probable space group: P 4/M C C
;
_chemical_formula_sum "Si O2"
_cell_formula_units_Z 88
_cell_length_a 15.509542
_cell_length_b 15.509542
_cell_length_c 18.260418
_cell_angle_alpha 90.000000
_cell_angle_beta 90.000000
_cell_angle_gamma 90.000000
_cell_volume 4392.468555
_symmetry_space_group_name_H-M "P 4/M C C"
_symmetry_group_IT_number 124
_symmetry_cell_setting 'tetragonal'
loop_
_space_group_symop_operation_xyz
x,y,z
-y,x,z
-x,-y,z
y,-x,z
x,-y,1/2-z
-x,y,1/2-z
y,x,1/2-z
-y,-x,1/2-z
-x,-y,-z
y,-x,-z
x,y,-z
-y,x,-z
-x,y,1/2+z
x,-y,1/2+z
-y,-x,1/2+z
y,x,1/2+z
loop_
_atom_site_type_symbol
_atom_site_label
_atom_site_fract_x
_atom_site_fract_y
_atom_site_fract_z
Si Si1 0.260237 0.980056 0.866261
Si Si2 0.862193 0.967774 0.500000
Si Si3 0.083583 0.443625 0.080771
Si Si4 0.788735 0.449557 0.181589
Si Si5 0.552211 0.369959 0.584836
Si Si6 0.728265 0.135317 0.727507
O O1 0.192058 0.952611 0.926946
O O2 0.352852 0.953157 0.894833
O O3 0.247345 0.927460 0.792843
O O4 0.247872 0.082410 0.847078
O O5 0.936046 0.897379 0.500000
O O6 0.152106 0.484432 0.136136
O O7 0.000000 0.500000 0.076303
O O8 0.127077 0.436893 0.000000
O O9 0.747998 0.500000 0.250000
O O10 0.710766 0.414054 0.131754
O O11 0.843560 0.371938 0.215900
O O12 0.610553 0.452564 0.603838
O O13 0.562339 0.346332 0.500000
O O14 0.777938 0.222063 0.750000
#
# Coordination Sequence:
#
# PCOD8313376 Si02
#       6
#    16   8  16  16  16  16
#     4  11  22  43  67  90 129 169 208 261 321 386
#     4  11  24  44  71 100 126 162 219 274 318 377
#     4  11  22  39  62  92 124 164 208 253 319 385
#     4  12  24  36  62  94 129 164 214 263 316 383
#     4   9  21  43  64  84 120 169 217 266 319 373
#     4  11  25  41  61  92 132 170 209 256 321 384
#
# _framework density 20.034293999999999
#
# number of rings (size 3 to 8) (size 9 to 14) (size 15 to 20)
#    0.000    1.182    4.545    2.182    2.545    0.364 
#    1.636    0.909    0.000    4.364    0.000    0.000 
#    0.000    0.000    0.000    0.000    0.000    0.000 
#
# Total GULP energy -1090615.643417 kJ/mol
# GULP energy per Si atom -12393.359584 kJ/mol
# Density = 1.998869 g / cm^3
# Si number density = 20.034294 Si / 1000 Ang^3
#
#
#
# Elastic Constant Matrix: (Units=GPa)
#
#
# Indices 1 2 3 4 5 6 
#
# 1 83.0695 19.0211 38.8420 0.0000 0.0000 0.0000
# 2 19.0211 83.0667 38.8421 0.0000 0.0000 0.0000
# 3 38.8420 38.8421 108.9307 0.0000 0.0000 0.0000
# 4 0.0000 0.0000 0.0000 38.8395 0.0000 0.0000
# 5 0.0000 0.0000 0.0000 0.0000 38.8392 0.0000
# 6 0.0000 0.0000 0.0000 0.0000 0.0000 18.7834
#
#
#
# Elastic Compliance Matrix: (Units=1/GPa)
#
#
# Indices 1 2 3 4 5 6 
#
# 1 0.014528 -0.001085 -0.004793 0.000000 0.000000 0.000000
# 2 -0.001085 0.014528 -0.004794 0.000000 0.000000 0.000000
# 3 -0.004793 -0.004794 0.012599 0.000000 0.000000 0.000000
# 4 0.000000 0.000000 0.000000 0.025747 0.000000 0.000000
# 5 0.000000 0.000000 0.000000 0.000000 0.025747 0.000000
# 6 0.000000 0.000000 0.000000 0.000000 0.000000 0.053239
#
#
# Mechanical properties :
#
#
# Convention : Reuss Voigt Hill
#
# Bulk Modulus (GPa) = 49.23517 52.05306 50.64412
# Shear Modulus (GPa) = 28.65294 31.18321 29.91808
#
# Velocity S-wave (km/s) = 3.78589 3.94952 3.86857
# Velocity P-wave (km/s) = 6.61358 6.84373 6.72964
#
# Compressibility (1/GPa) = 0.02031068
#
# Stress axis : x y z
#
# Youngs Moduli (GPa) = 68.83308 68.83025 79.37407
#
# Poissons Ratio (x) = 0.07470 0.38046
# Poissons Ratio (y) = 0.07471 0.38048
# Poissons Ratio (z) = 0.32994 0.32994
#
# Static dielectric constant tensor:
#      x y z
#    x 3.721100 0.000000 0.000000 
#    y 0.000000 3.721100 0.000000 
#    z 0.000000 0.000000 4.060820 
# 
# 
# High freq. dielectric constant tensor:
#      x y z
#    x 1.780250 0.000000 0.000000 
#    y 0.000000 1.780250 0.000000 
#    z 0.000000 0.000000 1.798110 
# 
# From -- ./inp_files/5175.got.cif
#   From: 2010.03.12/outbox.cif.g09.slc.cpg/sg124_3_cif.got.tgz:5175.got - 2010.04.06 16:38:57.
