data_PCOD8313535
_publ_section_title
;
Structure prediction by ZEFSAII (Michael W. Deem and Ramdas Pophale) SiO2 
 PCOD8313535
Probable space group: P 4/N B M
;
_chemical_formula_sum "Si O2"
_cell_formula_units_Z 112
_cell_length_a 14.666368
_cell_length_b 14.666368
_cell_length_c 27.805505
_cell_angle_alpha 90.000000
_cell_angle_beta 90.000000
_cell_angle_gamma 90.000000
_cell_volume 5981.029477
_symmetry_space_group_name_H-M "P 4/N B M"
_symmetry_group_IT_number 125
_space_group.IT_coordinate_system_code '2'
_symmetry_cell_setting 'tetragonal'
loop_
_space_group_symop_operation_xyz
x,y,z
1/2-y,x,z
1/2-x,1/2-y,z
y,1/2-x,z
x,1/2-y,-z
1/2-x,y,-z
y,x,-z
1/2-y,1/2-x,-z
-x,-y,-z
1/2+y,-x,-z
1/2+x,1/2+y,-z
-y,1/2+x,-z
-x,1/2+y,z
1/2+x,-y,z
-y,-x,z
1/2+y,1/2+x,z
loop_
_atom_site_type_symbol
_atom_site_label
_atom_site_fract_x
_atom_site_fract_y
_atom_site_fract_z
Si Si1 0.506050 0.646994 0.521955
Si Si2 0.369551 0.020084 0.290866
Si Si3 0.253931 0.898951 0.052960
Si Si4 0.243723 0.993806 0.150180
Si Si5 0.315809 0.385002 0.612956
Si Si6 0.745553 0.391091 0.758793
Si Si7 0.564982 0.918077 0.188470
O O1 0.494620 0.750000 0.500000
O O2 0.591806 0.591806 0.500000
O O3 0.411607 0.588394 0.516074
O O4 0.532638 0.655115 0.577903
O O5 0.343685 0.086456 0.333688
O O6 0.407609 0.078757 0.245945
O O7 0.443292 0.943292 0.306399
O O8 0.272831 0.977240 0.273512
O O9 0.175357 0.824644 0.056706
O O10 0.351642 0.851642 0.060702
O O11 0.240805 0.974228 0.093647
O O12 0.250000 0.945399 0.000000
O O13 0.145816 0.025530 0.166719
O O14 0.321842 0.067610 0.160685
O O15 0.263659 0.907097 0.184317
O O16 0.208595 0.369920 0.604023
O O17 0.640478 0.359523 0.749419
O O18 0.810026 0.310026 0.742441
O O19 0.469210 0.969210 0.178542
#
# Coordination Sequence:
#
# PCOD8313535 Si02
#       7
#    16  16  16  16  16  16  16
#     4  11  23  43  71  99 127 164 208 256 309 362
#     4   9  20  37  52  79 119 149 190 248 295 351
#     4   9  17  30  52  81 107 133 175 239 306 355
#     4  11  20  34  52  74 109 145 185 235 282 343
#     4  11  23  38  61  90 121 164 209 248 296 356
#     4   9  17  31  53  76 100 141 190 237 294 348
#     4  10  22  36  55  81 108 149 196 235 282 344
#
# _framework density 18.725873
#
# number of rings (size 3 to 8) (size 9 to 14) (size 15 to 20)
#    0.000    2.000    1.429    4.286    4.000    1.714 
#    0.000    2.143    0.000    4.286    0.000    1.000 
#    0.000    0.000    0.000    0.000    0.000    0.000 
#
# Total GULP energy -1387776.690834 kJ/mol
# GULP energy per Si atom -12390.863311 kJ/mol
# Density = 1.868325 g / cm^3
# Si number density = 18.725873 Si / 1000 Ang^3
#
#
#
# Elastic Constant Matrix: (Units=GPa)
#
#
# Indices 1 2 3 4 5 6 
#
# 1 73.7645 39.9622 42.4026 0.0000 0.0000 0.0000
# 2 39.9622 73.7645 42.4026 0.0000 0.0000 0.0000
# 3 42.4026 42.4026 123.9449 0.0000 0.0000 0.0000
# 4 0.0000 0.0000 0.0000 24.5999 0.0000 0.0000
# 5 0.0000 0.0000 0.0000 0.0000 24.5999 0.0000
# 6 0.0000 0.0000 0.0000 0.0000 0.0000 16.5174
#
#
#
# Elastic Compliance Matrix: (Units=1/GPa)
#
#
# Indices 1 2 3 4 5 6 
#
# 1 0.020694 -0.008890 -0.004038 0.000000 0.000000 0.000000
# 2 -0.008890 0.020694 -0.004038 0.000000 0.000000 0.000000
# 3 -0.004038 -0.004038 0.010831 0.000000 0.000000 0.000000
# 4 0.000000 0.000000 0.000000 0.040650 0.000000 0.000000
# 5 0.000000 0.000000 0.000000 0.000000 0.040650 0.000000
# 6 0.000000 0.000000 0.000000 0.000000 0.000000 0.060542
#
#
# Mechanical properties :
#
#
# Convention : Reuss Voigt Hill
#
# Bulk Modulus (GPa) = 54.68516 57.88985 56.28750
# Shear Modulus (GPa) = 21.35922 22.92390 22.14156
#
# Velocity S-wave (km/s) = 3.38098 3.50263 3.44234
# Velocity P-wave (km/s) = 6.67141 6.88036 6.77669
#
# Compressibility (1/GPa) = 0.01828650
#
# Stress axis : x y z
#
# Youngs Moduli (GPa) = 48.32293 48.32293 92.32564
#
# Poissons Ratio (x) = 0.42958 0.37285
# Poissons Ratio (y) = 0.42958 0.37285
# Poissons Ratio (z) = 0.19515 0.19515
#
# Static dielectric constant tensor:
#      x y z
#    x 3.464970 0.000000 0.000000 
#    y 0.000000 3.464970 0.000000 
#    z 0.000000 0.000000 3.522570 
# 
# 
# High freq. dielectric constant tensor:
#      x y z
#    x 1.720030 0.000000 0.000000 
#    y 0.000000 1.720030 0.000000 
#    z 0.000000 0.000000 1.721740 
# 
# From -- ./inp_files/6459.got.cif
#   From: 2010.03.12/outbox.cif.g09.slc.cpg/sg125_4_cif.got.tgz:6459.got - 2010.04.06 16:47:52.
