data_PCOD8313287
_publ_section_title
;
Structure prediction by ZEFSAII (Michael W. Deem and Ramdas Pophale) SiO2 
 PCOD8313287
Probable space group: P 4/M C C
;
_chemical_formula_sum "Si O2"
_cell_formula_units_Z 104
_cell_length_a 18.504154
_cell_length_b 18.504154
_cell_length_c 15.941950
_cell_angle_alpha 90.000000
_cell_angle_beta 90.000000
_cell_angle_gamma 90.000000
_cell_volume 5458.582908
_symmetry_space_group_name_H-M "P 4/M C C"
_symmetry_group_IT_number 124
_symmetry_cell_setting 'tetragonal'
loop_
_space_group_symop_operation_xyz
x,y,z
-y,x,z
-x,-y,z
y,-x,z
x,-y,1/2-z
-x,y,1/2-z
y,x,1/2-z
-y,-x,1/2-z
-x,-y,-z
y,-x,-z
x,y,-z
-y,x,-z
-x,y,1/2+z
x,-y,1/2+z
-y,-x,1/2+z
y,x,1/2+z
loop_
_atom_site_type_symbol
_atom_site_label
_atom_site_fract_x
_atom_site_fract_y
_atom_site_fract_z
Si Si1 0.887927 0.010048 0.900475
Si Si2 0.270298 0.957894 0.097145
Si Si3 0.632310 0.000000 0.750000
Si Si4 0.802709 0.323470 0.593688
Si Si5 0.553421 0.399965 0.401148
Si Si6 0.841109 0.418006 0.744769
Si Si7 0.343781 0.717312 0.666984
O O1 0.806701 0.015766 0.868708
O O2 0.935494 0.077468 0.866776
O O3 0.889000 0.012761 0.000000
O O4 0.324488 0.994557 0.162619
O O5 0.269910 0.870838 0.103526
O O6 0.286818 0.981519 0.000000
O O7 0.585364 0.072700 0.740844
O O8 0.797925 0.355082 0.500000
O O9 0.815931 0.391678 0.653329
O O10 0.729425 0.278876 0.612106
O O11 0.597252 0.470584 0.366882
O O12 0.551547 0.404196 0.500000
O O13 0.591474 0.325513 0.376834
O O14 0.815410 0.500000 0.750000
O O15 0.799165 0.369862 0.814398
O O16 0.326714 0.673287 0.750000
#
# Coordination Sequence:
#
# PCOD8313287 Si02
#       7
#    16  16   8  16  16  16  16
#     4   8  14  26  46  75 109 142 176 216 266 332
#     4   9  18  34  57  80 106 146 187 228 287 345
#     4  10  21  40  60  79 110 146 188 246 294 337
#     4   9  19  37  57  80 112 146 184 234 287 339
#     4   9  19  34  51  75 110 148 181 218 270 333
#     4  10  22  39  59  83 110 148 191 236 290 342
#     4  10  21  33  53  79 108 140 185 232 276 337
#
# _framework density 19.052565000000001
#
# number of rings (size 3 to 8) (size 9 to 14) (size 15 to 20)
#    0.000    2.769    0.000    1.615    4.308    1.231 
#    0.000    7.692    0.000    4.615    0.000    0.000 
#    0.000    0.000    0.000    0.000    0.000    0.000 
#
# Total GULP energy -1288895.018404 kJ/mol
# GULP energy per Si atom -12393.221331 kJ/mol
# Density = 1.900920 g / cm^3
# Si number density = 19.052565 Si / 1000 Ang^3
#
#
#
# Elastic Constant Matrix: (Units=GPa)
#
#
# Indices 1 2 3 4 5 6 
#
# 1 89.9601 24.2100 31.4108 0.0000 0.0000 0.0000
# 2 24.2100 89.9605 31.4107 0.0000 0.0000 0.0000
# 3 31.4108 31.4107 75.2148 0.0000 0.0000 0.0000
# 4 0.0000 0.0000 0.0000 20.5797 0.0000 0.0000
# 5 0.0000 0.0000 0.0000 0.0000 20.5802 0.0000
# 6 0.0000 0.0000 0.0000 0.0000 0.0000 20.1312
#
#
#
# Elastic Compliance Matrix: (Units=1/GPa)
#
#
# Indices 1 2 3 4 5 6 
#
# 1 0.013291 -0.001919 -0.004749 0.000000 0.000000 0.000000
# 2 -0.001919 0.013291 -0.004749 0.000000 0.000000 0.000000
# 3 -0.004749 -0.004749 0.017262 0.000000 0.000000 0.000000
# 4 0.000000 0.000000 0.000000 0.048592 0.000000 0.000000
# 5 0.000000 0.000000 0.000000 0.000000 0.048590 0.000000
# 6 0.000000 0.000000 0.000000 0.000000 0.000000 0.049674
#
#
# Mechanical properties :
#
#
# Convention : Reuss Voigt Hill
#
# Bulk Modulus (GPa) = 47.59769 47.68872 47.64320
# Shear Modulus (GPa) = 22.67207 23.46514 23.06861
#
# Velocity S-wave (km/s) = 3.45334 3.51322 3.48341
# Velocity P-wave (km/s) = 6.39823 6.44526 6.42179
#
# Compressibility (1/GPa) = 0.02100942
#
# Stress axis : x y z
#
# Youngs Moduli (GPa) = 75.24122 75.24171 57.93122
#
# Poissons Ratio (x) = 0.14435 0.27512
# Poissons Ratio (y) = 0.14435 0.27512
# Poissons Ratio (z) = 0.35733 0.35733
#
# Static dielectric constant tensor:
#      x y z
#    x 3.542340 0.000000 0.000000 
#    y 0.000000 3.542350 0.000000 
#    z 0.000000 0.000000 3.454360 
# 
# 
# High freq. dielectric constant tensor:
#      x y z
#    x 1.735930 0.000000 0.000000 
#    y 0.000000 1.735930 0.000000 
#    z 0.000000 0.000000 1.732060 
# 
# From -- ./inp_files/4339.got.cif
#   From: 2010.03.12/outbox.cif.g09.slc.cpg/sg124_3_cif.got.tgz:4339.got - 2010.04.06 16:38:57.
