data_PCOD8313355
_publ_section_title
;
Structure prediction by ZEFSAII (Michael W. Deem and Ramdas Pophale) SiO2 
 PCOD8313355
Probable space group: P 4/M C C
;
_chemical_formula_sum "Si O2"
_cell_formula_units_Z 72
_cell_length_a 11.594106
_cell_length_b 11.594106
_cell_length_c 27.911707
_cell_angle_alpha 90.000000
_cell_angle_beta 90.000000
_cell_angle_gamma 90.000000
_cell_volume 3751.983594
_symmetry_space_group_name_H-M "P 4/M C C"
_symmetry_group_IT_number 124
_symmetry_cell_setting 'tetragonal'
loop_
_space_group_symop_operation_xyz
x,y,z
-y,x,z
-x,-y,z
y,-x,z
x,-y,1/2-z
-x,y,1/2-z
y,x,1/2-z
-y,-x,1/2-z
-x,-y,-z
y,-x,-z
x,y,-z
-y,x,-z
-x,y,1/2+z
x,-y,1/2+z
-y,-x,1/2+z
y,x,1/2+z
loop_
_atom_site_type_symbol
_atom_site_label
_atom_site_fract_x
_atom_site_fract_y
_atom_site_fract_z
Si Si1 0.637495 0.006437 0.196468
Si Si2 0.584012 0.786626 0.154020
Si Si3 0.657659 0.800531 0.374124
Si Si4 0.092437 0.838207 0.556261
Si Si5 0.311310 0.500000 0.750000
O O1 0.669787 0.894621 0.163883
O O2 0.500000 0.000000 0.197361
O O3 0.689746 0.000000 0.250000
O O4 0.689863 0.119310 0.171410
O O5 0.481017 0.808854 0.115222
O O6 0.665834 0.683167 0.137054
O O7 0.508769 0.765671 0.202651
O O8 0.730069 0.844380 0.419359
O O9 0.103656 0.818450 0.500000
O O10 0.957696 0.844743 0.571006
O O11 0.385299 0.385299 0.750000
#
# Coordination Sequence:
#
# PCOD8313355 Si02
#       5
#    16  16  16  16   8
#     4   9  19  32  48  72 108 149 189 230 279 327
#     4  11  21  33  52  78 111 152 192 237 282 331
#     4  11  21  35  53  81 114 149 192 235 286 348
#     4   9  19  39  66  89 108 137 183 243 305 359
#     4  11  20  32  51  76 112 151 204 239 264 326
#
# _framework density 19.189848999999999
#
# number of rings (size 3 to 8) (size 9 to 14) (size 15 to 20)
#    0.000    1.889    2.222    4.667    0.000    0.444 
#    0.000    1.111    0.000    8.667    0.000    3.111 
#    0.000    0.000    0.000    0.000    0.000    0.000 
#
# Total GULP energy -892294.389255 kJ/mol
# GULP energy per Si atom -12392.977629 kJ/mol
# Density = 1.914617 g / cm^3
# Si number density = 19.189849 Si / 1000 Ang^3
#
#
#
# Elastic Constant Matrix: (Units=GPa)
#
#
# Indices 1 2 3 4 5 6 
#
# 1 106.7307 34.7897 37.6200 0.0000 0.0000 0.0000
# 2 34.7897 106.7307 37.6200 0.0000 0.0000 0.0000
# 3 37.6200 37.6200 65.5810 0.0000 0.0000 0.0000
# 4 0.0000 0.0000 0.0000 26.4994 0.0000 0.0000
# 5 0.0000 0.0000 0.0000 0.0000 26.4994 0.0000
# 6 0.0000 0.0000 0.0000 0.0000 0.0000 32.3264
#
#
#
# Elastic Compliance Matrix: (Units=1/GPa)
#
#
# Indices 1 2 3 4 5 6 
#
# 1 0.012034 -0.001867 -0.005832 0.000000 0.000000 0.000000
# 2 -0.001867 0.012034 -0.005832 0.000000 0.000000 0.000000
# 3 -0.005832 -0.005832 0.021939 0.000000 0.000000 0.000000
# 4 0.000000 0.000000 0.000000 0.037737 0.000000 0.000000
# 5 0.000000 0.000000 0.000000 0.000000 0.037737 0.000000
# 6 0.000000 0.000000 0.000000 0.000000 0.000000 0.030934
#
#
# Mechanical properties :
#
#
# Convention : Reuss Voigt Hill
#
# Bulk Modulus (GPa) = 52.78554 55.45575 54.12065
# Shear Modulus (GPa) = 26.91198 28.33257 27.62227
#
# Velocity S-wave (km/s) = 3.74894 3.84661 3.79809
# Velocity P-wave (km/s) = 6.80486 6.97780 6.89187
#
# Compressibility (1/GPa) = 0.01894458
#
# Stress axis : x y z
#
# Youngs Moduli (GPa) = 83.10115 83.10115 45.58016
#
# Poissons Ratio (x) = 0.15513 0.26583
# Poissons Ratio (y) = 0.15513 0.26583
# Poissons Ratio (z) = 0.48465 0.48465
#
# Static dielectric constant tensor:
#      x y z
#    x 3.597300 0.000000 0.000000 
#    y 0.000000 3.597300 0.000000 
#    z 0.000000 0.000000 3.237680 
# 
# 
# High freq. dielectric constant tensor:
#      x y z
#    x 1.746090 0.000000 0.000000 
#    y 0.000000 1.746090 0.000000 
#    z 0.000000 0.000000 1.709830 
# 
# From -- ./inp_files/6871.got.cif
#   From: 2010.03.12/outbox.cif.g09.slc.cpg/sg124_4_cif.got.tgz:6871.got - 2010.04.06 16:38:57.
