data_PCOD8313457
_publ_section_title
;
Structure prediction by ZEFSAII (Michael W. Deem and Ramdas Pophale) SiO2 
 PCOD8313457
Probable space group: P 4/N B M
;
_chemical_formula_sum "Si O2"
_cell_formula_units_Z 96
_cell_length_a 17.393811
_cell_length_b 17.393811
_cell_length_c 18.212515
_cell_angle_alpha 90.000000
_cell_angle_beta 90.000000
_cell_angle_gamma 90.000000
_cell_volume 5510.099179
_symmetry_space_group_name_H-M "P 4/N B M"
_symmetry_group_IT_number 125
_space_group.IT_coordinate_system_code '2'
_symmetry_cell_setting 'tetragonal'
loop_
_space_group_symop_operation_xyz
x,y,z
1/2-y,x,z
1/2-x,1/2-y,z
y,1/2-x,z
x,1/2-y,-z
1/2-x,y,-z
y,x,-z
1/2-y,1/2-x,-z
-x,-y,-z
1/2+y,-x,-z
1/2+x,1/2+y,-z
-y,1/2+x,-z
-x,1/2+y,z
1/2+x,-y,z
-y,-x,z
1/2+y,1/2+x,z
loop_
_atom_site_type_symbol
_atom_site_label
_atom_site_fract_x
_atom_site_fract_y
_atom_site_fract_z
Si Si1 0.887843 0.985792 0.191365
Si Si2 0.766824 0.478616 0.916573
Si Si3 0.638809 0.014312 0.196577
Si Si4 0.687109 0.312892 0.133585
Si Si5 0.813909 0.186092 0.307920
Si Si6 0.252555 0.374069 0.586471
Si Si7 0.765805 0.480185 0.686708
O O1 0.940623 0.913740 0.207249
O O2 0.840151 0.974694 0.115515
O O3 0.830998 0.989400 0.259443
O O4 0.935611 0.064390 0.184595
O O5 0.691343 0.503075 0.872893
O O6 0.783149 0.389128 0.905251
O O7 0.750000 0.500359 0.000000
O O8 0.590367 0.090367 0.179846
O O9 0.685679 0.028447 0.270746
O O10 0.750000 0.250000 0.117833
O O11 0.674641 0.325360 0.220456
O O12 0.750000 0.250000 0.325955
O O13 0.788518 0.104519 0.343627
O O14 0.175813 0.327328 0.610148
O O15 0.250000 0.386797 0.500000
O O16 0.255568 0.458398 0.621952
#
# Coordination Sequence:
#
# PCOD8313457 Si02
#       7
#    16  16  16   8   8  16  16
#     4  10  19  35  50  74 104 137 172 218 271 317
#     4  11  22  33  48  72 100 137 173 221 272 319
#     4  10  21  33  52  75 103 134 178 220 264 322
#     4  11  20  32  50  72 101 128 174 220 271 319
#     4  11  20  34  58  78 110 147 183 223 277 322
#     4   9  19  36  60  88 115 144 180 224 271 313
#     4  11  18  34  57  83 107 143 176 223 262 321
#
# _framework density 17.422554000000002
#
# number of rings (size 3 to 8) (size 9 to 14) (size 15 to 20)
#    0.000    1.667    5.000    2.500    2.333    0.667 
#    0.000    1.667    3.667    5.500    0.000    4.667 
#    0.000    0.000    0.000    0.000    0.000    0.000 
#
# Total GULP energy -1190320.114070 kJ/mol
# GULP energy per Si atom -12399.167855 kJ/mol
# Density = 1.738290 g / cm^3
# Si number density = 17.422554 Si / 1000 Ang^3
#
#
#
# Elastic Constant Matrix: (Units=GPa)
#
#
# Indices 1 2 3 4 5 6 
#
# 1 101.7855 39.5474 29.2791 0.0000 0.0000 0.0000
# 2 39.5474 101.7855 29.2791 0.0000 0.0000 0.0000
# 3 29.2791 29.2791 55.6417 0.0000 0.0000 0.0000
# 4 0.0000 0.0000 0.0000 23.5482 0.0000 0.0000
# 5 0.0000 0.0000 0.0000 0.0000 23.5482 0.0000
# 6 0.0000 0.0000 0.0000 0.0000 0.0000 17.7780
#
#
#
# Elastic Compliance Matrix: (Units=1/GPa)
#
#
# Indices 1 2 3 4 5 6 
#
# 1 0.012558 -0.003510 -0.004761 0.000000 0.000000 0.000000
# 2 -0.003510 0.012558 -0.004761 0.000000 0.000000 0.000000
# 3 -0.004761 -0.004761 0.022983 0.000000 0.000000 0.000000
# 4 0.000000 0.000000 0.000000 0.042466 0.000000 0.000000
# 5 0.000000 0.000000 0.000000 0.000000 0.042466 0.000000
# 6 0.000000 0.000000 0.000000 0.000000 0.000000 0.056249
#
#
# Mechanical properties :
#
#
# Convention : Reuss Voigt Hill
#
# Bulk Modulus (GPa) = 45.38362 50.60268 47.99315
# Shear Modulus (GPa) = 22.45283 23.71533 23.08408
#
# Velocity S-wave (km/s) = 3.59377 3.69343 3.64394
# Velocity P-wave (km/s) = 6.58222 6.87720 6.73133
#
# Compressibility (1/GPa) = 0.02203438
#
# Stress axis : x y z
#
# Youngs Moduli (GPa) = 79.63200 79.63200 43.51055
#
# Poissons Ratio (x) = 0.27947 0.20716
# Poissons Ratio (y) = 0.27947 0.20716
# Poissons Ratio (z) = 0.37915 0.37915
#
# Static dielectric constant tensor:
#      x y z
#    x 3.329460 0.000000 0.000000 
#    y 0.000000 3.329460 0.000000 
#    z 0.000000 0.000000 2.987570 
# 
# 
# High freq. dielectric constant tensor:
#      x y z
#    x 1.682180 0.000000 0.000000 
#    y 0.000000 1.682180 0.000000 
#    z 0.000000 0.000000 1.643440 
# 
# From -- ./inp_files/5473.got.cif
#   From: 2010.03.12/outbox.cif.g09.slc.cpg/sg125_3_cif.got.tgz:5473.got - 2010.04.06 16:47:52.
