data_PCOD8313895
_publ_section_title
;
Structure prediction by ZEFSAII (Michael W. Deem and Ramdas Pophale) SiO2 
 PCOD8313895
Probable space group: P 4/M B M
;
_chemical_formula_sum "Si O2"
_cell_formula_units_Z 88
_cell_length_a 16.912666
_cell_length_b 16.912666
_cell_length_c 15.513067
_cell_angle_alpha 90.000000
_cell_angle_beta 90.000000
_cell_angle_gamma 90.000000
_cell_volume 4437.330866
_symmetry_space_group_name_H-M "P 4/M B M"
_symmetry_group_IT_number 127
_symmetry_cell_setting 'tetragonal'
loop_
_space_group_symop_operation_xyz
x,y,z
-y,x,z
-x,-y,z
y,-x,z
1/2+x,1/2-y,-z
1/2-x,1/2+y,-z
1/2+y,1/2+x,-z
1/2-y,1/2-x,-z
-x,-y,-z
y,-x,-z
x,y,-z
-y,x,-z
1/2-x,1/2+y,z
1/2+x,1/2-y,z
1/2-y,1/2-x,z
1/2+y,1/2+x,z
loop_
_atom_site_type_symbol
_atom_site_label
_atom_site_fract_x
_atom_site_fract_y
_atom_site_fract_z
Si Si1 0.629990 0.523557 0.698533
Si Si2 0.629461 0.129461 0.097822
Si Si3 0.286986 0.996695 0.600227
Si Si4 0.608238 0.108238 0.716664
Si Si5 0.807397 0.117675 0.847950
Si Si6 0.322631 0.177370 0.404256
Si Si7 0.087563 0.904349 0.000000
Si Si8 0.760862 0.739139 0.260918
O O1 0.562747 0.590993 0.689098
O O2 0.698347 0.531142 0.626034
O O3 0.671931 0.539350 0.791067
O O4 0.586524 0.086524 0.181674
O O5 0.609592 0.222764 0.105163
O O6 0.602334 0.102334 0.000000
O O7 0.300839 0.973467 0.500000
O O8 0.355138 0.962558 0.661827
O O9 0.299698 0.088453 0.616519
O O10 0.673812 0.173812 0.725433
O O11 0.876034 0.134562 0.915719
O O12 0.810525 0.197436 0.790337
O O13 0.300630 0.199371 0.500000
O O14 0.266005 0.233996 0.352740
O O15 0.995711 0.888687 0.000000
#
# Coordination Sequence:
#
# PCOD8313895 Si02
#       8
#    16   8  16   8  16   8   8   8
#     4  11  22  37  57  85 127 169 204 247 305 380
#     4  10  18  35  61  85 111 152 207 257 306 359
#     4  11  23  40  62  90 121 160 207 260 314 374
#     4  10  21  40  61  88 120 157 205 251 324 374
#     4  10  19  35  56  81 114 159 211 254 302 368
#     4  10  24  41  61  90 122 154 210 267 311 366
#     4  11  22  33  50  84 126 163 200 253 318 376
#     4  10  20  39  60  85 114 162 206 256 309 365
#
# _framework density 19.831741000000001
#
# number of rings (size 3 to 8) (size 9 to 14) (size 15 to 20)
#    0.000    1.727    4.545    2.455    0.000    3.273 
#    0.000    2.273    0.000    0.000    2.364    0.636 
#    0.000    0.000    0.000    0.000    0.000    0.000 
#
# Total GULP energy -1090290.056460 kJ/mol
# GULP energy per Si atom -12389.659732 kJ/mol
# Density = 1.978660 g / cm^3
# Si number density = 19.831741 Si / 1000 Ang^3
#
#
#
# Elastic Constant Matrix: (Units=GPa)
#
#
# Indices 1 2 3 4 5 6 
#
# 1 149.3418 -66.5092 34.7380 0.0000 0.0000 0.0000
# 2 -66.5092 149.3464 34.7503 0.0000 0.0000 0.0000
# 3 34.7380 34.7503 144.0682 0.0000 0.0000 0.0000
# 4 0.0000 0.0000 0.0000 32.6156 0.0000 0.0000
# 5 0.0000 0.0000 0.0000 0.0000 32.6156 0.0000
# 6 0.0000 0.0000 0.0000 0.0000 0.0000 35.5292
#
#
#
# Elastic Compliance Matrix: (Units=1/GPa)
#
#
# Indices 1 2 3 4 5 6 
#
# 1 0.009883 0.005251 -0.003650 0.000000 0.000000 0.000000
# 2 0.005251 0.009883 -0.003650 0.000000 0.000000 0.000000
# 3 -0.003650 -0.003650 0.008702 0.000000 0.000000 0.000000
# 4 0.000000 0.000000 0.000000 0.030660 0.000000 0.000000
# 5 0.000000 0.000000 0.000000 0.000000 0.030660 0.000000
# 6 0.000000 0.000000 0.000000 0.000000 0.000000 0.028146
#
#
# Mechanical properties :
#
#
# Convention : Reuss Voigt Hill
#
# Bulk Modulus (GPa) = 41.03354 49.85718 45.44536
# Shear Modulus (GPa) = 38.41551 49.47057 43.94304
#
# Velocity S-wave (km/s) = 4.40599 4.99993 4.71233
# Velocity P-wave (km/s) = 6.82784 7.65030 7.25074
#
# Compressibility (1/GPa) = 0.02437031
#
# Stress axis : x y z
#
# Youngs Moduli (GPa) = 101.18081 101.17986 114.92216
#
# Poissons Ratio (x) = -0.53125 0.41941
# Poissons Ratio (y) = -0.53126 0.41946
# Poissons Ratio (z) = 0.36926 0.36930
#
# Static dielectric constant tensor:
#      x y z
#    x 3.181420 0.000000 0.000000 
#    y 0.000000 3.181420 0.000000 
#    z 0.000000 0.000000 4.214770 
# 
# 
# High freq. dielectric constant tensor:
#      x y z
#    x 1.761750 0.000000 0.000000 
#    y 0.000000 1.761750 0.000000 
#    z 0.000000 0.000000 1.787620 
# 
# From -- ./inp_files/4468.got.cif
#   From: 2010.03.12/outbox.cif.g09.slc.cpg/sg127_3_cif.got.tgz:4468.got - 2010.04.06 17:03:15.
