data_PCOD8313275
_publ_section_title
;
Structure prediction by ZEFSAII (Michael W. Deem and Ramdas Pophale) SiO2 
 PCOD8313275
Probable space group: P 4/M C C
;
_chemical_formula_sum "Si O2"
_cell_formula_units_Z 120
_cell_length_a 20.691282
_cell_length_b 20.691282
_cell_length_c 14.279012
_cell_angle_alpha 90.000000
_cell_angle_beta 90.000000
_cell_angle_gamma 90.000000
_cell_volume 6113.261282
_symmetry_space_group_name_H-M "P 4/M C C"
_symmetry_group_IT_number 124
_symmetry_cell_setting 'tetragonal'
loop_
_space_group_symop_operation_xyz
x,y,z
-y,x,z
-x,-y,z
y,-x,z
x,-y,1/2-z
-x,y,1/2-z
y,x,1/2-z
-y,-x,1/2-z
-x,-y,-z
y,-x,-z
x,y,-z
-y,x,-z
-x,y,1/2+z
x,-y,1/2+z
-y,-x,1/2+z
y,x,1/2+z
loop_
_atom_site_type_symbol
_atom_site_label
_atom_site_fract_x
_atom_site_fract_y
_atom_site_fract_z
Si Si1 0.993278 0.246626 0.360238
Si Si2 0.074613 0.568638 0.740863
Si Si3 0.667549 0.885771 0.896107
Si Si4 0.334948 0.431620 0.301578
Si Si5 0.875120 0.662639 0.105860
Si Si6 0.997724 0.898228 0.139028
Si Si7 0.330692 0.226367 0.230504
Si Si8 0.540719 0.600626 0.000000
O O1 0.055258 0.282361 0.402616
O O2 0.994548 0.174051 0.401225
O O3 0.000000 0.249823 0.250000
O O4 0.924530 0.277002 0.388478
O O5 0.110428 0.500000 0.750000
O O6 0.100507 0.609776 0.826226
O O7 0.085753 0.599428 0.638827
O O8 0.000000 0.559016 0.750000
O O9 0.695973 0.818908 0.854379
O O10 0.640913 0.873091 0.000000
O O11 0.329170 0.500000 0.250000
O O12 0.389081 0.389081 0.250000
O O13 0.264334 0.396894 0.295983
O O14 0.356427 0.441928 0.409150
O O15 0.813685 0.665373 0.173181
O O16 0.850555 0.654444 0.000000
O O17 0.934782 0.937649 0.103562
O O18 0.000000 0.895894 0.250000
O O19 0.276955 0.276955 0.250000
O O20 0.464760 0.583181 0.000000
#
# Coordination Sequence:
#
# PCOD8313275 Si02
#       8
#    16  16  16  16  16  16  16   8
#     4  11  18  35  61  90 119 161 207 268 327 374
#     4  10  20  37  60  88 119 148 188 246 315 375
#     4  11  22  39  62  89 119 158 211 265 308 369
#     4  11  23  44  67  96 139 178 212 265 315 371
#     4  11  22  41  64  88 119 160 214 268 316 377
#     4   8  16  30  51  85 121 154 193 243 314 393
#     4  10  25  44  61  86 126 172 214 254 306 374
#     4  11  22  38  74 116 138 170 219 261 323 382
#
# _framework density 19.629456999999999
#
# number of rings (size 3 to 8) (size 9 to 14) (size 15 to 20)
#    0.000    1.667    5.333    0.800    0.933    4.400 
#    4.800    1.333    0.000    2.400    0.000    3.733 
#    0.000    0.000    0.000    0.000    0.000    0.000 
#
# Total GULP energy -1486993.910882 kJ/mol
# GULP energy per Si atom -12391.615924 kJ/mol
# Density = 1.958478 g / cm^3
# Si number density = 19.629457 Si / 1000 Ang^3
#
#
#
# Elastic Constant Matrix: (Units=GPa)
#
#
# Indices 1 2 3 4 5 6 
#
# 1 131.4375 50.8522 42.1909 0.0000 0.0000 0.0000
# 2 50.8522 131.4375 42.1909 0.0000 0.0000 0.0000
# 3 42.1909 42.1909 155.9880 0.0000 0.0000 0.0000
# 4 0.0000 0.0000 0.0000 8.2760 0.0000 0.0000
# 5 0.0000 0.0000 0.0000 0.0000 8.2760 0.0000
# 6 0.0000 0.0000 0.0000 0.0000 0.0000 8.6414
#
#
#
# Elastic Compliance Matrix: (Units=1/GPa)
#
#
# Indices 1 2 3 4 5 6 
#
# 1 0.009340 -0.003069 -0.001696 0.000000 0.000000 0.000000
# 2 -0.003069 0.009340 -0.001696 0.000000 0.000000 0.000000
# 3 -0.001696 -0.001696 0.007328 0.000000 0.000000 0.000000
# 4 0.000000 0.000000 0.000000 0.120831 0.000000 0.000000
# 5 0.000000 0.000000 0.000000 0.000000 0.120831 0.000000
# 6 0.000000 0.000000 0.000000 0.000000 0.000000 0.115722
#
#
# Mechanical properties :
#
#
# Convention : Reuss Voigt Hill
#
# Bulk Modulus (GPa) = 76.41995 76.59231 76.50613
# Shear Modulus (GPa) = 12.47889 23.94729 18.21309
#
# Velocity S-wave (km/s) = 2.52409 3.49659 3.04936
# Velocity P-wave (km/s) = 6.89278 7.44347 7.17342
#
# Compressibility (1/GPa) = 0.01308559
#
# Stress axis : x y z
#
# Youngs Moduli (GPa) = 107.06564 107.06564 136.45785
#
# Poissons Ratio (x) = 0.32860 0.23145
# Poissons Ratio (y) = 0.32860 0.23145
# Poissons Ratio (z) = 0.18160 0.18160
#
# Static dielectric constant tensor:
#      x y z
#    x 0.242000 0.000000 0.000000 
#    y 0.000000 0.242000 0.000000 
#    z 0.000000 0.000000 3.544130 
# 
# 
# High freq. dielectric constant tensor:
#      x y z
#    x 1.766520 0.000000 0.000000 
#    y 0.000000 1.766520 0.000000 
#    z 0.000000 0.000000 1.770290 
# 
# From -- ./inp_files/3492.got.cif
#   From: 2010.03.12/outbox.cif.g09.slc.cpg/sg124_2_cif.got.tgz:3492.got - 2010.04.06 16:38:57.
