data_PCOD8313062
_publ_section_title
;
Structure prediction by ZEFSAII (Michael W. Deem and Ramdas Pophale) SiO2 
 PCOD8313062
Probable space group: P 4/M C C
;
_chemical_formula_sum "Si O2"
_cell_formula_units_Z 112
_cell_length_a 17.422278
_cell_length_b 17.422278
_cell_length_c 24.600577
_cell_angle_alpha 90.000000
_cell_angle_beta 90.000000
_cell_angle_gamma 90.000000
_cell_volume 7467.155100
_symmetry_space_group_name_H-M "P 4/M C C"
_symmetry_group_IT_number 124
_symmetry_cell_setting 'tetragonal'
loop_
_space_group_symop_operation_xyz
x,y,z
-y,x,z
-x,-y,z
y,-x,z
x,-y,1/2-z
-x,y,1/2-z
y,x,1/2-z
-y,-x,1/2-z
-x,-y,-z
y,-x,-z
x,y,-z
-y,x,-z
-x,y,1/2+z
x,-y,1/2+z
-y,-x,1/2+z
y,x,1/2+z
loop_
_atom_site_type_symbol
_atom_site_label
_atom_site_fract_x
_atom_site_fract_y
_atom_site_fract_z
Si Si1 0.835632 0.408509 0.440181
Si Si2 0.285024 0.589140 0.133803
Si Si3 0.706508 0.586858 0.860783
Si Si4 0.410002 0.853858 0.437355
Si Si5 0.583687 0.074679 0.776300
Si Si6 0.764040 0.358301 0.250457
Si Si7 0.013377 0.415786 0.102301
O O1 0.803975 0.388372 0.500000
O O2 0.777072 0.376962 0.395070
O O3 0.846720 0.499010 0.431717
O O4 0.920880 0.371593 0.432443
O O5 0.305560 0.500874 0.122661
O O6 0.364946 0.631726 0.123878
O O7 0.221920 0.623286 0.091998
O O8 0.250908 0.599532 0.193911
O O9 0.721405 0.592648 0.796657
O O10 0.382967 0.856977 0.500000
O O11 0.376556 0.929381 0.404852
O O12 0.500000 0.092273 0.750000
O O13 0.641091 0.145507 0.764980
O O14 0.574435 0.052071 0.838773
O O15 0.622658 0.000000 0.750000
O O16 0.728634 0.271367 0.250000
O O17 0.000000 0.500000 0.076997
#
# Coordination Sequence:
#
# PCOD8313062 Si02
#       7
#    16  16  16  16  16  16  16
#     4   9  17  28  43  60  82 110 140 175 221 272
#     4  10  20  31  47  61  84 116 155 199 241 271
#     4  10  19  32  45  62  83 115 154 202 237 276
#     4   9  18  30  43  63  87 112 141 180 226 280
#     4  11  18  25  44  71  94 118 146 186 229 279
#     4  10  20  32  45  64  92 123 153 187 230 284
#     4  10  16  26  42  66  88 108 137 172 221 274
#
# _framework density 14.999019000000001
#
# number of rings (size 3 to 8) (size 9 to 14) (size 15 to 20)
#    0.000    2.143    2.857    2.571    2.000    2.571 
#    0.000    0.000    0.000    2.571    0.000    4.000 
#    0.000    0.286    0.000    0.000    0.000    0.714 
#
# Total GULP energy -1387588.351577 kJ/mol
# GULP energy per Si atom -12389.181711 kJ/mol
# Density = 1.496488 g / cm^3
# Si number density = 14.999019 Si / 1000 Ang^3
#
#
#
# Elastic Constant Matrix: (Units=GPa)
#
#
# Indices 1 2 3 4 5 6 
#
# 1 80.5577 44.6611 28.5604 0.0000 0.0000 0.0000
# 2 44.6611 80.5578 28.5605 0.0000 0.0000 0.0000
# 3 28.5604 28.5605 92.2427 0.0000 0.0000 0.0000
# 4 0.0000 0.0000 0.0000 14.6154 0.0000 0.0000
# 5 0.0000 0.0000 0.0000 0.0000 14.6153 0.0000
# 6 0.0000 0.0000 0.0000 0.0000 0.0000 8.0487
#
#
#
# Elastic Compliance Matrix: (Units=1/GPa)
#
#
# Indices 1 2 3 4 5 6 
#
# 1 0.018579 -0.009279 -0.002879 0.000000 0.000000 0.000000
# 2 -0.009279 0.018579 -0.002879 0.000000 0.000000 0.000000
# 3 -0.002879 -0.002879 0.012624 0.000000 0.000000 0.000000
# 4 0.000000 0.000000 0.000000 0.068421 0.000000 0.000000
# 5 0.000000 0.000000 0.000000 0.000000 0.068421 0.000000
# 6 0.000000 0.000000 0.000000 0.000000 0.000000 0.124243
#
#
# Mechanical properties :
#
#
# Convention : Reuss Voigt Hill
#
# Bulk Modulus (GPa) = 50.74696 50.76913 50.75804
# Shear Modulus (GPa) = 14.38805 17.56097 15.97451
#
# Velocity S-wave (km/s) = 3.10056 3.42542 3.26703
# Velocity P-wave (km/s) = 6.83556 7.04034 6.93871
#
# Compressibility (1/GPa) = 0.01970561
#
# Stress axis : x y z
#
# Youngs Moduli (GPa) = 53.82531 53.82531 79.21428
#
# Poissons Ratio (x) = 0.49945 0.22808
# Poissons Ratio (y) = 0.49945 0.22809
# Poissons Ratio (z) = 0.15498 0.15498
#
# Static dielectric constant tensor:
#      x y z
#    x 2.824660 0.000000 0.000000 
#    y 0.000000 2.824660 0.000000 
#    z 0.000000 0.000000 3.060470 
# 
# 
# High freq. dielectric constant tensor:
#      x y z
#    x 1.540850 0.000000 0.000000 
#    y 0.000000 1.540850 0.000000 
#    z 0.000000 0.000000 1.593530 
# 
# From -- ./inp_files/6236.got.cif
#   From: 2010.03.12/outbox.cif.g09.slc.cpg/sg124_4_cif.got.tgz:6236.got - 2010.04.06 16:38:57.
