data_PCOD8313947
_publ_section_title
;
Structure prediction by ZEFSAII (Michael W. Deem and Ramdas Pophale) SiO2 
 PCOD8313947
Probable space group: P 4/M B M
;
_chemical_formula_sum "Si O2"
_cell_formula_units_Z 104
_cell_length_a 26.720725
_cell_length_b 26.720725
_cell_length_c 8.089177
_cell_angle_alpha 90.000000
_cell_angle_beta 90.000000
_cell_angle_gamma 90.000000
_cell_volume 5775.649280
_symmetry_space_group_name_H-M "P 4/M B M"
_symmetry_group_IT_number 127
_symmetry_cell_setting 'tetragonal'
loop_
_space_group_symop_operation_xyz
x,y,z
-y,x,z
-x,-y,z
y,-x,z
1/2+x,1/2-y,-z
1/2-x,1/2+y,-z
1/2+y,1/2+x,-z
1/2-y,1/2-x,-z
-x,-y,-z
y,-x,-z
x,y,-z
-y,x,-z
1/2-x,1/2+y,z
1/2+x,1/2-y,z
1/2-y,1/2-x,z
1/2+y,1/2+x,z
loop_
_atom_site_type_symbol
_atom_site_label
_atom_site_fract_x
_atom_site_fract_y
_atom_site_fract_z
Si Si1 0.080082 0.500147 0.194054
Si Si2 0.507539 0.289154 0.187399
Si Si3 0.315681 0.599851 0.307466
Si Si4 0.868025 0.075028 0.311637
Si Si5 0.926412 0.035320 0.000000
Si Si6 0.476239 0.186433 0.689947
Si Si7 0.289391 0.133161 0.304471
O O1 0.047877 0.547877 0.255274
O O2 0.133036 0.497963 0.284789
O O3 0.050457 0.449544 0.239459
O O4 0.089004 0.503950 0.000000
O O5 0.454307 0.315714 0.222199
O O6 0.551944 0.312190 0.300802
O O7 0.505978 0.229512 0.213039
O O8 0.522199 0.301049 0.000000
O O9 0.308864 0.588932 0.500000
O O10 0.365874 0.630909 0.268820
O O11 0.268415 0.632914 0.243141
O O12 0.888565 0.066717 0.500000
O O13 0.899354 0.046539 0.172767
O O14 0.976609 0.066468 0.000000
O O15 0.477893 0.202137 0.500000
O O16 0.418779 0.184552 0.752011
O O17 0.291581 0.138355 0.500000
O O18 0.320603 0.179398 0.224380
#
# Coordination Sequence:
#
# PCOD8313947 Si02
#       7
#    16  16  16  16   8  16  16
#     4   9  18  32  49  72 106 145 180 217 268 327
#     4  11  21  34  54  77 102 137 179 221 266 321
#     4   9  19  33  52  78 105 137 174 217 269 319
#     4  11  22  37  56  78 108 143 179 224 271 319
#     4  11  24  38  54  80 107 138 180 217 263 326
#     4  10  19  31  49  76 106 137 177 222 267 318
#     4   8  14  27  48  75 105 133 165 211 266 320
#
# _framework density 18.006633000000001
#
# number of rings (size 3 to 8) (size 9 to 14) (size 15 to 20)
#    0.000    2.231    0.769    4.615    1.077    3.077 
#    0.000    1.538    0.000    5.077    0.000    2.154 
#    0.000    0.000    0.000    0.000    0.000    0.000 
#
# Total GULP energy -1289079.855766 kJ/mol
# GULP energy per Si atom -12394.998613 kJ/mol
# Density = 1.796565 g / cm^3
# Si number density = 18.006633 Si / 1000 Ang^3
#
#
#
# Elastic Constant Matrix: (Units=GPa)
#
#
# Indices 1 2 3 4 5 6 
#
# 1 117.5048 53.6088 21.1569 0.0000 0.0000 0.0000
# 2 53.6088 117.5048 21.1569 0.0000 0.0000 0.0000
# 3 21.1569 21.1569 65.7048 0.0000 0.0000 0.0000
# 4 0.0000 0.0000 0.0000 20.0150 0.0000 0.0000
# 5 0.0000 0.0000 0.0000 0.0000 20.0150 0.0000
# 6 0.0000 0.0000 0.0000 0.0000 0.0000 35.6466
#
#
#
# Elastic Compliance Matrix: (Units=1/GPa)
#
#
# Indices 1 2 3 4 5 6 
#
# 1 0.011000 -0.004650 -0.002045 0.000000 0.000000 0.000000
# 2 -0.004650 0.011000 -0.002045 0.000000 0.000000 0.000000
# 3 -0.002045 -0.002045 0.016536 0.000000 0.000000 0.000000
# 4 0.000000 0.000000 0.000000 0.049963 0.000000 0.000000
# 5 0.000000 0.000000 0.000000 0.000000 0.049963 0.000000
# 6 0.000000 0.000000 0.000000 0.000000 0.000000 0.028053
#
#
# Mechanical properties :
#
#
# Convention : Reuss Voigt Hill
#
# Bulk Modulus (GPa) = 47.48951 54.72884 51.10917
# Shear Modulus (GPa) = 26.17622 28.78808 27.48215
#
# Velocity S-wave (km/s) = 3.81688 4.00277 3.91093
# Velocity P-wave (km/s) = 6.77166 7.19879 6.98849
#
# Compressibility (1/GPa) = 0.02105728
#
# Stress axis : x y z
#
# Youngs Moduli (GPa) = 90.90868 90.90868 60.47296
#
# Poissons Ratio (x) = 0.42276 0.12364
# Poissons Ratio (y) = 0.42276 0.12364
# Poissons Ratio (z) = 0.18587 0.18587
#
# Static dielectric constant tensor:
#      x y z
#    x 3.417380 0.000000 0.000000 
#    y 0.000000 3.417380 0.000000 
#    z 0.000000 0.000000 3.233490 
# 
# 
# High freq. dielectric constant tensor:
#      x y z
#    x 1.686330 0.000000 0.000000 
#    y 0.000000 1.686330 0.000000 
#    z 0.000000 0.000000 1.695800 
# 
# From -- ./inp_files/2308.got.cif
#   From: 2010.03.12/outbox.cif.g09.slc.cpg/sg127_2_cif.got.tgz:2308.got - 2010.04.06 17:03:15.
