data_PCOD8313284
_publ_section_title
;
Structure prediction by ZEFSAII (Michael W. Deem and Ramdas Pophale) SiO2 
 PCOD8313284
Probable space group: P 4/M C C
;
_chemical_formula_sum "Si O2"
_cell_formula_units_Z 112
_cell_length_a 14.264447
_cell_length_b 14.264447
_cell_length_c 26.432367
_cell_angle_alpha 90.000000
_cell_angle_beta 90.000000
_cell_angle_gamma 90.000000
_cell_volume 5378.311290
_symmetry_space_group_name_H-M "P 4/M C C"
_symmetry_group_IT_number 124
_symmetry_cell_setting 'tetragonal'
loop_
_space_group_symop_operation_xyz
x,y,z
-y,x,z
-x,-y,z
y,-x,z
x,-y,1/2-z
-x,y,1/2-z
y,x,1/2-z
-y,-x,1/2-z
-x,-y,-z
y,-x,-z
x,y,-z
-y,x,-z
-x,y,1/2+z
x,-y,1/2+z
-y,-x,1/2+z
y,x,1/2+z
loop_
_atom_site_type_symbol
_atom_site_label
_atom_site_fract_x
_atom_site_fract_y
_atom_site_fract_z
Si Si1 0.605597 0.748928 0.733030
Si Si2 0.088880 0.441495 0.557455
Si Si3 0.750927 0.921564 0.891291
Si Si4 0.759683 0.402780 0.443719
Si Si5 0.434153 0.637334 0.143606
Si Si6 0.118941 0.226602 0.059890
Si Si7 0.103388 0.244151 0.728582
O O1 0.500000 0.765570 0.750000
O O2 0.649414 0.649414 0.750000
O O3 0.601862 0.731115 0.672665
O O4 0.668060 0.836073 0.750889
O O5 0.067684 0.407376 0.500000
O O6 0.106485 0.353993 0.593589
O O7 0.182023 0.501986 0.559953
O O8 0.000000 0.500000 0.577643
O O9 0.823389 0.864740 0.925466
O O10 0.761728 0.899040 0.831985
O O11 0.771603 0.028581 0.904404
O O12 0.727412 0.379789 0.500000
O O13 0.662347 0.415674 0.414479
O O14 0.822385 0.317328 0.423957
O O15 0.377009 0.543575 0.156455
O O16 0.093710 0.226293 0.000000
O O17 0.148526 0.148526 0.750000
O O18 0.000000 0.256502 0.750000
#
# Coordination Sequence:
#
# PCOD8313284 Si02
#       7
#    16  16  16  16  16  16  16
#     4  11  24  42  69  99 133 175 230 291 342 398
#     4  10  20  39  65  98 135 173 221 274 341 411
#     4  12  25  43  71  99 132 183 222 284 343 409
#     4  10  24  40  63  96 137 178 221 279 340 415
#     4  11  25  42  67  97 134 185 233 280 341 407
#     4  11  24  43  68 101 136 174 228 279 334 405
#     4  11  28  49  68 100 136 177 227 283 346 416
#
# _framework density 20.824380000000001
#
# number of rings (size 3 to 8) (size 9 to 14) (size 15 to 20)
#    0.000    1.143    2.857    2.143   10.000    1.429 
#    0.000    2.857    0.000    0.000    0.000    0.000 
#    0.000    0.000    0.000    0.000    0.000    0.000 
#
# Total GULP energy -1388636.376325 kJ/mol
# GULP energy per Si atom -12398.539074 kJ/mol
# Density = 2.077698 g / cm^3
# Si number density = 20.824380 Si / 1000 Ang^3
#
#
#
# Elastic Constant Matrix: (Units=GPa)
#
#
# Indices 1 2 3 4 5 6 
#
# 1 106.5515 41.3947 49.2046 0.0000 0.0000 0.0000
# 2 41.3947 106.5515 49.2046 0.0000 0.0000 0.0000
# 3 49.2046 49.2046 117.8346 0.0000 0.0000 0.0000
# 4 0.0000 0.0000 0.0000 37.8477 0.0000 0.0000
# 5 0.0000 0.0000 0.0000 0.0000 37.8477 0.0000
# 6 0.0000 0.0000 0.0000 0.0000 0.0000 24.8538
#
#
#
# Elastic Compliance Matrix: (Units=1/GPa)
#
#
# Indices 1 2 3 4 5 6 
#
# 1 0.012353 -0.002994 -0.003908 0.000000 0.000000 0.000000
# 2 -0.002994 0.012353 -0.003908 0.000000 0.000000 0.000000
# 3 -0.003908 -0.003908 0.011750 0.000000 0.000000 0.000000
# 4 0.000000 0.000000 0.000000 0.026422 0.000000 0.000000
# 5 0.000000 0.000000 0.000000 0.000000 0.026422 0.000000
# 6 0.000000 0.000000 0.000000 0.000000 0.000000 0.040235
#
#
# Mechanical properties :
#
#
# Convention : Reuss Voigt Hill
#
# Bulk Modulus (GPa) = 67.40468 67.83835 67.62151
# Shear Modulus (GPa) = 32.03056 32.85209 32.44133
#
# Velocity S-wave (km/s) = 3.92615 3.97618 3.95125
# Velocity P-wave (km/s) = 7.27951 7.32988 7.30474
#
# Compressibility (1/GPa) = 0.01483577
#
# Stress axis : x y z
#
# Youngs Moduli (GPa) = 80.95128 80.95128 85.10524
#
# Poissons Ratio (x) = 0.24241 0.33258
# Poissons Ratio (y) = 0.24241 0.33258
# Poissons Ratio (z) = 0.31635 0.31635
#
# Static dielectric constant tensor:
#      x y z
#    x 3.754150 0.000000 0.000000 
#    y 0.000000 3.754150 0.000000 
#    z 0.000000 0.000000 3.930340 
# 
# 
# High freq. dielectric constant tensor:
#      x y z
#    x 1.819220 0.000000 0.000000 
#    y 0.000000 1.819220 0.000000 
#    z 0.000000 0.000000 1.822110 
# 
# From -- ./inp_files/6074.got.cif
#   From: 2010.03.12/outbox.cif.g09.slc.cpg/sg124_4_cif.got.tgz:6074.got - 2010.04.06 16:38:57.
