data_PCOD8313632
_publ_section_title
;
Structure prediction by ZEFSAII (Michael W. Deem and Ramdas Pophale) SiO2 
 PCOD8313632
Probable space group: P 4/N B M
;
_chemical_formula_sum "Si O2"
_cell_formula_units_Z 72
_cell_length_a 18.451965
_cell_length_b 18.451965
_cell_length_c 11.383882
_cell_angle_alpha 90.000000
_cell_angle_beta 90.000000
_cell_angle_gamma 90.000000
_cell_volume 3875.927365
_symmetry_space_group_name_H-M "P 4/N B M"
_symmetry_group_IT_number 125
_space_group.IT_coordinate_system_code '2'
_symmetry_cell_setting 'tetragonal'
loop_
_space_group_symop_operation_xyz
x,y,z
1/2-y,x,z
1/2-x,1/2-y,z
y,1/2-x,z
x,1/2-y,-z
1/2-x,y,-z
y,x,-z
1/2-y,1/2-x,-z
-x,-y,-z
1/2+y,-x,-z
1/2+x,1/2+y,-z
-y,1/2+x,-z
-x,1/2+y,z
1/2+x,-y,z
-y,-x,z
1/2+y,1/2+x,z
loop_
_atom_site_type_symbol
_atom_site_label
_atom_site_fract_x
_atom_site_fract_y
_atom_site_fract_z
Si Si1 0.248936 0.516648 0.288370
Si Si2 0.891950 0.512783 0.850714
Si Si3 0.873161 0.493889 0.112318
Si Si4 0.860274 0.737622 0.635695
Si Si5 0.250000 0.629236 0.500000
O O1 0.167013 0.501491 0.249284
O O2 0.300901 0.532782 0.178284
O O3 0.279663 0.443530 0.343664
O O4 0.251888 0.580924 0.382713
O O5 0.947009 0.447009 0.845645
O O6 0.935850 0.587781 0.828993
O O7 0.853366 0.514020 0.978182
O O8 0.927016 0.427016 0.115598
O O9 0.829132 0.813220 0.690159
O O10 0.847759 0.750000 0.500000
O O11 0.178179 0.678179 0.497294
#
# Coordination Sequence:
#
# PCOD8313632 Si02
#       5
#    16  16  16  16   8
#     4  12  19  34  57  80  98 141 185 212 253 317
#     4   9  19  35  54  79 109 136 168 217 269 313
#     4   9  19  35  54  79 109 136 168 217 269 313
#     4   9  18  32  49  74 108 138 164 199 245 297
#     4  11  26  42  52  71 106 140 178 235 282 304
#
# _framework density 18.576198999999999
#
# number of rings (size 3 to 8) (size 9 to 14) (size 15 to 20)
#    0.000    2.111    1.111    5.333    0.000    0.000 
#    0.000    0.000    0.000    5.333    0.000   18.667 
#    0.000    0.000    0.000    0.000    0.000    0.000 
#
# Total GULP energy -892158.152044 kJ/mol
# GULP energy per Si atom -12391.085445 kJ/mol
# Density = 1.853392 g / cm^3
# Si number density = 18.576199 Si / 1000 Ang^3
#
#
#
# Elastic Constant Matrix: (Units=GPa)
#
#
# Indices 1 2 3 4 5 6 
#
# 1 87.8229 18.9929 23.4576 0.0000 0.0000 0.0000
# 2 18.9929 87.8229 23.4576 0.0000 0.0000 0.0000
# 3 23.4576 23.4576 57.4373 0.0000 0.0000 0.0000
# 4 0.0000 0.0000 0.0000 26.2482 0.0000 0.0000
# 5 0.0000 0.0000 0.0000 0.0000 26.2482 0.0000
# 6 0.0000 0.0000 0.0000 0.0000 0.0000 19.4734
#
#
#
# Elastic Compliance Matrix: (Units=1/GPa)
#
#
# Indices 1 2 3 4 5 6 
#
# 1 0.012968 -0.001560 -0.004659 0.000000 0.000000 0.000000
# 2 -0.001560 0.012968 -0.004659 0.000000 0.000000 0.000000
# 3 -0.004659 -0.004659 0.021216 0.000000 0.000000 0.000000
# 4 0.000000 0.000000 0.000000 0.038098 0.000000 0.000000
# 5 0.000000 0.000000 0.000000 0.000000 0.038098 0.000000
# 6 0.000000 0.000000 0.000000 0.000000 0.000000 0.051352
#
#
# Mechanical properties :
#
#
# Convention : Reuss Voigt Hill
#
# Bulk Modulus (GPa) = 39.37660 40.54436 39.96048
# Shear Modulus (GPa) = 24.39942 25.53896 24.96919
#
# Velocity S-wave (km/s) = 3.62812 3.71188 3.67024
# Velocity P-wave (km/s) = 6.22852 6.34382 6.28643
#
# Compressibility (1/GPa) = 0.02539579
#
# Stress axis : x y z
#
# Youngs Moduli (GPa) = 77.11039 77.11039 47.13441
#
# Poissons Ratio (x) = 0.12030 0.21961
# Poissons Ratio (y) = 0.12030 0.21961
# Poissons Ratio (z) = 0.35927 0.35927
#
# Static dielectric constant tensor:
#      x y z
#    x 3.473570 0.000000 0.000000 
#    y 0.000000 3.473570 0.000000 
#    z 0.000000 0.000000 3.350220 
# 
# 
# High freq. dielectric constant tensor:
#      x y z
#    x 1.724240 0.000000 0.000000 
#    y 0.000000 1.724240 0.000000 
#    z 0.000000 0.000000 1.707620 
# 
# From -- ./inp_files/3785.got.cif
#   From: 2010.03.12/outbox.cif.g09.slc.cpg/sg125_2_cif.got.tgz:3785.got - 2010.04.06 16:47:52.
