data_PCOD8313425
_publ_section_title
;
Structure prediction by ZEFSAII (Michael W. Deem and Ramdas Pophale) SiO2 
 PCOD8313425
Probable space group: P 4/N B M
;
_chemical_formula_sum "Si O2"
_cell_formula_units_Z 80
_cell_length_a 29.965759
_cell_length_b 29.965759
_cell_length_c 5.004726
_cell_angle_alpha 90.000000
_cell_angle_beta 90.000000
_cell_angle_gamma 90.000000
_cell_volume 4493.977258
_symmetry_space_group_name_H-M "P 4/N B M"
_symmetry_group_IT_number 125
_space_group.IT_coordinate_system_code '2'
_symmetry_cell_setting 'tetragonal'
loop_
_space_group_symop_operation_xyz
x,y,z
1/2-y,x,z
1/2-x,1/2-y,z
y,1/2-x,z
x,1/2-y,-z
1/2-x,y,-z
y,x,-z
1/2-y,1/2-x,-z
-x,-y,-z
1/2+y,-x,-z
1/2+x,1/2+y,-z
-y,1/2+x,-z
-x,1/2+y,z
1/2+x,-y,z
-y,-x,z
1/2+y,1/2+x,z
loop_
_atom_site_type_symbol
_atom_site_label
_atom_site_fract_x
_atom_site_fract_y
_atom_site_fract_z
Si Si1 0.411572 0.588429 0.067773
Si Si2 0.414962 0.156628 0.966903
Si Si3 0.846021 0.481152 0.964108
Si Si4 0.128302 0.871699 0.568497
Si Si5 0.373271 0.198151 0.465847
Si Si6 0.302413 0.561953 0.463711
O O1 0.462166 0.603044 0.995074
O O2 0.379964 0.620036 0.882369
O O3 0.403217 0.596784 0.381796
O O4 0.466854 0.150879 0.022017
O O5 0.408247 0.177203 0.674212
O O6 0.391549 0.108452 0.000000
O O7 0.393380 0.191229 0.173189
O O8 0.826381 0.471291 0.672050
O O9 0.813131 0.456674 0.171085
O O10 0.178982 0.886936 0.499204
O O11 0.365209 0.250000 0.500000
O O12 0.325488 0.174513 0.500000
O O13 0.250000 0.562979 0.500000
#
# Coordination Sequence:
#
# PCOD8313425 Si02
#       6
#     8  16  16   8  16  16
#     4   8  16  30  47  66  90 125 158 188 230 270
#     4  10  21  35  50  71 100 128 152 188 241 286
#     4  10  19  32  49  70  97 124 157 197 231 274
#     4   8  16  30  44  63  97 126 148 190 236 276
#     4  10  21  36  53  72  95 125 158 192 234 281
#     4  10  19  30  48  73  95 122 159 195 235 276
#
# _framework density 17.801601999999999
#
# number of rings (size 3 to 8) (size 9 to 14) (size 15 to 20)
#    0.000    2.400    0.000    2.400    0.000    5.000 
#    0.000    0.500    0.000    3.900    0.000   12.600 
#    0.000    9.600    0.000    0.000    0.000    1.600 
#
# Total GULP energy -991563.270910 kJ/mol
# GULP energy per Si atom -12394.540886 kJ/mol
# Density = 1.776108 g / cm^3
# Si number density = 17.801602 Si / 1000 Ang^3
#
#
#
# Elastic Constant Matrix: (Units=GPa)
#
#
# Indices 1 2 3 4 5 6 
#
# 1 77.2050 85.5195 2.2613 0.0000 0.0000 0.0000
# 2 85.5195 77.2061 2.2612 0.0000 0.0000 0.0000
# 3 2.2613 2.2612 61.9279 0.0000 0.0000 0.0000
# 4 0.0000 0.0000 0.0000 17.6469 0.0000 0.0000
# 5 0.0000 0.0000 0.0000 0.0000 17.6467 0.0000
# 6 0.0000 0.0000 0.0000 0.0000 0.0000 10.2542
#
#
#
# Elastic Compliance Matrix: (Units=1/GPa)
#
#
# Indices 1 2 3 4 5 6 
#
# 1 -0.057064 0.063216 -0.000225 0.000000 0.000000 0.000000
# 2 0.063216 -0.057064 -0.000225 0.000000 0.000000 0.000000
# 3 -0.000225 -0.000225 0.016164 0.000000 0.000000 0.000000
# 4 0.000000 0.000000 0.000000 0.056667 0.000000 0.000000
# 5 0.000000 0.000000 0.000000 0.000000 0.056668 0.000000
# 6 0.000000 0.000000 0.000000 0.000000 0.000000 0.097521
#
#
# Mechanical properties :
#
#
# Convention : Reuss Voigt Hill
#
# Bulk Modulus (GPa) = 36.27277 44.04701 40.15989
# Shear Modulus (GPa) = -1448.99308 17.52936 -715.73186
#
# Velocity S-wave (km/s) = -28.56107 3.14141 -20.07320
# Velocity P-wave (km/s) = 32.66843 6.16076 22.68558
#
# Compressibility (1/GPa) = 0.02756889
#
# Stress axis : x y z
#
# Youngs Moduli (GPa) = -17.52405 -17.52431 61.86503
#
# Poissons Ratio (x) = 1.10781 0.01389
# Poissons Ratio (y) = 1.10779 0.01390
# Poissons Ratio (z) = -0.00393 -0.00394
#
# Static dielectric constant tensor:
#      x y z
#    x 3.195220 0.000000 0.000000 
#    y 0.000000 3.195220 0.000000 
#    z 0.000000 0.000000 3.583300 
# 
# 
# High freq. dielectric constant tensor:
#      x y z
#    x 1.669510 0.000000 0.000000 
#    y 0.000000 1.669510 0.000000 
#    z 0.000000 0.000000 1.715760 
# 
# From -- ./inp_files/1203.got.cif
#   From: 2010.03.12/outbox.cif.g09.slc.cpg/sg125_1_cif.got.tgz:1203.got - 2010.04.06 16:47:52.
