data_PCOD8313939
_publ_section_title
;
Structure prediction by ZEFSAII (Michael W. Deem and Ramdas Pophale) SiO2 
 PCOD8313939
Probable space group: P 4/M B M
;
_chemical_formula_sum "Si O2"
_cell_formula_units_Z 72
_cell_length_a 22.839118
_cell_length_b 22.839118
_cell_length_c 8.750311
_cell_angle_alpha 90.000000
_cell_angle_beta 90.000000
_cell_angle_gamma 90.000000
_cell_volume 4564.383697
_symmetry_space_group_name_H-M "P 4/M B M"
_symmetry_group_IT_number 127
_symmetry_cell_setting 'tetragonal'
loop_
_space_group_symop_operation_xyz
x,y,z
-y,x,z
-x,-y,z
y,-x,z
1/2+x,1/2-y,-z
1/2-x,1/2+y,-z
1/2+y,1/2+x,-z
1/2-y,1/2-x,-z
-x,-y,-z
y,-x,-z
x,y,-z
-y,x,-z
1/2-x,1/2+y,z
1/2+x,1/2-y,z
1/2-y,1/2-x,z
1/2+y,1/2+x,z
loop_
_atom_site_type_symbol
_atom_site_label
_atom_site_fract_x
_atom_site_fract_y
_atom_site_fract_z
Si Si1 0.630584 0.774229 0.819834
Si Si2 0.518251 0.824410 0.319554
Si Si3 0.701452 0.104683 0.177953
Si Si4 0.453824 0.046177 0.681662
Si Si5 0.188368 0.213440 0.671624
O O1 0.670317 0.829683 0.768841
O O2 0.565018 0.781979 0.759353
O O3 0.654926 0.714029 0.748195
O O4 0.630599 0.767073 0.000000
O O5 0.526688 0.820780 0.500000
O O6 0.453603 0.804895 0.275835
O O7 0.528904 0.889942 0.257407
O O8 0.646843 0.146843 0.215674
O O9 0.762295 0.134611 0.228260
O O10 0.704442 0.089384 0.000000
O O11 0.455569 0.044432 0.500000
O O12 0.500000 0.000000 0.750827
O O13 0.166772 0.199538 0.500000
O O14 0.238775 0.261226 0.669660
#
# Coordination Sequence:
#
# PCOD8313939 Si02
#       5
#    16  16  16   8  16
#     4  10  19  31  47  67  93 121 152 193 242 287
#     4  11  20  31  47  66  92 124 163 202 236 277
#     4  10  20  33  47  66  93 124 157 195 241 286
#     4   9  18  30  43  61  87 123 165 205 237 266
#     4   9  17  30  49  69  88 114 152 193 236 285
#
# _framework density 15.774309000000001
#
# number of rings (size 3 to 8) (size 9 to 14) (size 15 to 20)
#    0.000    2.111    1.111    3.333    0.000    5.778 
#    0.000    0.000    0.000    2.667    0.000    0.000 
#    0.000    0.889    0.000    8.889    0.000    5.333 
#
# Total GULP energy -892965.648201 kJ/mol
# GULP energy per Si atom -12402.300669 kJ/mol
# Density = 1.573841 g / cm^3
# Si number density = 15.774309 Si / 1000 Ang^3
#
#
#
# Elastic Constant Matrix: (Units=GPa)
#
#
# Indices 1 2 3 4 5 6 
#
# 1 62.9629 51.1960 16.0013 0.0000 0.0000 0.0000
# 2 51.1960 62.9629 16.0012 0.0000 0.0000 0.0000
# 3 16.0013 16.0012 55.1804 0.0000 0.0000 0.0000
# 4 0.0000 0.0000 0.0000 25.3721 0.0000 0.0000
# 5 0.0000 0.0000 0.0000 0.0000 25.3722 0.0000
# 6 0.0000 0.0000 0.0000 0.0000 0.0000 26.8476
#
#
#
# Elastic Compliance Matrix: (Units=1/GPa)
#
#
# Indices 1 2 3 4 5 6 
#
# 1 0.047259 -0.037725 -0.002765 0.000000 0.000000 0.000000
# 2 -0.037725 0.047259 -0.002765 0.000000 0.000000 0.000000
# 3 -0.002765 -0.002765 0.019726 0.000000 0.000000 0.000000
# 4 0.000000 0.000000 0.000000 0.039413 0.000000 0.000000
# 5 0.000000 0.000000 0.000000 0.000000 0.039413 0.000000
# 6 0.000000 0.000000 0.000000 0.000000 0.000000 0.037247
#
#
# Mechanical properties :
#
#
# Convention : Reuss Voigt Hill
#
# Bulk Modulus (GPa) = 36.05435 38.61146 37.33291
# Shear Modulus (GPa) = 15.33399 22.04555 18.68977
#
# Velocity S-wave (km/s) = 3.12121 3.74245 3.44586
# Velocity P-wave (km/s) = 5.99127 6.57306 6.28890
#
# Compressibility (1/GPa) = 0.02773590
#
# Stress axis : x y z
#
# Youngs Moduli (GPa) = 21.15978 21.15981 50.69469
#
# Poissons Ratio (x) = 0.79825 0.14017
# Poissons Ratio (y) = 0.79824 0.14016
# Poissons Ratio (z) = 0.05851 0.05850
#
# Static dielectric constant tensor:
#      x y z
#    x 2.915730 0.000000 0.000000 
#    y 0.000000 2.915730 0.000000 
#    z 0.000000 0.000000 3.027230 
# 
# 
# High freq. dielectric constant tensor:
#      x y z
#    x 1.583990 0.000000 0.000000 
#    y 0.000000 1.583990 0.000000 
#    z 0.000000 0.000000 1.616660 
# 
# From -- ./inp_files/1541.got.cif
#   From: 2010.03.12/outbox.cif.g09.slc.cpg/sg127_1_cif.got.tgz:1541.got - 2010.04.06 17:03:15.
