data_PCOD8314933
_publ_section_title
;
Structure prediction by ZEFSAII (Michael W. Deem and Ramdas Pophale) SiO2 
 PCOD8314933
Probable space group: P 4/N M M
;
_chemical_formula_sum "Si O2"
_cell_formula_units_Z 96
_cell_length_a 18.683321
_cell_length_b 18.683321
_cell_length_c 16.388158
_cell_angle_alpha 90.000000
_cell_angle_beta 90.000000
_cell_angle_gamma 90.000000
_cell_volume 5720.556686
_symmetry_space_group_name_H-M "P 4/N M M"
_symmetry_group_IT_number 129
_symmetry_cell_setting 'tetragonal'
loop_
_space_group_symop_operation_xyz
x,y,z
1/2-y,x,z
1/2-x,1/2-y,z
y,1/2-x,z
1/2+x,-y,-z
-x,1/2+y,-z
1/2+y,1/2+x,-z
-y,-x,-z
-x,-y,-z
1/2+y,-x,-z
1/2+x,1/2+y,-z
-y,1/2+x,-z
1/2-x,y,z
x,1/2-y,z
1/2-y,1/2-x,z
y,x,z
loop_
_atom_site_type_symbol
_atom_site_label
_atom_site_fract_x
_atom_site_fract_y
_atom_site_fract_z
Si Si1 0.666149 0.949117 0.179040
Si Si2 0.497778 0.386226 0.517976
Si Si3 0.666906 0.428743 0.767755
Si Si4 0.948322 0.434756 0.906540
Si Si5 0.828340 0.946564 0.645381
Si Si6 0.057045 0.830647 0.318162
O O1 0.750000 0.937599 0.162573
O O2 0.628371 0.871630 0.179459
O O3 0.632996 0.000268 0.109848
O O4 0.648914 0.988112 0.264285
O O5 0.548414 0.451587 0.500000
O O6 0.419777 0.419777 0.541550
O O7 0.492439 0.338446 0.436916
O O8 0.531905 0.339228 0.589193
O O9 0.750000 0.405118 0.782363
O O10 0.624075 0.432299 0.853023
O O11 0.664070 0.505625 0.725705
O O12 0.627138 0.375581 0.705180
O O13 0.991414 0.508587 0.888914
O O14 0.926462 0.426462 0.000000
O O15 0.750000 0.911732 0.642503
O O16 0.884446 0.884446 0.652928
O O17 0.080447 0.750000 0.301887
#
# Coordination Sequence:
#
# PCOD8314933 Si02
#       6
#    16  16  16  16  16  16
#     4   9  18  31  49  73  99 128 160 196 243 294
#     4  10  18  29  49  73  95 124 166 210 244 280
#     4  10  20  33  50  72  98 128 163 201 244 295
#     4   9  18  33  53  75  98 125 160 202 245 291
#     4  10  20  33  50  73 100 131 167 205 246 292
#     4  10  19  32  49  68  96 130 164 204 246 288
#
# _framework density 16.781583000000001
#
# number of rings (size 3 to 8) (size 9 to 14) (size 15 to 20)
#    0.000    2.333    1.667    1.500    0.000    2.667 
#    0.000    0.000    0.000    0.000    0.000    4.667 
#    0.000    4.000    0.000    0.000    0.000    0.000 
#
# Total GULP energy -1190058.093611 kJ/mol
# GULP energy per Si atom -12396.438475 kJ/mol
# Density = 1.674339 g / cm^3
# Si number density = 16.781583 Si / 1000 Ang^3
#
#
#
# Elastic Constant Matrix: (Units=GPa)
#
#
# Indices 1 2 3 4 5 6 
#
# 1 101.5120 49.0797 36.8487 0.0000 0.0000 0.0000
# 2 49.0797 101.5113 36.8486 0.0000 0.0000 0.0000
# 3 36.8487 36.8486 88.9183 0.0000 0.0000 0.0000
# 4 0.0000 0.0000 0.0000 22.5202 0.0000 0.0000
# 5 0.0000 0.0000 0.0000 0.0000 22.5198 0.0000
# 6 0.0000 0.0000 0.0000 0.0000 0.0000 12.3420
#
#
#
# Elastic Compliance Matrix: (Units=1/GPa)
#
#
# Indices 1 2 3 4 5 6 
#
# 1 0.013701 -0.005371 -0.003452 0.000000 0.000000 0.000000
# 2 -0.005371 0.013701 -0.003452 0.000000 0.000000 0.000000
# 3 -0.003452 -0.003452 0.014107 0.000000 0.000000 0.000000
# 4 0.000000 0.000000 0.000000 0.044405 0.000000 0.000000
# 5 0.000000 0.000000 0.000000 0.000000 0.044405 0.000000
# 6 0.000000 0.000000 0.000000 0.000000 0.000000 0.081024
#
#
# Mechanical properties :
#
#
# Convention : Reuss Voigt Hill
#
# Bulk Modulus (GPa) = 58.96529 59.72175 59.34352
# Shear Modulus (GPa) = 20.69988 22.75403 21.72695
#
# Velocity S-wave (km/s) = 3.51591 3.68624 3.60208
# Velocity P-wave (km/s) = 7.18995 7.33367 7.26217
#
# Compressibility (1/GPa) = 0.01695913
#
# Stress axis : x y z
#
# Youngs Moduli (GPa) = 72.98717 72.98670 70.88510
#
# Poissons Ratio (x) = 0.39203 0.24469
# Poissons Ratio (y) = 0.39203 0.24469
# Poissons Ratio (z) = 0.25195 0.25195
#
# Static dielectric constant tensor:
#      x y z
#    x 3.118340 0.000000 0.000000 
#    y 0.000000 3.118330 0.000000 
#    z 0.000000 0.000000 2.888270 
# 
# 
# High freq. dielectric constant tensor:
#      x y z
#    x 1.642880 0.000000 0.000000 
#    y 0.000000 1.642880 0.000000 
#    z 0.000000 0.000000 1.644680 
# 
# From -- ./inp_files/5651.got.cif
#   From: 2010.03.12/outbox.cif.g09.slc.cpg/sg129_3_cif.got.tgz:5651.got - 2010.04.06 17:19:44.
