data_PCOD8314990
_publ_section_title
;
Structure prediction by ZEFSAII (Michael W. Deem and Ramdas Pophale) SiO2 
 PCOD8314990
Probable space group: P 4/N M M
;
_chemical_formula_sum "Si O2"
_cell_formula_units_Z 96
_cell_length_a 14.172961
_cell_length_b 14.172961
_cell_length_c 30.951043
_cell_angle_alpha 90.000000
_cell_angle_beta 90.000000
_cell_angle_gamma 90.000000
_cell_volume 6217.223398
_symmetry_space_group_name_H-M "P 4/N M M"
_symmetry_group_IT_number 129
_symmetry_cell_setting 'tetragonal'
loop_
_space_group_symop_operation_xyz
x,y,z
1/2-y,x,z
1/2-x,1/2-y,z
y,1/2-x,z
1/2+x,-y,-z
-x,1/2+y,-z
1/2+y,1/2+x,-z
-y,-x,-z
-x,-y,-z
1/2+y,-x,-z
1/2+x,1/2+y,-z
-y,1/2+x,-z
1/2-x,y,z
x,1/2-y,z
1/2-y,1/2-x,z
y,x,z
loop_
_atom_site_type_symbol
_atom_site_label
_atom_site_fract_x
_atom_site_fract_y
_atom_site_fract_z
Si Si1 0.142820 0.991596 0.373505
Si Si2 0.640317 0.013403 0.527989
Si Si3 0.854372 0.362632 0.045438
Si Si4 0.142125 0.640897 0.296781
Si Si5 0.985752 0.138458 0.783483
Si Si6 0.855809 0.362804 0.861611
O O1 0.250000 0.021041 0.365700
O O2 0.110961 0.909993 0.340801
O O3 0.127115 0.955579 0.422282
O O4 0.084648 0.084648 0.363291
O O5 0.750000 0.996540 0.516399
O O6 0.583589 0.916412 0.518288
O O7 0.599306 0.099306 0.500000
O O8 0.750000 0.406280 0.047963
O O9 0.848949 0.250000 0.041963
O O10 0.904756 0.388561 0.091187
O O11 0.901271 0.401271 0.000000
O O12 0.250000 0.617842 0.283837
O O13 0.128637 0.750000 0.306515
O O14 0.075631 0.608332 0.257823
O O15 0.005334 0.250000 0.784654
O O16 0.928582 0.102918 0.825430
O O17 0.085881 0.085881 0.781919
O O18 0.750000 0.398733 0.850242
O O19 0.853738 0.250000 0.863731
#
# Coordination Sequence:
#
# PCOD8314990 Si02
#       6
#    16  16  16  16  16  16
#     4   9  17  29  45  65  89 114 138 165 199 242
#     4   9  18  31  46  66  91 118 148 180 213 250
#     4   7   9  14  27  49  74  96 117 143 182 234
#     4   9  17  29  45  64  83 102 128 164 205 245
#     4  10  19  29  41  56  76 104 135 165 196 230
#     4   8  13  22  37  56  76  97 123 157 196 235
#
# _framework density 15.440977
#
# number of rings (size 3 to 8) (size 9 to 14) (size 15 to 20)
#    0.000    3.333    0.000    2.500    0.000    3.333 
#    0.000    3.333    0.000    0.500    0.000    0.000 
#    0.000    7.000    0.000    0.000    0.000    1.000 
#
# Total GULP energy -1189285.196145 kJ/mol
# GULP energy per Si atom -12388.387460 kJ/mol
# Density = 1.540583 g / cm^3
# Si number density = 15.440977 Si / 1000 Ang^3
#
#
#
# Elastic Constant Matrix: (Units=GPa)
#
#
# Indices 1 2 3 4 5 6 
#
# 1 59.6738 36.6526 52.4326 0.0000 0.0000 0.0000
# 2 36.6526 59.6738 52.4326 0.0000 0.0000 0.0000
# 3 52.4326 52.4326 125.1570 0.0000 0.0000 0.0000
# 4 0.0000 0.0000 0.0000 11.5420 0.0000 0.0000
# 5 0.0000 0.0000 0.0000 0.0000 11.5420 0.0000
# 6 0.0000 0.0000 0.0000 0.0000 0.0000 18.5889
#
#
#
# Elastic Compliance Matrix: (Units=1/GPa)
#
#
# Indices 1 2 3 4 5 6 
#
# 1 0.031262 -0.012176 -0.007996 0.000000 0.000000 0.000000
# 2 -0.012176 0.031262 -0.007996 0.000000 0.000000 0.000000
# 3 -0.007996 -0.007996 0.014689 0.000000 0.000000 0.000000
# 4 0.000000 0.000000 0.000000 0.086640 0.000000 0.000000
# 5 0.000000 0.000000 0.000000 0.000000 0.086640 0.000000
# 6 0.000000 0.000000 0.000000 0.000000 0.000000 0.053795
#
#
# Mechanical properties :
#
#
# Convention : Reuss Voigt Hill
#
# Bulk Modulus (GPa) = 47.89694 58.61559 53.25626
# Shear Modulus (GPa) = 13.60237 15.20039 14.40138
#
# Velocity S-wave (km/s) = 2.97126 3.14095 3.05728
# Velocity P-wave (km/s) = 6.54659 7.15525 6.85768
#
# Compressibility (1/GPa) = 0.02087816
#
# Stress axis : x y z
#
# Youngs Moduli (GPa) = 31.98772 31.98772 68.07654
#
# Poissons Ratio (x) = 0.38949 0.54432
# Poissons Ratio (y) = 0.38949 0.54432
# Poissons Ratio (z) = 0.25577 0.25577
#
# Static dielectric constant tensor:
#      x y z
#    x 2.680150 0.000000 0.000000 
#    y 0.000000 2.680150 0.000000 
#    z 0.000000 0.000000 3.411880 
# 
# 
# High freq. dielectric constant tensor:
#      x y z
#    x 1.558760 0.000000 0.000000 
#    y 0.000000 1.558760 0.000000 
#    z 0.000000 0.000000 1.615330 
# 
# From -- ./inp_files/7841.got.cif
#   From: 2010.03.12/outbox.cif.g09.slc.cpg/sg129_4_cif.got.tgz:7841.got - 2010.04.06 17:19:44.
