data_PCOD8314464
_publ_section_title
;
Structure prediction by ZEFSAII (Michael W. Deem and Ramdas Pophale) SiO2 
 PCOD8314464
Probable space group: P 4/M B M
;
_chemical_formula_sum "Si O2"
_cell_formula_units_Z 96
_cell_length_a 28.789684
_cell_length_b 28.789684
_cell_length_c 9.401507
_cell_angle_alpha 90.000000
_cell_angle_beta 90.000000
_cell_angle_gamma 90.000000
_cell_volume 7792.400576
_symmetry_space_group_name_H-M "P 4/M B M"
_symmetry_group_IT_number 127
_symmetry_cell_setting 'tetragonal'
loop_
_space_group_symop_operation_xyz
x,y,z
-y,x,z
-x,-y,z
y,-x,z
1/2+x,1/2-y,-z
1/2-x,1/2+y,-z
1/2+y,1/2+x,-z
1/2-y,1/2-x,-z
-x,-y,-z
y,-x,-z
x,y,-z
-y,x,-z
1/2-x,1/2+y,z
1/2+x,1/2-y,z
1/2-y,1/2-x,z
1/2+y,1/2+x,z
loop_
_atom_site_type_symbol
_atom_site_label
_atom_site_fract_x
_atom_site_fract_y
_atom_site_fract_z
Si Si1 0.112402 0.690383 0.659676
Si Si2 0.946966 0.372373 0.834381
Si Si3 0.762880 0.815292 0.339772
Si Si4 0.947107 0.628467 0.164793
Si Si5 0.114611 0.307295 0.660994
Si Si6 0.323793 0.745363 0.839157
O O1 0.093259 0.695687 0.500000
O O2 0.151204 0.651204 0.666849
O O3 0.069755 0.675284 0.759491
O O4 0.136100 0.738987 0.709187
O O5 0.916748 0.416748 0.783756
O O6 0.000029 0.382848 0.793992
O O7 0.940651 0.363676 0.000000
O O8 0.782799 0.820113 0.500000
O O9 0.724752 0.775249 0.338697
O O10 0.804189 0.801847 0.232179
O O11 0.917726 0.582274 0.198431
O O12 0.930071 0.671528 0.259870
O O13 0.941819 0.642789 0.000000
O O14 0.101288 0.292859 0.500000
O O15 0.155070 0.344931 0.659143
O O16 0.131956 0.262305 0.747889
O O17 0.284781 0.784781 0.839484
O O18 0.339610 0.734193 0.000000
#
# Coordination Sequence:
#
# PCOD8314464 Si02
#       6
#    16  16  16  16  16  16
#     4   8  14  24  36  48  63  83 103 124 153 189
#     4   9  17  27  38  51  64  79 102 134 172 211
#     4   8  13  21  32  46  64  84 103 120 141 174
#     4   9  17  28  39  49  62  80 103 134 172 211
#     4   9  16  25  36  48  62  80 101 125 154 190
#     4   9  15  21  31  48  67  84 100 118 143 177
#
# _framework density 12.319694999999999
#
# number of rings (size 3 to 8) (size 9 to 14) (size 15 to 20)
#    0.000    3.333    0.000    2.000    0.000    5.667 
#    0.000    5.000    0.000    0.000    0.000    4.667 
#    0.000    0.000    0.000    0.000    0.000    0.000 
#
# Total GULP energy -1189780.692024 kJ/mol
# GULP energy per Si atom -12393.548875 kJ/mol
# Density = 1.229165 g / cm^3
# Si number density = 12.319695 Si / 1000 Ang^3
#
#
#
# Elastic Constant Matrix: (Units=GPa)
#
#
# Indices 1 2 3 4 5 6 
#
# 1 46.8911 45.8706 40.2941 0.0000 0.0000 0.0000
# 2 45.8706 46.8911 40.2941 0.0000 0.0000 0.0000
# 3 40.2941 40.2941 79.9610 0.0000 0.0000 0.0000
# 4 0.0000 0.0000 0.0000 16.9740 0.0000 0.0000
# 5 0.0000 0.0000 0.0000 0.0000 16.9740 0.0000
# 6 0.0000 0.0000 0.0000 0.0000 0.0000 15.2309
#
#
#
# Elastic Compliance Matrix: (Units=1/GPa)
#
#
# Indices 1 2 3 4 5 6 
#
# 1 0.499506 -0.480331 -0.009663 0.000000 0.000000 0.000000
# 2 -0.480331 0.499506 -0.009663 0.000000 0.000000 0.000000
# 3 -0.009663 -0.009663 0.022245 0.000000 0.000000 0.000000
# 4 0.000000 0.000000 0.000000 0.058914 0.000000 0.000000
# 5 0.000000 0.000000 0.000000 0.000000 0.058914 0.000000
# 6 0.000000 0.000000 0.000000 0.000000 0.000000 0.065656
#
#
# Mechanical properties :
#
#
# Convention : Reuss Voigt Hill
#
# Bulk Modulus (GPa) = 45.57111 47.40677 46.48894
# Shear Modulus (GPa) = 2.26104 12.98808 7.62456
#
# Velocity S-wave (km/s) = 1.35621 3.25045 2.49045
# Velocity P-wave (km/s) = 6.28674 7.25612 6.78875
#
# Compressibility (1/GPa) = 0.02194373
#
# Stress axis : x y z
#
# Youngs Moduli (GPa) = 2.00198 2.00198 44.95485
#
# Poissons Ratio (x) = 0.96161 0.43438
# Poissons Ratio (y) = 0.96161 0.43438
# Poissons Ratio (z) = 0.01934 0.01934
#
# Static dielectric constant tensor:
#      x y z
#    x 2.400420 0.000000 0.000000 
#    y 0.000000 2.400420 0.000000 
#    z 0.000000 0.000000 2.705480 
# 
# 
# High freq. dielectric constant tensor:
#      x y z
#    x 1.429480 0.000000 0.000000 
#    y 0.000000 1.429480 0.000000 
#    z 0.000000 0.000000 1.478750 
# 
# From -- ./inp_files/2164.got.cif
#   From: 2010.03.12/outbox.cif.g09.slc.cpg/sg127_2_cif.got.tgz:2164.got - 2010.04.06 17:03:15.
