data_PCOD8314507
_publ_section_title
;
Structure prediction by ZEFSAII (Michael W. Deem and Ramdas Pophale) SiO2 
 PCOD8314507
Probable space group: P 4/M N C
;
_chemical_formula_sum "Si O2"
_cell_formula_units_Z 96
_cell_length_a 24.149196
_cell_length_b 24.149196
_cell_length_c 8.637544
_cell_angle_alpha 90.000000
_cell_angle_beta 90.000000
_cell_angle_gamma 90.000000
_cell_volume 5037.274588
_symmetry_space_group_name_H-M "P 4/M N C"
_symmetry_group_IT_number 128
_symmetry_cell_setting 'tetragonal'
loop_
_space_group_symop_operation_xyz
x,y,z
-y,x,z
-x,-y,z
y,-x,z
1/2+x,1/2-y,1/2-z
1/2-x,1/2+y,1/2-z
1/2+y,1/2+x,1/2-z
1/2-y,1/2-x,1/2-z
-x,-y,-z
y,-x,-z
x,y,-z
-y,x,-z
1/2-x,1/2+y,1/2+z
1/2+x,1/2-y,1/2+z
1/2-y,1/2-x,1/2+z
1/2+y,1/2+x,1/2+z
loop_
_atom_site_type_symbol
_atom_site_label
_atom_site_fract_x
_atom_site_fract_y
_atom_site_fract_z
Si Si1 0.442757 0.726557 0.680577
Si Si2 0.556038 0.858419 0.182930
Si Si3 0.358605 0.637756 0.675890
Si Si4 0.054440 0.928233 0.328108
Si Si5 0.937634 0.646747 0.181084
Si Si6 0.566675 0.739784 0.314550
O O1 0.443449 0.712399 0.500000
O O2 0.394909 0.686833 0.758723
O O3 0.424192 0.789115 0.713418
O O4 0.505810 0.717798 0.744859
O O5 0.593166 0.906834 0.250000
O O6 0.493544 0.871181 0.233868
O O7 0.578020 0.800309 0.248443
O O8 0.560039 0.857603 0.000000
O O9 0.348696 0.654668 0.500000
O O10 0.393502 0.581615 0.691111
O O11 0.298713 0.618327 0.744873
O O12 0.071409 0.906811 0.500000
O O13 0.989741 0.923770 0.306463
O O14 0.886810 0.613191 0.250000
O O15 0.944866 0.634970 0.000000
O O16 0.564912 0.743010 0.500000
#
# Coordination Sequence:
#
# PCOD8314507 Si02
#       6
#    16  16  16  16  16  16
#     4   8  16  31  50  74 106 142 177 219 267 312
#     4  11  22  38  60  84 110 140 174 212 261 317
#     4  10  18  30  51  75  99 135 183 226 265 312
#     4   9  18  30  41  59  93 132 169 219 280 328
#     4  10  20  37  59  84 114 143 174 213 260 314
#     4   9  18  33  52  76 109 144 179 223 271 316
#
# _framework density 19.057925000000001
#
# number of rings (size 3 to 8) (size 9 to 14) (size 15 to 20)
#    0.000    2.500    0.000    4.500    0.000    3.000 
#    0.000    9.167    0.000    2.000    0.000    0.000 
#    0.000    0.000    0.000    0.000    0.000    0.000 
#
# Total GULP energy -1189319.770834 kJ/mol
# GULP energy per Si atom -12388.747613 kJ/mol
# Density = 1.901455 g / cm^3
# Si number density = 19.057925 Si / 1000 Ang^3
#
#
#
# Elastic Constant Matrix: (Units=GPa)
#
#
# Indices 1 2 3 4 5 6 
#
# 1 64.3642 46.1155 19.2962 0.0000 0.0000 0.0000
# 2 46.1155 64.3487 19.2927 0.0000 0.0000 0.0000
# 3 19.2962 19.2927 39.5046 0.0000 0.0000 0.0000
# 4 0.0000 0.0000 0.0000 23.9183 0.0000 0.0000
# 5 0.0000 0.0000 0.0000 0.0000 23.9189 0.0000
# 6 0.0000 0.0000 0.0000 0.0000 0.0000 42.2809
#
#
#
# Elastic Compliance Matrix: (Units=1/GPa)
#
#
# Indices 1 2 3 4 5 6 
#
# 1 0.032864 -0.021954 -0.005331 0.000000 0.000000 0.000000
# 2 -0.021954 0.032871 -0.005330 0.000000 0.000000 0.000000
# 3 -0.005331 -0.005330 0.030520 0.000000 0.000000 0.000000
# 4 0.000000 0.000000 0.000000 0.041809 0.000000 0.000000
# 5 0.000000 0.000000 0.000000 0.000000 0.041808 0.000000
# 6 0.000000 0.000000 0.000000 0.000000 0.000000 0.023651
#
#
# Mechanical properties :
#
#
# Convention : Reuss Voigt Hill
#
# Bulk Modulus (GPa) = 32.23056 37.51403 34.87229
# Shear Modulus (GPa) = 17.91496 23.59115 20.75305
#
# Velocity S-wave (km/s) = 3.06931 3.52215 3.30350
# Velocity P-wave (km/s) = 5.43226 6.02226 5.73486
#
# Compressibility (1/GPa) = 0.03102646
#
# Stress axis : x y z
#
# Youngs Moduli (GPa) = 30.42818 30.42153 32.76491
#
# Poissons Ratio (x) = 0.66787 0.17468
# Poissons Ratio (y) = 0.66801 0.17463
# Poissons Ratio (z) = 0.16222 0.16214
#
# Static dielectric constant tensor:
#      x y z
#    x 3.240480 0.000000 0.000000 
#    y 0.000000 3.240450 0.000000 
#    z 0.000000 0.000000 3.309610 
# 
# 
# High freq. dielectric constant tensor:
#      x y z
#    x 1.738060 0.000000 0.000000 
#    y 0.000000 1.738060 0.000000 
#    z 0.000000 0.000000 1.718680 
# 
# From -- ./inp_files/1416.got.cif
#   From: 2010.03.12/outbox.cif.g09.slc.cpg/sg128_1_cif.got.tgz:1416.got - 2010.04.06 17:11:05.
