data_PCOD8314085
_publ_section_title
;
Structure prediction by ZEFSAII (Michael W. Deem and Ramdas Pophale) SiO2 
 PCOD8314085
Probable space group: P 4/M B M
;
_chemical_formula_sum "Si O2"
_cell_formula_units_Z 120
_cell_length_a 26.061785
_cell_length_b 26.061785
_cell_length_c 10.081093
_cell_angle_alpha 90.000000
_cell_angle_beta 90.000000
_cell_angle_gamma 90.000000
_cell_volume 6847.246089
_symmetry_space_group_name_H-M "P 4/M B M"
_symmetry_group_IT_number 127
_symmetry_cell_setting 'tetragonal'
loop_
_space_group_symop_operation_xyz
x,y,z
-y,x,z
-x,-y,z
y,-x,z
1/2+x,1/2-y,-z
1/2-x,1/2+y,-z
1/2+y,1/2+x,-z
1/2-y,1/2-x,-z
-x,-y,-z
y,-x,-z
x,y,-z
-y,x,-z
1/2-x,1/2+y,z
1/2+x,1/2-y,z
1/2-y,1/2-x,z
1/2+y,1/2+x,z
loop_
_atom_site_type_symbol
_atom_site_label
_atom_site_fract_x
_atom_site_fract_y
_atom_site_fract_z
Si Si1 0.760194 0.926643 0.649822
Si Si2 0.956947 0.925363 0.000000
Si Si3 0.102382 0.683892 0.145965
Si Si4 0.049773 0.131929 0.740013
Si Si5 0.340812 0.922942 0.156101
Si Si6 0.058663 0.871189 0.646335
Si Si7 0.978350 0.400066 0.156480
Si Si8 0.453990 0.748468 0.344578
O O1 0.751699 0.907156 0.500000
O O2 0.728819 0.891082 0.748875
O O3 0.818155 0.918129 0.700511
O O4 0.742615 0.985514 0.664476
O O5 0.934432 0.890374 0.117984
O O6 0.018688 0.930730 0.000000
O O7 0.157058 0.657058 0.135505
O O8 0.059531 0.645159 0.200662
O O9 0.086542 0.704985 0.000000
O O10 0.085283 0.101585 0.636386
O O11 0.058557 0.192458 0.717484
O O12 0.991277 0.112846 0.727938
O O13 0.367145 0.867145 0.173579
O O14 0.291084 0.926038 0.252087
O O15 0.383950 0.964743 0.203196
O O16 0.325570 0.931723 0.000000
O O17 0.037362 0.858267 0.500000
O O18 0.954522 0.454522 0.213366
O O19 0.978231 0.405495 0.000000
O O20 0.436095 0.751971 0.500000
#
# Coordination Sequence:
#
# PCOD8314085 Si02
#       8
#    16   8  16  16  16  16  16  16
#     4   9  18  32  49  75 104 130 171 217 260 308
#     4  11  22  38  52  80 123 152 172 205 257 326
#     4   9  16  28  48  73 100 132 171 210 258 317
#     4  11  21  37  55  79 109 140 176 214 257 312
#     4  10  20  33  52  79 107 141 181 221 272 330
#     4  10  20  35  54  77 105 138 174 214 254 303
#     4   8  14  26  45  71 102 135 171 212 255 307
#     4  10  21  36  55  77 102 138 182 228 268 308
#
# _framework density 17.525293000000001
#
# number of rings (size 3 to 8) (size 9 to 14) (size 15 to 20)
#    0.000    2.333    2.667    2.800    0.933    1.067 
#    4.800    2.000    0.000    1.200    0.000    4.667 
#    0.000    0.000    0.000    0.000    0.000    0.000 
#
# Total GULP energy -1486607.245685 kJ/mol
# GULP energy per Si atom -12388.393714 kJ/mol
# Density = 1.748540 g / cm^3
# Si number density = 17.525293 Si / 1000 Ang^3
#
#
#
# Elastic Constant Matrix: (Units=GPa)
#
#
# Indices 1 2 3 4 5 6 
#
# 1 75.0129 45.5469 34.8096 0.0000 0.0000 0.0000
# 2 45.5469 75.0129 34.8096 0.0000 0.0000 0.0000
# 3 34.8096 34.8096 76.3475 0.0000 0.0000 0.0000
# 4 0.0000 0.0000 0.0000 23.5199 0.0000 0.0000
# 5 0.0000 0.0000 0.0000 0.0000 23.5199 0.0000
# 6 0.0000 0.0000 0.0000 0.0000 0.0000 17.6106
#
#
#
# Elastic Compliance Matrix: (Units=1/GPa)
#
#
# Indices 1 2 3 4 5 6 
#
# 1 0.022598 -0.011339 -0.005133 0.000000 0.000000 0.000000
# 2 -0.011339 0.022598 -0.005133 0.000000 0.000000 0.000000
# 3 -0.005133 -0.005133 0.017779 0.000000 0.000000 0.000000
# 4 0.000000 0.000000 0.000000 0.042517 0.000000 0.000000
# 5 0.000000 0.000000 0.000000 0.000000 0.042517 0.000000
# 6 0.000000 0.000000 0.000000 0.000000 0.000000 0.056784
#
#
# Mechanical properties :
#
#
# Convention : Reuss Voigt Hill
#
# Bulk Modulus (GPa) = 50.59845 50.74505 50.67175
# Shear Modulus (GPa) = 19.63915 20.34390 19.99152
#
# Velocity S-wave (km/s) = 3.35119 3.41079 3.38112
# Velocity P-wave (km/s) = 6.62634 6.67304 6.64973
#
# Compressibility (1/GPa) = 0.01976345
#
# Stress axis : x y z
#
# Youngs Moduli (GPa) = 44.25128 44.25128 56.24614
#
# Poissons Ratio (x) = 0.50178 0.28873
# Poissons Ratio (y) = 0.50178 0.28873
# Poissons Ratio (z) = 0.22716 0.22716
#
# Static dielectric constant tensor:
#      x y z
#    x 3.146710 0.000000 0.000000 
#    y 0.000000 3.146710 0.000000 
#    z 0.000000 0.000000 3.176660 
# 
# 
# High freq. dielectric constant tensor:
#      x y z
#    x 1.660020 0.000000 0.000000 
#    y 0.000000 1.660020 0.000000 
#    z 0.000000 0.000000 1.669210 
# 
# From -- ./inp_files/2429.got.cif
#   From: 2010.03.12/outbox.cif.g09.slc.cpg/sg127_2_cif.got.tgz:2429.got - 2010.04.06 17:03:15.
