data_PCOD8314614
_publ_section_title
;
Structure prediction by ZEFSAII (Michael W. Deem and Ramdas Pophale) SiO2 
 PCOD8314614
Probable space group: P 4/M N C
;
_chemical_formula_sum "Si O2"
_cell_formula_units_Z 48
_cell_length_a 16.708448
_cell_length_b 16.708448
_cell_length_c 9.074433
_cell_angle_alpha 90.000000
_cell_angle_beta 90.000000
_cell_angle_gamma 90.000000
_cell_volume 2533.329738
_symmetry_space_group_name_H-M "P 4/M N C"
_symmetry_group_IT_number 128
_symmetry_cell_setting 'tetragonal'
loop_
_space_group_symop_operation_xyz
x,y,z
-y,x,z
-x,-y,z
y,-x,z
1/2+x,1/2-y,1/2-z
1/2-x,1/2+y,1/2-z
1/2+y,1/2+x,1/2-z
1/2-y,1/2-x,1/2-z
-x,-y,-z
y,-x,-z
x,y,-z
-y,x,-z
1/2-x,1/2+y,1/2+z
1/2+x,1/2-y,1/2+z
1/2-y,1/2-x,1/2+z
1/2+y,1/2+x,1/2+z
loop_
_atom_site_type_symbol
_atom_site_label
_atom_site_fract_x
_atom_site_fract_y
_atom_site_fract_z
Si Si1 0.891731 0.928797 0.671031
Si Si2 0.737144 0.882427 0.170950
Si Si3 0.508201 0.112030 0.328797
O O1 0.871789 0.916947 0.500000
O O2 0.826368 0.881986 0.766118
O O3 0.977368 0.891216 0.710724
O O4 0.685076 0.814925 0.250000
O O5 0.700813 0.972279 0.194755
O O6 0.739414 0.859885 0.000000
O O7 0.595014 0.095014 0.250000
O O8 0.515888 0.091053 0.500000
O O9 0.445988 0.054013 0.250000
#
# Coordination Sequence:
#
# PCOD8314614 Si02
#       3
#    16  16  16
#     4   9  19  37  59  80 103 135 175 217 263 315
#     4  10  20  33  52  79 109 140 175 217 265 314
#     4   9  16  26  42  66  96 131 169 205 245 298
#
# _framework density 18.947396000000001
#
# number of rings (size 3 to 8) (size 9 to 14) (size 15 to 20)
#    0.000    2.667    0.000    4.000    0.000    5.333 
#    0.000    3.333    0.000    4.000    0.000    0.000 
#    0.000    0.000    0.000    0.000    0.000    0.000 
#
# Total GULP energy -594791.333430 kJ/mol
# GULP energy per Si atom -12391.486113 kJ/mol
# Density = 1.890427 g / cm^3
# Si number density = 18.947396 Si / 1000 Ang^3
#
#
#
# Elastic Constant Matrix: (Units=GPa)
#
#
# Indices 1 2 3 4 5 6 
#
# 1 79.6937 35.3078 48.1068 0.0000 0.0000 0.0000
# 2 35.3078 79.6934 48.1088 0.0000 0.0000 0.0000
# 3 48.1068 48.1088 121.4076 0.0000 0.0000 0.0000
# 4 0.0000 0.0000 0.0000 16.4234 0.0000 0.0000
# 5 0.0000 0.0000 0.0000 0.0000 16.4289 0.0000
# 6 0.0000 0.0000 0.0000 0.0000 0.0000 18.9620
#
#
#
# Elastic Compliance Matrix: (Units=1/GPa)
#
#
# Indices 1 2 3 4 5 6 
#
# 1 0.017769 -0.004761 -0.005154 0.000000 0.000000 0.000000
# 2 -0.004761 0.017769 -0.005155 0.000000 0.000000 0.000000
# 3 -0.005154 -0.005155 0.012322 0.000000 0.000000 0.000000
# 4 0.000000 0.000000 0.000000 0.060889 0.000000 0.000000
# 5 0.000000 0.000000 0.000000 0.000000 0.060868 0.000000
# 6 0.000000 0.000000 0.000000 0.000000 0.000000 0.052737
#
#
# Mechanical properties :
#
#
# Convention : Reuss Voigt Hill
#
# Bulk Modulus (GPa) = 56.43378 60.42685 58.43031
# Shear Modulus (GPa) = 19.34990 20.31429 19.83209
#
# Velocity S-wave (km/s) = 3.19916 3.27791 3.23877
# Velocity P-wave (km/s) = 6.59509 6.80348 6.70010
#
# Compressibility (1/GPa) = 0.01771988
#
# Stress axis : x y z
#
# Youngs Moduli (GPa) = 56.27913 56.27733 81.15837
#
# Poissons Ratio (x) = 0.26793 0.41830
# Poissons Ratio (y) = 0.26794 0.41835
# Poissons Ratio (z) = 0.29007 0.29009
#
# Static dielectric constant tensor:
#      x y z
#    x 3.623170 0.000000 0.000000 
#    y 0.000000 3.623170 0.000000 
#    z 0.000000 0.000000 3.495300 
# 
# 
# High freq. dielectric constant tensor:
#      x y z
#    x 1.717910 0.000000 0.000000 
#    y 0.000000 1.717910 0.000000 
#    z 0.000000 0.000000 1.746300 
# 
# From -- ./inp_files/615.got.cif
#   From: 2010.03.12/outbox.cif.g09.slc.cpg/sg128_1_cif.got.tgz:615.got - 2010.04.06 17:11:05.
