data_PCOD8314191
_publ_section_title
;
Structure prediction by ZEFSAII (Michael W. Deem and Ramdas Pophale) SiO2 
 PCOD8314191
Probable space group: P 4/M B M
;
_chemical_formula_sum "Si O2"
_cell_formula_units_Z 48
_cell_length_a 14.885044
_cell_length_b 14.885044
_cell_length_c 12.395922
_cell_angle_alpha 90.000000
_cell_angle_beta 90.000000
_cell_angle_gamma 90.000000
_cell_volume 2746.496692
_symmetry_space_group_name_H-M "P 4/M B M"
_symmetry_group_IT_number 127
_symmetry_cell_setting 'tetragonal'
loop_
_space_group_symop_operation_xyz
x,y,z
-y,x,z
-x,-y,z
y,-x,z
1/2+x,1/2-y,-z
1/2-x,1/2+y,-z
1/2+y,1/2+x,-z
1/2-y,1/2-x,-z
-x,-y,-z
y,-x,-z
x,y,-z
-y,x,-z
1/2-x,1/2+y,z
1/2+x,1/2-y,z
1/2-y,1/2-x,z
1/2+y,1/2+x,z
loop_
_atom_site_type_symbol
_atom_site_label
_atom_site_fract_x
_atom_site_fract_y
_atom_site_fract_z
Si Si1 0.193663 0.693663 0.373826
Si Si2 0.003172 0.744046 0.876959
Si Si3 0.427764 0.072237 0.757537
Si Si4 0.822047 0.819294 0.195067
O O1 0.205577 0.705577 0.500000
O O2 0.118435 0.618435 0.346398
O O3 0.164051 0.788871 0.319287
O O4 0.023505 0.645912 0.831018
O O5 0.089739 0.808474 0.872284
O O6 0.924923 0.789658 0.806532
O O7 0.970885 0.734907 0.000000
O O8 0.500000 0.000000 0.715647
O O9 0.758610 0.741391 0.143352
#
# Coordination Sequence:
#
# PCOD8314191 Si02
#       4
#     8  16   8  16
#     4   8  18  40  59  73 109 150 182 238 293 318
#     4  11  20  34  55  80 118 159 184 227 287 339
#     4  10  21  33  54  89 118 138 196 236 283 349
#     4   9  21  36  54  79 115 143 199 233 275 345
#
# _framework density 17.476811000000001
#
# number of rings (size 3 to 8) (size 9 to 14) (size 15 to 20)
#    1.000    1.333    1.667    2.500    0.000    5.667 
#    0.000    8.333    0.000    0.000    0.000    9.333 
#    0.000    0.000    0.000    0.000    0.000    0.000 
#
# Total GULP energy -594911.184177 kJ/mol
# GULP energy per Si atom -12393.983004 kJ/mol
# Density = 1.743703 g / cm^3
# Si number density = 17.476811 Si / 1000 Ang^3
#
#
#
# Elastic Constant Matrix: (Units=GPa)
#
#
# Indices 1 2 3 4 5 6 
#
# 1 101.9055 73.2508 24.6702 0.0000 0.0000 0.0000
# 2 73.2508 101.9055 24.6702 0.0000 0.0000 0.0000
# 3 24.6702 24.6702 105.2692 0.0000 0.0000 0.0000
# 4 0.0000 0.0000 0.0000 14.2173 0.0000 0.0000
# 5 0.0000 0.0000 0.0000 0.0000 14.2173 0.0000
# 6 0.0000 0.0000 0.0000 0.0000 0.0000 46.3432
#
#
#
# Elastic Compliance Matrix: (Units=1/GPa)
#
#
# Indices 1 2 3 4 5 6 
#
# 1 0.020505 -0.014393 -0.001433 0.000000 0.000000 0.000000
# 2 -0.014393 0.020505 -0.001433 0.000000 0.000000 0.000000
# 3 -0.001433 -0.001433 0.010171 0.000000 0.000000 0.000000
# 4 0.000000 0.000000 0.000000 0.070337 0.000000 0.000000
# 5 0.000000 0.000000 0.000000 0.000000 0.070337 0.000000
# 6 0.000000 0.000000 0.000000 0.000000 0.000000 0.021578
#
#
# Mechanical properties :
#
#
# Convention : Reuss Voigt Hill
#
# Bulk Modulus (GPa) = 60.00171 61.58473 60.79322
# Shear Modulus (GPa) = 19.72350 27.38816 23.55583
#
# Velocity S-wave (km/s) = 3.36304 3.96297 3.67527
# Velocity P-wave (km/s) = 7.03468 7.50031 7.27123
#
# Compressibility (1/GPa) = 0.01666619
#
# Stress axis : x y z
#
# Youngs Moduli (GPa) = 48.76749 48.76749 98.31974
#
# Poissons Ratio (x) = 0.70190 0.14085
# Poissons Ratio (y) = 0.70190 0.14085
# Poissons Ratio (z) = 0.06986 0.06986
#
# Static dielectric constant tensor:
#      x y z
#    x 3.201950 0.000000 0.000000 
#    y 0.000000 3.201950 0.000000 
#    z 0.000000 0.000000 2.867780 
# 
# 
# High freq. dielectric constant tensor:
#      x y z
#    x 1.676220 0.000000 0.000000 
#    y 0.000000 1.676220 0.000000 
#    z 0.000000 0.000000 1.644400 
# 
# From -- ./inp_files/2747.got.cif
#   From: 2010.03.12/outbox.cif.g09.slc.cpg/sg127_2_cif.got.tgz:2747.got - 2010.04.06 17:03:15.
