data_PCOD8314982
_publ_section_title
;
Structure prediction by ZEFSAII (Michael W. Deem and Ramdas Pophale) SiO2 
 PCOD8314982
Probable space group: P 4/N M M
;
_chemical_formula_sum "Si O2"
_cell_formula_units_Z 80
_cell_length_a 13.806077
_cell_length_b 13.806077
_cell_length_c 25.935337
_cell_angle_alpha 90.000000
_cell_angle_beta 90.000000
_cell_angle_gamma 90.000000
_cell_volume 4943.476546
_symmetry_space_group_name_H-M "P 4/N M M"
_symmetry_group_IT_number 129
_symmetry_cell_setting 'tetragonal'
loop_
_space_group_symop_operation_xyz
x,y,z
1/2-y,x,z
1/2-x,1/2-y,z
y,1/2-x,z
1/2+x,-y,-z
-x,1/2+y,-z
1/2+y,1/2+x,-z
-y,-x,-z
-x,-y,-z
1/2+y,-x,-z
1/2+x,1/2+y,-z
-y,1/2+x,-z
1/2-x,y,z
x,1/2-y,z
1/2-y,1/2-x,z
y,x,z
loop_
_atom_site_type_symbol
_atom_site_label
_atom_site_fract_x
_atom_site_fract_y
_atom_site_fract_z
Si Si1 0.635068 0.357427 0.746912
Si Si2 0.357367 0.864814 0.140053
Si Si3 0.134815 0.977526 0.958008
Si Si4 0.516668 0.135505 0.348161
Si Si5 0.642481 0.134794 0.443528
O O1 0.750000 0.350195 0.743542
O O2 0.590676 0.250000 0.738675
O O3 0.606180 0.399717 0.803382
O O4 0.596258 0.426741 0.702026
O O5 0.250000 0.907867 0.127670
O O6 0.348492 0.750000 0.141289
O O7 0.434394 0.897025 0.097233
O O8 0.250000 0.994669 0.962551
O O9 0.101034 0.898967 0.000000
O O10 0.079893 0.079893 0.965962
O O11 0.504082 0.250000 0.347880
O O12 0.572557 0.097086 0.398693
O O13 0.410218 0.089783 0.348057
O O14 0.602712 0.102712 0.500000
O O15 0.750000 0.091976 0.433769
O O16 0.648486 0.250000 0.442198
#
# Coordination Sequence:
#
# PCOD8314982 Si02
#       5
#    16  16  16  16  16
#     4   8  14  26  44  64  84 105 134 177 221 250
#     4   8  14  26  45  67  88 109 135 172 217 259
#     4  10  20  32  47  68  92 119 150 182 218 260
#     4  10  19  28  39  57  82 113 143 167 196 238
#     4   8  14  26  44  63  80  97 122 165 218 258
#
# _framework density 16.182942000000001
#
# number of rings (size 3 to 8) (size 9 to 14) (size 15 to 20)
#    0.000    3.200    0.000    3.000    0.000    5.000 
#    0.000    0.000    0.000    0.000    0.000    0.000 
#    0.000   11.200    0.000    0.000    0.000    1.200 
#
# Total GULP energy -991365.325398 kJ/mol
# GULP energy per Si atom -12392.066567 kJ/mol
# Density = 1.614611 g / cm^3
# Si number density = 16.182942 Si / 1000 Ang^3
#
#
#
# Elastic Constant Matrix: (Units=GPa)
#
#
# Indices 1 2 3 4 5 6 
#
# 1 59.1120 34.7496 41.5317 0.0000 0.0000 0.0000
# 2 34.7496 59.1126 41.5318 0.0000 0.0000 0.0000
# 3 41.5317 41.5318 137.3077 0.0000 0.0000 0.0000
# 4 0.0000 0.0000 0.0000 7.2697 0.0000 0.0000
# 5 0.0000 0.0000 0.0000 0.0000 7.2708 0.0000
# 6 0.0000 0.0000 0.0000 0.0000 0.0000 16.4550
#
#
#
# Elastic Compliance Matrix: (Units=1/GPa)
#
#
# Indices 1 2 3 4 5 6 
#
# 1 0.027797 -0.013249 -0.004400 0.000000 0.000000 0.000000
# 2 -0.013249 0.027797 -0.004400 0.000000 0.000000 0.000000
# 3 -0.004400 -0.004400 0.009945 0.000000 0.000000 0.000000
# 4 0.000000 0.000000 0.000000 0.137557 0.000000 0.000000
# 5 0.000000 0.000000 0.000000 0.000000 0.137536 0.000000
# 6 0.000000 0.000000 0.000000 0.000000 0.000000 0.060772
#
#
# Mechanical properties :
#
#
# Convention : Reuss Voigt Hill
#
# Bulk Modulus (GPa) = 46.64283 54.57317 50.60800
# Shear Modulus (GPa) = 11.04605 15.38039 13.21322
#
# Velocity S-wave (km/s) = 2.61544 3.08621 2.86053
# Velocity P-wave (km/s) = 6.16486 6.81876 6.50004
#
# Compressibility (1/GPa) = 0.02143952
#
# Stress axis : x y z
#
# Youngs Moduli (GPa) = 35.97462 35.97503 100.55403
#
# Poissons Ratio (x) = 0.47664 0.44248
# Poissons Ratio (y) = 0.47663 0.44247
# Poissons Ratio (z) = 0.15830 0.15830
#
# Static dielectric constant tensor:
#      x y z
#    x 2.750840 0.000000 0.000000 
#    y 0.000000 2.750840 0.000000 
#    z 0.000000 0.000000 3.632810 
# 
# 
# High freq. dielectric constant tensor:
#      x y z
#    x 1.585930 0.000000 0.000000 
#    y 0.000000 1.585930 0.000000 
#    z 0.000000 0.000000 1.646470 
# 
# From -- ./inp_files/6927.got.cif
#   From: 2010.03.12/outbox.cif.g09.slc.cpg/sg129_4_cif.got.tgz:6927.got - 2010.04.06 17:19:44.
