data_PCOD8314369
_publ_section_title
;
Structure prediction by ZEFSAII (Michael W. Deem and Ramdas Pophale) SiO2 
 PCOD8314369
Probable space group: P 4/M B M
;
_chemical_formula_sum "Si O2"
_cell_formula_units_Z 72
_cell_length_a 22.821396
_cell_length_b 22.821396
_cell_length_c 9.184024
_cell_angle_alpha 90.000000
_cell_angle_beta 90.000000
_cell_angle_gamma 90.000000
_cell_volume 4783.187703
_symmetry_space_group_name_H-M "P 4/M B M"
_symmetry_group_IT_number 127
_symmetry_cell_setting 'tetragonal'
loop_
_space_group_symop_operation_xyz
x,y,z
-y,x,z
-x,-y,z
y,-x,z
1/2+x,1/2-y,-z
1/2-x,1/2+y,-z
1/2+y,1/2+x,-z
1/2-y,1/2-x,-z
-x,-y,-z
y,-x,-z
x,y,-z
-y,x,-z
1/2-x,1/2+y,z
1/2+x,1/2-y,z
1/2-y,1/2-x,z
1/2+y,1/2+x,z
loop_
_atom_site_type_symbol
_atom_site_label
_atom_site_fract_x
_atom_site_fract_y
_atom_site_fract_z
Si Si1 0.785667 0.812837 0.338614
Si Si2 0.049008 0.450993 0.331688
Si Si3 0.704539 0.889362 0.829711
Si Si4 0.832124 0.518628 0.827368
Si Si5 0.623304 0.220196 0.330002
O O1 0.795809 0.838054 0.500000
O O2 0.736068 0.763933 0.341589
O O3 0.765826 0.866790 0.238009
O O4 0.844887 0.780870 0.282919
O O5 0.063551 0.436450 0.500000
O O6 0.025738 0.393539 0.252701
O O7 0.000000 0.500000 0.318141
O O8 0.649857 0.850144 0.774035
O O9 0.693604 0.955790 0.782769
O O10 0.711671 0.883162 0.000000
O O11 0.785738 0.566221 0.770231
O O12 0.841364 0.524716 0.000000
O O13 0.606307 0.222277 0.500000
O O14 0.664548 0.164548 0.299055
#
# Coordination Sequence:
#
# PCOD8314369 Si02
#       5
#    16   8  16  16  16
#     4   8  15  28  46  65  83 108 142 181 224 267
#     4  11  23  35  45  59  83 121 163 197 227 258
#     4   9  18  31  44  61  87 117 147 184 223 260
#     4  11  21  31  45  65  89 118 153 188 225 265
#     4   9  17  30  46  64  88 114 144 185 227 264
#
# _framework density 15.052724
#
# number of rings (size 3 to 8) (size 9 to 14) (size 15 to 20)
#    0.000    2.556    1.111    3.000    0.000    4.444 
#    0.000    4.444    0.000    0.000    0.000    0.000 
#    0.000    0.889    0.000    9.778    0.000    7.111 
#
# Total GULP energy -892575.522842 kJ/mol
# GULP energy per Si atom -12396.882262 kJ/mol
# Density = 1.501846 g / cm^3
# Si number density = 15.052724 Si / 1000 Ang^3
#
#
#
# Elastic Constant Matrix: (Units=GPa)
#
#
# Indices 1 2 3 4 5 6 
#
# 1 84.5487 72.0670 50.0286 0.0000 0.0000 0.0000
# 2 72.0670 84.5493 50.0286 0.0000 0.0000 0.0000
# 3 50.0286 50.0286 64.9155 0.0000 0.0000 0.0000
# 4 0.0000 0.0000 0.0000 25.5041 0.0000 0.0000
# 5 0.0000 0.0000 0.0000 0.0000 25.5041 0.0000
# 6 0.0000 0.0000 0.0000 0.0000 0.0000 26.1257
#
#
#
# Elastic Compliance Matrix: (Units=1/GPa)
#
#
# Indices 1 2 3 4 5 6 
#
# 1 0.046347 -0.033769 -0.009694 0.000000 0.000000 0.000000
# 2 -0.033769 0.046346 -0.009693 0.000000 0.000000 0.000000
# 3 -0.009694 -0.009693 0.030346 0.000000 0.000000 0.000000
# 4 0.000000 0.000000 0.000000 0.039209 0.000000 0.000000
# 5 0.000000 0.000000 0.000000 0.000000 0.039209 0.000000
# 6 0.000000 0.000000 0.000000 0.000000 0.000000 0.038276
#
#
# Mechanical properties :
#
#
# Convention : Reuss Voigt Hill
#
# Bulk Modulus (GPa) = 59.78138 64.25131 62.01635
# Shear Modulus (GPa) = 14.21988 19.55275 16.88631
#
# Velocity S-wave (km/s) = 3.07689 3.60801 3.35298
# Velocity P-wave (km/s) = 7.24043 7.75460 7.50192
#
# Compressibility (1/GPa) = 0.01672762
#
# Stress axis : x y z
#
# Youngs Moduli (GPa) = 21.57652 21.57673 32.95371
#
# Poissons Ratio (x) = 0.72862 0.31944
# Poissons Ratio (y) = 0.72861 0.31943
# Poissons Ratio (z) = 0.20915 0.20915
#
# Static dielectric constant tensor:
#      x y z
#    x 2.911580 0.000000 0.000000 
#    y 0.000000 2.911580 0.000000 
#    z 0.000000 0.000000 2.981940 
# 
# 
# High freq. dielectric constant tensor:
#      x y z
#    x 1.557150 0.000000 0.000000 
#    y 0.000000 1.557150 0.000000 
#    z 0.000000 0.000000 1.582310 
# 
# From -- ./inp_files/1732.got.cif
#   From: 2010.03.12/outbox.cif.g09.slc.cpg/sg127_1_cif.got.tgz:1732.got - 2010.04.06 17:03:15.
