data_PCOD8314733
_publ_section_title
;
Structure prediction by ZEFSAII (Michael W. Deem and Ramdas Pophale) SiO2 
 PCOD8314733
Probable space group: P 4/M N C
;
_chemical_formula_sum "Si O2"
_cell_formula_units_Z 56
_cell_length_a 14.508340
_cell_length_b 14.508340
_cell_length_c 13.112807
_cell_angle_alpha 90.000000
_cell_angle_beta 90.000000
_cell_angle_gamma 90.000000
_cell_volume 2760.140047
_symmetry_space_group_name_H-M "P 4/M N C"
_symmetry_group_IT_number 128
_symmetry_cell_setting 'tetragonal'
loop_
_space_group_symop_operation_xyz
x,y,z
-y,x,z
-x,-y,z
y,-x,z
1/2+x,1/2-y,1/2-z
1/2-x,1/2+y,1/2-z
1/2+y,1/2+x,1/2-z
1/2-y,1/2-x,1/2-z
-x,-y,-z
y,-x,-z
x,y,-z
-y,x,-z
1/2-x,1/2+y,1/2+z
1/2+x,1/2-y,1/2+z
1/2-y,1/2-x,1/2+z
1/2+y,1/2+x,1/2+z
loop_
_atom_site_type_symbol
_atom_site_label
_atom_site_fract_x
_atom_site_fract_y
_atom_site_fract_z
Si Si1 0.524439 0.767235 0.223323
Si Si2 0.434338 0.081205 0.614338
Si Si3 0.598193 0.378762 0.500000
Si Si4 0.162790 0.188446 0.219196
O O1 0.547202 0.827697 0.322524
O O2 0.546639 0.828615 0.123925
O O3 0.419176 0.737741 0.221116
O O4 0.587921 0.676562 0.230405
O O5 0.457169 0.108452 0.500000
O O6 0.500000 0.000000 0.654142
O O7 0.628216 0.486529 0.500000
O O8 0.640153 0.325149 0.401359
O O9 0.253740 0.246261 0.250000
#
# Coordination Sequence:
#
# PCOD8314733 Si02
#       4
#    16  16   8  16
#     4  11  23  40  60  96 131 168 219 269 334 393
#     4  10  21  41  65  88 124 169 221 277 330 389
#     4  11  24  44  72 100 130 175 230 284 340 399
#     4  12  24  41  66  96 137 173 215 280 333 396
#
# _framework density 20.288824999999999
#
# number of rings (size 3 to 8) (size 9 to 14) (size 15 to 20)
#    0.000    1.000    5.714    3.429    4.000    0.571 
#    2.571    0.000    0.000    0.000    0.000    2.000 
#    0.000    0.000    0.000    0.000    0.000    0.000 
#
# Total GULP energy -694159.047424 kJ/mol
# GULP energy per Si atom -12395.697275 kJ/mol
# Density = 2.024265 g / cm^3
# Si number density = 20.288825 Si / 1000 Ang^3
#
#
#
# Elastic Constant Matrix: (Units=GPa)
#
#
# Indices 1 2 3 4 5 6 
#
# 1 81.5188 30.4347 18.6785 0.0000 0.0000 0.0000
# 2 30.4347 81.5203 18.6777 0.0000 0.0000 0.0000
# 3 18.6785 18.6777 62.2555 0.0000 0.0000 0.0000
# 4 0.0000 0.0000 0.0000 22.4076 0.0000 0.0000
# 5 0.0000 0.0000 0.0000 0.0000 22.4073 0.0000
# 6 0.0000 0.0000 0.0000 0.0000 0.0000 53.8180
#
#
#
# Elastic Compliance Matrix: (Units=1/GPa)
#
#
# Indices 1 2 3 4 5 6 
#
# 1 0.014751 -0.004825 -0.002978 0.000000 0.000000 0.000000
# 2 -0.004825 0.014750 -0.002978 0.000000 0.000000 0.000000
# 3 -0.002978 -0.002978 0.017850 0.000000 0.000000 0.000000
# 4 0.000000 0.000000 0.000000 0.044628 0.000000 0.000000
# 5 0.000000 0.000000 0.000000 0.000000 0.044628 0.000000
# 6 0.000000 0.000000 0.000000 0.000000 0.000000 0.018581
#
#
# Mechanical properties :
#
#
# Convention : Reuss Voigt Hill
#
# Bulk Modulus (GPa) = 38.77536 40.09737 39.43637
# Shear Modulus (GPa) = 26.97660 30.22685 28.60172
#
# Velocity S-wave (km/s) = 3.65036 3.86402 3.75871
# Velocity P-wave (km/s) = 6.07619 6.30188 6.19006
#
# Compressibility (1/GPa) = 0.02578958
#
# Stress axis : x y z
#
# Youngs Moduli (GPa) = 67.79307 67.79480 56.02315
#
# Poissons Ratio (x) = 0.32709 0.16685
# Poissons Ratio (y) = 0.32708 0.16683
# Poissons Ratio (z) = 0.20190 0.20188
#
# Static dielectric constant tensor:
#      x y z
#    x 3.926760 0.000000 0.000000 
#    y 0.000000 3.926750 0.000000 
#    z 0.000000 0.000000 3.560930 
# 
# 
# High freq. dielectric constant tensor:
#      x y z
#    x 1.800710 0.000000 0.000000 
#    y 0.000000 1.800710 0.000000 
#    z 0.000000 0.000000 1.775870 
# 
# From -- ./inp_files/3422.got.cif
#   From: 2010.03.12/outbox.cif.g09.slc.cpg/sg128_2_cif.got.tgz:3422.got - 2010.04.06 17:11:05.
