data_PCOD8314279
_publ_section_title
;
Structure prediction by ZEFSAII (Michael W. Deem and Ramdas Pophale) SiO2 
 PCOD8314279
Probable space group: P 4/M B M
;
_chemical_formula_sum "Si O2"
_cell_formula_units_Z 96
_cell_length_a 23.566230
_cell_length_b 23.566230
_cell_length_c 8.590477
_cell_angle_alpha 90.000000
_cell_angle_beta 90.000000
_cell_angle_gamma 90.000000
_cell_volume 4770.869127
_symmetry_space_group_name_H-M "P 4/M B M"
_symmetry_group_IT_number 127
_symmetry_cell_setting 'tetragonal'
loop_
_space_group_symop_operation_xyz
x,y,z
-y,x,z
-x,-y,z
y,-x,z
1/2+x,1/2-y,-z
1/2-x,1/2+y,-z
1/2+y,1/2+x,-z
1/2-y,1/2-x,-z
-x,-y,-z
y,-x,-z
x,y,-z
-y,x,-z
1/2-x,1/2+y,z
1/2+x,1/2-y,z
1/2-y,1/2-x,z
1/2+y,1/2+x,z
loop_
_atom_site_type_symbol
_atom_site_label
_atom_site_fract_x
_atom_site_fract_y
_atom_site_fract_z
Si Si1 0.000118 0.410516 0.815125
Si Si2 0.363597 0.229630 0.678336
Si Si3 0.187640 0.221241 0.820483
Si Si4 0.036975 0.084531 0.180793
Si Si5 0.298549 0.429428 0.680123
Si Si6 0.017453 0.715542 0.181549
O O1 0.057923 0.442078 0.761151
O O2 0.945710 0.445710 0.750940
O O3 0.999665 0.346457 0.750983
O O4 0.996554 0.409179 0.000000
O O5 0.383997 0.232208 0.500000
O O6 0.324583 0.175418 0.710992
O O7 0.329074 0.286562 0.716716
O O8 0.416163 0.225220 0.793858
O O9 0.219428 0.280573 0.785575
O O10 0.122085 0.228317 0.777486
O O11 0.194186 0.204222 0.000000
O O12 0.060994 0.135480 0.282841
O O13 0.971174 0.073570 0.221140
O O14 0.043391 0.100239 0.000000
O O15 0.292105 0.415458 0.500000
O O16 0.263466 0.485145 0.722858
O O17 0.002871 0.721306 0.000000
#
# Coordination Sequence:
#
# PCOD8314279 Si02
#       6
#    16  16  16  16  16  16
#     4   8  15  30  54  84 115 147 189 244 298 343
#     4  10  21  38  61  89 121 155 193 244 306 361
#     4  10  22  42  66  88 113 152 202 249 296 355
#     4   9  20  41  67  91 116 150 196 248 301 357
#     4  12  26  40  58  87 125 163 199 245 304 362
#     4  11  22  36  57  86 119 157 203 247 291 350
#
# _framework density 20.122119999999999
#
# number of rings (size 3 to 8) (size 9 to 14) (size 15 to 20)
#    0.000    2.000    0.000    4.500    2.333    4.000 
#    0.000    2.500    0.000    1.500    0.000    5.833 
#    0.000    0.000    0.000    0.000    0.000    0.000 
#
# Total GULP energy -1190747.641076 kJ/mol
# GULP energy per Si atom -12403.621261 kJ/mol
# Density = 2.007632 g / cm^3
# Si number density = 20.122120 Si / 1000 Ang^3
#
#
#
# Elastic Constant Matrix: (Units=GPa)
#
#
# Indices 1 2 3 4 5 6 
#
# 1 95.4653 35.6170 27.9406 0.0000 0.0000 0.0000
# 2 35.6170 95.4653 27.9406 0.0000 0.0000 0.0000
# 3 27.9406 27.9406 58.7824 0.0000 0.0000 0.0000
# 4 0.0000 0.0000 0.0000 21.8543 0.0000 0.0000
# 5 0.0000 0.0000 0.0000 0.0000 21.8543 0.0000
# 6 0.0000 0.0000 0.0000 0.0000 0.0000 20.8519
#
#
#
# Elastic Compliance Matrix: (Units=1/GPa)
#
#
# Indices 1 2 3 4 5 6 
#
# 1 0.013138 -0.003571 -0.004548 0.000000 0.000000 0.000000
# 2 -0.003571 0.013138 -0.004548 0.000000 0.000000 0.000000
# 3 -0.004548 -0.004548 0.021335 0.000000 0.000000 0.000000
# 4 0.000000 0.000000 0.000000 0.045757 0.000000 0.000000
# 5 0.000000 0.000000 0.000000 0.000000 0.045757 0.000000
# 6 0.000000 0.000000 0.000000 0.000000 0.000000 0.047957
#
#
# Mechanical properties :
#
#
# Convention : Reuss Voigt Hill
#
# Bulk Modulus (GPa) = 44.88434 48.07883 46.48159
# Shear Modulus (GPa) = 22.74357 23.45976 23.10167
#
# Velocity S-wave (km/s) = 3.36561 3.41819 3.39200
# Velocity P-wave (km/s) = 6.12025 6.28682 6.20409
#
# Compressibility (1/GPa) = 0.02227949
#
# Stress axis : x y z
#
# Youngs Moduli (GPa) = 76.11392 76.11392 46.87108
#
# Poissons Ratio (x) = 0.27178 0.21315
# Poissons Ratio (y) = 0.27178 0.21315
# Poissons Ratio (z) = 0.34614 0.34614
#
# Static dielectric constant tensor:
#      x y z
#    x 3.688690 0.000000 0.000000 
#    y 0.000000 3.688690 0.000000 
#    z 0.000000 0.000000 3.411090 
# 
# 
# High freq. dielectric constant tensor:
#      x y z
#    x 1.789450 0.000000 0.000000 
#    y 0.000000 1.789450 0.000000 
#    z 0.000000 0.000000 1.770090 
# 
# From -- ./inp_files/1950.got.cif
#   From: 2010.03.12/outbox.cif.g09.slc.cpg/sg127_1_cif.got.tgz:1950.got - 2010.04.06 17:03:15.
