data_PCOD8314980
_publ_section_title
;
Structure prediction by ZEFSAII (Michael W. Deem and Ramdas Pophale) SiO2 
 PCOD8314980
Probable space group: P 4/N M M
;
_chemical_formula_sum "Si O2"
_cell_formula_units_Z 96
_cell_length_a 14.214690
_cell_length_b 14.214690
_cell_length_c 30.618469
_cell_angle_alpha 90.000000
_cell_angle_beta 90.000000
_cell_angle_gamma 90.000000
_cell_volume 6186.688599
_symmetry_space_group_name_H-M "P 4/N M M"
_symmetry_group_IT_number 129
_symmetry_cell_setting 'tetragonal'
loop_
_space_group_symop_operation_xyz
x,y,z
1/2-y,x,z
1/2-x,1/2-y,z
y,1/2-x,z
1/2+x,-y,-z
-x,1/2+y,-z
1/2+y,1/2+x,-z
-y,-x,-z
-x,-y,-z
1/2+y,-x,-z
1/2+x,1/2+y,-z
-y,1/2+x,-z
1/2-x,y,z
x,1/2-y,z
1/2-y,1/2-x,z
y,x,z
loop_
_atom_site_type_symbol
_atom_site_label
_atom_site_fract_x
_atom_site_fract_y
_atom_site_fract_z
Si Si1 0.142778 0.506806 0.872647
Si Si2 0.354544 0.638157 0.704367
Si Si3 0.359027 0.512973 0.972248
Si Si4 0.361665 0.853745 0.800397
Si Si5 0.138264 0.986652 0.373852
Si Si6 0.854501 0.138494 0.451722
O O1 0.250000 0.487167 0.860472
O O2 0.092096 0.407905 0.866768
O O3 0.131535 0.544626 0.921889
O O4 0.097447 0.581687 0.839110
O O5 0.250000 0.598338 0.693350
O O6 0.348642 0.750000 0.704594
O O7 0.387935 0.604310 0.752571
O O8 0.428772 0.603955 0.668486
O O9 0.250000 0.495743 0.984926
O O10 0.416603 0.416603 0.981448
O O11 0.401109 0.598892 0.000000
O O12 0.250000 0.846543 0.804218
O O13 0.406113 0.750000 0.806345
O O14 0.250000 0.004193 0.374196
O O15 0.087546 0.087546 0.373870
O O16 0.102705 0.928070 0.415823
O O17 0.890917 0.109084 0.500000
O O18 0.750000 0.096284 0.442500
O O19 0.846766 0.250000 0.449332
#
# Coordination Sequence:
#
# PCOD8314980 Si02
#       6
#    16  16  16  16  16  16
#     4   9  17  28  42  61  85 112 138 163 194 236
#     4   8  14  26  43  60  78 100 129 170 212 239
#     4   9  18  31  45  63  87 113 143 177 211 250
#     4   8  14  25  41  61  83 104 128 163 206 245
#     4  10  19  28  39  57  81 109 137 161 189 230
#     4   8  14  26  44  63  80  97 121 160 207 243
#
# _framework density 15.517185
#
# number of rings (size 3 to 8) (size 9 to 14) (size 15 to 20)
#    0.000    3.333    0.000    2.000    0.000    4.333 
#    0.000    3.333    0.000    0.000    0.000    0.000 
#    0.000    5.667    0.000    0.333    0.000    1.167 
#
# Total GULP energy -1189727.300356 kJ/mol
# GULP energy per Si atom -12392.992712 kJ/mol
# Density = 1.548187 g / cm^3
# Si number density = 15.517185 Si / 1000 Ang^3
#
#
#
# Elastic Constant Matrix: (Units=GPa)
#
#
# Indices 1 2 3 4 5 6 
#
# 1 65.6398 36.1101 48.7144 0.0000 0.0000 0.0000
# 2 36.1101 65.6388 48.7145 0.0000 0.0000 0.0000
# 3 48.7144 48.7145 112.6248 0.0000 0.0000 0.0000
# 4 0.0000 0.0000 0.0000 15.4177 0.0000 0.0000
# 5 0.0000 0.0000 0.0000 0.0000 15.4176 0.0000
# 6 0.0000 0.0000 0.0000 0.0000 0.0000 16.3782
#
#
#
# Elastic Compliance Matrix: (Units=1/GPa)
#
#
# Indices 1 2 3 4 5 6 
#
# 1 0.025320 -0.008544 -0.007256 0.000000 0.000000 0.000000
# 2 -0.008544 0.025321 -0.007257 0.000000 0.000000 0.000000
# 3 -0.007256 -0.007257 0.015156 0.000000 0.000000 0.000000
# 4 0.000000 0.000000 0.000000 0.064861 0.000000 0.000000
# 5 0.000000 0.000000 0.000000 0.000000 0.064861 0.000000
# 6 0.000000 0.000000 0.000000 0.000000 0.000000 0.061057
#
#
# Mechanical properties :
#
#
# Convention : Reuss Voigt Hill
#
# Bulk Modulus (GPa) = 50.80408 56.77573 53.78990
# Shear Modulus (GPa) = 16.16811 16.80033 16.48422
#
# Velocity S-wave (km/s) = 3.23142 3.29400 3.26286
# Velocity P-wave (km/s) = 6.83626 7.15092 6.99536
#
# Compressibility (1/GPa) = 0.01968346
#
# Stress axis : x y z
#
# Youngs Moduli (GPa) = 39.49406 39.49315 65.97884
#
# Poissons Ratio (x) = 0.33744 0.47876
# Poissons Ratio (y) = 0.33745 0.47878
# Poissons Ratio (z) = 0.28658 0.28658
#
# Static dielectric constant tensor:
#      x y z
#    x 2.775680 0.000000 0.000000 
#    y 0.000000 2.775680 0.000000 
#    z 0.000000 0.000000 3.392070 
# 
# 
# High freq. dielectric constant tensor:
#      x y z
#    x 1.564290 0.000000 0.000000 
#    y 0.000000 1.564290 0.000000 
#    z 0.000000 0.000000 1.611920 
# 
# From -- ./inp_files/7840.got.cif
#   From: 2010.03.12/outbox.cif.g09.slc.cpg/sg129_4_cif.got.tgz:7840.got - 2010.04.06 17:19:44.
