data_PCOD8314762
_publ_section_title
;
Structure prediction by ZEFSAII (Michael W. Deem and Ramdas Pophale) SiO2 
 PCOD8314762
Probable space group: P 4/M N C
;
_chemical_formula_sum "Si O2"
_cell_formula_units_Z 88
_cell_length_a 16.700339
_cell_length_b 16.700339
_cell_length_c 16.052789
_cell_angle_alpha 90.000000
_cell_angle_beta 90.000000
_cell_angle_gamma 90.000000
_cell_volume 4477.144085
_symmetry_space_group_name_H-M "P 4/M N C"
_symmetry_group_IT_number 128
_symmetry_cell_setting 'tetragonal'
loop_
_space_group_symop_operation_xyz
x,y,z
-y,x,z
-x,-y,z
y,-x,z
1/2+x,1/2-y,1/2-z
1/2-x,1/2+y,1/2-z
1/2+y,1/2+x,1/2-z
1/2-y,1/2-x,1/2-z
-x,-y,-z
y,-x,-z
x,y,-z
-y,x,-z
1/2-x,1/2+y,1/2+z
1/2+x,1/2-y,1/2+z
1/2-y,1/2-x,1/2+z
1/2+y,1/2+x,1/2+z
loop_
_atom_site_type_symbol
_atom_site_label
_atom_site_fract_x
_atom_site_fract_y
_atom_site_fract_z
Si Si1 0.399328 0.584476 0.000000
Si Si2 0.814356 0.893548 0.332715
Si Si3 0.113165 0.631493 0.344856
Si Si4 0.798896 0.517120 0.406536
Si Si5 0.112429 0.437971 0.834214
Si Si6 0.063258 0.218240 0.741301
O O1 0.388025 0.490061 0.000000
O O2 0.358838 0.621271 0.919109
O O3 0.724416 0.861641 0.347720
O O4 0.861500 0.841698 0.263464
O O5 0.818368 0.985164 0.303222
O O6 0.105942 0.605942 0.250000
O O7 0.176767 0.576098 0.392495
O O8 0.023773 0.616614 0.380869
O O9 0.763829 0.525427 0.500000
O O10 0.876038 0.574623 0.399283
O O11 0.732876 0.543062 0.338759
O O12 0.058762 0.441239 0.750000
O O13 0.200838 0.410986 0.805453
#
# Coordination Sequence:
#
# PCOD8314762 Si02
#       6
#     8  16  16  16  16  16
#     4  11  22  38  64  98 125 153 205 273 321 395
#     4  11  22  40  63  93 126 165 203 256 334 385
#     4  11  20  35  63  89 123 166 205 253 310 380
#     4  11  23  40  59  92 127 169 220 260 300 367
#     4   9  18  35  59  84 119 167 203 245 307 375
#     4  10  22  41  64  86 125 170 211 257 321 390
#
# _framework density 19.655387000000001
#
# number of rings (size 3 to 8) (size 9 to 14) (size 15 to 20)
#    0.000    1.545    7.273    0.545    1.273    4.000 
#    6.545    0.909    0.000    0.000    0.000    1.273 
#    0.000    0.000    0.000    0.000    0.000    0.000 
#
# Total GULP energy -1091007.900080 kJ/mol
# GULP energy per Si atom -12397.817046 kJ/mol
# Density = 1.961065 g / cm^3
# Si number density = 19.655387 Si / 1000 Ang^3
#
#
#
# Elastic Constant Matrix: (Units=GPa)
#
#
# Indices 1 2 3 4 5 6 
#
# 1 92.5874 49.6774 26.5313 0.0000 0.0000 0.0000
# 2 49.6774 92.5875 26.5318 0.0000 0.0000 0.0000
# 3 26.5313 26.5318 107.2557 0.0000 0.0000 0.0000
# 4 0.0000 0.0000 0.0000 28.7035 0.0000 0.0000
# 5 0.0000 0.0000 0.0000 0.0000 28.7049 0.0000
# 6 0.0000 0.0000 0.0000 0.0000 0.0000 34.8607
#
#
#
# Elastic Compliance Matrix: (Units=1/GPa)
#
#
# Indices 1 2 3 4 5 6 
#
# 1 0.015524 -0.007780 -0.001915 0.000000 0.000000 0.000000
# 2 -0.007780 0.015524 -0.001916 0.000000 0.000000 0.000000
# 3 -0.001915 -0.001916 0.010271 0.000000 0.000000 0.000000
# 4 0.000000 0.000000 0.000000 0.034839 0.000000 0.000000
# 5 0.000000 0.000000 0.000000 0.000000 0.034837 0.000000
# 6 0.000000 0.000000 0.000000 0.000000 0.000000 0.028686
#
#
# Mechanical properties :
#
#
# Convention : Reuss Voigt Hill
#
# Bulk Modulus (GPa) = 55.25981 55.32353 55.29167
# Shear Modulus (GPa) = 29.59694 31.09981 30.34837
#
# Velocity S-wave (km/s) = 3.88466 3.98207 3.93367
# Velocity P-wave (km/s) = 6.94955 7.02498 6.98737
#
# Compressibility (1/GPa) = 0.01809634
#
# Stress axis : x y z
#
# Youngs Moduli (GPa) = 64.41603 64.41597 97.35979
#
# Poissons Ratio (x) = 0.50119 0.18649
# Poissons Ratio (y) = 0.50119 0.18650
# Poissons Ratio (z) = 0.12339 0.12339
#
# Static dielectric constant tensor:
#      x y z
#    x 3.696610 0.000000 0.000000 
#    y 0.000000 3.696610 0.000000 
#    z 0.000000 0.000000 3.426280 
# 
# 
# High freq. dielectric constant tensor:
#      x y z
#    x 1.758730 0.000000 0.000000 
#    y 0.000000 1.758730 0.000000 
#    z 0.000000 0.000000 1.746240 
# 
# From -- ./inp_files/3837.got.cif
#   From: 2010.03.12/outbox.cif.g09.slc.cpg/sg128_2_cif.got.tgz:3837.got - 2010.04.06 17:11:05.
