data_PCOD8314413
_publ_section_title
;
Structure prediction by ZEFSAII (Michael W. Deem and Ramdas Pophale) SiO2 
 PCOD8314413
Probable space group: P 4/M B M
;
_chemical_formula_sum "Si O2"
_cell_formula_units_Z 56
_cell_length_a 11.561378
_cell_length_b 11.561378
_cell_length_c 21.497641
_cell_angle_alpha 90.000000
_cell_angle_beta 90.000000
_cell_angle_gamma 90.000000
_cell_volume 2873.492100
_symmetry_space_group_name_H-M "P 4/M B M"
_symmetry_group_IT_number 127
_symmetry_cell_setting 'tetragonal'
loop_
_space_group_symop_operation_xyz
x,y,z
-y,x,z
-x,-y,z
y,-x,z
1/2+x,1/2-y,-z
1/2-x,1/2+y,-z
1/2+y,1/2+x,-z
1/2-y,1/2-x,-z
-x,-y,-z
y,-x,-z
x,y,-z
-y,x,-z
1/2-x,1/2+y,z
1/2+x,1/2-y,z
1/2-y,1/2-x,z
1/2+y,1/2+x,z
loop_
_atom_site_type_symbol
_atom_site_label
_atom_site_fract_x
_atom_site_fract_y
_atom_site_fract_z
Si Si1 0.903700 0.596300 0.208409
Si Si2 0.596616 0.096616 0.650328
Si Si3 0.813712 0.032456 0.429252
Si Si4 0.187523 0.976394 0.128932
Si Si5 0.688731 0.996406 0.000000
O O1 0.871745 0.628256 0.278981
O O2 0.956646 0.707962 0.175646
O O3 0.000000 0.500000 0.205101
O O4 0.548367 0.209954 0.617701
O O5 0.500000 0.000000 0.646493
O O6 0.768341 0.040907 0.500000
O O7 0.907446 0.131720 0.416858
O O8 0.099128 0.872161 0.141427
O O9 0.231044 0.978681 0.058585
O O10 0.633920 0.866081 0.000000
O O11 0.583844 0.083844 0.000000
#
# Coordination Sequence:
#
# PCOD8314413 Si02
#       5
#     8   8  16  16   8
#     4  11  26  44  64  87 126 174 212 254 314 370
#     4  11  25  40  60  95 127 164 214 258 302 373
#     4   9  20  40  65  93 126 163 204 256 318 374
#     4  11  25  43  66  96 124 161 214 264 313 376
#     4  11  22  37  66  99 127 162 198 255 323 373
#
# _framework density 19.488482000000001
#
# number of rings (size 3 to 8) (size 9 to 14) (size 15 to 20)
#    0.000    1.571    1.429    3.000    6.000    5.714 
#    0.000    2.857    0.000    0.000    0.000    0.000 
#    0.000    0.000    0.000    0.000    0.000    0.000 
#
# Total GULP energy -694551.586175 kJ/mol
# GULP energy per Si atom -12402.706896 kJ/mol
# Density = 1.944412 g / cm^3
# Si number density = 19.488482 Si / 1000 Ang^3
#
#
#
# Elastic Constant Matrix: (Units=GPa)
#
#
# Indices 1 2 3 4 5 6 
#
# 1 102.6468 35.0791 68.0409 0.0000 0.0000 0.0000
# 2 35.0791 102.6470 68.0409 0.0000 0.0000 0.0000
# 3 68.0409 68.0409 168.1456 0.0000 0.0000 0.0000
# 4 0.0000 0.0000 0.0000 26.4170 0.0000 0.0000
# 5 0.0000 0.0000 0.0000 0.0000 26.4193 0.0000
# 6 0.0000 0.0000 0.0000 0.0000 0.0000 22.1442
#
#
#
# Elastic Compliance Matrix: (Units=1/GPa)
#
#
# Indices 1 2 3 4 5 6 
#
# 1 0.013449 -0.001351 -0.004895 0.000000 0.000000 0.000000
# 2 -0.001351 0.013449 -0.004895 0.000000 0.000000 0.000000
# 3 -0.004895 -0.004895 0.009909 0.000000 0.000000 0.000000
# 4 0.000000 0.000000 0.000000 0.037854 0.000000 0.000000
# 5 0.000000 0.000000 0.000000 0.000000 0.037851 0.000000
# 6 0.000000 0.000000 0.000000 0.000000 0.000000 0.045159
#
#
# Mechanical properties :
#
#
# Convention : Reuss Voigt Hill
#
# Bulk Modulus (GPa) = 68.85627 79.52901 74.19264
# Shear Modulus (GPa) = 27.05689 28.48134 27.76911
#
# Velocity S-wave (km/s) = 3.73010 3.82703 3.77888
# Velocity P-wave (km/s) = 7.34575 7.77335 7.56257
#
# Compressibility (1/GPa) = 0.01452301
#
# Stress axis : x y z
#
# Youngs Moduli (GPa) = 74.35561 74.35585 100.91697
#
# Poissons Ratio (x) = 0.10046 0.49403
# Poissons Ratio (y) = 0.10046 0.49403
# Poissons Ratio (z) = 0.36400 0.36400
#
# Static dielectric constant tensor:
#      x y z
#    x 3.842850 0.000000 0.000000 
#    y 0.000000 3.842840 0.000000 
#    z 0.000000 0.000000 3.645860 
# 
# 
# High freq. dielectric constant tensor:
#      x y z
#    x 1.772260 0.000000 0.000000 
#    y 0.000000 1.772260 0.000000 
#    z 0.000000 0.000000 1.760550 
# 
# From -- ./inp_files/5473.got.cif
#   From: 2010.03.12/outbox.cif.g09.slc.cpg/sg127_3_cif.got.tgz:5473.got - 2010.04.06 17:03:15.
