data_PCOD8314860
_publ_section_title
;
Structure prediction by ZEFSAII (Michael W. Deem and Ramdas Pophale) SiO2 
 PCOD8314860
Probable space group: P 4/N M M
;
_chemical_formula_sum "Si O2"
_cell_formula_units_Z 112
_cell_length_a 20.134902
_cell_length_b 20.134902
_cell_length_c 17.440440
_cell_angle_alpha 90.000000
_cell_angle_beta 90.000000
_cell_angle_gamma 90.000000
_cell_volume 7070.603400
_symmetry_space_group_name_H-M "P 4/N M M"
_symmetry_group_IT_number 129
_symmetry_cell_setting 'tetragonal'
loop_
_space_group_symop_operation_xyz
x,y,z
1/2-y,x,z
1/2-x,1/2-y,z
y,1/2-x,z
1/2+x,-y,-z
-x,1/2+y,-z
1/2+y,1/2+x,-z
-y,-x,-z
-x,-y,-z
1/2+y,-x,-z
1/2+x,1/2+y,-z
-y,1/2+x,-z
1/2-x,y,z
x,1/2-y,z
1/2-y,1/2-x,z
y,x,z
loop_
_atom_site_type_symbol
_atom_site_label
_atom_site_fract_x
_atom_site_fract_y
_atom_site_fract_z
Si Si1 0.062585 0.326119 0.462809
Si Si2 0.676311 0.928883 0.262544
Si Si3 0.676397 0.477738 0.127784
Si Si4 0.425525 0.962958 0.175790
Si Si5 0.003177 0.393841 0.019484
Si Si6 0.514066 0.403557 0.344814
Si Si7 0.109705 0.001702 0.601098
O O1 0.086027 0.250000 0.460468
O O2 0.128460 0.371541 0.469261
O O3 0.011581 0.336296 0.533994
O O4 0.020759 0.341301 0.385568
O O5 0.750000 0.919289 0.294646
O O6 0.642418 0.857583 0.267659
O O7 0.639073 0.982240 0.315468
O O8 0.675277 0.953879 0.175275
O O9 0.750000 0.444083 0.138313
O O10 0.615684 0.433711 0.159290
O O11 0.668425 0.493627 0.037115
O O12 0.376971 0.993005 0.109800
O O13 0.386895 0.970335 0.256154
O O14 0.496783 0.003218 0.174859
O O15 0.076754 0.423247 0.005884
O O16 0.949795 0.449795 0.000000
O O17 0.466310 0.466310 0.346680
O O18 0.580527 0.426720 0.391416
O O19 0.050961 0.050961 0.577615
#
# Coordination Sequence:
#
# PCOD8314860 Si02
#       7
#    16  16  16  16  16  16  16
#     4  10  20  32  46  67  94 124 156 185 221 272
#     4  10  18  26  38  57  86 123 156 185 217 260
#     4  10  17  24  37  60  89 114 141 175 218 270
#     4   9  15  27  46  64  83 112 146 184 235 282
#     4   8  14  24  40  58  79 109 142 174 213 259
#     4   9  16  28  48  68  88 113 146 191 238 273
#     4   9  16  28  45  63  86 115 148 189 232 265
#
# _framework density 15.840232
#
# number of rings (size 3 to 8) (size 9 to 14) (size 15 to 20)
#    0.000    2.714    1.429    3.000    0.000    2.000 
#    0.000    0.714    0.000    2.571    0.000    0.000 
#    0.000   49.429    0.000    9.000    0.000    0.000 
#
# Total GULP energy -1387494.758732 kJ/mol
# GULP energy per Si atom -12388.346060 kJ/mol
# Density = 1.580418 g / cm^3
# Si number density = 15.840232 Si / 1000 Ang^3
#
#
#
# Elastic Constant Matrix: (Units=GPa)
#
#
# Indices 1 2 3 4 5 6 
#
# 1 53.2298 16.3895 29.1428 0.0000 0.0000 0.0000
# 2 16.3895 53.2298 29.1428 0.0000 0.0000 0.0000
# 3 29.1428 29.1428 114.1640 0.0000 0.0000 0.0000
# 4 0.0000 0.0000 0.0000 16.0164 0.0000 0.0000
# 5 0.0000 0.0000 0.0000 0.0000 16.0164 0.0000
# 6 0.0000 0.0000 0.0000 0.0000 0.0000 10.0413
#
#
#
# Elastic Compliance Matrix: (Units=1/GPa)
#
#
# Indices 1 2 3 4 5 6 
#
# 1 0.022706 -0.004438 -0.004663 0.000000 0.000000 0.000000
# 2 -0.004438 0.022706 -0.004663 0.000000 0.000000 0.000000
# 3 -0.004663 -0.004663 0.011140 0.000000 0.000000 0.000000
# 4 0.000000 0.000000 0.000000 0.062436 0.000000 0.000000
# 5 0.000000 0.000000 0.000000 0.000000 0.062436 0.000000
# 6 0.000000 0.000000 0.000000 0.000000 0.000000 0.099588
#
#
# Mechanical properties :
#
#
# Convention : Reuss Voigt Hill
#
# Bulk Modulus (GPa) = 34.45556 41.10822 37.78189
# Shear Modulus (GPa) = 15.71257 18.14471 16.92864
#
# Velocity S-wave (km/s) = 3.15293 3.38817 3.27266
# Velocity P-wave (km/s) = 5.92062 6.42763 6.17933
#
# Compressibility (1/GPa) = 0.02902289
#
# Stress axis : x y z
#
# Youngs Moduli (GPa) = 44.04103 44.04103 89.76550
#
# Poissons Ratio (x) = 0.19546 0.41860
# Poissons Ratio (y) = 0.19546 0.41860
# Poissons Ratio (z) = 0.20538 0.20538
#
# Static dielectric constant tensor:
#      x y z
#    x 2.752830 0.000000 0.000000 
#    y 0.000000 2.752830 0.000000 
#    z 0.000000 0.000000 3.434850 
# 
# 
# High freq. dielectric constant tensor:
#      x y z
#    x 1.567890 0.000000 0.000000 
#    y 0.000000 1.567890 0.000000 
#    z 0.000000 0.000000 1.629740 
# 
# From -- ./inp_files/5990.got.cif
#   From: 2010.03.12/outbox.cif.g09.slc.cpg/sg129_3_cif.got.tgz:5990.got - 2010.04.06 17:19:44.
