data_PCOD8314945
_publ_section_title
;
Structure prediction by ZEFSAII (Michael W. Deem and Ramdas Pophale) SiO2 
 PCOD8314945
Probable space group: P 4/N M M
;
_chemical_formula_sum "Si O2"
_cell_formula_units_Z 128
_cell_length_a 20.052079
_cell_length_b 20.052079
_cell_length_c 19.186471
_cell_angle_alpha 90.000000
_cell_angle_beta 90.000000
_cell_angle_gamma 90.000000
_cell_volume 7714.608927
_symmetry_space_group_name_H-M "P 4/N M M"
_symmetry_group_IT_number 129
_symmetry_cell_setting 'tetragonal'
loop_
_space_group_symop_operation_xyz
x,y,z
1/2-y,x,z
1/2-x,1/2-y,z
y,1/2-x,z
1/2+x,-y,-z
-x,1/2+y,-z
1/2+y,1/2+x,-z
-y,-x,-z
-x,-y,-z
1/2+y,-x,-z
1/2+x,1/2+y,-z
-y,1/2+x,-z
1/2-x,y,z
x,1/2-y,z
1/2-y,1/2-x,z
y,x,z
loop_
_atom_site_type_symbol
_atom_site_label
_atom_site_fract_x
_atom_site_fract_y
_atom_site_fract_z
Si Si1 0.968487 0.078848 0.286404
Si Si2 0.463598 0.574798 0.428314
Si Si3 0.670312 0.069760 0.027727
Si Si4 0.067912 0.174138 0.223506
Si Si5 0.824795 0.932297 0.388584
Si Si6 0.173345 0.062421 0.062609
Si Si7 0.585035 0.479452 0.154422
Si Si8 0.923215 0.677163 0.230510
O O1 0.928365 0.084095 0.359656
O O2 0.921226 0.072172 0.218833
O O3 0.013300 0.144330 0.276216
O O4 0.011682 0.011682 0.287348
O O5 0.421741 0.578260 0.500000
O O6 0.509496 0.509496 0.427207
O O7 0.507284 0.641585 0.429744
O O8 0.750000 0.078423 0.042608
O O9 0.624602 0.058529 0.094920
O O10 0.639934 0.139934 0.000000
O O11 0.657651 0.006241 0.977502
O O12 0.078347 0.250000 0.244200
O O13 0.138540 0.138540 0.234919
O O14 0.044412 0.164197 0.143815
O O15 0.750000 0.922050 0.415931
O O16 0.863618 0.863618 0.402381
O O17 0.826775 0.954124 0.307744
O O18 0.250000 0.086133 0.048335
O O19 0.121875 0.121875 0.040274
O O20 0.512960 0.512960 0.131874
O O21 0.631272 0.539496 0.177072
O O22 0.925467 0.750000 0.198409
O O23 0.846402 0.653599 0.235233
#
# Coordination Sequence:
#
# PCOD8314945 Si02
#       8
#    16  16  16  16  16  16  16  16
#     4   9  16  28  46  69  93 118 152 193 239 279
#     4   9  16  28  46  67  92 123 158 199 239 272
#     4  11  23  36  50  69  93 124 163 205 251 298
#     4   9  17  29  46  67  93 124 153 186 228 276
#     4   9  16  27  43  66  98 131 162 193 227 274
#     4   9  18  32  49  72 100 127 159 196 236 287
#     4  10  18  30  50  72  94 119 154 199 244 289
#     4   9  16  26  41  63  94 128 159 191 224 266
#
# _framework density 16.591898
#
# number of rings (size 3 to 8) (size 9 to 14) (size 15 to 20)
#    0.000    2.625    1.250    1.500    0.000    2.625 
#    0.000    3.125    0.000    0.000    0.000    1.750 
#    0.000    7.750    0.000    0.000    0.000    0.000 
#
# Total GULP energy -1586039.146896 kJ/mol
# GULP energy per Si atom -12390.930835 kJ/mol
# Density = 1.655413 g / cm^3
# Si number density = 16.591898 Si / 1000 Ang^3
#
#
#
# Elastic Constant Matrix: (Units=GPa)
#
#
# Indices 1 2 3 4 5 6 
#
# 1 -525.6037 644.7541 44.6363 0.0000 0.0000 0.0000
# 2 644.7541 -525.6384 44.6521 0.0000 0.0000 0.0000
# 3 44.6363 44.6521 86.9731 0.0000 0.0000 0.0000
# 4 0.0000 0.0000 0.0000 15.2840 0.0000 0.0000
# 5 0.0000 0.0000 0.0000 0.0000 15.2839 0.0000
# 6 0.0000 0.0000 0.0000 0.0000 0.0000 16.7980
#
#
#
# Elastic Compliance Matrix: (Units=1/GPa)
#
#
# Indices 1 2 3 4 5 6 
#
# 1 0.006394 0.007248 -0.007003 0.000000 0.000000 0.000000
# 2 0.007248 0.006394 -0.007003 0.000000 0.000000 0.000000
# 3 -0.007003 -0.007003 0.018687 0.000000 0.000000 0.000000
# 4 0.000000 0.000000 0.000000 0.065428 0.000000 0.000000
# 5 0.000000 0.000000 0.000000 0.000000 0.065428 0.000000
# 6 0.000000 0.000000 0.000000 0.000000 0.000000 0.059531
#
#
# Mechanical properties :
#
#
# Convention : Reuss Voigt Hill
#
# Bulk Modulus (GPa) = 55.67709 55.97957 55.82833
# Shear Modulus (GPa) = 20.71564 -103.74759 -41.51598
#
# Velocity S-wave (km/s) = 3.53730 -7.91611 -5.00761
# Velocity P-wave (km/s) = 7.09316 7.05271 0.53490
#
# Compressibility (1/GPa) = 0.01796071
#
# Stress axis : x y z
#
# Youngs Moduli (GPa) = 156.38874 156.40327 53.51299
#
# Poissons Ratio (x) = -1.13368 0.37475
# Poissons Ratio (y) = -1.13358 0.37473
# Poissons Ratio (z) = 1.09520 1.09523
#
# Static dielectric constant tensor:
#      x y z
#    x 3.059120 0.000000 0.000000 
#    y 0.000000 3.059120 0.000000 
#    z 0.000000 0.000000 3.175170 
# 
# 
# High freq. dielectric constant tensor:
#      x y z
#    x 1.622450 0.000000 0.000000 
#    y 0.000000 1.622450 0.000000 
#    z 0.000000 0.000000 1.628910 
# 
# From -- ./inp_files/6100.got.cif
#   From: 2010.03.12/outbox.cif.g09.slc.cpg/sg129_4_cif.got.tgz:6100.got - 2010.04.06 17:19:44.
