data_PCOD8314579
_publ_section_title
;
Structure prediction by ZEFSAII (Michael W. Deem and Ramdas Pophale) SiO2 
 PCOD8314579
Probable space group: P 4/M N C
;
_chemical_formula_sum "Si O2"
_cell_formula_units_Z 72
_cell_length_a 15.280551
_cell_length_b 15.280551
_cell_length_c 16.203616
_cell_angle_alpha 90.000000
_cell_angle_beta 90.000000
_cell_angle_gamma 90.000000
_cell_volume 3783.467188
_symmetry_space_group_name_H-M "P 4/M N C"
_symmetry_group_IT_number 128
_symmetry_cell_setting 'tetragonal'
loop_
_space_group_symop_operation_xyz
x,y,z
-y,x,z
-x,-y,z
y,-x,z
1/2+x,1/2-y,1/2-z
1/2-x,1/2+y,1/2-z
1/2+y,1/2+x,1/2-z
1/2-y,1/2-x,1/2-z
-x,-y,-z
y,-x,-z
x,y,-z
-y,x,-z
1/2-x,1/2+y,1/2+z
1/2+x,1/2-y,1/2+z
1/2-y,1/2-x,1/2+z
1/2+y,1/2+x,1/2+z
loop_
_atom_site_type_symbol
_atom_site_label
_atom_site_fract_x
_atom_site_fract_y
_atom_site_fract_z
Si Si1 0.173978 0.466399 0.222098
Si Si2 0.421741 0.253093 0.357937
Si Si3 0.323849 0.683449 0.776319
Si Si4 0.393453 0.205785 0.905868
Si Si5 0.994272 0.144093 0.000000
O O1 0.092980 0.407021 0.250000
O O2 0.185417 0.530769 0.298156
O O3 0.262363 0.410988 0.206153
O O4 0.157434 0.524262 0.139606
O O5 0.380435 0.332625 0.303240
O O6 0.352175 0.194644 0.407807
O O7 0.491874 0.295187 0.419605
O O8 0.244082 0.744082 0.750000
O O9 0.296610 0.628232 0.857781
O O10 0.420607 0.226565 0.000000
O O11 0.908591 0.083588 0.000000
#
# Coordination Sequence:
#
# PCOD8314579 Si02
#       5
#    16  16  16  16   8
#     4  10  20  36  56  82 108 143 191 230 270 330
#     4  10  19  36  54  76 111 147 180 221 280 341
#     4   8  17  33  55  75 101 142 186 224 265 324
#     4  10  20  35  55  79 110 149 181 226 284 331
#     4  11  22  34  54  83 110 138 180 235 284 326
#
# _framework density 19.030163999999999
#
# number of rings (size 3 to 8) (size 9 to 14) (size 15 to 20)
#    0.000    2.333    1.111    3.333    0.000    2.667 
#    2.000    1.111    0.000    6.000    0.000    6.222 
#    0.000    0.000    0.000    0.000    0.000    0.000 
#
# Total GULP energy -892433.841212 kJ/mol
# GULP energy per Si atom -12394.914461 kJ/mol
# Density = 1.898685 g / cm^3
# Si number density = 19.030164 Si / 1000 Ang^3
#
#
#
# Elastic Constant Matrix: (Units=GPa)
#
#
# Indices 1 2 3 4 5 6 
#
# 1 51.8676 5.5460 21.1740 0.0000 0.0000 0.0000
# 2 5.5460 51.8673 21.1741 0.0000 0.0000 0.0000
# 3 21.1740 21.1741 137.0174 0.0000 0.0000 0.0000
# 4 0.0000 0.0000 0.0000 18.2013 0.0000 0.0000
# 5 0.0000 0.0000 0.0000 0.0000 18.2012 0.0000
# 6 0.0000 0.0000 0.0000 0.0000 0.0000 30.2922
#
#
#
# Elastic Compliance Matrix: (Units=1/GPa)
#
#
# Indices 1 2 3 4 5 6 
#
# 1 0.020623 -0.000965 -0.003038 0.000000 0.000000 0.000000
# 2 -0.000965 0.020623 -0.003038 0.000000 0.000000 0.000000
# 3 -0.003038 -0.003038 0.008237 0.000000 0.000000 0.000000
# 4 0.000000 0.000000 0.000000 0.054941 0.000000 0.000000
# 5 0.000000 0.000000 0.000000 0.000000 0.054942 0.000000
# 6 0.000000 0.000000 0.000000 0.000000 0.000000 0.033012
#
#
# Mechanical properties :
#
#
# Convention : Reuss Voigt Hill
#
# Bulk Modulus (GPa) = 28.24683 37.39340 32.82011
# Shear Modulus (GPa) = 22.90841 26.19616 24.55228
#
# Velocity S-wave (km/s) = 3.47334 3.71423 3.59580
# Velocity P-wave (km/s) = 5.56425 6.17140 5.87567
#
# Compressibility (1/GPa) = 0.03540221
#
# Stress axis : x y z
#
# Youngs Moduli (GPa) = 48.48904 48.48876 121.39944
#
# Poissons Ratio (x) = 0.04679 0.36880
# Poissons Ratio (y) = 0.04679 0.36880
# Poissons Ratio (z) = 0.14730 0.14730
#
# Static dielectric constant tensor:
#      x y z
#    x 3.400970 0.000000 0.000000 
#    y 0.000000 3.400970 0.000000 
#    z 0.000000 0.000000 3.469410 
# 
# 
# High freq. dielectric constant tensor:
#      x y z
#    x 1.727260 0.000000 0.000000 
#    y 0.000000 1.727260 0.000000 
#    z 0.000000 0.000000 1.742010 
# 
# From -- ./inp_files/4541.got.cif
#   From: 2010.03.12/outbox.cif.g09.slc.cpg/sg128_3_cif.got.tgz:4541.got - 2010.04.06 17:11:05.
