data_PCOD8314688
_publ_section_title
;
Structure prediction by ZEFSAII (Michael W. Deem and Ramdas Pophale) SiO2 
 PCOD8314688
Probable space group: P 4/M N C
;
_chemical_formula_sum "Si O2"
_cell_formula_units_Z 80
_cell_length_a 16.642480
_cell_length_b 16.642480
_cell_length_c 13.460768
_cell_angle_alpha 90.000000
_cell_angle_beta 90.000000
_cell_angle_gamma 90.000000
_cell_volume 3728.257726
_symmetry_space_group_name_H-M "P 4/M N C"
_symmetry_group_IT_number 128
_symmetry_cell_setting 'tetragonal'
loop_
_space_group_symop_operation_xyz
x,y,z
-y,x,z
-x,-y,z
y,-x,z
1/2+x,1/2-y,1/2-z
1/2-x,1/2+y,1/2-z
1/2+y,1/2+x,1/2-z
1/2-y,1/2-x,1/2-z
-x,-y,-z
y,-x,-z
x,y,-z
-y,x,-z
1/2-x,1/2+y,1/2+z
1/2+x,1/2-y,1/2+z
1/2-y,1/2-x,1/2+z
1/2+y,1/2+x,1/2+z
loop_
_atom_site_type_symbol
_atom_site_label
_atom_site_fract_x
_atom_site_fract_y
_atom_site_fract_z
Si Si1 0.489845 0.747021 0.387398
Si Si2 0.174854 0.312035 0.111766
Si Si3 0.166615 0.717458 0.885204
Si Si4 0.923624 0.802012 0.303247
Si Si5 0.907710 0.208160 0.614333
O O1 0.495960 0.711768 0.500000
O O2 0.422461 0.818295 0.383821
O O3 0.575819 0.775059 0.342831
O O4 0.456947 0.681990 0.308136
O O5 0.201349 0.218674 0.132585
O O6 0.220441 0.369311 0.190524
O O7 0.204242 0.334989 0.000000
O O8 0.216496 0.642241 0.837311
O O9 0.152738 0.698927 0.000000
O O10 0.874912 0.880230 0.335004
O O11 0.997588 0.783631 0.376284
O O12 0.882353 0.203459 0.500000
#
# Coordination Sequence:
#
# PCOD8314688 Si02
#       5
#    16  16  16  16  16
#     4  10  21  36  57  88 121 157 201 248 295 359
#     4   9  18  36  61  84 116 156 201 250 299 356
#     4   8  17  35  59  85 115 155 196 242 300 354
#     4  11  22  36  59  91 119 160 204 246 306 359
#     4  10  21  39  62  87 119 156 202 255 303 359
#
# _framework density 21.457744999999999
#
# number of rings (size 3 to 8) (size 9 to 14) (size 15 to 20)
#    0.000    2.400    0.000    3.600    2.800    1.200 
#    0.000    2.000    0.000    7.800    0.000    5.600 
#    0.000    0.000    0.000    0.000    0.000    0.000 
#
# Total GULP energy -991239.159667 kJ/mol
# GULP energy per Si atom -12390.489496 kJ/mol
# Density = 2.140891 g / cm^3
# Si number density = 21.457745 Si / 1000 Ang^3
#
#
#
# Elastic Constant Matrix: (Units=GPa)
#
#
# Indices 1 2 3 4 5 6 
#
# 1 148.3396 49.7576 25.6562 0.0000 0.0000 0.0000
# 2 49.7576 148.3396 25.6562 0.0000 0.0000 0.0000
# 3 25.6562 25.6562 81.0251 0.0000 0.0000 0.0000
# 4 0.0000 0.0000 0.0000 32.0590 0.0000 0.0000
# 5 0.0000 0.0000 0.0000 0.0000 32.0590 0.0000
# 6 0.0000 0.0000 0.0000 0.0000 0.0000 13.9489
#
#
#
# Elastic Compliance Matrix: (Units=1/GPa)
#
#
# Indices 1 2 3 4 5 6 
#
# 1 0.007821 -0.002322 -0.001741 0.000000 0.000000 0.000000
# 2 -0.002322 0.007821 -0.001741 0.000000 0.000000 0.000000
# 3 -0.001741 -0.001741 0.013445 0.000000 0.000000 0.000000
# 4 0.000000 0.000000 0.000000 0.031192 0.000000 0.000000
# 5 0.000000 0.000000 0.000000 0.000000 0.031192 0.000000
# 6 0.000000 0.000000 0.000000 0.000000 0.000000 0.071690
#
#
# Mechanical properties :
#
#
# Convention : Reuss Voigt Hill
#
# Bulk Modulus (GPa) = 57.21580 64.42713 60.82147
# Shear Modulus (GPa) = 27.68571 34.05566 30.87068
#
# Velocity S-wave (km/s) = 3.59589 3.98817 3.79710
# Velocity P-wave (km/s) = 6.63045 7.16224 6.90147
#
# Compressibility (1/GPa) = 0.01747769
#
# Stress axis : x y z
#
# Youngs Moduli (GPa) = 127.85355 127.85355 74.37943
#
# Poissons Ratio (x) = 0.29693 0.12951
# Poissons Ratio (y) = 0.29693 0.12951
# Poissons Ratio (z) = 0.22263 0.22263
#
# Static dielectric constant tensor:
#      x y z
#    x 3.780810 0.000000 0.000000 
#    y 0.000000 3.780810 0.000000 
#    z 0.000000 0.000000 4.161900 
# 
# 
# High freq. dielectric constant tensor:
#      x y z
#    x 1.817370 0.000000 0.000000 
#    y 0.000000 1.817370 0.000000 
#    z 0.000000 0.000000 1.878430 
# 
# From -- ./inp_files/3677.got.cif
#   From: 2010.03.12/outbox.cif.g09.slc.cpg/sg128_2_cif.got.tgz:3677.got - 2010.04.06 17:11:05.
