data_PCOD8314974
_publ_section_title
;
Structure prediction by ZEFSAII (Michael W. Deem and Ramdas Pophale) SiO2 
 PCOD8314974
Probable space group: P 4/N M M
;
_chemical_formula_sum "Si O2"
_cell_formula_units_Z 64
_cell_length_a 22.494811
_cell_length_b 22.494811
_cell_length_c 7.549787
_cell_angle_alpha 90.000000
_cell_angle_beta 90.000000
_cell_angle_gamma 90.000000
_cell_volume 3820.316959
_symmetry_space_group_name_H-M "P 4/N M M"
_symmetry_group_IT_number 129
_symmetry_cell_setting 'tetragonal'
loop_
_space_group_symop_operation_xyz
x,y,z
1/2-y,x,z
1/2-x,1/2-y,z
y,1/2-x,z
1/2+x,-y,-z
-x,1/2+y,-z
1/2+y,1/2+x,-z
-y,-x,-z
-x,-y,-z
1/2+y,-x,-z
1/2+x,1/2+y,-z
-y,1/2+x,-z
1/2-x,y,z
x,1/2-y,z
1/2-y,1/2-x,z
y,x,z
loop_
_atom_site_type_symbol
_atom_site_label
_atom_site_fract_x
_atom_site_fract_y
_atom_site_fract_z
Si Si1 0.087544 0.316439 0.503063
Si Si2 0.036247 0.939758 0.701394
Si Si3 0.183656 0.005067 0.182086
Si Si4 0.126848 0.030925 0.827005
O O1 0.102286 0.250000 0.562130
O O2 0.148601 0.351399 0.516163
O O3 0.063345 0.319819 0.303895
O O4 0.037762 0.342860 0.635177
O O5 0.056736 0.943265 0.500000
O O6 0.037403 0.870940 0.761374
O O7 0.083497 0.974049 0.823607
O O8 0.970729 0.970729 0.722307
O O9 0.250000 0.975731 0.204407
O O10 0.176464 0.023050 0.977290
O O11 0.089399 0.089399 0.874449
#
# Coordination Sequence:
#
# PCOD8314974 Si02
#       4
#    16  16  16  16
#     4  10  20  33  48  69 100 136 174 213 250 294
#     4  10  18  32  54  77 102 132 168 212 264 313
#     4  11  21  32  48  73 105 134 165 201 253 313
#     4  10  19  32  53  74  98 131 169 214 262 303
#
# _framework density 16.752535999999999
#
# number of rings (size 3 to 8) (size 9 to 14) (size 15 to 20)
#    0.000    1.750    2.500    3.750    0.000    2.250 
#    0.000    0.000    0.000    0.000    0.000    3.500 
#    0.000   27.500    0.000    0.000    0.000    0.000 
#
# Total GULP energy -793397.955177 kJ/mol
# GULP energy per Si atom -12396.843050 kJ/mol
# Density = 1.671441 g / cm^3
# Si number density = 16.752536 Si / 1000 Ang^3
#
#
#
# Elastic Constant Matrix: (Units=GPa)
#
#
# Indices 1 2 3 4 5 6 
#
# 1 106.2648 38.4656 30.6530 0.0000 0.0000 0.0000
# 2 38.4656 106.2655 30.6532 0.0000 0.0000 0.0000
# 3 30.6530 30.6532 81.6762 0.0000 0.0000 0.0000
# 4 0.0000 0.0000 0.0000 23.3810 0.0000 0.0000
# 5 0.0000 0.0000 0.0000 0.0000 23.3811 0.0000
# 6 0.0000 0.0000 0.0000 0.0000 0.0000 15.0726
#
#
#
# Elastic Compliance Matrix: (Units=1/GPa)
#
#
# Indices 1 2 3 4 5 6 
#
# 1 0.011482 -0.003267 -0.003083 0.000000 0.000000 0.000000
# 2 -0.003267 0.011482 -0.003083 0.000000 0.000000 0.000000
# 3 -0.003083 -0.003083 0.014558 0.000000 0.000000 0.000000
# 4 0.000000 0.000000 0.000000 0.042770 0.000000 0.000000
# 5 0.000000 0.000000 0.000000 0.000000 0.042770 0.000000
# 6 0.000000 0.000000 0.000000 0.000000 0.000000 0.066345
#
#
# Mechanical properties :
#
#
# Convention : Reuss Voigt Hill
#
# Bulk Modulus (GPa) = 53.60324 54.86112 54.23218
# Shear Modulus (GPa) = 23.31080 25.32925 24.32003
#
# Velocity S-wave (km/s) = 3.73430 3.89262 3.81428
# Velocity P-wave (km/s) = 7.11758 7.28164 7.20008
#
# Compressibility (1/GPa) = 0.01865559
#
# Stress axis : x y z
#
# Youngs Moduli (GPa) = 87.08967 87.09016 68.69197
#
# Poissons Ratio (x) = 0.28452 0.21179
# Poissons Ratio (y) = 0.28452 0.21179
# Poissons Ratio (z) = 0.26852 0.26852
#
# Static dielectric constant tensor:
#      x y z
#    x 3.084610 0.000000 0.000000 
#    y 0.000000 3.084610 0.000000 
#    z 0.000000 0.000000 3.287470 
# 
# 
# High freq. dielectric constant tensor:
#      x y z
#    x 1.622420 0.000000 0.000000 
#    y 0.000000 1.622420 0.000000 
#    z 0.000000 0.000000 1.668560 
# 
# From -- ./inp_files/2046.got.cif
#   From: 2010.03.12/outbox.cif.g09.slc.cpg/sg129_2_cif.got.tgz:2046.got - 2010.04.06 17:19:44.
