data_PCOD8314367
_publ_section_title
;
Structure prediction by ZEFSAII (Michael W. Deem and Ramdas Pophale) SiO2 
 PCOD8314367
Probable space group: P 4/M B M
;
_chemical_formula_sum "Si O2"
_cell_formula_units_Z 72
_cell_length_a 13.929175
_cell_length_b 13.929175
_cell_length_c 18.212206
_cell_angle_alpha 90.000000
_cell_angle_beta 90.000000
_cell_angle_gamma 90.000000
_cell_volume 3533.567106
_symmetry_space_group_name_H-M "P 4/M B M"
_symmetry_group_IT_number 127
_symmetry_cell_setting 'tetragonal'
loop_
_space_group_symop_operation_xyz
x,y,z
-y,x,z
-x,-y,z
y,-x,z
1/2+x,1/2-y,-z
1/2-x,1/2+y,-z
1/2+y,1/2+x,-z
1/2-y,1/2-x,-z
-x,-y,-z
y,-x,-z
x,y,-z
-y,x,-z
1/2-x,1/2+y,z
1/2+x,1/2-y,z
1/2-y,1/2-x,z
1/2+y,1/2+x,z
loop_
_atom_site_type_symbol
_atom_site_label
_atom_site_fract_x
_atom_site_fract_y
_atom_site_fract_z
Si Si1 0.487429 0.243949 0.840406
Si Si2 0.497633 0.654465 0.413120
Si Si3 0.073956 0.426045 0.923116
Si Si4 0.184286 0.837033 0.915065
Si Si5 0.500180 0.161506 0.683684
O O1 0.515575 0.143872 0.872769
O O2 0.382467 0.266358 0.869693
O O3 0.561474 0.322584 0.873229
O O4 0.490923 0.232860 0.753130
O O5 0.403508 0.593584 0.387734
O O6 0.497533 0.664071 0.500000
O O7 0.495360 0.763318 0.383058
O O8 0.000000 0.500000 0.954991
O O9 0.118853 0.381147 0.000000
O O10 0.292825 0.792825 0.909165
O O11 0.151404 0.845755 0.000000
O O12 0.596893 0.096893 0.686203
O O13 0.407176 0.092825 0.676681
#
# Coordination Sequence:
#
# PCOD8314367 Si02
#       5
#    16  16   8  16  16
#     4  12  24  40  60  86 127 165 204 265 326 376
#     4   9  21  44  72 100 133 169 207 250 304 377
#     4  11  20  36  62  84 111 162 218 258 308 368
#     4  11  23  40  62  88 119 160 215 271 320 378
#     4  11  24  41  63  94 133 171 214 264 314 375
#
# _framework density 20.376010999999998
#
# number of rings (size 3 to 8) (size 9 to 14) (size 15 to 20)
#    0.000    1.222    2.222    4.667    3.111    4.000 
#    0.000    4.444    0.000    0.000    0.000    0.000 
#    0.000    0.000    0.000    0.000    0.000    0.000 
#
# Total GULP energy -892262.190611 kJ/mol
# GULP energy per Si atom -12392.530425 kJ/mol
# Density = 2.032963 g / cm^3
# Si number density = 20.376011 Si / 1000 Ang^3
#
#
#
# Elastic Constant Matrix: (Units=GPa)
#
#
# Indices 1 2 3 4 5 6 
#
# 1 111.5169 24.2854 37.4368 0.0000 0.0000 0.0000
# 2 24.2854 111.5193 37.4369 0.0000 0.0000 0.0000
# 3 37.4368 37.4369 87.6683 0.0000 0.0000 0.0000
# 4 0.0000 0.0000 0.0000 36.0428 0.0000 0.0000
# 5 0.0000 0.0000 0.0000 0.0000 36.0429 0.0000
# 6 0.0000 0.0000 0.0000 0.0000 0.0000 39.2556
#
#
#
# Elastic Compliance Matrix: (Units=1/GPa)
#
#
# Indices 1 2 3 4 5 6 
#
# 1 0.010547 -0.000916 -0.004113 0.000000 0.000000 0.000000
# 2 -0.000916 0.010547 -0.004113 0.000000 0.000000 0.000000
# 3 -0.004113 -0.004113 0.014919 0.000000 0.000000 0.000000
# 4 0.000000 0.000000 0.000000 0.027745 0.000000 0.000000
# 5 0.000000 0.000000 0.000000 0.000000 0.027745 0.000000
# 6 0.000000 0.000000 0.000000 0.000000 0.000000 0.025474
#
#
# Mechanical properties :
#
#
# Convention : Reuss Voigt Hill
#
# Bulk Modulus (GPa) = 56.40048 56.55808 56.47928
# Shear Modulus (GPa) = 35.41803 36.37128 35.89466
#
# Velocity S-wave (km/s) = 4.17372 4.22952 4.20171
# Velocity P-wave (km/s) = 7.13909 7.18813 7.16365
#
# Compressibility (1/GPa) = 0.01773035
#
# Stress axis : x y z
#
# Youngs Moduli (GPa) = 94.80945 94.81177 67.02791
#
# Poissons Ratio (x) = 0.08687 0.27567
# Poissons Ratio (y) = 0.08687 0.27567
# Poissons Ratio (z) = 0.38993 0.38993
#
# Static dielectric constant tensor:
#      x y z
#    x 3.776030 0.000000 0.000000 
#    y 0.000000 3.776030 0.000000 
#    z 0.000000 0.000000 3.709460 
# 
# 
# High freq. dielectric constant tensor:
#      x y z
#    x 1.800830 0.000000 0.000000 
#    y 0.000000 1.800830 0.000000 
#    z 0.000000 0.000000 1.797820 
# 
# From -- ./inp_files/4961.got.cif
#   From: 2010.03.12/outbox.cif.g09.slc.cpg/sg127_3_cif.got.tgz:4961.got - 2010.04.06 17:03:15.
