data_PCOD8314890
_publ_section_title
;
Structure prediction by ZEFSAII (Michael W. Deem and Ramdas Pophale) SiO2 
 PCOD8314890
Probable space group: P 4/N M M
;
_chemical_formula_sum "Si O2"
_cell_formula_units_Z 88
_cell_length_a 19.062176
_cell_length_b 19.062176
_cell_length_c 18.082853
_cell_angle_alpha 90.000000
_cell_angle_beta 90.000000
_cell_angle_gamma 90.000000
_cell_volume 6570.703978
_symmetry_space_group_name_H-M "P 4/N M M"
_symmetry_group_IT_number 129
_symmetry_cell_setting 'tetragonal'
loop_
_space_group_symop_operation_xyz
x,y,z
1/2-y,x,z
1/2-x,1/2-y,z
y,1/2-x,z
1/2+x,-y,-z
-x,1/2+y,-z
1/2+y,1/2+x,-z
-y,-x,-z
-x,-y,-z
1/2+y,-x,-z
1/2+x,1/2+y,-z
-y,1/2+x,-z
1/2-x,y,z
x,1/2-y,z
1/2-y,1/2-x,z
y,x,z
loop_
_atom_site_type_symbol
_atom_site_label
_atom_site_fract_x
_atom_site_fract_y
_atom_site_fract_z
Si Si1 0.666986 0.408705 0.146305
Si Si2 0.329127 0.442773 0.625840
Si Si3 0.406728 0.831640 0.433966
Si Si4 0.666504 0.328703 0.287609
Si Si5 0.330240 0.056597 0.797248
Si Si6 0.331961 0.668040 0.000000
O O1 0.750000 0.400750 0.149754
O O2 0.634354 0.365597 0.214889
O O3 0.645677 0.490214 0.153586
O O4 0.639515 0.376216 0.069661
O O5 0.250000 0.415158 0.613922
O O6 0.381283 0.381283 0.601002
O O7 0.343288 0.510258 0.575081
O O8 0.339786 0.464002 0.711404
O O9 0.379413 0.879413 0.500000
O O10 0.389040 0.750000 0.449385
O O11 0.368985 0.859172 0.360227
O O12 0.750000 0.330014 0.284053
O O13 0.637173 0.250000 0.290744
O O14 0.250000 0.077199 0.814006
O O15 0.377311 0.122689 0.819921
O O16 0.250000 0.654488 0.015758
#
# Coordination Sequence:
#
# PCOD8314890 Si02
#       6
#    16  16  16  16  16   8
#     4   9  15  25  38  54  76 101 127 157 193 224
#     4   9  17  29  43  58  76  99 129 165 203 240
#     4  10  18  27  38  56  81 106 133 163 192 226
#     4   9  15  23  36  52  72 101 133 160 186 218
#     4   9  16  27  42  57  75  99 126 159 198 236
#     4   9  16  24  37  58  80 102 131 162 184 213
#
# _framework density 13.392780999999999
#
# number of rings (size 3 to 8) (size 9 to 14) (size 15 to 20)
#    0.000    2.818    1.818    1.091    0.000    3.818 
#    0.000    2.273    0.000    0.000    0.000    0.000 
#    0.000    0.000    0.000    0.000    0.000    0.364 
#
# Total GULP energy -1090985.998455 kJ/mol
# GULP energy per Si atom -12397.568164 kJ/mol
# Density = 1.336230 g / cm^3
# Si number density = 13.392781 Si / 1000 Ang^3
#
#
#
# Elastic Constant Matrix: (Units=GPa)
#
#
# Indices 1 2 3 4 5 6 
#
# 1 70.7854 47.2925 45.3789 0.0000 0.0000 0.0000
# 2 47.2925 70.7861 45.3789 0.0000 0.0000 0.0000
# 3 45.3789 45.3789 91.7712 0.0000 0.0000 0.0000
# 4 0.0000 0.0000 0.0000 13.6953 0.0000 0.0000
# 5 0.0000 0.0000 0.0000 0.0000 13.6953 0.0000
# 6 0.0000 0.0000 0.0000 0.0000 0.0000 15.1791
#
#
#
# Elastic Compliance Matrix: (Units=1/GPa)
#
#
# Indices 1 2 3 4 5 6 
#
# 1 0.028113 -0.014452 -0.006755 0.000000 0.000000 0.000000
# 2 -0.014452 0.028113 -0.006755 0.000000 0.000000 0.000000
# 3 -0.006755 -0.006755 0.017577 0.000000 0.000000 0.000000
# 4 0.000000 0.000000 0.000000 0.073018 0.000000 0.000000
# 5 0.000000 0.000000 0.000000 0.000000 0.073018 0.000000
# 6 0.000000 0.000000 0.000000 0.000000 0.000000 0.065880
#
#
# Mechanical properties :
#
#
# Convention : Reuss Voigt Hill
#
# Bulk Modulus (GPa) = 55.93181 56.60481 56.26831
# Shear Modulus (GPa) = 14.38421 14.86678 14.62550
#
# Velocity S-wave (km/s) = 3.28079 3.33537 3.30819
# Velocity P-wave (km/s) = 7.49698 7.56240 7.52976
#
# Compressibility (1/GPa) = 0.01787891
#
# Stress axis : x y z
#
# Youngs Moduli (GPa) = 35.57020 35.57063 56.89191
#
# Poissons Ratio (x) = 0.51407 0.38432
# Poissons Ratio (y) = 0.51407 0.38431
# Poissons Ratio (z) = 0.24028 0.24028
#
# Static dielectric constant tensor:
#      x y z
#    x 2.533130 0.000000 0.000000 
#    y 0.000000 2.533120 0.000000 
#    z 0.000000 0.000000 2.681380 
# 
# 
# High freq. dielectric constant tensor:
#      x y z
#    x 1.489540 0.000000 0.000000 
#    y 0.000000 1.489540 0.000000 
#    z 0.000000 0.000000 1.500570 
# 
# From -- ./inp_files/4928.got.cif
#   From: 2010.03.12/outbox.cif.g09.slc.cpg/sg129_3_cif.got.tgz:4928.got - 2010.04.06 17:19:44.
