data_PCOD8314514
_publ_section_title
;
Structure prediction by ZEFSAII (Michael W. Deem and Ramdas Pophale) SiO2 
 PCOD8314514
Probable space group: P 4/M N C
;
_chemical_formula_sum "Si O2"
_cell_formula_units_Z 104
_cell_length_a 18.201326
_cell_length_b 18.201326
_cell_length_c 17.608003
_cell_angle_alpha 90.000000
_cell_angle_beta 90.000000
_cell_angle_gamma 90.000000
_cell_volume 5833.324820
_symmetry_space_group_name_H-M "P 4/M N C"
_symmetry_group_IT_number 128
_symmetry_cell_setting 'tetragonal'
loop_
_space_group_symop_operation_xyz
x,y,z
-y,x,z
-x,-y,z
y,-x,z
1/2+x,1/2-y,1/2-z
1/2-x,1/2+y,1/2-z
1/2+y,1/2+x,1/2-z
1/2-y,1/2-x,1/2-z
-x,-y,-z
y,-x,-z
x,y,-z
-y,x,-z
1/2-x,1/2+y,1/2+z
1/2+x,1/2-y,1/2+z
1/2-y,1/2-x,1/2+z
1/2+y,1/2+x,1/2+z
loop_
_atom_site_type_symbol
_atom_site_label
_atom_site_fract_x
_atom_site_fract_y
_atom_site_fract_z
Si Si1 0.581688 0.177098 0.303242
Si Si2 0.591555 0.582134 0.500000
Si Si3 0.550893 0.848164 0.795867
Si Si4 0.845561 0.813203 0.869596
Si Si5 0.834675 0.224513 0.721638
Si Si6 0.744658 0.682836 0.916325
Si Si7 0.874604 0.566900 0.913633
O O1 0.649455 0.149455 0.250000
O O2 0.510010 0.190110 0.254760
O O3 0.594393 0.255681 0.340275
O O4 0.565416 0.114807 0.367408
O O5 0.505594 0.602808 0.500000
O O6 0.629621 0.617531 0.573437
O O7 0.581546 0.918455 0.750000
O O8 0.613167 0.788240 0.809459
O O9 0.514308 0.868942 0.876710
O O10 0.818684 0.862499 0.796775
O O11 0.782204 0.763686 0.909041
O O12 0.757405 0.257405 0.750000
O O13 0.817466 0.172739 0.648772
O O14 0.800324 0.614924 0.907434
O O15 0.708314 0.679125 0.000000
O O16 0.900150 0.556218 0.000000
#
# Coordination Sequence:
#
# PCOD8314514 Si02
#       7
#    16   8  16  16  16  16  16
#     4   9  18  32  53  76  98 134 179 211 241 300
#     4  11  26  40  50  76 108 133 165 217 269 311
#     4  10  20  33  47  74 109 138 165 207 259 304
#     4  10  18  35  56  72  97 134 175 213 254 302
#     4   9  18  30  50  77 102 129 169 211 255 308
#     4   9  16  32  55  81  98 125 172 221 257 295
#     4   9  18  32  52  73  99 133 174 215 252 297
#
# _framework density 17.828598
#
# number of rings (size 3 to 8) (size 9 to 14) (size 15 to 20)
#    0.000    2.538    0.769    3.231    3.231    3.385 
#    0.000    1.538    0.000    0.000    0.000    0.000 
#    0.000    0.000    0.000    9.385    0.000    0.000 
#
# Total GULP energy -1288545.417978 kJ/mol
# GULP energy per Si atom -12389.859788 kJ/mol
# Density = 1.778802 g / cm^3
# Si number density = 17.828598 Si / 1000 Ang^3
#
#
#
# Elastic Constant Matrix: (Units=GPa)
#
#
# Indices 1 2 3 4 5 6 
#
# 1 44.2610 10.4724 25.4682 0.0000 0.0000 0.0000
# 2 10.4724 44.2607 25.4683 0.0000 0.0000 0.0000
# 3 25.4682 25.4683 139.3710 0.0000 0.0000 0.0000
# 4 0.0000 0.0000 0.0000 18.2236 0.0000 0.0000
# 5 0.0000 0.0000 0.0000 0.0000 18.2234 0.0000
# 6 0.0000 0.0000 0.0000 0.0000 0.0000 14.3555
#
#
#
# Elastic Compliance Matrix: (Units=1/GPa)
#
#
# Indices 1 2 3 4 5 6 
#
# 1 0.025805 -0.003791 -0.004023 0.000000 0.000000 0.000000
# 2 -0.003791 0.025805 -0.004023 0.000000 0.000000 0.000000
# 3 -0.004023 -0.004023 0.008645 0.000000 0.000000 0.000000
# 4 0.000000 0.000000 0.000000 0.054874 0.000000 0.000000
# 5 0.000000 0.000000 0.000000 0.000000 0.054874 0.000000
# 6 0.000000 0.000000 0.000000 0.000000 0.000000 0.069659
#
#
# Mechanical properties :
#
#
# Convention : Reuss Voigt Hill
#
# Bulk Modulus (GPa) = 27.33551 38.96783 33.15167
# Shear Modulus (GPa) = 18.14682 21.25944 19.70313
#
# Velocity S-wave (km/s) = 3.19384 3.45691 3.32797
# Velocity P-wave (km/s) = 5.38205 6.15126 5.77947
#
# Compressibility (1/GPa) = 0.03658245
#
# Stress axis : x y z
#
# Youngs Moduli (GPa) = 38.75230 38.75190 115.66957
#
# Poissons Ratio (x) = 0.14690 0.46531
# Poissons Ratio (y) = 0.14691 0.46532
# Poissons Ratio (z) = 0.15589 0.15589
#
# Static dielectric constant tensor:
#      x y z
#    x 3.058430 0.000000 0.000000 
#    y 0.000000 3.058430 0.000000 
#    z 0.000000 0.000000 3.773080 
# 
# 
# High freq. dielectric constant tensor:
#      x y z
#    x 1.661400 0.000000 0.000000 
#    y 0.000000 1.661400 0.000000 
#    z 0.000000 0.000000 1.710770 
# 
# From -- ./inp_files/4906.got.cif
#   From: 2010.03.12/outbox.cif.g09.slc.cpg/sg128_3_cif.got.tgz:4906.got - 2010.04.06 17:11:05.
