data_PCOD8314621
_publ_section_title
;
Structure prediction by ZEFSAII (Michael W. Deem and Ramdas Pophale) SiO2 
 PCOD8314621
Probable space group: P 4/M N C
;
_chemical_formula_sum "Si O2"
_cell_formula_units_Z 80
_cell_length_a 18.485120
_cell_length_b 18.485120
_cell_length_c 12.907313
_cell_angle_alpha 90.000000
_cell_angle_beta 90.000000
_cell_angle_gamma 90.000000
_cell_volume 4410.424482
_symmetry_space_group_name_H-M "P 4/M N C"
_symmetry_group_IT_number 128
_symmetry_cell_setting 'tetragonal'
loop_
_space_group_symop_operation_xyz
x,y,z
-y,x,z
-x,-y,z
y,-x,z
1/2+x,1/2-y,1/2-z
1/2-x,1/2+y,1/2-z
1/2+y,1/2+x,1/2-z
1/2-y,1/2-x,1/2-z
-x,-y,-z
y,-x,-z
x,y,-z
-y,x,-z
1/2-x,1/2+y,1/2+z
1/2+x,1/2-y,1/2+z
1/2-y,1/2-x,1/2+z
1/2+y,1/2+x,1/2+z
loop_
_atom_site_type_symbol
_atom_site_label
_atom_site_fract_x
_atom_site_fract_y
_atom_site_fract_z
Si Si1 0.762526 0.619176 0.778942
Si Si2 0.452711 0.068173 0.885283
Si Si3 0.474777 0.185171 0.709659
Si Si4 0.194640 0.100781 0.500000
Si Si5 0.928495 0.787358 0.500000
Si Si6 0.349528 0.267640 0.220345
O O1 0.823391 0.676610 0.750000
O O2 0.778812 0.553172 0.702138
O O3 0.760917 0.593540 0.899362
O O4 0.684451 0.654227 0.752178
O O5 0.467350 0.136410 0.813075
O O6 0.368350 0.043217 0.884970
O O7 0.500000 0.000000 0.848136
O O8 0.474416 0.092658 0.000000
O O9 0.420973 0.253695 0.712072
O O10 0.114029 0.135777 0.500000
O O11 0.238051 0.130209 0.400808
O O12 0.192011 0.013413 0.500000
O O13 0.295024 0.204977 0.250000
#
# Coordination Sequence:
#
# PCOD8314621 Si02
#       6
#    16  16  16   8   8  16
#     4  10  21  35  52  77 106 140 179 217 261 319
#     4  10  21  33  51  79 105 133 172 213 264 324
#     4  11  19  34  54  72 104 142 172 215 267 312
#     4  10  20  35  56  81 105 139 178 216 280 316
#     4  10  20  35  58  79 107 141 172 226 270 326
#     4  10  20  34  53  76 103 140 182 216 260 319
#
# _framework density 18.138843000000001
#
# number of rings (size 3 to 8) (size 9 to 14) (size 15 to 20)
#    0.000    1.800    4.000    2.400    2.800    0.200 
#    1.800    0.000    0.000    0.600    0.000    0.000 
#    0.000    0.000    0.000    1.800    0.000   11.600 
#
# Total GULP energy -991274.973666 kJ/mol
# GULP energy per Si atom -12390.937171 kJ/mol
# Density = 1.809756 g / cm^3
# Si number density = 18.138843 Si / 1000 Ang^3
#
#
#
# Elastic Constant Matrix: (Units=GPa)
#
#
# Indices 1 2 3 4 5 6 
#
# 1 100.5026 50.7130 17.7109 0.0000 0.0000 0.0000
# 2 50.7130 100.5024 17.7096 0.0000 0.0000 0.0000
# 3 17.7109 17.7096 51.8693 0.0000 0.0000 0.0000
# 4 0.0000 0.0000 0.0000 35.0143 0.0000 0.0000
# 5 0.0000 0.0000 0.0000 0.0000 35.0137 0.0000
# 6 0.0000 0.0000 0.0000 0.0000 0.0000 36.4186
#
#
#
# Elastic Compliance Matrix: (Units=1/GPa)
#
#
# Indices 1 2 3 4 5 6 
#
# 1 0.013636 -0.006448 -0.002455 0.000000 0.000000 0.000000
# 2 -0.006448 0.013636 -0.002454 0.000000 0.000000 0.000000
# 3 -0.002455 -0.002454 0.020955 0.000000 0.000000 0.000000
# 4 0.000000 0.000000 0.000000 0.028560 0.000000 0.000000
# 5 0.000000 0.000000 0.000000 0.000000 0.028560 0.000000
# 6 0.000000 0.000000 0.000000 0.000000 0.000000 0.027458
#
#
# Mechanical properties :
#
#
# Convention : Reuss Voigt Hill
#
# Bulk Modulus (GPa) = 39.19404 47.23792 43.21598
# Shear Modulus (GPa) = 30.48324 32.40536 31.44430
#
# Velocity S-wave (km/s) = 4.10390 4.23131 4.16809
# Velocity P-wave (km/s) = 6.64159 7.06901 6.85863
#
# Compressibility (1/GPa) = 0.02551408
#
# Stress axis : x y z
#
# Youngs Moduli (GPa) = 73.33361 73.33411 47.72093
#
# Poissons Ratio (x) = 0.47288 0.11713
# Poissons Ratio (y) = 0.47288 0.11711
# Poissons Ratio (z) = 0.18000 0.17996
#
# Static dielectric constant tensor:
#      x y z
#    x 3.600160 0.000000 0.000000 
#    y 0.000000 3.600150 0.000000 
#    z 0.000000 0.000000 3.295610 
# 
# 
# High freq. dielectric constant tensor:
#      x y z
#    x 1.702830 0.000000 0.000000 
#    y 0.000000 1.702830 0.000000 
#    z 0.000000 0.000000 1.684300 
# 
# From -- ./inp_files/3781.got.cif
#   From: 2010.03.12/outbox.cif.g09.slc.cpg/sg128_2_cif.got.tgz:3781.got - 2010.04.06 17:11:05.
