data_PCOD8314573
_publ_section_title
;
Structure prediction by ZEFSAII (Michael W. Deem and Ramdas Pophale) SiO2 
 PCOD8314573
Probable space group: P 4/M N C
;
_chemical_formula_sum "Si O2"
_cell_formula_units_Z 64
_cell_length_a 15.544239
_cell_length_b 15.544239
_cell_length_c 13.676908
_cell_angle_alpha 90.000000
_cell_angle_beta 90.000000
_cell_angle_gamma 90.000000
_cell_volume 3304.660549
_symmetry_space_group_name_H-M "P 4/M N C"
_symmetry_group_IT_number 128
_symmetry_cell_setting 'tetragonal'
loop_
_space_group_symop_operation_xyz
x,y,z
-y,x,z
-x,-y,z
y,-x,z
1/2+x,1/2-y,1/2-z
1/2-x,1/2+y,1/2-z
1/2+y,1/2+x,1/2-z
1/2-y,1/2-x,1/2-z
-x,-y,-z
y,-x,-z
x,y,-z
-y,x,-z
1/2-x,1/2+y,1/2+z
1/2+x,1/2-y,1/2+z
1/2-y,1/2-x,1/2+z
1/2+y,1/2+x,1/2+z
loop_
_atom_site_type_symbol
_atom_site_label
_atom_site_fract_x
_atom_site_fract_y
_atom_site_fract_z
Si Si1 0.317285 0.354052 0.804315
Si Si2 0.919172 0.549894 0.861738
Si Si3 0.232178 0.024677 0.389143
Si Si4 0.270003 0.848666 0.108080
O O1 0.325498 0.441518 0.865574
O O2 0.403020 0.297532 0.812356
O O3 0.244262 0.297475 0.854575
O O4 0.296909 0.380780 0.691070
O O5 0.938591 0.561410 0.750000
O O6 0.833311 0.494251 0.876852
O O7 0.908842 0.645764 0.904481
O O8 0.000000 0.500000 0.911408
O O9 0.213825 0.054319 0.500000
O O10 0.226245 0.843785 0.000000
#
# Coordination Sequence:
#
# PCOD8314573 Si02
#       4
#    16  16  16  16
#     4  10  21  38  56  84 116 151 197 250 286 350
#     4  10  19  34  58  89 122 151 187 243 299 357
#     4  11  21  37  60  85 116 155 197 246 298 343
#     4  10  19  37  58  78 117 162 191 233 299 359
#
# _framework density 19.366588
#
# number of rings (size 3 to 8) (size 9 to 14) (size 15 to 20)
#    0.000    1.750    5.000    4.500    0.000    6.500 
#    0.000    2.500    0.000    0.000    0.000    1.750 
#    0.000    0.000    0.000    0.000    0.000    0.000 
#
# Total GULP energy -793063.879955 kJ/mol
# GULP energy per Si atom -12391.623124 kJ/mol
# Density = 1.932251 g / cm^3
# Si number density = 19.366588 Si / 1000 Ang^3
#
#
#
# Elastic Constant Matrix: (Units=GPa)
#
#
# Indices 1 2 3 4 5 6 
#
# 1 81.5732 48.7349 33.4832 0.0000 0.0000 0.0000
# 2 48.7349 81.5744 33.4830 0.0000 0.0000 0.0000
# 3 33.4832 33.4830 148.1499 0.0000 0.0000 0.0000
# 4 0.0000 0.0000 0.0000 6.3792 0.0000 0.0000
# 5 0.0000 0.0000 0.0000 0.0000 6.3788 0.0000
# 6 0.0000 0.0000 0.0000 0.0000 0.0000 25.6963
#
#
#
# Elastic Compliance Matrix: (Units=1/GPa)
#
#
# Indices 1 2 3 4 5 6 
#
# 1 0.019567 -0.010885 -0.001962 0.000000 0.000000 0.000000
# 2 -0.010885 0.019567 -0.001962 0.000000 0.000000 0.000000
# 3 -0.001962 -0.001962 0.007637 0.000000 0.000000 0.000000
# 4 0.000000 0.000000 0.000000 0.156760 0.000000 0.000000
# 5 0.000000 0.000000 0.000000 0.000000 0.156770 0.000000
# 6 0.000000 0.000000 0.000000 0.000000 0.000000 0.038916
#
#
# Mechanical properties :
#
#
# Convention : Reuss Voigt Hill
#
# Bulk Modulus (GPa) = 58.29990 60.29997 59.29993
# Shear Modulus (GPa) = 11.50608 20.73062 16.11835
#
# Velocity S-wave (km/s) = 2.44010 3.27530 2.88805
# Velocity P-wave (km/s) = 6.17313 6.74589 6.46586
#
# Compressibility (1/GPa) = 0.01715269
#
# Stress axis : x y z
#
# Youngs Moduli (GPa) = 51.10580 51.10669 130.94272
#
# Poissons Ratio (x) = 0.55627 0.25696
# Poissons Ratio (y) = 0.55626 0.25694
# Poissons Ratio (z) = 0.10029 0.10028
#
# Static dielectric constant tensor:
#      x y z
#    x 3.764220 0.000000 0.000000 
#    y 0.000000 3.764240 0.000000 
#    z 0.000000 0.000000 3.766730 
# 
# 
# High freq. dielectric constant tensor:
#      x y z
#    x 1.732250 0.000000 0.000000 
#    y 0.000000 1.732250 0.000000 
#    z 0.000000 0.000000 1.771300 
# 
# From -- ./inp_files/3533.got.cif
#   From: 2010.03.12/outbox.cif.g09.slc.cpg/sg128_2_cif.got.tgz:3533.got - 2010.04.06 17:11:05.
