data_PCOD8314909
_publ_section_title
;
Structure prediction by ZEFSAII (Michael W. Deem and Ramdas Pophale) SiO2 
 PCOD8314909
Probable space group: P 4/N M M
;
_chemical_formula_sum "Si O2"
_cell_formula_units_Z 112
_cell_length_a 18.102496
_cell_length_b 18.102496
_cell_length_c 22.523048
_cell_angle_alpha 90.000000
_cell_angle_beta 90.000000
_cell_angle_gamma 90.000000
_cell_volume 7380.810970
_symmetry_space_group_name_H-M "P 4/N M M"
_symmetry_group_IT_number 129
_symmetry_cell_setting 'tetragonal'
loop_
_space_group_symop_operation_xyz
x,y,z
1/2-y,x,z
1/2-x,1/2-y,z
y,1/2-x,z
1/2+x,-y,-z
-x,1/2+y,-z
1/2+y,1/2+x,-z
-y,-x,-z
-x,-y,-z
1/2+y,-x,-z
1/2+x,1/2+y,-z
-y,1/2+x,-z
1/2-x,y,z
x,1/2-y,z
1/2-y,1/2-x,z
y,x,z
loop_
_atom_site_type_symbol
_atom_site_label
_atom_site_fract_x
_atom_site_fract_y
_atom_site_fract_z
Si Si1 0.837595 0.539490 0.408613
Si Si2 0.070968 0.548660 0.365607
Si Si3 0.165514 0.947241 0.477508
Si Si4 0.666685 0.952189 0.869792
Si Si5 0.538103 0.163872 0.249777
Si Si6 0.904681 0.164384 0.055712
Si Si7 0.162782 0.829783 0.172279
O O1 0.750000 0.550909 0.392570
O O2 0.883995 0.616006 0.398324
O O3 0.871100 0.470716 0.369253
O O4 0.846232 0.516104 0.477655
O O5 0.135298 0.534479 0.412711
O O6 0.107479 0.526683 0.303216
O O7 0.008043 0.491958 0.382325
O O8 0.125805 0.874196 0.500000
O O9 0.250000 0.925992 0.471287
O O10 0.750000 0.923289 0.869293
O O11 0.615935 0.884066 0.885993
O O12 0.647314 0.982651 0.804288
O O13 0.656288 0.011500 0.922174
O O14 0.532830 0.250000 0.269514
O O15 0.619148 0.141947 0.227105
O O16 0.886556 0.250000 0.040117
O O17 0.854966 0.131427 0.108870
O O18 0.888069 0.111932 0.000000
O O19 0.250000 0.831471 0.164038
O O20 0.130624 0.750000 0.188080
#
# Coordination Sequence:
#
# PCOD8314909 Si02
#       7
#    16  16  16  16  16  16  16
#     4   9  18  31  45  62  82 104 134 170 206 244
#     4  10  18  28  44  62  81 108 137 166 204 246
#     4   9  17  29  44  62  84 107 132 163 198 241
#     4   9  18  31  44  60  83 110 143 180 212 243
#     4   9  17  28  42  61  84 110 140 171 203 241
#     4   9  16  25  40  62  85 110 139 169 204 247
#     4   8  14  24  37  55  81 110 136 162 193 233
#
# _framework density 15.174484
#
# number of rings (size 3 to 8) (size 9 to 14) (size 15 to 20)
#    0.000    3.000    0.000    3.429    0.000    3.714 
#    0.000    0.000    0.000    2.571    0.000    0.000 
#    0.000   10.286    0.000    0.000    0.000   41.714 
#
# Total GULP energy -1387617.766753 kJ/mol
# GULP energy per Si atom -12389.444346 kJ/mol
# Density = 1.513995 g / cm^3
# Si number density = 15.174484 Si / 1000 Ang^3
#
#
#
# Elastic Constant Matrix: (Units=GPa)
#
#
# Indices 1 2 3 4 5 6 
#
# 1 60.6413 32.4345 24.9098 0.0000 0.0000 0.0000
# 2 32.4345 60.6435 24.9096 0.0000 0.0000 0.0000
# 3 24.9098 24.9096 56.8602 0.0000 0.0000 0.0000
# 4 0.0000 0.0000 0.0000 17.6342 0.0000 0.0000
# 5 0.0000 0.0000 0.0000 0.0000 17.6339 0.0000
# 6 0.0000 0.0000 0.0000 0.0000 0.0000 21.1163
#
#
#
# Elastic Compliance Matrix: (Units=1/GPa)
#
#
# Indices 1 2 3 4 5 6 
#
# 1 0.024743 -0.010708 -0.006149 0.000000 0.000000 0.000000
# 2 -0.010708 0.024742 -0.006148 0.000000 0.000000 0.000000
# 3 -0.006149 -0.006148 0.022974 0.000000 0.000000 0.000000
# 4 0.000000 0.000000 0.000000 0.056708 0.000000 0.000000
# 5 0.000000 0.000000 0.000000 0.000000 0.056709 0.000000
# 6 0.000000 0.000000 0.000000 0.000000 0.000000 0.047357
#
#
# Mechanical properties :
#
#
# Convention : Reuss Voigt Hill
#
# Bulk Modulus (GPa) = 37.80741 38.07254 37.93998
# Shear Modulus (GPa) = 17.35748 17.66963 17.51356
#
# Velocity S-wave (km/s) = 3.38577 3.41608 3.40096
# Velocity P-wave (km/s) = 6.34459 6.37995 6.36229
#
# Compressibility (1/GPa) = 0.02644984
#
# Stress axis : x y z
#
# Youngs Moduli (GPa) = 40.41467 40.41664 43.52729
#
# Poissons Ratio (x) = 0.43279 0.26764
# Poissons Ratio (y) = 0.43277 0.26761
# Poissons Ratio (z) = 0.24850 0.24849
#
# Static dielectric constant tensor:
#      x y z
#    x 2.758680 0.000000 0.000000 
#    y 0.000000 2.758660 0.000000 
#    z 0.000000 0.000000 2.827650 
# 
# 
# High freq. dielectric constant tensor:
#      x y z
#    x 1.569490 0.000000 0.000000 
#    y 0.000000 1.569490 0.000000 
#    z 0.000000 0.000000 1.575260 
# 
# From -- ./inp_files/6653.got.cif
#   From: 2010.03.12/outbox.cif.g09.slc.cpg/sg129_4_cif.got.tgz:6653.got - 2010.04.06 17:19:44.
