data_PCOD8314517
_publ_section_title
;
Structure prediction by ZEFSAII (Michael W. Deem and Ramdas Pophale) SiO2 
 PCOD8314517
Probable space group: P 4/M N C
;
_chemical_formula_sum "Si O2"
_cell_formula_units_Z 128
_cell_length_a 17.951388
_cell_length_b 17.951388
_cell_length_c 22.828742
_cell_angle_alpha 90.000000
_cell_angle_beta 90.000000
_cell_angle_gamma 90.000000
_cell_volume 7356.615326
_symmetry_space_group_name_H-M "P 4/M N C"
_symmetry_group_IT_number 128
_symmetry_cell_setting 'tetragonal'
loop_
_space_group_symop_operation_xyz
x,y,z
-y,x,z
-x,-y,z
y,-x,z
1/2+x,1/2-y,1/2-z
1/2-x,1/2+y,1/2-z
1/2+y,1/2+x,1/2-z
1/2-y,1/2-x,1/2-z
-x,-y,-z
y,-x,-z
x,y,-z
-y,x,-z
1/2-x,1/2+y,1/2+z
1/2+x,1/2-y,1/2+z
1/2-y,1/2-x,1/2+z
1/2+y,1/2+x,1/2+z
loop_
_atom_site_type_symbol
_atom_site_label
_atom_site_fract_x
_atom_site_fract_y
_atom_site_fract_z
Si Si1 0.169004 0.637654 0.433261
Si Si2 0.766428 0.564649 0.068009
Si Si3 0.084074 0.514646 0.069813
Si Si4 0.378706 0.479054 0.864564
Si Si5 0.735200 0.225468 0.068864
Si Si6 0.965240 0.883522 0.231255
Si Si7 0.901248 0.823829 0.878968
Si Si8 0.312201 0.552271 0.434707
O O1 0.148407 0.654140 0.500000
O O2 0.092506 0.613197 0.402258
O O3 0.205996 0.713626 0.408269
O O4 0.225042 0.569014 0.425909
O O5 0.850567 0.543310 0.089351
O O6 0.697683 0.523004 0.098886
O O7 0.753421 0.651003 0.080923
O O8 0.759486 0.544798 0.000000
O O9 0.000000 0.500000 0.095112
O O10 0.077209 0.516469 0.000000
O O11 0.440390 0.415466 0.878362
O O12 0.354242 0.464767 0.797559
O O13 0.754832 0.153125 0.107766
O O14 0.751050 0.208754 0.000000
O O15 0.937344 0.819177 0.186309
O O16 0.048807 0.909208 0.219089
O O17 0.858851 0.901724 0.887381
O O18 0.965476 0.823393 0.927110
O O19 0.337002 0.576188 0.500000
#
# Coordination Sequence:
#
# PCOD8314517 Si02
#       8
#    16  16  16  16  16  16  16  16
#     4   8  16  30  44  61  96 140 166 194 249 301
#     4  10  21  34  54  81 107 135 170 217 275 332
#     4   9  18  31  49  74 101 134 174 208 246 315
#     4   9  20  37  57  79 107 136 170 220 281 336
#     4   9  19  32  45  70 109 140 165 209 264 315
#     4   9  17  33  51  71  99 137 178 219 260 309
#     4  11  18  29  46  70  99 138 181 206 251 301
#     4  10  19  27  41  68 104 138 168 208 251 301
#
# _framework density 17.399304999999998
#
# number of rings (size 3 to 8) (size 9 to 14) (size 15 to 20)
#    0.000    2.625    1.250    2.625    3.500    0.750 
#    0.000    1.875    0.000    0.000    0.000    0.875 
#    0.000    0.000    0.000    0.000    0.000    0.000 
#
# Total GULP energy -1585793.464344 kJ/mol
# GULP energy per Si atom -12389.011440 kJ/mol
# Density = 1.735970 g / cm^3
# Si number density = 17.399305 Si / 1000 Ang^3
#
#
#
# Elastic Constant Matrix: (Units=GPa)
#
#
# Indices 1 2 3 4 5 6 
#
# 1 92.4285 25.7481 25.9656 0.0000 0.0000 0.0000
# 2 25.7481 92.4285 25.9656 0.0000 0.0000 0.0000
# 3 25.9656 25.9656 49.2159 0.0000 0.0000 0.0000
# 4 0.0000 0.0000 0.0000 15.2593 0.0000 0.0000
# 5 0.0000 0.0000 0.0000 0.0000 15.2593 0.0000
# 6 0.0000 0.0000 0.0000 0.0000 0.0000 17.5942
#
#
#
# Elastic Compliance Matrix: (Units=1/GPa)
#
#
# Indices 1 2 3 4 5 6 
#
# 1 0.013006 -0.001991 -0.005812 0.000000 0.000000 0.000000
# 2 -0.001991 0.013006 -0.005812 0.000000 0.000000 0.000000
# 3 -0.005812 -0.005812 0.026451 0.000000 0.000000 0.000000
# 4 0.000000 0.000000 0.000000 0.065534 0.000000 0.000000
# 5 0.000000 0.000000 0.000000 0.000000 0.065534 0.000000
# 6 0.000000 0.000000 0.000000 0.000000 0.000000 0.056837
#
#
# Mechanical properties :
#
#
# Convention : Reuss Voigt Hill
#
# Bulk Modulus (GPa) = 39.62664 43.27018 41.44841
# Shear Modulus (GPa) = 18.11535 20.04878 19.08207
#
# Velocity S-wave (km/s) = 3.23019 3.39820 3.31526
# Velocity P-wave (km/s) = 6.06106 6.34980 6.20711
#
# Compressibility (1/GPa) = 0.02523555
#
# Stress axis : x y z
#
# Youngs Moduli (GPa) = 76.88545 76.88545 37.80565
#
# Poissons Ratio (x) = 0.15304 0.21972
# Poissons Ratio (y) = 0.15304 0.21972
# Poissons Ratio (z) = 0.44684 0.44684
#
# Static dielectric constant tensor:
#      x y z
#    x 3.252060 0.000000 0.000000 
#    y 0.000000 3.252060 0.000000 
#    z 0.000000 0.000000 2.888800 
# 
# 
# High freq. dielectric constant tensor:
#      x y z
#    x 1.671610 0.000000 0.000000 
#    y 0.000000 1.671610 0.000000 
#    z 0.000000 0.000000 1.624050 
# 
# From -- ./inp_files/6630.got.cif
#   From: 2010.03.12/outbox.cif.g09.slc.cpg/sg128_4_cif.got.tgz:6630.got - 2010.04.06 17:11:05.
