data_PCOD8314133
_publ_section_title
;
Structure prediction by ZEFSAII (Michael W. Deem and Ramdas Pophale) SiO2 
 PCOD8314133
Probable space group: P 4/M B M
;
_chemical_formula_sum "Si O2"
_cell_formula_units_Z 72
_cell_length_a 21.194803
_cell_length_b 21.194803
_cell_length_c 8.850108
_cell_angle_alpha 90.000000
_cell_angle_beta 90.000000
_cell_angle_gamma 90.000000
_cell_volume 3975.642632
_symmetry_space_group_name_H-M "P 4/M B M"
_symmetry_group_IT_number 127
_symmetry_cell_setting 'tetragonal'
loop_
_space_group_symop_operation_xyz
x,y,z
-y,x,z
-x,-y,z
y,-x,z
1/2+x,1/2-y,-z
1/2-x,1/2+y,-z
1/2+y,1/2+x,-z
1/2-y,1/2-x,-z
-x,-y,-z
y,-x,-z
x,y,-z
-y,x,-z
1/2-x,1/2+y,z
1/2+x,1/2-y,z
1/2-y,1/2-x,z
1/2+y,1/2+x,z
loop_
_atom_site_type_symbol
_atom_site_label
_atom_site_fract_x
_atom_site_fract_y
_atom_site_fract_z
Si Si1 0.552029 0.947972 0.179552
Si Si2 0.515608 0.815209 0.323143
Si Si3 0.685852 0.462127 0.819837
Si Si4 0.600135 0.349190 0.177699
Si Si5 0.875304 0.725173 0.674627
O O1 0.535319 0.879245 0.241845
O O2 0.500000 0.000000 0.232970
O O3 0.554701 0.945300 0.000000
O O4 0.531444 0.820235 0.500000
O O5 0.551375 0.754297 0.253832
O O6 0.442030 0.806473 0.290438
O O7 0.636327 0.410321 0.758994
O O8 0.656280 0.528357 0.762155
O O9 0.694064 0.460898 0.000000
O O10 0.637801 0.287744 0.230133
O O11 0.599681 0.352986 0.000000
O O12 0.868958 0.742633 0.500000
O O13 0.823544 0.676457 0.730328
#
# Coordination Sequence:
#
# PCOD8314133 Si02
#       5
#     8  16  16  16  16
#     4  11  23  37  55  81 109 139 175 215 263 316
#     4  10  20  35  55  77 104 138 174 215 263 311
#     4   9  18  34  53  76 106 138 175 218 266 313
#     4   9  18  32  52  76 103 136 172 214 262 313
#     4   9  18  33  52  74 100 132 171 215 257 303
#
# _framework density 18.110278999999998
#
# number of rings (size 3 to 8) (size 9 to 14) (size 15 to 20)
#    0.000    2.556    0.000    1.667    0.000    4.444 
#    2.000    2.222    0.000    0.000    0.000    6.222 
#    0.000    0.000    0.000    0.000    0.000    0.000 
#
# Total GULP energy -892688.827833 kJ/mol
# GULP energy per Si atom -12398.455942 kJ/mol
# Density = 1.806906 g / cm^3
# Si number density = 18.110279 Si / 1000 Ang^3
#
#
#
# Elastic Constant Matrix: (Units=GPa)
#
#
# Indices 1 2 3 4 5 6 
#
# 1 122.2434 89.9077 35.1721 0.0000 0.0000 0.0000
# 2 89.9077 122.2430 35.1718 0.0000 0.0000 0.0000
# 3 35.1721 35.1718 34.5329 0.0000 0.0000 0.0000
# 4 0.0000 0.0000 0.0000 25.9490 0.0000 0.0000
# 5 0.0000 0.0000 0.0000 0.0000 25.9490 0.0000
# 6 0.0000 0.0000 0.0000 0.0000 0.0000 31.1599
#
#
#
# Elastic Compliance Matrix: (Units=1/GPa)
#
#
# Indices 1 2 3 4 5 6 
#
# 1 0.019021 -0.011904 -0.007249 0.000000 0.000000 0.000000
# 2 -0.011904 0.019021 -0.007249 0.000000 0.000000 0.000000
# 3 -0.007249 -0.007249 0.043724 0.000000 0.000000 0.000000
# 4 0.000000 0.000000 0.000000 0.038537 0.000000 0.000000
# 5 0.000000 0.000000 0.000000 0.000000 0.038537 0.000000
# 6 0.000000 0.000000 0.000000 0.000000 0.000000 0.032093
#
#
# Mechanical properties :
#
#
# Convention : Reuss Voigt Hill
#
# Bulk Modulus (GPa) = 34.52710 66.61362 50.57036
# Shear Modulus (GPa) = 19.73228 24.52944 22.13086
#
# Velocity S-wave (km/s) = 3.30443 3.68428 3.49951
# Velocity P-wave (km/s) = 5.80218 7.41354 6.65680
#
# Compressibility (1/GPa) = 0.02896276
#
# Stress axis : x y z
#
# Youngs Moduli (GPa) = 52.57224 52.57229 22.87077
#
# Poissons Ratio (x) = 0.62583 0.16579
# Poissons Ratio (y) = 0.62583 0.16578
# Poissons Ratio (z) = 0.38110 0.38108
#
# Static dielectric constant tensor:
#      x y z
#    x 3.557860 0.000000 0.000000 
#    y 0.000000 3.557860 0.000000 
#    z 0.000000 0.000000 3.271490 
# 
# 
# High freq. dielectric constant tensor:
#      x y z
#    x 1.703590 0.000000 0.000000 
#    y 0.000000 1.703590 0.000000 
#    z 0.000000 0.000000 1.696330 
# 
# From -- ./inp_files/1514.got.cif
#   From: 2010.03.12/outbox.cif.g09.slc.cpg/sg127_1_cif.got.tgz:1514.got - 2010.04.06 17:03:15.
