data_PCOD8314901
_publ_section_title
;
Structure prediction by ZEFSAII (Michael W. Deem and Ramdas Pophale) SiO2 
 PCOD8314901
Probable space group: P 4/N M M
;
_chemical_formula_sum "Si O2"
_cell_formula_units_Z 128
_cell_length_a 18.412020
_cell_length_b 18.412020
_cell_length_c 23.343004
_cell_angle_alpha 90.000000
_cell_angle_beta 90.000000
_cell_angle_gamma 90.000000
_cell_volume 7913.336258
_symmetry_space_group_name_H-M "P 4/N M M"
_symmetry_group_IT_number 129
_symmetry_cell_setting 'tetragonal'
loop_
_space_group_symop_operation_xyz
x,y,z
1/2-y,x,z
1/2-x,1/2-y,z
y,1/2-x,z
1/2+x,-y,-z
-x,1/2+y,-z
1/2+y,1/2+x,-z
-y,-x,-z
-x,-y,-z
1/2+y,-x,-z
1/2+x,1/2+y,-z
-y,1/2+x,-z
1/2-x,y,z
x,1/2-y,z
1/2-y,1/2-x,z
y,x,z
loop_
_atom_site_type_symbol
_atom_site_label
_atom_site_fract_x
_atom_site_fract_y
_atom_site_fract_z
Si Si1 0.666390 0.095732 0.552976
Si Si2 0.041665 0.163522 0.857345
Si Si3 0.552118 0.431736 0.936876
Si Si4 0.334114 0.911787 0.779900
Si Si5 0.165971 0.554359 0.155732
Si Si6 0.950007 0.666736 0.742992
Si Si7 0.664449 0.168566 0.329855
Si Si8 0.449853 0.331904 0.385471
O O1 0.615586 0.115586 0.500000
O O2 0.750000 0.112962 0.537561
O O3 0.641027 0.142125 0.607616
O O4 0.654665 0.011556 0.567538
O O5 0.059567 0.250000 0.863720
O O6 0.116586 0.116586 0.854764
O O7 0.990076 0.138116 0.910162
O O8 0.994976 0.147613 0.799054
O O9 0.496889 0.496889 0.940248
O O10 0.619618 0.462211 0.900451
O O11 0.584567 0.415434 0.000000
O O12 0.250000 0.898730 0.782513
O O13 0.364194 0.852871 0.824985
O O14 0.363811 0.890661 0.716548
O O15 0.250000 0.544204 0.141054
O O16 0.138378 0.505227 0.208867
O O17 0.931957 0.750000 0.754501
O O18 0.874464 0.625537 0.749652
O O19 0.981944 0.654068 0.678720
O O20 0.750000 0.174321 0.327396
O O21 0.631053 0.250000 0.317908
O O22 0.420241 0.250000 0.389188
O O23 0.383469 0.383469 0.400764
#
# Coordination Sequence:
#
# PCOD8314901 Si02
#       8
#    16  16  16  16  16  16  16  16
#     4  10  19  30  44  64  92 122 151 184 222 266
#     4   9  18  32  50  71  93 118 150 191 237 281
#     4   9  18  32  47  63  87 120 155 188 223 265
#     4   9  17  29  44  63  89 117 145 178 217 265
#     4  10  18  27  43  66  89 114 145 181 221 265
#     4   9  17  29  45  66  91 117 146 180 219 263
#     4   9  16  26  42  63  88 121 155 181 210 256
#     4   9  18  31  46  64  86 113 145 182 222 263
#
# _framework density 16.175225999999999
#
# number of rings (size 3 to 8) (size 9 to 14) (size 15 to 20)
#    0.000    2.750    0.000    1.875    0.000    5.000 
#    0.000    1.875    0.000    0.000    0.000    1.750 
#    0.000    3.000    0.000    6.500    0.000    0.625 
#
# Total GULP energy -1586202.734276 kJ/mol
# GULP energy per Si atom -12392.208862 kJ/mol
# Density = 1.613841 g / cm^3
# Si number density = 16.175226 Si / 1000 Ang^3
#
#
#
# Elastic Constant Matrix: (Units=GPa)
#
#
# Indices 1 2 3 4 5 6 
#
# 1 65.5225 42.0392 50.2178 0.0000 0.0000 0.0000
# 2 42.0392 65.5227 50.2178 0.0000 0.0000 0.0000
# 3 50.2178 50.2178 117.3688 0.0000 0.0000 0.0000
# 4 0.0000 0.0000 0.0000 21.9076 0.0000 0.0000
# 5 0.0000 0.0000 0.0000 0.0000 21.9078 0.0000
# 6 0.0000 0.0000 0.0000 0.0000 0.0000 20.2889
#
#
#
# Elastic Compliance Matrix: (Units=1/GPa)
#
#
# Indices 1 2 3 4 5 6 
#
# 1 0.029033 -0.013550 -0.006624 0.000000 0.000000 0.000000
# 2 -0.013550 0.029033 -0.006624 0.000000 0.000000 0.000000
# 3 -0.006624 -0.006624 0.014189 0.000000 0.000000 0.000000
# 4 0.000000 0.000000 0.000000 0.045646 0.000000 0.000000
# 5 0.000000 0.000000 0.000000 0.000000 0.045646 0.000000
# 6 0.000000 0.000000 0.000000 0.000000 0.000000 0.049288
#
#
# Mechanical properties :
#
#
# Convention : Reuss Voigt Hill
#
# Bulk Modulus (GPa) = 53.60134 59.26260 56.43197
# Shear Modulus (GPa) = 18.33842 19.88348 19.11095
#
# Velocity S-wave (km/s) = 3.37075 3.50988 3.44102
# Velocity P-wave (km/s) = 6.95407 7.28993 7.12398
#
# Compressibility (1/GPa) = 0.01865625
#
# Stress axis : x y z
#
# Youngs Moduli (GPa) = 34.44367 34.44381 70.47806
#
# Poissons Ratio (x) = 0.46673 0.46688
# Poissons Ratio (y) = 0.46672 0.46687
# Poissons Ratio (z) = 0.22817 0.22817
#
# Static dielectric constant tensor:
#      x y z
#    x 3.015810 0.000000 0.000000 
#    y 0.000000 3.015810 0.000000 
#    z 0.000000 0.000000 3.222180 
# 
# 
# High freq. dielectric constant tensor:
#      x y z
#    x 1.613720 0.000000 0.000000 
#    y 0.000000 1.613720 0.000000 
#    z 0.000000 0.000000 1.615620 
# 
# From -- ./inp_files/7276.got.cif
#   From: 2010.03.12/outbox.cif.g09.slc.cpg/sg129_4_cif.got.tgz:7276.got - 2010.04.06 17:19:44.
