data_PCOD8314541
_publ_section_title
;
Structure prediction by ZEFSAII (Michael W. Deem and Ramdas Pophale) SiO2 
 PCOD8314541
Probable space group: P 4/M N C
;
_chemical_formula_sum "Si O2"
_cell_formula_units_Z 96
_cell_length_a 24.142159
_cell_length_b 24.142159
_cell_length_c 8.730860
_cell_angle_alpha 90.000000
_cell_angle_beta 90.000000
_cell_angle_gamma 90.000000
_cell_volume 5088.727979
_symmetry_space_group_name_H-M "P 4/M N C"
_symmetry_group_IT_number 128
_symmetry_cell_setting 'tetragonal'
loop_
_space_group_symop_operation_xyz
x,y,z
-y,x,z
-x,-y,z
y,-x,z
1/2+x,1/2-y,1/2-z
1/2-x,1/2+y,1/2-z
1/2+y,1/2+x,1/2-z
1/2-y,1/2-x,1/2-z
-x,-y,-z
y,-x,-z
x,y,-z
-y,x,-z
1/2-x,1/2+y,1/2+z
1/2+x,1/2-y,1/2+z
1/2-y,1/2-x,1/2+z
1/2+y,1/2+x,1/2+z
loop_
_atom_site_type_symbol
_atom_site_label
_atom_site_fract_x
_atom_site_fract_y
_atom_site_fract_z
Si Si1 0.718078 0.862623 0.680962
Si Si2 0.291556 0.014234 0.681715
Si Si3 0.807062 0.774248 0.681152
Si Si4 0.799500 0.070395 0.683058
Si Si5 0.417625 0.469740 0.817862
Si Si6 0.916666 0.500387 0.182378
O O1 0.661679 0.838322 0.750000
O O2 0.712141 0.861687 0.500000
O O3 0.725513 0.924991 0.742014
O O4 0.770425 0.826493 0.736105
O O5 0.289310 0.012916 0.500000
O O6 0.353118 0.998849 0.737189
O O7 0.247343 0.970769 0.748767
O O8 0.782495 0.717506 0.750000
O O9 0.806852 0.768494 0.500000
O O10 0.868631 0.784466 0.744412
O O11 0.800931 0.069762 0.500000
O O12 0.859275 0.051738 0.749377
O O13 0.467370 0.429532 0.761492
O O14 0.415436 0.469018 0.000000
O O15 0.945919 0.445919 0.250000
O O16 0.944552 0.555449 0.250000
O O17 0.922660 0.499619 0.000000
#
# Coordination Sequence:
#
# PCOD8314541 Si02
#       6
#    16  16  16  16  16  16
#     4   9  17  30  48  69  91 119 154 191 229 267
#     4   9  18  29  43  65  92 120 152 188 227 272
#     4   9  18  31  48  68  91 123 157 188 226 270
#     4   9  17  27  42  65  94 126 156 188 229 277
#     4   8  14  23  37  61  93 126 155 187 231 278
#     4  10  19  32  49  68  90 120 154 191 233 276
#
# _framework density 18.865227000000001
#
# number of rings (size 3 to 8) (size 9 to 14) (size 15 to 20)
#    0.000    3.000    0.000    2.000    2.333    0.667 
#    0.000    0.833    0.000    2.000    0.000    0.000 
#    0.000    0.000    0.000    1.833    0.000    3.000 
#
# Total GULP energy -1190116.659542 kJ/mol
# GULP energy per Si atom -12397.048537 kJ/mol
# Density = 1.882229 g / cm^3
# Si number density = 18.865227 Si / 1000 Ang^3
#
#
#
# Elastic Constant Matrix: (Units=GPa)
#
#
# Indices 1 2 3 4 5 6 
#
# 1 186.2768 105.4645 15.1681 0.0000 0.0000 0.0000
# 2 105.4645 186.2696 15.1860 0.0000 0.0000 0.0000
# 3 15.1681 15.1860 18.1189 0.0000 0.0000 0.0000
# 4 0.0000 0.0000 0.0000 15.4194 0.0000 0.0000
# 5 0.0000 0.0000 0.0000 0.0000 15.4193 0.0000
# 6 0.0000 0.0000 0.0000 0.0000 0.0000 28.6229
#
#
#
# Elastic Compliance Matrix: (Units=1/GPa)
#
#
# Indices 1 2 3 4 5 6 
#
# 1 0.008064 -0.004310 -0.003138 0.000000 0.000000 0.000000
# 2 -0.004310 0.008066 -0.003152 0.000000 0.000000 0.000000
# 3 -0.003138 -0.003152 0.060460 0.000000 0.000000 0.000000
# 4 0.000000 0.000000 0.000000 0.064853 0.000000 0.000000
# 5 0.000000 0.000000 0.000000 0.000000 0.064854 0.000000
# 6 0.000000 0.000000 0.000000 0.000000 0.000000 0.034937
#
#
# Mechanical properties :
#
#
# Convention : Reuss Voigt Hill
#
# Bulk Modulus (GPa) = 18.05415 73.58915 45.82165
# Shear Modulus (GPa) = 17.80004 28.88212 23.34108
#
# Velocity S-wave (km/s) = 3.07504 3.91701 3.52128
# Velocity P-wave (km/s) = 4.71154 7.71685 6.39329
#
# Compressibility (1/GPa) = 0.05538891
#
# Stress axis : x y z
#
# Youngs Moduli (GPa) = 124.00664 123.98009 16.53981
#
# Poissons Ratio (x) = 0.53435 0.05191
# Poissons Ratio (y) = 0.53446 0.05214
# Poissons Ratio (z) = 0.38919 0.39080
#
# Static dielectric constant tensor:
#      x y z
#    x 3.751040 0.000000 0.000000 
#    y 0.000000 3.751050 0.000000 
#    z 0.000000 0.000000 2.898970 
# 
# 
# High freq. dielectric constant tensor:
#      x y z
#    x 1.741500 0.000000 0.000000 
#    y 0.000000 1.741500 0.000000 
#    z 0.000000 0.000000 1.674510 
# 
# From -- ./inp_files/1421.got.cif
#   From: 2010.03.12/outbox.cif.g09.slc.cpg/sg128_1_cif.got.tgz:1421.got - 2010.04.06 17:11:05.
