data_PCOD8314011
_publ_section_title
;
Structure prediction by ZEFSAII (Michael W. Deem and Ramdas Pophale) SiO2 
 PCOD8314011
Probable space group: P 4/M B M
;
_chemical_formula_sum "Si O2"
_cell_formula_units_Z 96
_cell_length_a 15.210044
_cell_length_b 15.210044
_cell_length_c 22.049633
_cell_angle_alpha 90.000000
_cell_angle_beta 90.000000
_cell_angle_gamma 90.000000
_cell_volume 5101.082015
_symmetry_space_group_name_H-M "P 4/M B M"
_symmetry_group_IT_number 127
_symmetry_cell_setting 'tetragonal'
loop_
_space_group_symop_operation_xyz
x,y,z
-y,x,z
-x,-y,z
y,-x,z
1/2+x,1/2-y,-z
1/2-x,1/2+y,-z
1/2+y,1/2+x,-z
1/2-y,1/2-x,-z
-x,-y,-z
y,-x,-z
x,y,-z
-y,x,-z
1/2-x,1/2+y,z
1/2+x,1/2-y,z
1/2-y,1/2-x,z
1/2+y,1/2+x,z
loop_
_atom_site_type_symbol
_atom_site_label
_atom_site_fract_x
_atom_site_fract_y
_atom_site_fract_z
Si Si1 0.119719 0.930562 0.249687
Si Si2 0.525857 0.359028 0.929962
Si Si3 0.997122 0.360260 0.272778
Si Si4 0.271872 0.913628 0.167707
Si Si5 0.704740 0.522488 0.633709
Si Si6 0.834017 0.191788 0.428807
O O1 0.198407 0.880098 0.215884
O O2 0.127731 0.936749 0.322840
O O3 0.032206 0.881259 0.228040
O O4 0.600645 0.430679 0.914590
O O5 0.542580 0.271414 0.891260
O O6 0.530404 0.331773 0.000000
O O7 0.898863 0.398863 0.274802
O O8 0.066702 0.433299 0.291859
O O9 0.014201 0.328935 0.203807
O O10 0.005752 0.285630 0.322323
O O11 0.330619 0.830619 0.147620
O O12 0.718536 0.600858 0.585207
O O13 0.686922 0.430920 0.600330
O O14 0.847478 0.199620 0.500000
O O15 0.774904 0.274904 0.405684
#
# Coordination Sequence:
#
# PCOD8314011 Si02
#       6
#    16  16  16  16  16  16
#     4  10  19  34  53  76 105 137 180 224 270 330
#     4   9  18  35  58  80 105 144 188 226 267 319
#     4   9  19  36  57  79 106 146 190 231 276 331
#     4  10  20  32  51  81 114 145 177 224 280 327
#     4  11  20  37  57  81 109 145 184 229 283 340
#     4  11  24  39  57  83 114 147 186 234 285 344
#
# _framework density 18.819537
#
# number of rings (size 3 to 8) (size 9 to 14) (size 15 to 20)
#    0.000    2.000    1.667    3.000    0.000    2.667 
#    0.000    5.833    0.000    1.500    0.000    9.333 
#    0.000    0.000    0.000    0.000    0.000    0.000 
#
# Total GULP energy -1189567.064561 kJ/mol
# GULP energy per Si atom -12391.323589 kJ/mol
# Density = 1.877670 g / cm^3
# Si number density = 18.819537 Si / 1000 Ang^3
#
#
#
# Elastic Constant Matrix: (Units=GPa)
#
#
# Indices 1 2 3 4 5 6 
#
# 1 83.5364 37.8494 37.0139 0.0000 0.0000 0.0000
# 2 37.8494 83.5364 37.0139 0.0000 0.0000 0.0000
# 3 37.0139 37.0139 88.8072 0.0000 0.0000 0.0000
# 4 0.0000 0.0000 0.0000 28.9186 0.0000 0.0000
# 5 0.0000 0.0000 0.0000 0.0000 28.9186 0.0000
# 6 0.0000 0.0000 0.0000 0.0000 0.0000 18.3039
#
#
#
# Elastic Compliance Matrix: (Units=1/GPa)
#
#
# Indices 1 2 3 4 5 6 
#
# 1 0.016467 -0.005421 -0.004604 0.000000 0.000000 0.000000
# 2 -0.005421 0.016467 -0.004604 0.000000 0.000000 0.000000
# 3 -0.004604 -0.004604 0.015098 0.000000 0.000000 0.000000
# 4 0.000000 0.000000 0.000000 0.034580 0.000000 0.000000
# 5 0.000000 0.000000 0.000000 0.000000 0.034580 0.000000
# 6 0.000000 0.000000 0.000000 0.000000 0.000000 0.054633
#
#
# Mechanical properties :
#
#
# Convention : Reuss Voigt Hill
#
# Bulk Modulus (GPa) = 53.26373 53.29269 53.27821
# Shear Modulus (GPa) = 24.11496 24.82841 24.47169
#
# Velocity S-wave (km/s) = 3.58352 3.63614 3.60993
# Velocity P-wave (km/s) = 6.74433 6.78291 6.76365
#
# Compressibility (1/GPa) = 0.01877450
#
# Stress axis : x y z
#
# Youngs Moduli (GPa) = 60.72774 60.72774 66.23410
#
# Poissons Ratio (x) = 0.32921 0.30493
# Poissons Ratio (y) = 0.32921 0.30493
# Poissons Ratio (z) = 0.27958 0.27958
#
# Static dielectric constant tensor:
#      x y z
#    x 3.491810 0.000000 0.000000 
#    y 0.000000 3.491810 0.000000 
#    z 0.000000 0.000000 3.459400 
# 
# 
# High freq. dielectric constant tensor:
#      x y z
#    x 1.725190 0.000000 0.000000 
#    y 0.000000 1.725190 0.000000 
#    z 0.000000 0.000000 1.731860 
# 
# From -- ./inp_files/5773.got.cif
#   From: 2010.03.12/outbox.cif.g09.slc.cpg/sg127_3_cif.got.tgz:5773.got - 2010.04.06 17:03:15.
