data_PCOD8314562
_publ_section_title
;
Structure prediction by ZEFSAII (Michael W. Deem and Ramdas Pophale) SiO2 
 PCOD8314562
Probable space group: P 4/M N C
;
_chemical_formula_sum "Si O2"
_cell_formula_units_Z 80
_cell_length_a 11.981220
_cell_length_b 11.981220
_cell_length_c 29.962281
_cell_angle_alpha 90.000000
_cell_angle_beta 90.000000
_cell_angle_gamma 90.000000
_cell_volume 4301.074432
_symmetry_space_group_name_H-M "P 4/M N C"
_symmetry_group_IT_number 128
_symmetry_cell_setting 'tetragonal'
loop_
_space_group_symop_operation_xyz
x,y,z
-y,x,z
-x,-y,z
y,-x,z
1/2+x,1/2-y,1/2-z
1/2-x,1/2+y,1/2-z
1/2+y,1/2+x,1/2-z
1/2-y,1/2-x,1/2-z
-x,-y,-z
y,-x,-z
x,y,-z
-y,x,-z
1/2-x,1/2+y,1/2+z
1/2+x,1/2-y,1/2+z
1/2-y,1/2-x,1/2+z
1/2+y,1/2+x,1/2+z
loop_
_atom_site_type_symbol
_atom_site_label
_atom_site_fract_x
_atom_site_fract_y
_atom_site_fract_z
Si Si1 0.373727 0.192853 0.297648
Si Si2 0.172655 0.038183 0.052866
Si Si3 0.396511 0.079559 0.451180
Si Si4 0.365973 0.002277 0.360889
Si Si5 0.127634 0.308004 0.201437
O O1 0.365913 0.134088 0.250000
O O2 0.321380 0.107096 0.332963
O O3 0.500586 0.221759 0.309213
O O4 0.307434 0.307572 0.299680
O O5 0.298906 0.065613 0.068296
O O6 0.084520 0.132440 0.070239
O O7 0.171110 0.035517 0.000000
O O8 0.335037 0.091224 0.500000
O O9 0.322443 0.020049 0.412204
O O10 0.500000 0.000000 0.459708
O O11 0.500000 0.000000 0.360596
O O12 0.322367 0.889857 0.337016
O O13 0.135123 0.364878 0.250000
#
# Coordination Sequence:
#
# PCOD8314562 Si02
#       5
#    16  16  16  16  16
#     4  10  19  33  54  78 104 140 173 212 264 314
#     4   8  14  27  48  73 104 137 167 210 271 326
#     4   9  17  31  49  70 101 141 183 219 253 304
#     4   9  18  33  52  72 101 138 176 214 253 308
#     4  10  19  33  56  79 107 137 173 216 264 318
#
# _framework density 18.600003999999998
#
# number of rings (size 3 to 8) (size 9 to 14) (size 15 to 20)
#    0.000    2.800    2.000    0.600    0.000    0.400 
#   10.800    0.000    0.000    0.600    0.000    0.000 
#    0.000    0.800    0.000   13.000    0.000    0.000 
#
# Total GULP energy -991053.817754 kJ/mol
# GULP energy per Si atom -12388.172722 kJ/mol
# Density = 1.855767 g / cm^3
# Si number density = 18.600004 Si / 1000 Ang^3
#
#
#
# Elastic Constant Matrix: (Units=GPa)
#
#
# Indices 1 2 3 4 5 6 
#
# 1 77.9420 31.1625 27.6373 0.0000 0.0000 0.0000
# 2 31.1625 77.9420 27.6373 0.0000 0.0000 0.0000
# 3 27.6373 27.6373 129.6739 0.0000 0.0000 0.0000
# 4 0.0000 0.0000 0.0000 3.5845 0.0000 0.0000
# 5 0.0000 0.0000 0.0000 0.0000 3.5845 0.0000
# 6 0.0000 0.0000 0.0000 0.0000 0.0000 3.0291
#
#
#
# Elastic Compliance Matrix: (Units=1/GPa)
#
#
# Indices 1 2 3 4 5 6 
#
# 1 0.015826 -0.005551 -0.002190 0.000000 0.000000 0.000000
# 2 -0.005551 0.015826 -0.002190 0.000000 0.000000 0.000000
# 3 -0.002190 -0.002190 0.008645 0.000000 0.000000 0.000000
# 4 0.000000 0.000000 0.000000 0.278981 0.000000 0.000000
# 5 0.000000 0.000000 0.000000 0.000000 0.278979 0.000000
# 6 0.000000 0.000000 0.000000 0.000000 0.000000 0.330134
#
#
# Mechanical properties :
#
#
# Convention : Reuss Voigt Hill
#
# Bulk Modulus (GPa) = 48.93452 50.93690 49.93571
# Shear Modulus (GPa) = 5.23525 15.31433 10.27479
#
# Velocity S-wave (km/s) = 1.67951 2.87252 2.35289
# Velocity P-wave (km/s) = 5.48881 6.20054 5.85550
#
# Compressibility (1/GPa) = 0.02043547
#
# Stress axis : x y z
#
# Youngs Moduli (GPa) = 63.18744 63.18745 115.67224
#
# Poissons Ratio (x) = 0.35075 0.25331
# Poissons Ratio (y) = 0.35075 0.25331
# Poissons Ratio (z) = 0.13837 0.13837
#
# Static dielectric constant tensor:
#      x y z
#    x 3.276150 0.000000 0.000000 
#    y 0.000000 3.276150 0.000000 
#    z 0.000000 0.000000 3.924940 
# 
# 
# High freq. dielectric constant tensor:
#      x y z
#    x 1.692070 0.000000 0.000000 
#    y 0.000000 1.692070 0.000000 
#    z 0.000000 0.000000 1.732740 
# 
# From -- ./inp_files/7162.got.cif
#   From: 2010.03.12/outbox.cif.g09.slc.cpg/sg128_4_cif.got.tgz:7162.got - 2010.04.06 17:11:05.
