data_PCOD8314063
_publ_section_title
;
Structure prediction by ZEFSAII (Michael W. Deem and Ramdas Pophale) SiO2 
 PCOD8314063
Probable space group: P 4/M B M
;
_chemical_formula_sum "Si O2"
_cell_formula_units_Z 96
_cell_length_a 25.115068
_cell_length_b 25.115068
_cell_length_c 8.968919
_cell_angle_alpha 90.000000
_cell_angle_beta 90.000000
_cell_angle_gamma 90.000000
_cell_volume 5657.294908
_symmetry_space_group_name_H-M "P 4/M B M"
_symmetry_group_IT_number 127
_symmetry_cell_setting 'tetragonal'
loop_
_space_group_symop_operation_xyz
x,y,z
-y,x,z
-x,-y,z
y,-x,z
1/2+x,1/2-y,-z
1/2-x,1/2+y,-z
1/2+y,1/2+x,-z
1/2-y,1/2-x,-z
-x,-y,-z
y,-x,-z
x,y,-z
-y,x,-z
1/2-x,1/2+y,z
1/2+x,1/2-y,z
1/2-y,1/2-x,z
1/2+y,1/2+x,z
loop_
_atom_site_type_symbol
_atom_site_label
_atom_site_fract_x
_atom_site_fract_y
_atom_site_fract_z
Si Si1 0.394578 0.304615 0.675892
Si Si2 0.812729 0.116558 0.176360
Si Si3 0.312843 0.500775 0.164197
Si Si4 0.799019 0.612690 0.328755
Si Si5 0.105068 0.691303 0.824133
Si Si6 0.010892 0.313046 0.835948
O O1 0.391088 0.303469 0.500000
O O2 0.348781 0.341708 0.738998
O O3 0.452182 0.328525 0.722816
O O4 0.384598 0.245709 0.737124
O O5 0.834368 0.057073 0.216372
O O6 0.752255 0.124669 0.229095
O O7 0.814677 0.126469 0.000000
O O8 0.249942 0.495386 0.154805
O O9 0.335459 0.515290 0.000000
O O10 0.781694 0.606749 0.500000
O O11 0.839431 0.660570 0.304744
O O12 0.828132 0.557775 0.278446
O O13 0.149525 0.649525 0.773227
O O14 0.047189 0.665753 0.783380
O O15 0.107643 0.703669 0.000000
O O16 0.025482 0.335722 0.000000
#
# Coordination Sequence:
#
# PCOD8314063 Si02
#       6
#    16  16  16  16  16  16
#     4  11  21  31  48  74 102 128 154 191 238 285
#     4  10  20  34  52  71  94 127 163 197 233 276
#     4   8  16  32  51  69  90 121 162 199 230 273
#     4  10  20  32  47  70  99 127 156 194 240 287
#     4   9  18  33  51  70  95 127 161 197 236 279
#     4   8  15  29  49  70  90 119 161 200 233 276
#
# _framework density 16.969242000000001
#
# number of rings (size 3 to 8) (size 9 to 14) (size 15 to 20)
#    0.000    2.667    0.000    4.500    0.000    9.000 
#    0.000    0.000    0.000    1.000    0.000    7.000 
#    0.000    0.000    0.000    0.000    0.000    0.000 
#
# Total GULP energy -1189875.746246 kJ/mol
# GULP energy per Si atom -12394.539023 kJ/mol
# Density = 1.693062 g / cm^3
# Si number density = 16.969242 Si / 1000 Ang^3
#
#
#
# Elastic Constant Matrix: (Units=GPa)
#
#
# Indices 1 2 3 4 5 6 
#
# 1 78.8862 44.5736 48.6962 0.0000 0.0000 0.0000
# 2 44.5736 78.8862 48.6962 0.0000 0.0000 0.0000
# 3 48.6962 48.6962 98.4869 0.0000 0.0000 0.0000
# 4 0.0000 0.0000 0.0000 18.6084 0.0000 0.0000
# 5 0.0000 0.0000 0.0000 0.0000 18.6084 0.0000
# 6 0.0000 0.0000 0.0000 0.0000 0.0000 -2.9813
#
#
#
# Elastic Compliance Matrix: (Units=1/GPa)
#
#
# Indices 1 2 3 4 5 6 
#
# 1 0.021212 -0.007932 -0.006566 0.000000 0.000000 0.000000
# 2 -0.007932 0.021212 -0.006566 0.000000 0.000000 0.000000
# 3 -0.006566 -0.006566 0.016647 0.000000 0.000000 0.000000
# 4 0.000000 0.000000 0.000000 0.053739 0.000000 0.000000
# 5 0.000000 0.000000 0.000000 0.000000 0.053739 0.000000
# 6 0.000000 0.000000 0.000000 0.000000 0.000000 -0.335426
#
#
# Mechanical properties :
#
#
# Convention : Reuss Voigt Hill
#
# Bulk Modulus (GPa) = 59.02590 60.02126 59.52358
# Shear Modulus (GPa) = -41.28719 14.46665 -13.41027
#
# Velocity S-wave (km/s) = -4.93796 2.92297 -2.81422
# Velocity P-wave (km/s) = 1.53243 6.84391 4.95920
#
# Compressibility (1/GPa) = 0.01694171
#
# Stress axis : x y z
#
# Youngs Moduli (GPa) = 47.14405 47.14405 60.07240
#
# Poissons Ratio (x) = 0.37396 0.39443
# Poissons Ratio (y) = 0.37396 0.39443
# Poissons Ratio (z) = 0.30954 0.30954
#
# Static dielectric constant tensor:
#      x y z
#    x 3.331560 0.000000 0.000000 
#    y 0.000000 3.331560 0.000000 
#    z 0.000000 0.000000 3.227200 
# 
# 
# High freq. dielectric constant tensor:
#      x y z
#    x 1.639360 0.000000 0.000000 
#    y 0.000000 1.639360 0.000000 
#    z 0.000000 0.000000 1.658030 
# 
# From -- ./inp_files/1928.got.cif
#   From: 2010.03.12/outbox.cif.g09.slc.cpg/sg127_1_cif.got.tgz:1928.got - 2010.04.06 17:03:15.
