data_PCOD8314380
_publ_section_title
;
Structure prediction by ZEFSAII (Michael W. Deem and Ramdas Pophale) SiO2 
 PCOD8314380
Probable space group: P 4/M B M
;
_chemical_formula_sum "Si O2"
_cell_formula_units_Z 96
_cell_length_a 16.286882
_cell_length_b 16.286882
_cell_length_c 18.799810
_cell_angle_alpha 90.000000
_cell_angle_beta 90.000000
_cell_angle_gamma 90.000000
_cell_volume 4986.885075
_symmetry_space_group_name_H-M "P 4/M B M"
_symmetry_group_IT_number 127
_symmetry_cell_setting 'tetragonal'
loop_
_space_group_symop_operation_xyz
x,y,z
-y,x,z
-x,-y,z
y,-x,z
1/2+x,1/2-y,-z
1/2-x,1/2+y,-z
1/2+y,1/2+x,-z
1/2-y,1/2-x,-z
-x,-y,-z
y,-x,-z
x,y,-z
-y,x,-z
1/2-x,1/2+y,z
1/2+x,1/2-y,z
1/2-y,1/2-x,z
1/2+y,1/2+x,z
loop_
_atom_site_type_symbol
_atom_site_label
_atom_site_fract_x
_atom_site_fract_y
_atom_site_fract_z
Si Si1 0.160928 0.203206 0.279361
Si Si2 0.128420 0.033712 0.916120
Si Si3 0.665342 0.971269 0.578491
Si Si4 0.161276 0.798922 0.424289
Si Si5 0.736018 0.896330 0.179429
Si Si6 0.464292 0.834586 0.731456
O O1 0.239922 0.260079 0.287700
O O2 0.138268 0.169597 0.358400
O O3 0.186871 0.129530 0.228163
O O4 0.084792 0.252265 0.247087
O O5 0.218597 0.055225 0.884086
O O6 0.057896 0.099348 0.893156
O O7 0.140209 0.036966 0.000000
O O8 0.661815 0.015375 0.500000
O O9 0.588653 0.911348 0.584997
O O10 0.750104 0.923088 0.585638
O O11 0.660015 0.032193 0.645445
O O12 0.159698 0.847359 0.500000
O O13 0.235346 0.735346 0.426226
O O14 0.681649 0.818352 0.151610
O O15 0.672538 0.950723 0.226260
O O16 0.415397 0.915397 0.758032
#
# Coordination Sequence:
#
# PCOD8314380 Si02
#       6
#    16  16  16  16  16  16
#     4   9  18  31  47  70  98 133 178 224 265 311
#     4   9  19  38  64  91 115 139 174 222 269 311
#     4   9  17  30  47  67  95 133 177 224 275 327
#     4   8  13  25  45  64  87 125 172 221 273 322
#     4  11  21  35  55  79 113 150 180 211 261 326
#     4  11  22  33  49  76 107 138 182 232 273 320
#
# _framework density 19.250492999999999
#
# number of rings (size 3 to 8) (size 9 to 14) (size 15 to 20)
#    0.000    2.500    1.667    3.000    0.000    2.667 
#    0.000    2.500    0.000    1.500    0.000    1.167 
#    0.000    2.667    0.000    0.000    0.000    0.000 
#
# Total GULP energy -1189329.827407 kJ/mol
# GULP energy per Si atom -12388.852369 kJ/mol
# Density = 1.920668 g / cm^3
# Si number density = 19.250493 Si / 1000 Ang^3
#
#
#
# Elastic Constant Matrix: (Units=GPa)
#
#
# Indices 1 2 3 4 5 6 
#
# 1 61.5450 25.1454 27.0025 0.0000 0.0000 0.0000
# 2 25.1454 61.5450 27.0025 0.0000 0.0000 0.0000
# 3 27.0025 27.0025 66.1612 0.0000 0.0000 0.0000
# 4 0.0000 0.0000 0.0000 23.1823 0.0000 0.0000
# 5 0.0000 0.0000 0.0000 0.0000 23.1823 0.0000
# 6 0.0000 0.0000 0.0000 0.0000 0.0000 20.7662
#
#
#
# Elastic Compliance Matrix: (Units=1/GPa)
#
#
# Indices 1 2 3 4 5 6 
#
# 1 0.021470 -0.006002 -0.006313 0.000000 0.000000 0.000000
# 2 -0.006002 0.021470 -0.006313 0.000000 0.000000 0.000000
# 3 -0.006313 -0.006313 0.020268 0.000000 0.000000 0.000000
# 4 0.000000 0.000000 0.000000 0.043136 0.000000 0.000000
# 5 0.000000 0.000000 0.000000 0.000000 0.043136 0.000000
# 6 0.000000 0.000000 0.000000 0.000000 0.000000 0.048155
#
#
# Mechanical properties :
#
#
# Convention : Reuss Voigt Hill
#
# Bulk Modulus (GPa) = 38.53302 38.61691 38.57497
# Shear Modulus (GPa) = 20.53016 20.76620 20.64818
#
# Velocity S-wave (km/s) = 3.26924 3.28797 3.27862
# Velocity P-wave (km/s) = 5.85753 5.87521 5.86638
#
# Compressibility (1/GPa) = 0.02595177
#
# Stress axis : x y z
#
# Youngs Moduli (GPa) = 46.57557 46.57557 49.33957
#
# Poissons Ratio (x) = 0.27956 0.31148
# Poissons Ratio (y) = 0.27956 0.31148
# Poissons Ratio (z) = 0.29403 0.29403
#
# Static dielectric constant tensor:
#      x y z
#    x 3.308070 0.000000 0.000000 
#    y 0.000000 3.308070 0.000000 
#    z 0.000000 0.000000 3.292880 
# 
# 
# High freq. dielectric constant tensor:
#      x y z
#    x 1.728260 0.000000 0.000000 
#    y 0.000000 1.728260 0.000000 
#    z 0.000000 0.000000 1.737920 
# 
# From -- ./inp_files/5794.got.cif
#   From: 2010.03.12/outbox.cif.g09.slc.cpg/sg127_3_cif.got.tgz:5794.got - 2010.04.06 17:03:15.
