data_PCOD8315612
_publ_section_title
;
Structure prediction by ZEFSAII (Michael W. Deem and Ramdas Pophale) SiO2 
 PCOD8315612
Probable space group: P 4/N C C
;
_chemical_formula_sum "Si O2"
_cell_formula_units_Z 64
_cell_length_a 9.905803
_cell_length_b 9.905803
_cell_length_c 32.250328
_cell_angle_alpha 90.000000
_cell_angle_beta 90.000000
_cell_angle_gamma 90.000000
_cell_volume 3164.561277
_symmetry_space_group_name_H-M "P 4/N C C"
_symmetry_group_IT_number 130
_symmetry_cell_setting 'tetragonal'
loop_
_space_group_symop_operation_xyz
x,y,z
1/2-y,x,z
1/2-x,1/2-y,z
y,1/2-x,z
1/2+x,-y,1/2-z
-x,1/2+y,1/2-z
1/2+y,1/2+x,1/2-z
-y,-x,1/2-z
-x,-y,-z
1/2+y,-x,-z
1/2+x,1/2+y,-z
-y,1/2+x,-z
1/2-x,y,1/2+z
x,1/2-y,1/2+z
1/2-y,1/2-x,1/2+z
y,x,1/2+z
loop_
_atom_site_type_symbol
_atom_site_label
_atom_site_fract_x
_atom_site_fract_y
_atom_site_fract_z
Si Si1 0.770006 0.968702 0.998489
Si Si2 0.372600 0.433065 0.774391
Si Si3 0.839039 0.135579 0.431429
Si Si4 0.864872 0.563745 0.629299
O O1 0.628471 0.895266 0.006644
O O2 0.758520 0.020502 0.950789
O O3 0.787753 0.089982 0.030265
O O4 0.213509 0.434541 0.763198
O O5 0.449795 0.550206 0.750000
O O6 0.389827 0.466369 0.822673
O O7 0.750000 0.250000 0.408209
O O8 0.944427 0.071427 0.398516
O O9 0.932085 0.706088 0.617959
#
# Coordination Sequence:
#
# PCOD8315612 Si02
#       4
#    16  16  16  16
#     4  11  23  38  56  77 109 154 196 244 298 347
#     4   9  19  40  65  94 126 160 203 249 300 367
#     4  12  22  36  56  84 112 148 195 247 292 341
#     4   9  20  39  62  85 116 157 196 238 290 352
#
# _framework density 20.223970999999999
#
# number of rings (size 3 to 8) (size 9 to 14) (size 15 to 20)
#    0.000    1.750    2.500    3.750    3.500    2.500 
#    9.000    0.000    0.000    3.000    0.000    0.000 
#    0.000    0.000    0.000    0.000    0.000    0.000 
#
# Total GULP energy -793340.318550 kJ/mol
# GULP energy per Si atom -12395.942477 kJ/mol
# Density = 2.017794 g / cm^3
# Si number density = 20.223971 Si / 1000 Ang^3
#
#
#
# Elastic Constant Matrix: (Units=GPa)
#
#
# Indices 1 2 3 4 5 6 
#
# 1 47.7217 12.8056 20.8753 0.0000 0.0000 0.0000
# 2 12.8056 47.7202 20.8749 0.0000 0.0000 0.0000
# 3 20.8753 20.8749 69.9102 0.0000 0.0000 0.0000
# 4 0.0000 0.0000 0.0000 33.8409 0.0000 0.0000
# 5 0.0000 0.0000 0.0000 0.0000 33.8407 0.0000
# 6 0.0000 0.0000 0.0000 0.0000 0.0000 27.8934
#
#
#
# Elastic Compliance Matrix: (Units=1/GPa)
#
#
# Indices 1 2 3 4 5 6 
#
# 1 0.024724 -0.003917 -0.006213 0.000000 0.000000 0.000000
# 2 -0.003917 0.024724 -0.006213 0.000000 0.000000 0.000000
# 3 -0.006213 -0.006213 0.018014 0.000000 0.000000 0.000000
# 4 0.000000 0.000000 0.000000 0.029550 0.000000 0.000000
# 5 0.000000 0.000000 0.000000 0.000000 0.029550 0.000000
# 6 0.000000 0.000000 0.000000 0.000000 0.000000 0.035851
#
#
# Mechanical properties :
#
#
# Convention : Reuss Voigt Hill
#
# Bulk Modulus (GPa) = 28.75468 30.49597 29.62532
# Shear Modulus (GPa) = 24.19064 26.50140 25.34602
#
# Velocity S-wave (km/s) = 3.46227 3.62387 3.54399
# Velocity P-wave (km/s) = 5.49837 5.71154 5.60597
#
# Compressibility (1/GPa) = 0.03477695
#
# Stress axis : x y z
#
# Youngs Moduli (GPa) = 40.44708 40.44590 55.51088
#
# Poissons Ratio (x) = 0.15841 0.34489
# Poissons Ratio (y) = 0.15842 0.34489
# Poissons Ratio (z) = 0.25130 0.25129
#
# Static dielectric constant tensor:
#      x y z
#    x 3.711560 0.000000 0.000000 
#    y 0.000000 3.711560 0.000000 
#    z 0.000000 0.000000 3.448910 
# 
# 
# High freq. dielectric constant tensor:
#      x y z
#    x 1.789270 0.000000 0.000000 
#    y 0.000000 1.789270 0.000000 
#    z 0.000000 0.000000 1.767430 
# 
# From -- ./inp_files/4094.got.cif
#   From: 2010.03.12/outbox.cif.g09.slc.cpg/sg130_3_cif.got.tgz:4094.got - 2010.04.06 17:30:23.
