data_PCOD8315294
_publ_section_title
;
Structure prediction by ZEFSAII (Michael W. Deem and Ramdas Pophale) SiO2 
 PCOD8315294
Probable space group: P 4/N M M
;
_chemical_formula_sum "Si O2"
_cell_formula_units_Z 112
_cell_length_a 14.119748
_cell_length_b 14.119748
_cell_length_c 35.419143
_cell_angle_alpha 90.000000
_cell_angle_beta 90.000000
_cell_angle_gamma 90.000000
_cell_volume 7061.418327
_symmetry_space_group_name_H-M "P 4/N M M"
_symmetry_group_IT_number 129
_symmetry_cell_setting 'tetragonal'
loop_
_space_group_symop_operation_xyz
x,y,z
1/2-y,x,z
1/2-x,1/2-y,z
y,1/2-x,z
1/2+x,-y,-z
-x,1/2+y,-z
1/2+y,1/2+x,-z
-y,-x,-z
-x,-y,-z
1/2+y,-x,-z
1/2+x,1/2+y,-z
-y,1/2+x,-z
1/2-x,y,z
x,1/2-y,z
1/2-y,1/2-x,z
y,x,z
loop_
_atom_site_type_symbol
_atom_site_label
_atom_site_fract_x
_atom_site_fract_y
_atom_site_fract_z
Si Si1 0.511058 0.358450 0.329426
Si Si2 0.641914 0.490497 0.110874
Si Si3 0.636683 0.479968 0.470283
Si Si4 0.859429 0.357002 0.397846
Si Si5 0.140916 0.640571 0.177597
Si Si6 0.140133 0.514389 0.974994
Si Si7 0.140798 0.988824 0.245012
O O1 0.482001 0.250000 0.334652
O O2 0.416169 0.416169 0.337100
O O3 0.589374 0.389403 0.359609
O O4 0.551746 0.377044 0.287253
O O5 0.750000 0.515512 0.118853
O O6 0.587133 0.587133 0.117953
O O7 0.604417 0.411800 0.140030
O O8 0.627309 0.452880 0.068346
O O9 0.595359 0.404642 0.500000
O O10 0.750000 0.495952 0.476858
O O11 0.580634 0.580634 0.472987
O O12 0.615868 0.432668 0.429977
O O13 0.750000 0.359129 0.388028
O O14 0.889491 0.250000 0.410285
O O15 0.250000 0.618901 0.170154
O O16 0.121603 0.750000 0.185301
O O17 0.103335 0.587392 0.214836
O O18 0.250000 0.496044 0.984931
O O19 0.082655 0.417346 0.983132
O O20 0.100111 0.600111 0.000000
O O21 0.250000 0.012143 0.238275
O O22 0.086803 0.086803 0.238871
#
# Coordination Sequence:
#
# PCOD8315294 Si02
#       7
#    16  16  16  16  16  16  16
#     4   9  17  28  42  61  85 112 142 176 213 254
#     4   9  17  29  45  64  86 111 138 170 208 250
#     4  10  20  33  50  71  94 121 152 186 224 265
#     4   9  17  29  46  67  89 114 145 180 217 258
#     4   9  17  28  42  61  84 109 138 172 210 252
#     4   9  18  31  46  66  90 115 145 179 215 257
#     4   9  17  28  42  60  82 110 142 175 212 252
#
# _framework density 15.860837
#
# number of rings (size 3 to 8) (size 9 to 14) (size 15 to 20)
#    0.000    2.857    0.000    1.286    0.000    2.714 
#    0.000    7.143    0.000    0.000    0.000    2.000 
#    0.000    3.429    0.000   26.571    0.000    0.714 
#
# Total GULP energy -1388382.775370 kJ/mol
# GULP energy per Si atom -12396.274780 kJ/mol
# Density = 1.582474 g / cm^3
# Si number density = 15.860837 Si / 1000 Ang^3
#
#
#
# Elastic Constant Matrix: (Units=GPa)
#
#
# Indices 1 2 3 4 5 6 
#
# 1 77.8925 48.2966 60.6161 0.0000 0.0000 0.0000
# 2 48.2966 77.8932 60.6160 0.0000 0.0000 0.0000
# 3 60.6161 60.6160 115.5586 0.0000 0.0000 0.0000
# 4 0.0000 0.0000 0.0000 27.0631 0.0000 0.0000
# 5 0.0000 0.0000 0.0000 0.0000 27.0631 0.0000
# 6 0.0000 0.0000 0.0000 0.0000 0.0000 22.5517
#
#
#
# Elastic Compliance Matrix: (Units=1/GPa)
#
#
# Indices 1 2 3 4 5 6 
#
# 1 0.024882 -0.008907 -0.008380 0.000000 0.000000 0.000000
# 2 -0.008907 0.024881 -0.008380 0.000000 0.000000 0.000000
# 3 -0.008380 -0.008380 0.017445 0.000000 0.000000 0.000000
# 4 0.000000 0.000000 0.000000 0.036951 0.000000 0.000000
# 5 0.000000 0.000000 0.000000 0.000000 0.036951 0.000000
# 6 0.000000 0.000000 0.000000 0.000000 0.000000 0.044343
#
#
# Mechanical properties :
#
#
# Convention : Reuss Voigt Hill
#
# Bulk Modulus (GPa) = 62.98775 67.82243 65.40509
# Shear Modulus (GPa) = 20.65469 22.12328 21.38898
#
# Velocity S-wave (km/s) = 3.61258 3.73880 3.67623
# Velocity P-wave (km/s) = 7.56306 7.84168 7.70363
#
# Compressibility (1/GPa) = 0.01587610
#
# Stress axis : x y z
#
# Youngs Moduli (GPa) = 40.19000 40.19067 57.32388
#
# Poissons Ratio (x) = 0.35796 0.48036
# Poissons Ratio (y) = 0.35795 0.48035
# Poissons Ratio (z) = 0.33679 0.33678
#
# Static dielectric constant tensor:
#      x y z
#    x 2.972490 0.000000 0.000000 
#    y 0.000000 2.972490 0.000000 
#    z 0.000000 0.000000 3.243870 
# 
# 
# High freq. dielectric constant tensor:
#      x y z
#    x 1.601020 0.000000 0.000000 
#    y 0.000000 1.601020 0.000000 
#    z 0.000000 0.000000 1.620140 
# 
# From -- ./inp_files/7579.got.cif
#   From: 2010.03.12/outbox.cif.g09.slc.cpg/sg129_4_cif.got.tgz:7579.got - 2010.04.06 17:19:44.
