data_PCOD8315462
_publ_section_title
;
Structure prediction by ZEFSAII (Michael W. Deem and Ramdas Pophale) SiO2 
 PCOD8315462
Probable space group: P 4/N C C
;
_chemical_formula_sum "Si O2"
_cell_formula_units_Z 112
_cell_length_a 15.198963
_cell_length_b 15.198963
_cell_length_c 29.759049
_cell_angle_alpha 90.000000
_cell_angle_beta 90.000000
_cell_angle_gamma 90.000000
_cell_volume 6874.592565
_symmetry_space_group_name_H-M "P 4/N C C"
_symmetry_group_IT_number 130
_symmetry_cell_setting 'tetragonal'
loop_
_space_group_symop_operation_xyz
x,y,z
1/2-y,x,z
1/2-x,1/2-y,z
y,1/2-x,z
1/2+x,-y,1/2-z
-x,1/2+y,1/2-z
1/2+y,1/2+x,1/2-z
-y,-x,1/2-z
-x,-y,-z
1/2+y,-x,-z
1/2+x,1/2+y,-z
-y,1/2+x,-z
1/2-x,y,1/2+z
x,1/2-y,1/2+z
1/2-y,1/2-x,1/2+z
y,x,1/2+z
loop_
_atom_site_type_symbol
_atom_site_label
_atom_site_fract_x
_atom_site_fract_y
_atom_site_fract_z
Si Si1 0.164950 0.131121 0.770912
Si Si2 0.964662 0.935753 0.649729
Si Si3 0.126682 0.907369 0.401285
Si Si4 0.149794 0.739299 0.345926
Si Si5 0.121892 0.527305 0.210440
Si Si6 0.662391 0.133869 0.495519
Si Si7 0.171345 0.580374 0.410996
O O1 0.270289 0.128689 0.769706
O O2 0.118596 0.093669 0.815229
O O3 0.140677 0.071395 0.727789
O O4 0.046621 0.983970 0.673258
O O5 0.997062 0.863298 0.615267
O O6 0.915534 0.006860 0.619925
O O7 0.115384 0.832110 0.363963
O O8 0.088905 0.876378 0.450022
O O9 0.225489 0.931198 0.412178
O O10 0.250000 0.750000 0.326435
O O11 0.079407 0.707149 0.308636
O O12 0.149375 0.672756 0.387503
O O13 0.089259 0.589259 0.250000
O O14 0.630353 0.232482 0.504678
O O15 0.630284 0.078546 0.538909
#
# Coordination Sequence:
#
# PCOD8315462 Si02
#       7
#    16  16  16  16  16  16  16
#     4  10  21  37  54  68  91 131 173 206 244 298
#     4  10  20  33  48  72 101 125 158 210 250 288
#     4  10  18  28  51  75  94 134 165 192 251 298
#     4   9  17  31  49  74 101 128 159 197 254 302
#     4   9  20  35  50  71 100 126 161 211 252 298
#     4   9  15  27  47  72  99 130 165 192 233 298
#     4   9  17  31  47  69 104 129 156 202 236 292
#
# _framework density 16.291875000000001
#
# number of rings (size 3 to 8) (size 9 to 14) (size 15 to 20)
#    0.000    2.571    1.429    0.857    2.000    2.000 
#    0.000    0.000    0.000    0.000    0.000    0.000 
#    0.000    0.000    0.000    0.000    0.000    0.000 
#
# Total GULP energy -1387714.725462 kJ/mol
# GULP energy per Si atom -12390.310049 kJ/mol
# Density = 1.625479 g / cm^3
# Si number density = 16.291875 Si / 1000 Ang^3
#
#
#
# Elastic Constant Matrix: (Units=GPa)
#
#
# Indices 1 2 3 4 5 6 
#
# 1 62.9951 34.2687 38.0451 0.0000 0.0000 0.0000
# 2 34.2687 62.9951 38.0451 0.0000 0.0000 0.0000
# 3 38.0451 38.0451 101.6793 0.0000 0.0000 0.0000
# 4 0.0000 0.0000 0.0000 22.0438 0.0000 0.0000
# 5 0.0000 0.0000 0.0000 0.0000 22.0438 0.0000
# 6 0.0000 0.0000 0.0000 0.0000 0.0000 18.2467
#
#
#
# Elastic Compliance Matrix: (Units=1/GPa)
#
#
# Indices 1 2 3 4 5 6 
#
# 1 0.024674 -0.010137 -0.005439 0.000000 0.000000 0.000000
# 2 -0.010137 0.024674 -0.005439 0.000000 0.000000 0.000000
# 3 -0.005439 -0.005439 0.013905 0.000000 0.000000 0.000000
# 4 0.000000 0.000000 0.000000 0.045364 0.000000 0.000000
# 5 0.000000 0.000000 0.000000 0.000000 0.045364 0.000000
# 6 0.000000 0.000000 0.000000 0.000000 0.000000 0.054804
#
#
# Mechanical properties :
#
#
# Convention : Reuss Voigt Hill
#
# Bulk Modulus (GPa) = 47.12180 49.82081 48.47130
# Shear Modulus (GPa) = 19.38809 20.28756 19.83783
#
# Velocity S-wave (km/s) = 3.45345 3.53265 3.49327
# Velocity P-wave (km/s) = 6.69985 6.87648 6.78874
#
# Compressibility (1/GPa) = 0.02122160
#
# Stress axis : x y z
#
# Youngs Moduli (GPa) = 40.52889 40.52889 71.91623
#
# Poissons Ratio (x) = 0.41086 0.39115
# Poissons Ratio (y) = 0.41086 0.39115
# Poissons Ratio (z) = 0.22044 0.22044
#
# Static dielectric constant tensor:
#      x y z
#    x 3.088650 0.000000 0.000000 
#    y 0.000000 3.088650 0.000000 
#    z 0.000000 0.000000 3.335030 
# 
# 
# High freq. dielectric constant tensor:
#      x y z
#    x 1.614610 0.000000 0.000000 
#    y 0.000000 1.614610 0.000000 
#    z 0.000000 0.000000 1.636040 
# 
# From -- ./inp_files/4968.got.cif
#   From: 2010.03.12/outbox.cif.g09.slc.cpg/sg130_3_cif.got.tgz:4968.got - 2010.04.06 17:30:23.
