data_PCOD8315422
_publ_section_title
;
Structure prediction by ZEFSAII (Michael W. Deem and Ramdas Pophale) SiO2 
 PCOD8315422
Probable space group: P 4/N M M
;
_chemical_formula_sum "Si O2"
_cell_formula_units_Z 64
_cell_length_a 18.724461
_cell_length_b 18.724461
_cell_length_c 10.070262
_cell_angle_alpha 90.000000
_cell_angle_beta 90.000000
_cell_angle_gamma 90.000000
_cell_volume 3530.688637
_symmetry_space_group_name_H-M "P 4/N M M"
_symmetry_group_IT_number 129
_symmetry_cell_setting 'tetragonal'
loop_
_space_group_symop_operation_xyz
x,y,z
1/2-y,x,z
1/2-x,1/2-y,z
y,1/2-x,z
1/2+x,-y,-z
-x,1/2+y,-z
1/2+y,1/2+x,-z
-y,-x,-z
-x,-y,-z
1/2+y,-x,-z
1/2+x,1/2+y,-z
-y,1/2+x,-z
1/2-x,y,z
x,1/2-y,z
1/2-y,1/2-x,z
y,x,z
loop_
_atom_site_type_symbol
_atom_site_label
_atom_site_fract_x
_atom_site_fract_y
_atom_site_fract_z
Si Si1 0.667101 0.096614 0.380230
Si Si2 0.601718 0.167540 0.129355
Si Si3 0.055289 0.169904 0.190192
Si Si4 0.831545 0.946296 0.500176
O O1 0.650029 0.150029 0.500000
O O2 0.750000 0.102034 0.347206
O O3 0.624070 0.117719 0.250277
O O4 0.644909 0.016322 0.419807
O O5 0.619556 0.250000 0.162395
O O6 0.516930 0.157584 0.106436
O O7 0.644312 0.144312 0.000000
O O8 0.084689 0.250000 0.167217
O O9 0.115346 0.115346 0.138913
O O10 0.036998 0.158207 0.344620
O O11 0.750000 0.925238 0.468780
O O12 0.880677 0.880677 0.453731
#
# Coordination Sequence:
#
# PCOD8315422 Si02
#       4
#    16  16  16  16
#     4  11  21  34  53  78 105 138 180 221 264 315
#     4  11  23  38  54  77 109 144 181 223 268 316
#     4   9  18  34  55  80 110 140 175 220 266 318
#     4   9  18  33  54  81 110 140 176 219 267 319
#
# _framework density 18.126774999999999
#
# number of rings (size 3 to 8) (size 9 to 14) (size 15 to 20)
#    0.000    2.000    2.500    1.500    0.000    5.500 
#    0.000    2.500    0.000    0.000    0.000    0.000 
#    0.000    8.000    0.000    0.000    0.000    0.000 
#
# Total GULP energy -793751.286503 kJ/mol
# GULP energy per Si atom -12402.363852 kJ/mol
# Density = 1.808552 g / cm^3
# Si number density = 18.126775 Si / 1000 Ang^3
#
#
#
# Elastic Constant Matrix: (Units=GPa)
#
#
# Indices 1 2 3 4 5 6 
#
# 1 152.5330 9.0027 14.8416 0.0000 0.0000 0.0000
# 2 9.0027 152.5330 14.8416 0.0000 0.0000 0.0000
# 3 14.8416 14.8416 42.3831 0.0000 0.0000 0.0000
# 4 0.0000 0.0000 0.0000 25.5544 0.0000 0.0000
# 5 0.0000 0.0000 0.0000 0.0000 25.5544 0.0000
# 6 0.0000 0.0000 0.0000 0.0000 0.0000 39.2147
#
#
#
# Elastic Compliance Matrix: (Units=1/GPa)
#
#
# Indices 1 2 3 4 5 6 
#
# 1 0.006792 -0.000175 -0.002317 0.000000 0.000000 0.000000
# 2 -0.000175 0.006792 -0.002317 0.000000 0.000000 0.000000
# 3 -0.002317 -0.002317 0.025217 0.000000 0.000000 0.000000
# 4 0.000000 0.000000 0.000000 0.039132 0.000000 0.000000
# 5 0.000000 0.000000 0.000000 0.000000 0.039132 0.000000
# 6 0.000000 0.000000 0.000000 0.000000 0.000000 0.025501
#
#
# Mechanical properties :
#
#
# Convention : Reuss Voigt Hill
#
# Bulk Modulus (GPa) = 34.26764 47.20232 40.73498
# Shear Modulus (GPa) = 30.88111 38.64890 34.76501
#
# Velocity S-wave (km/s) = 4.13197 4.62252 4.38411
# Velocity P-wave (km/s) = 6.45830 7.38830 6.93890
#
# Compressibility (1/GPa) = 0.02918205
#
# Stress axis : x y z
#
# Youngs Moduli (GPa) = 147.23747 147.23747 39.65587
#
# Poissons Ratio (x) = 0.02583 0.09188
# Poissons Ratio (y) = 0.02583 0.09188
# Poissons Ratio (z) = 0.34113 0.34113
#
# Static dielectric constant tensor:
#      x y z
#    x 3.422780 0.000000 0.000000 
#    y 0.000000 3.422780 0.000000 
#    z 0.000000 0.000000 3.315030 
# 
# 
# High freq. dielectric constant tensor:
#      x y z
#    x 1.709010 0.000000 0.000000 
#    y 0.000000 1.709010 0.000000 
#    z 0.000000 0.000000 1.672680 
# 
# From -- ./inp_files/2083.got.cif
#   From: 2010.03.12/outbox.cif.g09.slc.cpg/sg129_2_cif.got.tgz:2083.got - 2010.04.06 17:19:44.
