data_PCOD8315840
_publ_section_title
;
Structure prediction by ZEFSAII (Michael W. Deem and Ramdas Pophale) SiO2 
 PCOD8315840
Probable space group: P 42/M M C
;
_chemical_formula_sum "Si O2"
_cell_formula_units_Z 104
_cell_length_a 26.485697
_cell_length_b 26.485697
_cell_length_c 8.909843
_cell_angle_alpha 90.000000
_cell_angle_beta 90.000000
_cell_angle_gamma 90.000000
_cell_volume 6250.184883
_symmetry_space_group_name_H-M "P 42/M M C"
_symmetry_group_IT_number 131
_symmetry_cell_setting 'tetragonal'
loop_
_space_group_symop_operation_xyz
x,y,z
-x,-y,z
-y,x,1/2+z
y,-x,1/2+z
-x,y,-z
x,-y,-z
y,x,1/2-z
-y,-x,1/2-z
-x,-y,-z
x,y,-z
y,-x,1/2-z
-y,x,1/2-z
x,-y,z
-x,y,z
-y,-x,1/2+z
y,x,1/2+z
loop_
_atom_site_type_symbol
_atom_site_label
_atom_site_fract_x
_atom_site_fract_y
_atom_site_fract_z
Si Si1 0.871619 0.577723 0.826408
Si Si2 0.056858 0.130140 0.323875
Si Si3 0.862244 0.787834 0.677363
Si Si4 0.338950 0.265672 0.175466
Si Si5 0.161129 0.687673 0.824157
Si Si6 0.942260 0.500000 0.676960
Si Si7 0.554790 0.229833 0.170578
O O1 0.871853 0.637590 0.793706
O O2 0.916502 0.551001 0.737183
O O3 0.818037 0.555138 0.778693
O O4 0.879537 0.565700 0.000000
O O5 0.080398 0.080398 0.250000
O O6 0.058067 0.121466 0.500000
O O7 0.088521 0.179723 0.278893
O O8 0.000000 0.137554 0.264362
O O9 0.812650 0.812650 0.750000
O O10 0.854607 0.783727 0.500000
O O11 0.870187 0.732967 0.749463
O O12 0.315197 0.315197 0.250000
O O13 0.315276 0.215697 0.247314
O O14 0.399322 0.267869 0.208426
O O15 0.326577 0.265485 0.000000
O O16 0.169270 0.696996 0.000000
O O17 0.937426 0.500000 0.500000
O O18 0.000000 0.500000 0.730665
O O19 0.500000 0.257047 0.190238
O O20 0.561587 0.210135 0.000000
#
# Coordination Sequence:
#
# PCOD8315840 Si02
#       7
#    16  16  16  16  16   8  16
#     4  10  20  33  51  73  95 121 156 200 246 288
#     4   9  19  35  53  74  98 123 153 189 230 278
#     4  10  19  32  51  72  97 129 162 195 233 280
#     4  10  19  30  45  68  99 131 162 196 239 285
#     4  10  20  33  49  71  98 126 159 197 238 286
#     4  11  23  37  53  71  93 123 159 201 246 291
#     4   9  17  30  49  70  93 125 162 200 239 286
#
# _framework density 16.639506999999998
#
# number of rings (size 3 to 8) (size 9 to 14) (size 15 to 20)
#    0.000    2.231    0.769    2.538    0.000    4.154 
#    0.000    1.538    0.000    2.769    0.000    0.000 
#    0.000    0.308    0.000    3.846    0.000    0.000 
#
# Total GULP energy -1289582.762710 kJ/mol
# GULP energy per Si atom -12399.834257 kJ/mol
# Density = 1.660163 g / cm^3
# Si number density = 16.639507 Si / 1000 Ang^3
#
#
#
# Elastic Constant Matrix: (Units=GPa)
#
#
# Indices 1 2 3 4 5 6 
#
# 1 124.1521 60.7548 48.9162 0.0000 0.0000 0.0000
# 2 60.7548 124.1521 48.9162 0.0000 0.0000 0.0000
# 3 48.9162 48.9162 80.9625 0.0000 0.0000 0.0000
# 4 0.0000 0.0000 0.0000 24.8028 0.0000 0.0000
# 5 0.0000 0.0000 0.0000 0.0000 24.8028 0.0000
# 6 0.0000 0.0000 0.0000 0.0000 0.0000 21.3226
#
#
#
# Elastic Compliance Matrix: (Units=1/GPa)
#
#
# Indices 1 2 3 4 5 6 
#
# 1 0.011861 -0.003912 -0.004803 0.000000 0.000000 0.000000
# 2 -0.003912 0.011861 -0.004803 0.000000 0.000000 0.000000
# 3 -0.004803 -0.004803 0.018155 0.000000 0.000000 0.000000
# 4 0.000000 0.000000 0.000000 0.040318 0.000000 0.000000
# 5 0.000000 0.000000 0.000000 0.000000 0.040318 0.000000
# 6 0.000000 0.000000 0.000000 0.000000 0.000000 0.046899
#
#
# Mechanical properties :
#
#
# Convention : Reuss Voigt Hill
#
# Bulk Modulus (GPa) = 67.37535 71.82681 69.60108
# Shear Modulus (GPa) = 24.82683 25.56430 25.19556
#
# Velocity S-wave (km/s) = 3.86689 3.92390 3.89550
# Velocity P-wave (km/s) = 7.77921 7.98683 7.88370
#
# Compressibility (1/GPa) = 0.01484222
#
# Stress axis : x y z
#
# Youngs Moduli (GPa) = 84.30718 84.30718 55.08138
#
# Poissons Ratio (x) = 0.32982 0.26455
# Poissons Ratio (y) = 0.32982 0.26455
# Poissons Ratio (z) = 0.40491 0.40491
#
# Static dielectric constant tensor:
#      x y z
#    x 3.169730 0.000000 0.000000 
#    y 0.000000 3.169730 0.000000 
#    z 0.000000 0.000000 3.229320 
# 
# 
# High freq. dielectric constant tensor:
#      x y z
#    x 1.628270 0.000000 0.000000 
#    y 0.000000 1.628270 0.000000 
#    z 0.000000 0.000000 1.655830 
# 
# From -- ./inp_files/2568.got.cif
#   From: 2010.03.12/outbox.cif.g09.slc.cpg/sg131_2_cif.got.tgz:2568.got - 2010.04.06 17:36:35.
