data_PCOD8315707
_publ_section_title
;
Structure prediction by ZEFSAII (Michael W. Deem and Ramdas Pophale) SiO2 
 PCOD8315707
Probable space group: P 42/M M C
;
_chemical_formula_sum "Si O2"
_cell_formula_units_Z 72
_cell_length_a 14.237785
_cell_length_b 14.237785
_cell_length_c 26.050455
_cell_angle_alpha 90.000000
_cell_angle_beta 90.000000
_cell_angle_gamma 90.000000
_cell_volume 5280.805526
_symmetry_space_group_name_H-M "P 42/M M C"
_symmetry_group_IT_number 131
_symmetry_cell_setting 'tetragonal'
loop_
_space_group_symop_operation_xyz
x,y,z
-x,-y,z
-y,x,1/2+z
y,-x,1/2+z
-x,y,-z
x,-y,-z
y,x,1/2-z
-y,-x,1/2-z
-x,-y,-z
x,y,-z
y,-x,1/2-z
-y,x,1/2-z
x,-y,z
-x,y,z
-y,-x,1/2+z
y,x,1/2+z
loop_
_atom_site_type_symbol
_atom_site_label
_atom_site_fract_x
_atom_site_fract_y
_atom_site_fract_z
Si Si1 0.203161 0.888422 0.103467
Si Si2 0.601760 0.888817 0.858033
Si Si3 0.893971 0.111571 0.000000
Si Si4 0.888822 0.796387 0.798540
Si Si5 0.397235 0.111500 0.742701
O O1 0.312997 0.857821 0.104914
O O2 0.149388 0.838587 0.149243
O O3 0.190701 0.000000 0.109757
O O4 0.160425 0.851465 0.050129
O O5 0.500000 0.851451 0.878417
O O6 0.620156 0.850293 0.800512
O O7 0.598429 0.000000 0.855569
O O8 0.000000 0.151450 0.000000
O O9 0.895467 0.000000 0.000000
O O10 0.856169 0.856169 0.750000
O O11 0.852897 0.688048 0.793096
O O12 0.000000 0.801131 0.800357
O O13 0.500000 0.146812 0.722680
O O14 0.396690 0.000000 0.744126
#
# Coordination Sequence:
#
# PCOD8315707 Si02
#       5
#    16  16   8  16  16
#     4  10  18  28  39  54  77 106 137 166 194 229
#     4   8  13  23  38  53  72  99 128 161 199 232
#     4   9  18  30  39  47  70 114 151 164 183 229
#     4  11  19  25  36  58  82 102 127 160 195 230
#     4   8  14  25  38  52  74 102 127 154 193 237
#
# _framework density 13.634283
#
# number of rings (size 3 to 8) (size 9 to 14) (size 15 to 20)
#    0.000    2.778    2.222    2.667    0.000    2.444 
#    0.000    0.556    0.000    3.333    0.000    0.778 
#    0.000    7.556    0.000    0.000    0.000    2.222 
#
# Total GULP energy -892027.365658 kJ/mol
# GULP energy per Si atom -12389.268967 kJ/mol
# Density = 1.360325 g / cm^3
# Si number density = 13.634283 Si / 1000 Ang^3
#
#
#
# Elastic Constant Matrix: (Units=GPa)
#
#
# Indices 1 2 3 4 5 6 
#
# 1 77.7705 26.4713 44.8217 0.0000 0.0000 0.0000
# 2 26.4713 77.7705 44.8217 0.0000 0.0000 0.0000
# 3 44.8217 44.8217 105.4568 0.0000 0.0000 0.0000
# 4 0.0000 0.0000 0.0000 12.5911 0.0000 0.0000
# 5 0.0000 0.0000 0.0000 0.0000 12.5911 0.0000
# 6 0.0000 0.0000 0.0000 0.0000 0.0000 3.3589
#
#
#
# Elastic Compliance Matrix: (Units=1/GPa)
#
#
# Indices 1 2 3 4 5 6 
#
# 1 0.017306 -0.002187 -0.006426 0.000000 0.000000 0.000000
# 2 -0.002187 0.017306 -0.006426 0.000000 0.000000 0.000000
# 3 -0.006426 -0.006426 0.014945 0.000000 0.000000 0.000000
# 4 0.000000 0.000000 0.000000 0.079421 0.000000 0.000000
# 5 0.000000 0.000000 0.000000 0.000000 0.079421 0.000000
# 6 0.000000 0.000000 0.000000 0.000000 0.000000 0.297715
#
#
# Mechanical properties :
#
#
# Convention : Reuss Voigt Hill
#
# Bulk Modulus (GPa) = 51.33663 54.80300 53.06982
# Shear Modulus (GPa) = 9.21341 15.36708 12.29025
#
# Velocity S-wave (km/s) = 2.60235 3.36086 3.00563
# Velocity P-wave (km/s) = 6.83842 7.43927 7.14516
#
# Compressibility (1/GPa) = 0.01947927
#
# Stress axis : x y z
#
# Youngs Moduli (GPa) = 57.78238 57.78238 66.91208
#
# Poissons Ratio (x) = 0.12638 0.42998
# Poissons Ratio (y) = 0.12638 0.42998
# Poissons Ratio (z) = 0.37131 0.37131
#
# Static dielectric constant tensor:
#      x y z
#    x 2.820560 0.000000 0.000000 
#    y 0.000000 2.820560 0.000000 
#    z 0.000000 0.000000 2.753220 
# 
# 
# High freq. dielectric constant tensor:
#      x y z
#    x 1.496310 0.000000 0.000000 
#    y 0.000000 1.496310 0.000000 
#    z 0.000000 0.000000 1.502910 
# 
# From -- ./inp_files/10921.got.cif
#   From: 2010.03.12/outbox.cif.g09.slc.cpg/sg131_6_cif.got.tgz:10921.got - 2010.04.06 17:36:35.
