data_PCOD8315574
_publ_section_title
;
Structure prediction by ZEFSAII (Michael W. Deem and Ramdas Pophale) SiO2 
 PCOD8315574
Probable space group: P 4/N C C
;
_chemical_formula_sum "Si O2"
_cell_formula_units_Z 112
_cell_length_a 14.520491
_cell_length_b 14.520491
_cell_length_c 27.701818
_cell_angle_alpha 90.000000
_cell_angle_beta 90.000000
_cell_angle_gamma 90.000000
_cell_volume 5840.780367
_symmetry_space_group_name_H-M "P 4/N C C"
_symmetry_group_IT_number 130
_symmetry_cell_setting 'tetragonal'
loop_
_space_group_symop_operation_xyz
x,y,z
1/2-y,x,z
1/2-x,1/2-y,z
y,1/2-x,z
1/2+x,-y,1/2-z
-x,1/2+y,1/2-z
1/2+y,1/2+x,1/2-z
-y,-x,1/2-z
-x,-y,-z
1/2+y,-x,-z
1/2+x,1/2+y,-z
-y,1/2+x,-z
1/2-x,y,1/2+z
x,1/2-y,1/2+z
1/2-y,1/2-x,1/2+z
y,x,1/2+z
loop_
_atom_site_type_symbol
_atom_site_label
_atom_site_fract_x
_atom_site_fract_y
_atom_site_fract_z
Si Si1 0.176583 0.826819 0.692780
Si Si2 0.372617 0.337319 0.265496
Si Si3 0.295057 0.105237 0.437689
Si Si4 0.776724 0.600696 0.453840
Si Si5 0.867416 0.995819 0.150030
Si Si6 0.257591 0.495754 0.139939
Si Si7 0.920058 0.561319 0.824839
O O1 0.250000 0.750000 0.680918
O O2 0.161555 0.838446 0.750000
O O3 0.075843 0.801996 0.672050
O O4 0.211058 0.912860 0.661165
O O5 0.271399 0.376532 0.255208
O O6 0.401086 0.354960 0.320632
O O7 0.446262 0.392430 0.231956
O O8 0.363214 0.190685 0.428019
O O9 0.294691 0.064775 0.491936
O O10 0.331664 0.022609 0.404030
O O11 0.854999 0.676835 0.445543
O O12 0.784768 0.513433 0.416980
O O13 0.973860 0.026318 0.153786
O O14 0.177627 0.419277 0.148193
O O15 0.349905 0.483546 0.170150
#
# Coordination Sequence:
#
# PCOD8315574 Si02
#       7
#    16  16  16  16  16  16  16
#     4  10  24  44  61  79 115 168 211 239 278 354
#     4  11  22  35  56  87 118 151 190 252 317 359
#     4   9  19  37  61  90 120 153 193 246 314 367
#     4   9  17  32  62  95 120 149 184 243 317 365
#     4  11  22  38  57  82 121 157 201 242 287 365
#     4  11  20  36  62  86 118 148 198 251 307 351
#     4  11  22  35  54  86 118 153 193 247 301 356
#
# _framework density 19.175519999999999
#
# number of rings (size 3 to 8) (size 9 to 14) (size 15 to 20)
#    0.000    1.714    2.857    3.857    0.000    3.714 
#    2.571    0.714    6.286    0.000    0.000    0.000 
#    0.000    0.000    0.000    0.000    0.000    0.000 
#
# Total GULP energy -1387488.213167 kJ/mol
# GULP energy per Si atom -12388.287618 kJ/mol
# Density = 1.913188 g / cm^3
# Si number density = 19.175520 Si / 1000 Ang^3
#
#
#
# Elastic Constant Matrix: (Units=GPa)
#
#
# Indices 1 2 3 4 5 6 
#
# 1 67.6296 39.9872 49.2701 0.0000 0.0000 0.0000
# 2 39.9872 67.6299 49.2702 0.0000 0.0000 0.0000
# 3 49.2701 49.2702 152.4295 0.0000 0.0000 0.0000
# 4 0.0000 0.0000 0.0000 30.3000 0.0000 0.0000
# 5 0.0000 0.0000 0.0000 0.0000 30.2999 0.0000
# 6 0.0000 0.0000 0.0000 0.0000 0.0000 28.6487
#
#
#
# Elastic Compliance Matrix: (Units=1/GPa)
#
#
# Indices 1 2 3 4 5 6 
#
# 1 0.024687 -0.011489 -0.004266 0.000000 0.000000 0.000000
# 2 -0.011489 0.024687 -0.004266 0.000000 0.000000 0.000000
# 3 -0.004266 -0.004266 0.009318 0.000000 0.000000 0.000000
# 4 0.000000 0.000000 0.000000 0.033003 0.000000 0.000000
# 5 0.000000 0.000000 0.000000 0.000000 0.033003 0.000000
# 6 0.000000 0.000000 0.000000 0.000000 0.000000 0.034906
#
#
# Mechanical properties :
#
#
# Convention : Reuss Voigt Hill
#
# Bulk Modulus (GPa) = 53.61723 62.74934 58.18328
# Shear Modulus (GPa) = 24.28783 27.79384 26.04084
#
# Velocity S-wave (km/s) = 3.56280 3.81129 3.68914
# Velocity P-wave (km/s) = 6.70423 7.22237 6.96812
#
# Compressibility (1/GPa) = 0.01865072
#
# Stress axis : x y z
#
# Youngs Moduli (GPa) = 40.50655 40.50671 107.31484
#
# Poissons Ratio (x) = 0.46537 0.45783
# Poissons Ratio (y) = 0.46537 0.45783
# Poissons Ratio (z) = 0.17281 0.17281
#
# Static dielectric constant tensor:
#      x y z
#    x 3.480780 0.000000 0.000000 
#    y 0.000000 3.480780 0.000000 
#    z 0.000000 0.000000 3.559970 
# 
# 
# High freq. dielectric constant tensor:
#      x y z
#    x 1.732070 0.000000 0.000000 
#    y 0.000000 1.732070 0.000000 
#    z 0.000000 0.000000 1.750560 
# 
# From -- ./inp_files/4630.got.cif
#   From: 2010.03.12/outbox.cif.g09.slc.cpg/sg130_3_cif.got.tgz:4630.got - 2010.04.06 17:30:23.
