data_PCOD8315665
_publ_section_title
;
Structure prediction by ZEFSAII (Michael W. Deem and Ramdas Pophale) SiO2 
 PCOD8315665
Probable space group: P 42/M M C
;
_chemical_formula_sum "Si O2"
_cell_formula_units_Z 112
_cell_length_a 18.426145
_cell_length_b 18.426145
_cell_length_c 20.038001
_cell_angle_alpha 90.000000
_cell_angle_beta 90.000000
_cell_angle_gamma 90.000000
_cell_volume 6803.358598
_symmetry_space_group_name_H-M "P 42/M M C"
_symmetry_group_IT_number 131
_symmetry_cell_setting 'tetragonal'
loop_
_space_group_symop_operation_xyz
x,y,z
-x,-y,z
-y,x,1/2+z
y,-x,1/2+z
-x,y,-z
x,-y,-z
y,x,1/2-z
-y,-x,1/2-z
-x,-y,-z
x,y,-z
y,-x,1/2-z
-y,x,1/2-z
x,-y,z
-x,y,z
-y,-x,1/2+z
y,x,1/2+z
loop_
_atom_site_type_symbol
_atom_site_label
_atom_site_fract_x
_atom_site_fract_y
_atom_site_fract_z
Si Si1 0.207650 0.275638 0.314391
Si Si2 0.280496 0.580847 0.304661
Si Si3 0.916814 0.133474 0.076646
Si Si4 0.172107 0.268834 0.923078
Si Si5 0.340607 0.579986 0.159843
Si Si6 0.082685 0.827972 0.303819
Si Si7 0.202744 0.422354 0.921777
O O1 0.254410 0.254410 0.250000
O O2 0.216333 0.362405 0.324102
O O3 0.239075 0.238458 0.380200
O O4 0.124374 0.249499 0.304762
O O5 0.256692 0.500000 0.327154
O O6 0.291387 0.584844 0.225734
O O7 0.356880 0.599385 0.341253
O O8 0.898625 0.218790 0.088180
O O9 0.866446 0.084594 0.123841
O O10 0.000000 0.120680 0.095975
O O11 0.901847 0.110839 0.000000
O O12 0.154292 0.352168 0.900674
O O13 0.197294 0.266636 0.000000
O O14 0.378182 0.500000 0.156091
O O15 0.285994 0.591640 0.098596
O O16 0.119109 0.880892 0.250000
O O17 0.000000 0.812694 0.283455
O O18 0.174650 0.500000 0.890908
O O19 0.201137 0.429861 0.000000
#
# Coordination Sequence:
#
# PCOD8315665 Si02
#       7
#    16  16  16  16  16  16  16
#     4  10  17  31  48  64  87 115 150 182 214 256
#     4  10  17  26  43  64  86 114 147 184 220 254
#     4   9  18  31  47  68  93 120 146 174 214 263
#     4   9  16  27  44  63  85 115 150 185 216 254
#     4   9  16  26  39  60  89 114 142 180 224 263
#     4  10  21  33  49  71  94 119 144 175 215 262
#     4   9  15  23  39  60  82 112 148 184 219 255
#
# _framework density 16.462457000000001
#
# number of rings (size 3 to 8) (size 9 to 14) (size 15 to 20)
#    0.000    2.571    2.857    0.429    0.000    1.571 
#    0.000    2.143    0.000    2.571    0.000    5.000 
#    0.000   10.286    0.000    7.571    0.000    0.000 
#
# Total GULP energy -1387642.497113 kJ/mol
# GULP energy per Si atom -12389.665153 kJ/mol
# Density = 1.642499 g / cm^3
# Si number density = 16.462457 Si / 1000 Ang^3
#
#
#
# Elastic Constant Matrix: (Units=GPa)
#
#
# Indices 1 2 3 4 5 6 
#
# 1 115.6988 22.5518 11.0079 0.0000 0.0000 0.0000
# 2 22.5518 115.6976 11.0069 0.0000 0.0000 0.0000
# 3 11.0079 11.0069 28.4558 0.0000 0.0000 0.0000
# 4 0.0000 0.0000 0.0000 13.9449 0.0000 0.0000
# 5 0.0000 0.0000 0.0000 0.0000 13.9448 0.0000
# 6 0.0000 0.0000 0.0000 0.0000 0.0000 16.0095
#
#
#
# Elastic Compliance Matrix: (Units=1/GPa)
#
#
# Indices 1 2 3 4 5 6 
#
# 1 0.009222 -0.001514 -0.002982 0.000000 0.000000 0.000000
# 2 -0.001514 0.009222 -0.002981 0.000000 0.000000 0.000000
# 3 -0.002982 -0.002981 0.037449 0.000000 0.000000 0.000000
# 4 0.000000 0.000000 0.000000 0.071711 0.000000 0.000000
# 5 0.000000 0.000000 0.000000 0.000000 0.071711 0.000000
# 6 0.000000 0.000000 0.000000 0.000000 0.000000 0.062463
#
#
# Mechanical properties :
#
#
# Convention : Reuss Voigt Hill
#
# Bulk Modulus (GPa) = 24.42692 38.77616 31.60154
# Shear Modulus (GPa) = 17.21894 23.13223 20.17559
#
# Velocity S-wave (km/s) = 3.23763 3.75260 3.50459
# Velocity P-wave (km/s) = 5.37089 6.51010 5.96774
#
# Compressibility (1/GPa) = 0.04093845
#
# Stress axis : x y z
#
# Youngs Moduli (GPa) = 108.43732 108.43699 26.70299
#
# Poissons Ratio (x) = 0.16416 0.07962
# Poissons Ratio (y) = 0.16416 0.07961
# Poissons Ratio (z) = 0.32335 0.32330
#
# Static dielectric constant tensor:
#      x y z
#    x 3.195280 0.000000 0.000000 
#    y 0.000000 3.195280 0.000000 
#    z 0.000000 0.000000 3.155520 
# 
# 
# High freq. dielectric constant tensor:
#      x y z
#    x 1.614380 0.000000 0.000000 
#    y 0.000000 1.614380 0.000000 
#    z 0.000000 0.000000 1.631290 
# 
# From -- ./inp_files/10078.got.cif
#   From: 2010.03.12/outbox.cif.g09.slc.cpg/sg131_6_cif.got.tgz:10078.got - 2010.04.06 17:36:35.
