data_PCOD8315947
_publ_section_title
;
Structure prediction by ZEFSAII (Michael W. Deem and Ramdas Pophale) SiO2 
 PCOD8315947
Probable space group: P 42/M M C
;
_chemical_formula_sum "Si O2"
_cell_formula_units_Z 64
_cell_length_a 14.868143
_cell_length_b 14.868143
_cell_length_c 14.891513
_cell_angle_alpha 90.000000
_cell_angle_beta 90.000000
_cell_angle_gamma 90.000000
_cell_volume 3291.942826
_symmetry_space_group_name_H-M "P 42/M M C"
_symmetry_group_IT_number 131
_symmetry_cell_setting 'tetragonal'
loop_
_space_group_symop_operation_xyz
x,y,z
-x,-y,z
-y,x,1/2+z
y,-x,1/2+z
-x,y,-z
x,-y,-z
y,x,1/2-z
-y,-x,1/2-z
-x,-y,-z
x,y,-z
y,-x,1/2-z
-y,x,1/2-z
x,-y,z
-x,y,z
-y,-x,1/2+z
y,x,1/2+z
loop_
_atom_site_type_symbol
_atom_site_label
_atom_site_fract_x
_atom_site_fract_y
_atom_site_fract_z
Si Si1 0.193908 0.599919 0.100364
Si Si2 0.099384 0.602936 0.720153
Si Si3 0.267612 0.786995 0.103329
Si Si4 0.900908 0.100738 0.106266
O O1 0.238555 0.500000 0.110493
O O2 0.115431 0.611950 0.173080
O O3 0.267485 0.678707 0.114759
O O4 0.152037 0.610688 0.000000
O O5 0.105077 0.500000 0.689974
O O6 0.175194 0.652938 0.663568
O O7 0.000000 0.641657 0.699362
O O8 0.173324 0.828145 0.140210
O O9 0.283854 0.815188 0.000000
O O10 0.000000 0.127309 0.144351
O O11 0.875440 0.000000 0.139194
O O12 0.904753 0.102519 0.000000
#
# Coordination Sequence:
#
# PCOD8315947 Si02
#       4
#    16  16  16  16
#     4   9  19  36  56  76  99 133 180 230 274 311
#     4  10  21  35  52  78 111 144 177 213 256 313
#     4  10  19  32  53  78 106 141 175 212 263 319
#     4   8  14  25  42  67 100 136 172 206 240 287
#
# _framework density 19.441405
#
# number of rings (size 3 to 8) (size 9 to 14) (size 15 to 20)
#    0.000    2.750    0.000    2.250    0.000    3.500 
#    0.000    6.250    0.000    0.750    0.000   10.500 
#    0.000    0.000    0.000    0.000    0.000    0.500 
#
# Total GULP energy -793111.357152 kJ/mol
# GULP energy per Si atom -12392.364955 kJ/mol
# Density = 1.939716 g / cm^3
# Si number density = 19.441405 Si / 1000 Ang^3
#
#
#
# Elastic Constant Matrix: (Units=GPa)
#
#
# Indices 1 2 3 4 5 6 
#
# 1 116.1622 61.0983 45.7342 0.0000 0.0000 0.0000
# 2 61.0983 116.1622 45.7342 0.0000 0.0000 0.0000
# 3 45.7342 45.7342 78.7767 0.0000 0.0000 0.0000
# 4 0.0000 0.0000 0.0000 16.5855 0.0000 0.0000
# 5 0.0000 0.0000 0.0000 0.0000 16.5855 0.0000
# 6 0.0000 0.0000 0.0000 0.0000 0.0000 21.6328
#
#
#
# Elastic Compliance Matrix: (Units=1/GPa)
#
#
# Indices 1 2 3 4 5 6 
#
# 1 0.013107 -0.005053 -0.004676 0.000000 0.000000 0.000000
# 2 -0.005053 0.013107 -0.004676 0.000000 0.000000 0.000000
# 3 -0.004676 -0.004676 0.018123 0.000000 0.000000 0.000000
# 4 0.000000 0.000000 0.000000 0.060294 0.000000 0.000000
# 5 0.000000 0.000000 0.000000 0.000000 0.060294 0.000000
# 6 0.000000 0.000000 0.000000 0.000000 0.000000 0.046226
#
#
# Mechanical properties :
#
#
# Convention : Reuss Voigt Hill
#
# Bulk Modulus (GPa) = 64.39920 68.47050 66.43485
# Shear Modulus (GPa) = 20.39669 21.52972 20.96321
#
# Velocity S-wave (km/s) = 3.24255 3.33140 3.28727
# Velocity P-wave (km/s) = 6.87136 7.07764 6.97526
#
# Compressibility (1/GPa) = 0.01552814
#
# Stress axis : x y z
#
# Youngs Moduli (GPa) = 76.29227 76.29227 55.17742
#
# Poissons Ratio (x) = 0.38552 0.25801
# Poissons Ratio (y) = 0.38552 0.25801
# Poissons Ratio (z) = 0.35674 0.35674
#
# Static dielectric constant tensor:
#      x y z
#    x 3.602650 0.000000 0.000000 
#    y 0.000000 3.602650 0.000000 
#    z 0.000000 0.000000 3.487470 
# 
# 
# High freq. dielectric constant tensor:
#      x y z
#    x 1.740170 0.000000 0.000000 
#    y 0.000000 1.740170 0.000000 
#    z 0.000000 0.000000 1.758220 
# 
# From -- ./inp_files/5430.got.cif
#   From: 2010.03.12/outbox.cif.g09.slc.cpg/sg131_3_cif.got.tgz:5430.got - 2010.04.06 17:36:35.
