data_PCOD8315693
_publ_section_title
;
Structure prediction by ZEFSAII (Michael W. Deem and Ramdas Pophale) SiO2 
 PCOD8315693
Probable space group: P 42/M M C
;
_chemical_formula_sum "Si O2"
_cell_formula_units_Z 96
_cell_length_a 26.047940
_cell_length_b 26.047940
_cell_length_c 9.067244
_cell_angle_alpha 90.000000
_cell_angle_beta 90.000000
_cell_angle_gamma 90.000000
_cell_volume 6152.081334
_symmetry_space_group_name_H-M "P 42/M M C"
_symmetry_group_IT_number 131
_symmetry_cell_setting 'tetragonal'
loop_
_space_group_symop_operation_xyz
x,y,z
-x,-y,z
-y,x,1/2+z
y,-x,1/2+z
-x,y,-z
x,-y,-z
y,x,1/2-z
-y,-x,1/2-z
-x,-y,-z
x,y,-z
y,-x,1/2-z
-y,x,1/2-z
x,-y,z
-x,y,z
-y,-x,1/2+z
y,x,1/2+z
loop_
_atom_site_type_symbol
_atom_site_label
_atom_site_fract_x
_atom_site_fract_y
_atom_site_fract_z
Si Si1 0.602403 0.919912 0.333785
Si Si2 0.767778 0.699656 0.331653
Si Si3 0.392704 0.201486 0.339517
Si Si4 0.854311 0.220324 0.675247
Si Si5 0.500000 0.917230 0.174062
Si Si6 0.282821 0.941252 0.329372
Si Si7 0.186685 0.500000 0.833492
O O1 0.597895 0.941800 0.500000
O O2 0.600462 0.859113 0.331618
O O3 0.553212 0.941489 0.241246
O O4 0.658462 0.936019 0.267749
O O5 0.716434 0.716434 0.250000
O O6 0.756205 0.705748 0.500000
O O7 0.778390 0.641154 0.293107
O O8 0.815611 0.734127 0.281650
O O9 0.369694 0.217210 0.500000
O O10 0.450217 0.223406 0.316721
O O11 0.832533 0.167468 0.750000
O O12 0.859298 0.211556 0.500000
O O13 0.908431 0.240012 0.740466
O O14 0.500000 0.856908 0.208671
O O15 0.500000 0.927468 0.000000
O O16 0.281958 0.923193 0.500000
O O17 0.265161 0.000000 0.312542
O O18 0.161563 0.500000 0.000000
#
# Coordination Sequence:
#
# PCOD8315693 Si02
#       7
#    16  16  16  16   8  16   8
#     4   9  17  30  45  60  83 115 148 186 231 275
#     4  10  19  28  41  62  86 112 143 178 220 264
#     4   9  15  26  43  59  80 109 144 183 221 263
#     4  10  20  33  50  70  94 121 150 181 218 264
#     4  10  18  26  41  61  80 107 150 196 233 267
#     4  10  20  34  52  72  93 119 151 186 227 274
#     4   8  16  28  40  57  79 110 142 178 227 270
#
# _framework density 15.604475000000001
#
# number of rings (size 3 to 8) (size 9 to 14) (size 15 to 20)
#    0.000    2.500    1.667    2.750    0.000    5.000 
#    0.000    0.417    0.000    2.500    0.000    0.000 
#    0.000    0.333    0.000    3.500    0.000    1.917 
#
# Total GULP energy -1189439.419475 kJ/mol
# GULP energy per Si atom -12389.993953 kJ/mol
# Density = 1.556896 g / cm^3
# Si number density = 15.604475 Si / 1000 Ang^3
#
#
#
# Elastic Constant Matrix: (Units=GPa)
#
#
# Indices 1 2 3 4 5 6 
#
# 1 66.3188 39.5915 32.3052 0.0000 0.0000 0.0000
# 2 39.5915 66.3202 32.3059 0.0000 0.0000 0.0000
# 3 32.3052 32.3059 65.2296 0.0000 0.0000 0.0000
# 4 0.0000 0.0000 0.0000 19.7798 0.0000 0.0000
# 5 0.0000 0.0000 0.0000 0.0000 19.7797 0.0000
# 6 0.0000 0.0000 0.0000 0.0000 0.0000 9.4986
#
#
#
# Elastic Compliance Matrix: (Units=1/GPa)
#
#
# Indices 1 2 3 4 5 6 
#
# 1 0.025472 -0.011942 -0.006701 0.000000 0.000000 0.000000
# 2 -0.011942 0.025472 -0.006701 0.000000 0.000000 0.000000
# 3 -0.006701 -0.006701 0.021968 0.000000 0.000000 0.000000
# 4 0.000000 0.000000 0.000000 0.050557 0.000000 0.000000
# 5 0.000000 0.000000 0.000000 0.000000 0.050557 0.000000
# 6 0.000000 0.000000 0.000000 0.000000 0.000000 0.105279
#
#
# Mechanical properties :
#
#
# Convention : Reuss Voigt Hill
#
# Bulk Modulus (GPa) = 44.99604 45.14154 45.06879
# Shear Modulus (GPa) = 14.81927 16.05601 15.43764
#
# Velocity S-wave (km/s) = 3.08503 3.21118 3.14874
# Velocity P-wave (km/s) = 6.44886 6.53761 6.49339
#
# Compressibility (1/GPa) = 0.02222418
#
# Stress axis : x y z
#
# Youngs Moduli (GPa) = 39.25883 39.25938 45.52154
#
# Poissons Ratio (x) = 0.46884 0.30502
# Poissons Ratio (y) = 0.46884 0.30503
# Poissons Ratio (z) = 0.26306 0.26307
#
# Static dielectric constant tensor:
#      x y z
#    x 2.989770 0.000000 0.000000 
#    y 0.000000 2.989760 0.000000 
#    z 0.000000 0.000000 2.957190 
# 
# 
# High freq. dielectric constant tensor:
#      x y z
#    x 1.570450 0.000000 0.000000 
#    y 0.000000 1.570450 0.000000 
#    z 0.000000 0.000000 1.599420 
# 
# From -- ./inp_files/2367.got.cif
#   From: 2010.03.12/outbox.cif.g09.slc.cpg/sg131_2_cif.got.tgz:2367.got - 2010.04.06 17:36:35.
