data_PCOD8315520
_publ_section_title
;
Structure prediction by ZEFSAII (Michael W. Deem and Ramdas Pophale) SiO2 
 PCOD8315520
Probable space group: P 4/N C C
;
_chemical_formula_sum "Si O2"
_cell_formula_units_Z 128
_cell_length_a 16.991625
_cell_length_b 16.991625
_cell_length_c 23.101830
_cell_angle_alpha 90.000000
_cell_angle_beta 90.000000
_cell_angle_gamma 90.000000
_cell_volume 6669.852244
_symmetry_space_group_name_H-M "P 4/N C C"
_symmetry_group_IT_number 130
_symmetry_cell_setting 'tetragonal'
loop_
_space_group_symop_operation_xyz
x,y,z
1/2-y,x,z
1/2-x,1/2-y,z
y,1/2-x,z
1/2+x,-y,1/2-z
-x,1/2+y,1/2-z
1/2+y,1/2+x,1/2-z
-y,-x,1/2-z
-x,-y,-z
1/2+y,-x,-z
1/2+x,1/2+y,-z
-y,1/2+x,-z
1/2-x,y,1/2+z
x,1/2-y,1/2+z
1/2-y,1/2-x,1/2+z
y,x,1/2+z
loop_
_atom_site_type_symbol
_atom_site_label
_atom_site_fract_x
_atom_site_fract_y
_atom_site_fract_z
Si Si1 0.995345 0.335132 0.803051
Si Si2 0.211870 0.866157 0.493970
Si Si3 0.063640 0.079682 0.945977
Si Si4 0.477382 0.599496 0.940101
Si Si5 0.828367 0.291108 0.183433
Si Si6 0.809792 0.445356 0.120208
Si Si7 0.448759 0.847766 0.321645
Si Si8 0.822929 0.643338 0.631973
O O1 0.982357 0.250938 0.833999
O O2 0.003805 0.333354 0.733728
O O3 0.922519 0.391065 0.817379
O O4 0.081395 0.364406 0.824011
O O5 0.290509 0.838902 0.526952
O O6 0.159021 0.910752 0.539915
O O7 0.235087 0.917575 0.437998
O O8 0.151786 0.111543 0.931943
O O9 0.005280 0.122472 0.900375
O O10 0.059115 0.987139 0.934305
O O11 0.048006 0.098841 0.013382
O O12 0.504040 0.633890 0.877519
O O13 0.750000 0.250000 0.157794
O O14 0.813075 0.313075 0.250000
O O15 0.851083 0.370507 0.149822
O O16 0.899222 0.231560 0.173384
O O17 0.858020 0.729743 0.640650
#
# Coordination Sequence:
#
# PCOD8315520 Si02
#       8
#    16  16  16  16  16  16  16  16
#     4  11  20  35  58  88 120 155 202 256 304 360
#     4  10  21  31  50  85 120 161 201 245 296 366
#     4  10  22  39  60  83 119 156 201 267 313 358
#     4  10  21  38  57  86 122 165 203 243 314 383
#     4  11  19  31  51  86 125 167 206 233 289 378
#     4  11  20  34  53  81 123 155 198 258 302 356
#     4  11  20  34  59  87 124 174 195 234 311 389
#     4  11  23  40  66  91 110 148 215 276 313 345
#
# _framework density 19.190829000000001
#
# number of rings (size 3 to 8) (size 9 to 14) (size 15 to 20)
#    0.000    1.375    5.000    2.250    1.750    0.000 
#    0.000    3.750    0.000    0.000    0.000    1.750 
#    0.000    0.000    0.000    0.000    0.000    0.000 
#
# Total GULP energy -1586115.050543 kJ/mol
# GULP energy per Si atom -12391.523832 kJ/mol
# Density = 1.914715 g / cm^3
# Si number density = 19.190829 Si / 1000 Ang^3
#
#
#
# Elastic Constant Matrix: (Units=GPa)
#
#
# Indices 1 2 3 4 5 6 
#
# 1 65.9806 21.8058 44.5139 0.0000 0.0000 0.0000
# 2 21.8058 65.9806 44.5139 0.0000 0.0000 0.0000
# 3 44.5139 44.5139 137.3856 0.0000 0.0000 0.0000
# 4 0.0000 0.0000 0.0000 28.0225 0.0000 0.0000
# 5 0.0000 0.0000 0.0000 0.0000 28.0225 0.0000
# 6 0.0000 0.0000 0.0000 0.0000 0.0000 22.8451
#
#
#
# Elastic Compliance Matrix: (Units=1/GPa)
#
#
# Indices 1 2 3 4 5 6 
#
# 1 0.019802 -0.002836 -0.005497 0.000000 0.000000 0.000000
# 2 -0.002836 0.019802 -0.005497 0.000000 0.000000 0.000000
# 3 -0.005497 -0.005497 0.010841 0.000000 0.000000 0.000000
# 4 0.000000 0.000000 0.000000 0.035686 0.000000 0.000000
# 5 0.000000 0.000000 0.000000 0.000000 0.035686 0.000000
# 6 0.000000 0.000000 0.000000 0.000000 0.000000 0.043773
#
#
# Mechanical properties :
#
#
# Convention : Reuss Voigt Hill
#
# Bulk Modulus (GPa) = 43.88906 54.55712 49.22309
# Shear Modulus (GPa) = 24.89501 26.34557 25.62029
#
# Velocity S-wave (km/s) = 3.60562 3.70918 3.65777
# Velocity P-wave (km/s) = 6.34456 6.84357 6.59879
#
# Compressibility (1/GPa) = 0.02278472
#
# Stress axis : x y z
#
# Youngs Moduli (GPa) = 50.50058 50.50058 92.24233
#
# Poissons Ratio (x) = 0.14320 0.50707
# Poissons Ratio (y) = 0.14320 0.50707
# Poissons Ratio (z) = 0.27761 0.27761
#
# Static dielectric constant tensor:
#      x y z
#    x 3.516040 0.000000 0.000000 
#    y 0.000000 3.516040 0.000000 
#    z 0.000000 0.000000 3.794440 
# 
# 
# High freq. dielectric constant tensor:
#      x y z
#    x 1.735220 0.000000 0.000000 
#    y 0.000000 1.735220 0.000000 
#    z 0.000000 0.000000 1.749700 
# 
# From -- ./inp_files/4411.got.cif
#   From: 2010.03.12/outbox.cif.g09.slc.cpg/sg130_3_cif.got.tgz:4411.got - 2010.04.06 17:30:23.
