data_PCOD8315112
_publ_section_title
;
Structure prediction by ZEFSAII (Michael W. Deem and Ramdas Pophale) SiO2 
 PCOD8315112
Probable space group: P 4/N M M
;
_chemical_formula_sum "Si O2"
_cell_formula_units_Z 96
_cell_length_a 17.665849
_cell_length_b 17.665849
_cell_length_c 18.098512
_cell_angle_alpha 90.000000
_cell_angle_beta 90.000000
_cell_angle_gamma 90.000000
_cell_volume 5648.223820
_symmetry_space_group_name_H-M "P 4/N M M"
_symmetry_group_IT_number 129
_symmetry_cell_setting 'tetragonal'
loop_
_space_group_symop_operation_xyz
x,y,z
1/2-y,x,z
1/2-x,1/2-y,z
y,1/2-x,z
1/2+x,-y,-z
-x,1/2+y,-z
1/2+y,1/2+x,-z
-y,-x,-z
-x,-y,-z
1/2+y,-x,-z
1/2+x,1/2+y,-z
-y,1/2+x,-z
1/2-x,y,z
x,1/2-y,z
1/2-y,1/2-x,z
y,x,z
loop_
_atom_site_type_symbol
_atom_site_label
_atom_site_fract_x
_atom_site_fract_y
_atom_site_fract_z
Si Si1 0.336045 0.457904 0.031605
Si Si2 0.954188 0.835042 0.229501
Si Si3 0.563142 0.441965 0.685917
Si Si4 0.835901 0.163122 0.413006
Si Si5 0.436815 0.834690 0.095666
Si Si6 0.163319 0.953309 0.173047
O O1 0.250000 0.437414 0.010409
O O2 0.386699 0.386699 0.010588
O O3 0.343777 0.474769 0.118873
O O4 0.361822 0.531734 0.984176
O O5 0.945335 0.750000 0.258137
O O6 0.871385 0.871385 0.224502
O O7 0.004912 0.878677 0.288425
O O8 0.991382 0.839947 0.149392
O O9 0.515812 0.515812 0.657086
O O10 0.613370 0.402439 0.623044
O O11 0.615960 0.469391 0.753316
O O12 0.845422 0.154578 0.500000
O O13 0.750000 0.138125 0.389640
O O14 0.847938 0.250000 0.388649
O O15 0.404716 0.750000 0.090328
O O16 0.367329 0.882417 0.126661
O O17 0.250000 0.936907 0.194845
#
# Coordination Sequence:
#
# PCOD8315112 Si02
#       6
#    16  16  16  16  16  16
#     4  10  20  33  48  65  87 117 155 199 244 288
#     4   9  17  28  42  62  88 119 155 193 233 277
#     4  10  19  31  48  70  98 128 158 194 233 279
#     4   9  18  33  53  76 101 128 157 191 234 286
#     4   9  18  31  45  64  89 116 151 195 240 286
#     4  10  20  32  47  68  92 122 159 194 233 281
#
# _framework density 16.996493999999998
#
# number of rings (size 3 to 8) (size 9 to 14) (size 15 to 20)
#    0.000    2.500    0.000    3.000    0.000    4.333 
#    0.000    0.000    0.000    6.000    0.000    0.000 
#    0.000    3.000    0.000   12.333    0.000    0.333 
#
# Total GULP energy -1189982.823958 kJ/mol
# GULP energy per Si atom -12395.654416 kJ/mol
# Density = 1.695781 g / cm^3
# Si number density = 16.996494 Si / 1000 Ang^3
#
#
#
# Elastic Constant Matrix: (Units=GPa)
#
#
# Indices 1 2 3 4 5 6 
#
# 1 90.2480 54.0440 26.3347 0.0000 0.0000 0.0000
# 2 54.0440 90.2480 26.3347 0.0000 0.0000 0.0000
# 3 26.3347 26.3347 58.5224 0.0000 0.0000 0.0000
# 4 0.0000 0.0000 0.0000 22.3750 0.0000 0.0000
# 5 0.0000 0.0000 0.0000 0.0000 22.3749 0.0000
# 6 0.0000 0.0000 0.0000 0.0000 0.0000 25.0413
#
#
#
# Elastic Compliance Matrix: (Units=1/GPa)
#
#
# Indices 1 2 3 4 5 6 
#
# 1 0.017957 -0.009664 -0.003732 0.000000 0.000000 0.000000
# 2 -0.009664 0.017957 -0.003732 0.000000 0.000000 0.000000
# 3 -0.003732 -0.003732 0.020446 0.000000 0.000000 0.000000
# 4 0.000000 0.000000 0.000000 0.044693 0.000000 0.000000
# 5 0.000000 0.000000 0.000000 0.000000 0.044693 0.000000
# 6 0.000000 0.000000 0.000000 0.000000 0.000000 0.039934
#
#
# Mechanical properties :
#
#
# Convention : Reuss Voigt Hill
#
# Bulk Modulus (GPa) = 45.23959 50.27170 47.75565
# Shear Modulus (GPa) = 21.99713 22.77858 22.38785
#
# Velocity S-wave (km/s) = 3.60142 3.66484 3.63327
# Velocity P-wave (km/s) = 6.63087 6.89565 6.76455
#
# Compressibility (1/GPa) = 0.02210453
#
# Stress axis : x y z
#
# Youngs Moduli (GPa) = 55.68903 55.68905 48.90971
#
# Poissons Ratio (x) = 0.53820 0.18251
# Poissons Ratio (y) = 0.53820 0.18251
# Poissons Ratio (z) = 0.20781 0.20781
#
# Static dielectric constant tensor:
#      x y z
#    x 3.194600 0.000000 0.000000 
#    y 0.000000 3.194600 0.000000 
#    z 0.000000 0.000000 3.029720 
# 
# 
# High freq. dielectric constant tensor:
#      x y z
#    x 1.650710 0.000000 0.000000 
#    y 0.000000 1.650710 0.000000 
#    z 0.000000 0.000000 1.640220 
# 
# From -- ./inp_files/5644.got.cif
#   From: 2010.03.12/outbox.cif.g09.slc.cpg/sg129_3_cif.got.tgz:5644.got - 2010.04.06 17:19:44.
