data_PCOD8315823
_publ_section_title
;
Structure prediction by ZEFSAII (Michael W. Deem and Ramdas Pophale) SiO2 
 PCOD8315823
Probable space group: P 42/M M C
;
_chemical_formula_sum "Si O2"
_cell_formula_units_Z 128
_cell_length_a 18.015187
_cell_length_b 18.015187
_cell_length_c 24.016474
_cell_angle_alpha 90.000000
_cell_angle_beta 90.000000
_cell_angle_gamma 90.000000
_cell_volume 7794.473690
_symmetry_space_group_name_H-M "P 42/M M C"
_symmetry_group_IT_number 131
_symmetry_cell_setting 'tetragonal'
loop_
_space_group_symop_operation_xyz
x,y,z
-x,-y,z
-y,x,1/2+z
y,-x,1/2+z
-x,y,-z
x,-y,-z
y,x,1/2-z
-y,-x,1/2-z
-x,-y,-z
x,y,-z
y,-x,1/2-z
-y,x,1/2-z
x,-y,z
-x,y,z
-y,-x,1/2+z
y,x,1/2+z
loop_
_atom_site_type_symbol
_atom_site_label
_atom_site_fract_x
_atom_site_fract_y
_atom_site_fract_z
Si Si1 0.415091 0.318911 0.064790
Si Si2 0.647017 0.189377 0.137229
Si Si3 0.331165 0.918246 0.334678
Si Si4 0.290531 0.585061 0.118215
Si Si5 0.236993 0.716189 0.811298
Si Si6 0.417984 0.085233 0.060583
Si Si7 0.415665 0.136813 0.562660
Si Si8 0.414077 0.917817 0.225180
O O1 0.500000 0.345697 0.068552
O O2 0.406576 0.248258 0.106085
O O3 0.364263 0.385485 0.087923
O O4 0.394691 0.300359 0.000000
O O5 0.727613 0.224968 0.145464
O O6 0.648637 0.118810 0.096606
O O7 0.620673 0.155076 0.196165
O O8 0.274286 0.851800 0.319005
O O9 0.363301 0.909530 0.396408
O O10 0.398203 0.911692 0.290763
O O11 0.292701 0.000000 0.330535
O O12 0.303460 0.500000 0.137816
O O13 0.266923 0.634023 0.172312
O O14 0.224447 0.590451 0.073734
O O15 0.264782 0.735219 0.750000
O O16 0.500000 0.097723 0.088167
O O17 0.400260 0.000000 0.054470
O O18 0.418197 0.122974 0.000000
O O19 0.388272 0.121333 0.500000
O O20 0.500000 0.109602 0.570630
O O21 0.500000 0.912855 0.214694
O O22 0.385978 0.000000 0.203431
#
# Coordination Sequence:
#
# PCOD8315823 Si02
#       8
#    16  16  16  16  16  16  16  16
#     4  10  20  31  45  67  92 123 168 218 261 292
#     4  11  19  30  48  66  97 130 163 201 236 293
#     4  10  20  34  50  69  97 126 156 195 241 289
#     4   9  19  34  51  68  91 126 168 214 258 298
#     4  10  20  37  50  71  97 125 163 201 245 299
#     4   9  17  29  46  72 108 142 166 193 236 294
#     4   9  17  30  49  71  95 124 157 194 241 298
#     4  10  19  29  45  71 100 128 158 193 235 290
#
# _framework density 16.421890999999999
#
# number of rings (size 3 to 8) (size 9 to 14) (size 15 to 20)
#    0.000    2.250    1.250    3.000    0.000    4.500 
#    0.000    2.500    0.000    0.000    0.000    0.000 
#    0.000    4.250    0.000    1.375    0.000    0.000 
#
# Total GULP energy -1585810.467245 kJ/mol
# GULP energy per Si atom -12389.144275 kJ/mol
# Density = 1.638451 g / cm^3
# Si number density = 16.421891 Si / 1000 Ang^3
#
#
#
# Elastic Constant Matrix: (Units=GPa)
#
#
# Indices 1 2 3 4 5 6 
#
# 1 91.4493 42.3357 39.6865 0.0000 0.0000 0.0000
# 2 42.3357 91.4497 39.6866 0.0000 0.0000 0.0000
# 3 39.6865 39.6866 100.4109 0.0000 0.0000 0.0000
# 4 0.0000 0.0000 0.0000 21.1665 0.0000 0.0000
# 5 0.0000 0.0000 0.0000 0.0000 21.1665 0.0000
# 6 0.0000 0.0000 0.0000 0.0000 0.0000 18.5502
#
#
#
# Elastic Compliance Matrix: (Units=1/GPa)
#
#
# Indices 1 2 3 4 5 6 
#
# 1 0.015063 -0.005298 -0.003859 0.000000 0.000000 0.000000
# 2 -0.005298 0.015063 -0.003859 0.000000 0.000000 0.000000
# 3 -0.003859 -0.003859 0.013010 0.000000 0.000000 0.000000
# 4 0.000000 0.000000 0.000000 0.047245 0.000000 0.000000
# 5 0.000000 0.000000 0.000000 0.000000 0.047244 0.000000
# 6 0.000000 0.000000 0.000000 0.000000 0.000000 0.053908
#
#
# Mechanical properties :
#
#
# Convention : Reuss Voigt Hill
#
# Bulk Modulus (GPa) = 58.47493 58.52528 58.50011
# Shear Modulus (GPa) = 22.39481 22.95003 22.67242
#
# Velocity S-wave (km/s) = 3.69686 3.74241 3.71970
# Velocity P-wave (km/s) = 7.34218 7.37496 7.35859
#
# Compressibility (1/GPa) = 0.01710134
#
# Stress axis : x y z
#
# Youngs Moduli (GPa) = 66.38949 66.38972 76.86534
#
# Poissons Ratio (x) = 0.35175 0.29664
# Poissons Ratio (y) = 0.35175 0.29664
# Poissons Ratio (z) = 0.25621 0.25622
#
# Static dielectric constant tensor:
#      x y z
#    x 3.093900 0.000000 0.000000 
#    y 0.000000 3.093910 0.000000 
#    z 0.000000 0.000000 3.286970 
# 
# 
# High freq. dielectric constant tensor:
#      x y z
#    x 1.610590 0.000000 0.000000 
#    y 0.000000 1.610590 0.000000 
#    z 0.000000 0.000000 1.646620 
# 
# From -- ./inp_files/11492.got.cif
#   From: 2010.03.12/outbox.cif.g09.slc.cpg/sg131_6_cif.got.tgz:11492.got - 2010.04.06 17:36:35.
