data_PCOD8315246
_publ_section_title
;
Structure prediction by ZEFSAII (Michael W. Deem and Ramdas Pophale) SiO2 
 PCOD8315246
Probable space group: P 4/N M M
;
_chemical_formula_sum "Si O2"
_cell_formula_units_Z 80
_cell_length_a 13.520004
_cell_length_b 13.520004
_cell_length_c 25.542637
_cell_angle_alpha 90.000000
_cell_angle_beta 90.000000
_cell_angle_gamma 90.000000
_cell_volume 4668.951597
_symmetry_space_group_name_H-M "P 4/N M M"
_symmetry_group_IT_number 129
_symmetry_cell_setting 'tetragonal'
loop_
_space_group_symop_operation_xyz
x,y,z
1/2-y,x,z
1/2-x,1/2-y,z
y,1/2-x,z
1/2+x,-y,-z
-x,1/2+y,-z
1/2+y,1/2+x,-z
-y,-x,-z
-x,-y,-z
1/2+y,-x,-z
1/2+x,1/2+y,-z
-y,1/2+x,-z
1/2-x,y,z
x,1/2-y,z
1/2-y,1/2-x,z
y,x,z
loop_
_atom_site_type_symbol
_atom_site_label
_atom_site_fract_x
_atom_site_fract_y
_atom_site_fract_z
Si Si1 0.474079 0.865507 0.754242
Si Si2 0.140326 0.867503 0.057218
Si Si3 0.136677 0.863474 0.648953
Si Si4 0.524681 0.366126 0.841768
Si Si5 0.974549 0.365409 0.543872
O O1 0.496916 0.750000 0.759511
O O2 0.431428 0.893114 0.697548
O O3 0.392899 0.895918 0.797249
O O4 0.576059 0.923942 0.763397
O O5 0.250000 0.912288 0.067194
O O6 0.148201 0.750000 0.057902
O O7 0.067059 0.903642 0.102572
O O8 0.099282 0.900718 0.000000
O O9 0.250000 0.881971 0.665211
O O10 0.120068 0.750000 0.632674
O O11 0.106002 0.930696 0.600189
O O12 0.503592 0.250000 0.840912
O O13 0.421373 0.421373 0.831134
O O14 0.895102 0.395102 0.500000
O O15 0.997584 0.250000 0.539257
O O16 0.077001 0.423000 0.535163
#
# Coordination Sequence:
#
# PCOD8315246 Si02
#       5
#    16  16  16  16  16
#     4  10  20  33  50  72  97 125 157 193 234 280
#     4   8  14  26  45  68  92 117 148 189 233 275
#     4   9  17  30  50  74  97 123 157 195 232 273
#     4  10  20  32  47  68  93 123 159 197 237 280
#     4  10  20  33  50  72  98 128 162 200 240 282
#
# _framework density 17.134467999999998
#
# number of rings (size 3 to 8) (size 9 to 14) (size 15 to 20)
#    0.000    2.600    0.000    3.000    0.000    4.000 
#    0.000    0.000    0.000    0.000    0.000    5.600 
#    0.000    4.800    0.000    0.000    0.000    0.000 
#
# Total GULP energy -991974.670873 kJ/mol
# GULP energy per Si atom -12399.683386 kJ/mol
# Density = 1.709547 g / cm^3
# Si number density = 17.134468 Si / 1000 Ang^3
#
#
#
# Elastic Constant Matrix: (Units=GPa)
#
#
# Indices 1 2 3 4 5 6 
#
# 1 77.9322 36.9448 43.5464 0.0000 0.0000 0.0000
# 2 36.9448 77.9322 43.5464 0.0000 0.0000 0.0000
# 3 43.5464 43.5464 111.0393 0.0000 0.0000 0.0000
# 4 0.0000 0.0000 0.0000 23.4896 0.0000 0.0000
# 5 0.0000 0.0000 0.0000 0.0000 23.4896 0.0000
# 6 0.0000 0.0000 0.0000 0.0000 0.0000 16.9369
#
#
#
# Elastic Compliance Matrix: (Units=1/GPa)
#
#
# Indices 1 2 3 4 5 6 
#
# 1 0.018393 -0.006005 -0.004858 0.000000 0.000000 0.000000
# 2 -0.006005 0.018393 -0.004858 0.000000 0.000000 0.000000
# 3 -0.004858 -0.004858 0.012816 0.000000 0.000000 0.000000
# 4 0.000000 0.000000 0.000000 0.042572 0.000000 0.000000
# 5 0.000000 0.000000 0.000000 0.000000 0.042572 0.000000
# 6 0.000000 0.000000 0.000000 0.000000 0.000000 0.059043
#
#
# Mechanical properties :
#
#
# Convention : Reuss Voigt Hill
#
# Bulk Modulus (GPa) = 55.06718 57.21988 56.14353
# Shear Modulus (GPa) = 21.61837 22.30765 21.96301
#
# Velocity S-wave (km/s) = 3.55588 3.61212 3.58411
# Velocity P-wave (km/s) = 7.00479 7.13188 7.06862
#
# Compressibility (1/GPa) = 0.01815964
#
# Stress axis : x y z
#
# Youngs Moduli (GPa) = 54.36858 54.36858 78.02516
#
# Poissons Ratio (x) = 0.32647 0.37907
# Poissons Ratio (y) = 0.32647 0.37907
# Poissons Ratio (z) = 0.26414 0.26414
#
# Static dielectric constant tensor:
#      x y z
#    x 2.982870 0.000000 0.000000 
#    y 0.000000 2.982870 0.000000 
#    z 0.000000 0.000000 3.462290 
# 
# 
# High freq. dielectric constant tensor:
#      x y z
#    x 1.646600 0.000000 0.000000 
#    y 0.000000 1.646600 0.000000 
#    z 0.000000 0.000000 1.678860 
# 
# From -- ./inp_files/6923.got.cif
#   From: 2010.03.12/outbox.cif.g09.slc.cpg/sg129_4_cif.got.tgz:6923.got - 2010.04.06 17:19:44.
