data_PCOD8315358
_publ_section_title
;
Structure prediction by ZEFSAII (Michael W. Deem and Ramdas Pophale) SiO2 
 PCOD8315358
Probable space group: P 4/N M M
;
_chemical_formula_sum "Si O2"
_cell_formula_units_Z 64
_cell_length_a 12.900549
_cell_length_b 12.900549
_cell_length_c 21.612462
_cell_angle_alpha 90.000000
_cell_angle_beta 90.000000
_cell_angle_gamma 90.000000
_cell_volume 3596.835931
_symmetry_space_group_name_H-M "P 4/N M M"
_symmetry_group_IT_number 129
_symmetry_cell_setting 'tetragonal'
loop_
_space_group_symop_operation_xyz
x,y,z
1/2-y,x,z
1/2-x,1/2-y,z
y,1/2-x,z
1/2+x,-y,-z
-x,1/2+y,-z
1/2+y,1/2+x,-z
-y,-x,-z
-x,-y,-z
1/2+y,-x,-z
1/2+x,1/2+y,-z
-y,1/2+x,-z
1/2-x,y,z
x,1/2-y,z
1/2-y,1/2-x,z
y,x,z
loop_
_atom_site_type_symbol
_atom_site_label
_atom_site_fract_x
_atom_site_fract_y
_atom_site_fract_z
Si Si1 0.038545 0.868130 0.560176
Si Si2 0.632318 0.372277 0.806468
Si Si3 0.036834 0.869700 0.323093
Si Si4 0.501879 0.501879 0.098446
Si Si5 0.372935 0.372935 0.002061
O O1 0.104828 0.895173 0.500000
O O2 0.003250 0.750000 0.556935
O O3 0.109594 0.885612 0.620310
O O4 0.934162 0.934162 0.563943
O O5 0.750000 0.410316 0.812461
O O6 0.623303 0.250000 0.814329
O O7 0.591065 0.407797 0.739696
O O8 0.567348 0.423582 0.860420
O O9 0.007459 0.750000 0.319809
O O10 0.929919 0.929919 0.333723
O O11 0.575212 0.575212 0.057668
O O12 0.425795 0.425795 0.061270
O O13 0.250000 0.395250 0.002346
#
# Coordination Sequence:
#
# PCOD8315358 Si02
#       5
#    16  16  16   8   8
#     4  10  21  36  55  80 109 145 189 233 277 328
#     4  10  20  34  54  80 108 140 178 221 270 319
#     4  10  20  35  54  79 111 144 179 224 272 319
#     4  11  20  36  58  80 107 142 178 218 263 316
#     4  10  22  38  56  80 110 142 176 216 264 316
#
# _framework density 17.793415
#
# number of rings (size 3 to 8) (size 9 to 14) (size 15 to 20)
#    0.000    1.875    1.250    3.000    0.000    3.250 
#    0.000    0.000    0.000   10.500    0.000    0.000 
#    0.000    0.000    0.000    0.000    0.000    0.000 
#
# Total GULP energy -793791.602560 kJ/mol
# GULP energy per Si atom -12402.993790 kJ/mol
# Density = 1.775292 g / cm^3
# Si number density = 17.793415 Si / 1000 Ang^3
#
#
#
# Elastic Constant Matrix: (Units=GPa)
#
#
# Indices 1 2 3 4 5 6 
#
# 1 86.0304 43.0687 44.9174 0.0000 0.0000 0.0000
# 2 43.0687 86.0293 44.9175 0.0000 0.0000 0.0000
# 3 44.9174 44.9175 142.2911 0.0000 0.0000 0.0000
# 4 0.0000 0.0000 0.0000 41.6048 0.0000 0.0000
# 5 0.0000 0.0000 0.0000 0.0000 41.6048 0.0000
# 6 0.0000 0.0000 0.0000 0.0000 0.0000 23.0543
#
#
#
# Elastic Compliance Matrix: (Units=1/GPa)
#
#
# Indices 1 2 3 4 5 6 
#
# 1 0.016602 -0.006675 -0.003133 0.000000 0.000000 0.000000
# 2 -0.006675 0.016602 -0.003134 0.000000 0.000000 0.000000
# 3 -0.003133 -0.003134 0.009006 0.000000 0.000000 0.000000
# 4 0.000000 0.000000 0.000000 0.024036 0.000000 0.000000
# 5 0.000000 0.000000 0.000000 0.000000 0.024036 0.000000
# 6 0.000000 0.000000 0.000000 0.000000 0.000000 0.043376
#
#
# Mechanical properties :
#
#
# Convention : Reuss Voigt Hill
#
# Bulk Modulus (GPa) = 61.25535 64.46200 62.85868
# Shear Modulus (GPa) = 30.30617 33.34927 31.82772
#
# Velocity S-wave (km/s) = 4.13149 4.33396 4.23393
# Velocity P-wave (km/s) = 7.56700 7.83268 7.70099
#
# Compressibility (1/GPa) = 0.01632511
#
# Stress axis : x y z
#
# Youngs Moduli (GPa) = 60.23531 60.23432 111.03469
#
# Poissons Ratio (x) = 0.40207 0.34793
# Poissons Ratio (y) = 0.40208 0.34794
# Poissons Ratio (z) = 0.18875 0.18875
#
# Static dielectric constant tensor:
#      x y z
#    x 3.249630 0.000000 0.000000 
#    y 0.000000 3.249630 0.000000 
#    z 0.000000 0.000000 3.529480 
# 
# 
# High freq. dielectric constant tensor:
#      x y z
#    x 1.691290 0.000000 0.000000 
#    y 0.000000 1.691290 0.000000 
#    z 0.000000 0.000000 1.706580 
# 
# From -- ./inp_files/6906.got.cif
#   From: 2010.03.12/outbox.cif.g09.slc.cpg/sg129_4_cif.got.tgz:6906.got - 2010.04.06 17:19:44.
