data_PCOD8315859
_publ_section_title
;
Structure prediction by ZEFSAII (Michael W. Deem and Ramdas Pophale) SiO2 
 PCOD8315859
Probable space group: P 42/M M C
;
_chemical_formula_sum "Si O2"
_cell_formula_units_Z 80
_cell_length_a 17.702530
_cell_length_b 17.702530
_cell_length_c 17.548546
_cell_angle_alpha 90.000000
_cell_angle_beta 90.000000
_cell_angle_gamma 90.000000
_cell_volume 5499.355772
_symmetry_space_group_name_H-M "P 42/M M C"
_symmetry_group_IT_number 131
_symmetry_cell_setting 'tetragonal'
loop_
_space_group_symop_operation_xyz
x,y,z
-x,-y,z
-y,x,1/2+z
y,-x,1/2+z
-x,y,-z
x,-y,-z
y,x,1/2-z
-y,-x,1/2-z
-x,-y,-z
x,y,-z
y,-x,1/2-z
-y,x,1/2-z
x,-y,z
-x,y,z
-y,-x,1/2+z
y,x,1/2+z
loop_
_atom_site_type_symbol
_atom_site_label
_atom_site_fract_x
_atom_site_fract_y
_atom_site_fract_z
Si Si1 0.588174 0.785025 0.411089
Si Si2 0.663455 0.358110 0.337024
Si Si3 0.169971 0.410315 0.651280
Si Si4 0.084251 0.410607 0.500000
Si Si5 0.410895 0.916524 0.301716
Si Si6 0.500000 0.414975 0.090093
O O1 0.605164 0.792593 0.500000
O O2 0.500000 0.767581 0.395173
O O3 0.637689 0.719171 0.375331
O O4 0.613800 0.863123 0.371592
O O5 0.637305 0.362696 0.250000
O O6 0.753163 0.363855 0.342831
O O7 0.626421 0.426026 0.382024
O O8 0.186638 0.500000 0.652435
O O9 0.128618 0.383596 0.574638
O O10 0.118179 0.384406 0.721554
O O11 0.077898 0.500000 0.500000
O O12 0.000000 0.375456 0.500000
O O13 0.500000 0.924439 0.300521
O O14 0.374564 0.000000 0.312268
O O15 0.500000 0.500000 0.121590
O O16 0.500000 0.413327 0.000000
#
# Coordination Sequence:
#
# PCOD8315859 Si02
#       6
#    16  16  16   8  16   8
#     4  10  21  35  49  66  91 120 157 203 243 278
#     4  12  23  33  50  67  91 125 163 201 244 285
#     4  10  19  31  46  68  92 119 154 195 239 284
#     4   9  18  30  48  70  92 116 147 192 241 289
#     4   9  17  31  50  68  87 111 146 194 244 289
#     4  11  26  38  48  64  86 122 167 218 256 280
#
# _framework density 14.547159000000001
#
# number of rings (size 3 to 8) (size 9 to 14) (size 15 to 20)
#    0.000    1.800    3.000    1.800    5.600    4.400 
#    0.000    2.000    0.000    0.000    0.000    0.000 
#    0.000    0.000    0.000    0.000    0.000   18.000 
#
# Total GULP energy -992089.261258 kJ/mol
# GULP energy per Si atom -12401.115766 kJ/mol
# Density = 1.451405 g / cm^3
# Si number density = 14.547159 Si / 1000 Ang^3
#
#
#
# Elastic Constant Matrix: (Units=GPa)
#
#
# Indices 1 2 3 4 5 6 
#
# 1 82.1331 40.1282 34.5228 0.0000 0.0000 0.0000
# 2 40.1282 82.1334 34.5235 0.0000 0.0000 0.0000
# 3 34.5228 34.5235 100.4631 0.0000 0.0000 0.0000
# 4 0.0000 0.0000 0.0000 20.7904 0.0000 0.0000
# 5 0.0000 0.0000 0.0000 0.0000 20.7901 0.0000
# 6 0.0000 0.0000 0.0000 0.0000 0.0000 2.5882
#
#
#
# Elastic Compliance Matrix: (Units=1/GPa)
#
#
# Indices 1 2 3 4 5 6 
#
# 1 0.016978 -0.006829 -0.003487 0.000000 0.000000 0.000000
# 2 -0.006829 0.016978 -0.003488 0.000000 0.000000 0.000000
# 3 -0.003487 -0.003488 0.012351 0.000000 0.000000 0.000000
# 4 0.000000 0.000000 0.000000 0.048099 0.000000 0.000000
# 5 0.000000 0.000000 0.000000 0.000000 0.048100 0.000000
# 6 0.000000 0.000000 0.000000 0.000000 0.000000 0.386367
#
#
# Mechanical properties :
#
#
# Convention : Reuss Voigt Hill
#
# Bulk Modulus (GPa) = 53.48100 53.67540 53.57820
# Shear Modulus (GPa) = 8.88553 19.20407 14.04480
#
# Velocity S-wave (km/s) = 2.47414 3.63729 3.11057
# Velocity P-wave (km/s) = 6.70861 7.39037 7.05773
#
# Compressibility (1/GPa) = 0.01869823
#
# Stress axis : x y z
#
# Youngs Moduli (GPa) = 58.90087 58.90077 80.96637
#
# Poissons Ratio (x) = 0.40223 0.28236
# Poissons Ratio (y) = 0.40223 0.28238
# Poissons Ratio (z) = 0.20541 0.20542
#
# Static dielectric constant tensor:
#      x y z
#    x 2.707990 0.000000 0.000000 
#    y 0.000000 2.707780 0.000000 
#    z 0.000000 0.000000 3.073530 
# 
# 
# High freq. dielectric constant tensor:
#      x y z
#    x 1.529740 0.000000 0.000000 
#    y 0.000000 1.529740 0.000000 
#    z 0.000000 0.000000 1.579760 
# 
# From -- ./inp_files/7861.got.cif
#   From: 2010.03.12/outbox.cif.g09.slc.cpg/sg131_4_cif.got.tgz:7861.got - 2010.04.06 17:36:35.
