data_PCOD8315738
_publ_section_title
;
Structure prediction by ZEFSAII (Michael W. Deem and Ramdas Pophale) SiO2 
 PCOD8315738
Probable space group: P 42/M M C
;
_chemical_formula_sum "Si O2"
_cell_formula_units_Z 96
_cell_length_a 24.267631
_cell_length_b 24.267631
_cell_length_c 9.042875
_cell_angle_alpha 90.000000
_cell_angle_beta 90.000000
_cell_angle_gamma 90.000000
_cell_volume 5325.511085
_symmetry_space_group_name_H-M "P 42/M M C"
_symmetry_group_IT_number 131
_symmetry_cell_setting 'tetragonal'
loop_
_space_group_symop_operation_xyz
x,y,z
-x,-y,z
-y,x,1/2+z
y,-x,1/2+z
-x,y,-z
x,-y,-z
y,x,1/2-z
-y,-x,1/2-z
-x,-y,-z
x,y,-z
y,-x,1/2-z
-y,x,1/2-z
x,-y,z
-x,y,z
-y,-x,1/2+z
y,x,1/2+z
loop_
_atom_site_type_symbol
_atom_site_label
_atom_site_fract_x
_atom_site_fract_y
_atom_site_fract_z
Si Si1 0.351701 0.851885 0.176089
Si Si2 0.060477 0.561351 0.324328
Si Si3 0.563099 0.643504 0.326708
Si Si4 0.266497 0.347884 0.825124
Si Si5 0.062870 0.858218 0.666418
Si Si6 0.060578 0.736579 0.323960
O O1 0.402768 0.888603 0.232971
O O2 0.353981 0.794270 0.259840
O O3 0.299486 0.887820 0.229389
O O4 0.352092 0.841555 0.000000
O O5 0.060571 0.562563 0.500000
O O6 0.070000 0.500000 0.263727
O O7 0.000000 0.582928 0.270545
O O8 0.590501 0.590501 0.250000
O O9 0.565193 0.632288 0.500000
O O10 0.500000 0.650499 0.271664
O O11 0.596817 0.699019 0.286354
O O12 0.295337 0.295337 0.750000
O O13 0.263422 0.337893 0.000000
O O14 0.097419 0.902582 0.750000
O O15 0.084579 0.856244 0.500000
O O16 0.070322 0.797867 0.738686
O O17 0.000000 0.877230 0.674131
O O18 0.058619 0.737392 0.500000
O O19 0.000000 0.714890 0.269284
#
# Coordination Sequence:
#
# PCOD8315738 Si02
#       6
#    16  16  16  16  16  16
#     4  10  18  29  50  76  98 126 166 207 246 289
#     4   8  14  25  43  71 105 135 165 204 244 282
#     4   9  19  36  56  77 102 133 166 199 239 287
#     4  10  21  37  53  70  98 133 166 202 243 289
#     4   9  18  32  48  66  89 116 147 184 227 279
#     4   8  15  29  48  69  93 123 160 200 241 286
#
# _framework density 18.026437000000001
#
# number of rings (size 3 to 8) (size 9 to 14) (size 15 to 20)
#    0.000    3.000    0.000    2.500    0.000    5.000 
#    0.000    4.167    0.000    3.000    0.000    1.167 
#    0.000    0.000    0.000    0.000    0.000    0.000 
#
# Total GULP energy -1189663.560342 kJ/mol
# GULP energy per Si atom -12392.328754 kJ/mol
# Density = 1.798541 g / cm^3
# Si number density = 18.026437 Si / 1000 Ang^3
#
#
#
# Elastic Constant Matrix: (Units=GPa)
#
#
# Indices 1 2 3 4 5 6 
#
# 1 139.6080 82.9992 42.8283 0.0000 0.0000 0.0000
# 2 82.9992 139.5792 42.8339 0.0000 0.0000 0.0000
# 3 42.8283 42.8339 43.1166 0.0000 0.0000 0.0000
# 4 0.0000 0.0000 0.0000 21.0023 0.0000 0.0000
# 5 0.0000 0.0000 0.0000 0.0000 21.0028 0.0000
# 6 0.0000 0.0000 0.0000 0.0000 0.0000 33.7927
#
#
#
# Elastic Compliance Matrix: (Units=1/GPa)
#
#
# Indices 1 2 3 4 5 6 
#
# 1 0.012469 -0.005198 -0.007221 0.000000 0.000000 0.000000
# 2 -0.005198 0.012474 -0.007228 0.000000 0.000000 0.000000
# 3 -0.007221 -0.007228 0.037547 0.000000 0.000000 0.000000
# 4 0.000000 0.000000 0.000000 0.047614 0.000000 0.000000
# 5 0.000000 0.000000 0.000000 0.000000 0.047613 0.000000
# 6 0.000000 0.000000 0.000000 0.000000 0.000000 0.029592
#
#
# Mechanical properties :
#
#
# Convention : Reuss Voigt Hill
#
# Bulk Modulus (GPa) = 43.11545 73.29185 58.20365
# Shear Modulus (GPa) = 21.33703 25.40238 23.36970
#
# Velocity S-wave (km/s) = 3.44416 3.75797 3.60448
# Velocity P-wave (km/s) = 6.30762 7.71855 7.04848
#
# Compressibility (1/GPa) = 0.02319354
#
# Stress axis : x y z
#
# Youngs Moduli (GPa) = 80.20119 80.16807 26.63360
#
# Poissons Ratio (x) = 0.41674 0.19232
# Poissons Ratio (y) = 0.41692 0.19252
# Poissons Ratio (z) = 0.57913 0.57949
#
# Static dielectric constant tensor:
#      x y z
#    x 3.570370 0.000000 0.000000 
#    y 0.000000 3.570330 0.000000 
#    z 0.000000 0.000000 2.944680 
# 
# 
# High freq. dielectric constant tensor:
#      x y z
#    x 1.705230 0.000000 0.000000 
#    y 0.000000 1.705230 0.000000 
#    z 0.000000 0.000000 1.655980 
# 
# From -- ./inp_files/2222.got.cif
#   From: 2010.03.12/outbox.cif.g09.slc.cpg/sg131_2_cif.got.tgz:2222.got - 2010.04.06 17:36:35.
