data_PCOD8315101
_publ_section_title
;
Structure prediction by ZEFSAII (Michael W. Deem and Ramdas Pophale) SiO2 
 PCOD8315101
Probable space group: P 4/N M M
;
_chemical_formula_sum "Si O2"
_cell_formula_units_Z 96
_cell_length_a 18.967994
_cell_length_b 18.967994
_cell_length_c 16.683962
_cell_angle_alpha 90.000000
_cell_angle_beta 90.000000
_cell_angle_gamma 90.000000
_cell_volume 6002.635871
_symmetry_space_group_name_H-M "P 4/N M M"
_symmetry_group_IT_number 129
_symmetry_cell_setting 'tetragonal'
loop_
_space_group_symop_operation_xyz
x,y,z
1/2-y,x,z
1/2-x,1/2-y,z
y,1/2-x,z
1/2+x,-y,-z
-x,1/2+y,-z
1/2+y,1/2+x,-z
-y,-x,-z
-x,-y,-z
1/2+y,-x,-z
1/2+x,1/2+y,-z
-y,1/2+x,-z
1/2-x,y,z
x,1/2-y,z
1/2-y,1/2-x,z
y,x,z
loop_
_atom_site_type_symbol
_atom_site_label
_atom_site_fract_x
_atom_site_fract_y
_atom_site_fract_z
Si Si1 0.053856 0.167848 0.866568
Si Si2 0.828675 0.942957 0.668453
Si Si3 0.328522 0.965958 0.184678
Si Si4 0.426648 0.542807 0.415539
Si Si5 0.169579 0.552819 0.004627
Si Si6 0.968733 0.416217 0.748294
O O1 0.070927 0.250000 0.866729
O O2 0.127650 0.127650 0.874863
O O3 0.015111 0.147316 0.783449
O O4 0.004036 0.144120 0.939716
O O5 0.750000 0.924025 0.642225
O O6 0.874751 0.874751 0.650632
O O7 0.834052 0.962876 0.762622
O O8 0.853179 0.010893 0.616698
O O9 0.250000 0.931744 0.198818
O O10 0.337478 0.984424 0.091165
O O11 0.391804 0.913870 0.210072
O O12 0.415980 0.584021 0.500000
O O13 0.477263 0.477263 0.430842
O O14 0.459261 0.594584 0.347513
O O15 0.250000 0.575819 0.987026
O O16 0.122723 0.622723 0.000000
O O17 0.008483 0.491518 0.764395
#
# Coordination Sequence:
#
# PCOD8315101 Si02
#       6
#    16  16  16  16  16  16
#     4  10  21  34  48  67  91 122 161 202 240 279
#     4   9  17  28  43  65  95 126 156 189 227 277
#     4   9  16  27  44  67  94 122 151 188 232 275
#     4   8  14  26  45  68  90 112 144 187 234 277
#     4  10  19  31  47  70  98 126 159 196 236 283
#     4   9  16  28  47  67  88 117 154 195 234 275
#
# _framework density 15.992974
#
# number of rings (size 3 to 8) (size 9 to 14) (size 15 to 20)
#    0.000    2.833    1.667    1.500    0.000    2.167 
#    0.000    0.833    0.000    0.500    0.000    4.667 
#    0.000    8.333    0.000    0.167    0.000    0.000 
#
# Total GULP energy -1189685.633835 kJ/mol
# GULP energy per Si atom -12392.558686 kJ/mol
# Density = 1.595657 g / cm^3
# Si number density = 15.992974 Si / 1000 Ang^3
#
#
#
# Elastic Constant Matrix: (Units=GPa)
#
#
# Indices 1 2 3 4 5 6 
#
# 1 80.3592 44.5906 39.6991 0.0000 0.0000 0.0000
# 2 44.5906 80.3590 39.6990 0.0000 0.0000 0.0000
# 3 39.6991 39.6990 117.1347 0.0000 0.0000 0.0000
# 4 0.0000 0.0000 0.0000 16.0628 0.0000 0.0000
# 5 0.0000 0.0000 0.0000 0.0000 16.0628 0.0000
# 6 0.0000 0.0000 0.0000 0.0000 0.0000 18.3647
#
#
#
# Elastic Compliance Matrix: (Units=1/GPa)
#
#
# Indices 1 2 3 4 5 6 
#
# 1 0.019079 -0.008879 -0.003457 0.000000 0.000000 0.000000
# 2 -0.008879 0.019079 -0.003457 0.000000 0.000000 0.000000
# 3 -0.003457 -0.003457 0.010880 0.000000 0.000000 0.000000
# 4 0.000000 0.000000 0.000000 0.062256 0.000000 0.000000
# 5 0.000000 0.000000 0.000000 0.000000 0.062256 0.000000
# 6 0.000000 0.000000 0.000000 0.000000 0.000000 0.054452
#
#
# Mechanical properties :
#
#
# Convention : Reuss Voigt Hill
#
# Bulk Modulus (GPa) = 57.29843 58.42559 57.86201
# Shear Modulus (GPa) = 18.83916 20.35566 19.59741
#
# Velocity S-wave (km/s) = 3.43587 3.57148 3.50433
# Velocity P-wave (km/s) = 7.18647 7.32248 7.25479
#
# Compressibility (1/GPa) = 0.01745248
#
# Stress axis : x y z
#
# Youngs Moduli (GPa) = 52.41441 52.41430 91.90827
#
# Poissons Ratio (x) = 0.46538 0.31772
# Poissons Ratio (y) = 0.46538 0.31772
# Poissons Ratio (z) = 0.18119 0.18119
#
# Static dielectric constant tensor:
#      x y z
#    x 2.895330 0.000000 0.000000 
#    y 0.000000 2.895330 0.000000 
#    z 0.000000 0.000000 3.324580 
# 
# 
# High freq. dielectric constant tensor:
#      x y z
#    x 1.593540 0.000000 0.000000 
#    y 0.000000 1.593540 0.000000 
#    z 0.000000 0.000000 1.619400 
# 
# From -- ./inp_files/5655.got.cif
#   From: 2010.03.12/outbox.cif.g09.slc.cpg/sg129_3_cif.got.tgz:5655.got - 2010.04.06 17:19:44.
