data_PCOD8315340
_publ_section_title
;
Structure prediction by ZEFSAII (Michael W. Deem and Ramdas Pophale) SiO2 
 PCOD8315340
Probable space group: P 4/N M M
;
_chemical_formula_sum "Si O2"
_cell_formula_units_Z 112
_cell_length_a 19.193737
_cell_length_b 19.193737
_cell_length_c 19.270432
_cell_angle_alpha 90.000000
_cell_angle_beta 90.000000
_cell_angle_gamma 90.000000
_cell_volume 7099.218285
_symmetry_space_group_name_H-M "P 4/N M M"
_symmetry_group_IT_number 129
_symmetry_cell_setting 'tetragonal'
loop_
_space_group_symop_operation_xyz
x,y,z
1/2-y,x,z
1/2-x,1/2-y,z
y,1/2-x,z
1/2+x,-y,-z
-x,1/2+y,-z
1/2+y,1/2+x,-z
-y,-x,-z
-x,-y,-z
1/2+y,-x,-z
1/2+x,1/2+y,-z
-y,1/2+x,-z
1/2-x,y,z
x,1/2-y,z
1/2-y,1/2-x,z
y,x,z
loop_
_atom_site_type_symbol
_atom_site_label
_atom_site_fract_x
_atom_site_fract_y
_atom_site_fract_z
Si Si1 0.574245 0.459762 0.927716
Si Si2 0.433946 0.671616 0.581118
Si Si3 0.466829 0.919195 0.214702
Si Si4 0.528700 0.327995 0.270639
Si Si5 0.059279 0.328144 0.143020
Si Si6 0.556067 0.668452 0.310468
Si Si7 0.451491 0.830103 0.428057
O O1 0.525333 0.525333 0.941719
O O2 0.541478 0.409827 0.868391
O O3 0.647342 0.491358 0.900600
O O4 0.582917 0.417084 0.000000
O O5 0.402799 0.750000 0.578800
O O6 0.486638 0.663806 0.646653
O O7 0.370341 0.618841 0.591078
O O8 0.473658 0.656545 0.508453
O O9 0.390101 0.919085 0.249066
O O10 0.510243 0.854227 0.243950
O O11 0.507934 0.992067 0.230673
O O12 0.561004 0.250000 0.256963
O O13 0.458325 0.334706 0.225251
O O14 0.076832 0.250000 0.120770
O O15 0.126811 0.373190 0.126046
O O16 0.570889 0.750000 0.306359
O O17 0.630195 0.630195 0.310387
O O18 0.515316 0.645342 0.380092
O O19 0.435079 0.750000 0.412615
#
# Coordination Sequence:
#
# PCOD8315340 Si02
#       7
#    16  16  16  16  16  16  16
#     4   8  14  26  45  68  91 114 143 179 219 265
#     4   9  16  26  42  65  93 123 151 182 220 268
#     4   9  16  28  46  66  88 116 149 186 227 268
#     4   9  15  25  42  65  93 121 150 182 220 266
#     4   9  17  28  43  65  93 125 156 187 222 263
#     4  10  20  34  49  64  85 114 151 198 244 283
#     4   9  17  29  43  62  91 121 151 187 228 276
#
# _framework density 15.776384999999999
#
# number of rings (size 3 to 8) (size 9 to 14) (size 15 to 20)
#    0.000    3.000    1.429    1.286    0.000    0.571 
#    0.000    5.000    0.000    0.429    0.000    0.000 
#    0.000   12.857    0.000    0.143    0.000    0.000 
#
# Total GULP energy -1387603.362361 kJ/mol
# GULP energy per Si atom -12389.315735 kJ/mol
# Density = 1.574048 g / cm^3
# Si number density = 15.776385 Si / 1000 Ang^3
#
#
#
# Elastic Constant Matrix: (Units=GPa)
#
#
# Indices 1 2 3 4 5 6 
#
# 1 76.0512 42.0610 42.4309 0.0000 0.0000 0.0000
# 2 42.0610 76.0514 42.4310 0.0000 0.0000 0.0000
# 3 42.4309 42.4310 121.7493 0.0000 0.0000 0.0000
# 4 0.0000 0.0000 0.0000 16.7747 0.0000 0.0000
# 5 0.0000 0.0000 0.0000 0.0000 16.7747 0.0000
# 6 0.0000 0.0000 0.0000 0.0000 0.0000 15.4733
#
#
#
# Elastic Compliance Matrix: (Units=1/GPa)
#
#
# Indices 1 2 3 4 5 6 
#
# 1 0.020357 -0.009063 -0.003936 0.000000 0.000000 0.000000
# 2 -0.009063 0.020357 -0.003936 0.000000 0.000000 0.000000
# 3 -0.003936 -0.003936 0.010957 0.000000 0.000000 0.000000
# 4 0.000000 0.000000 0.000000 0.059614 0.000000 0.000000
# 5 0.000000 0.000000 0.000000 0.000000 0.059614 0.000000
# 6 0.000000 0.000000 0.000000 0.000000 0.000000 0.064627
#
#
# Mechanical properties :
#
#
# Convention : Reuss Voigt Hill
#
# Bulk Modulus (GPa) = 56.17533 58.63308 57.40421
# Shear Modulus (GPa) = 18.15994 19.59981 18.87987
#
# Velocity S-wave (km/s) = 3.39644 3.52852 3.46311
# Velocity P-wave (km/s) = 7.14602 7.33801 7.24265
#
# Compressibility (1/GPa) = 0.01780141
#
# Stress axis : x y z
#
# Youngs Moduli (GPa) = 49.12200 49.12212 91.26326
#
# Poissons Ratio (x) = 0.44518 0.35924
# Poissons Ratio (y) = 0.44518 0.35924
# Poissons Ratio (z) = 0.19336 0.19336
#
# Static dielectric constant tensor:
#      x y z
#    x 2.842420 0.000000 0.000000 
#    y 0.000000 2.842410 0.000000 
#    z 0.000000 0.000000 3.354720 
# 
# 
# High freq. dielectric constant tensor:
#      x y z
#    x 1.581670 0.000000 0.000000 
#    y 0.000000 1.581670 0.000000 
#    z 0.000000 0.000000 1.614080 
# 
# From -- ./inp_files/5971.got.cif
#   From: 2010.03.12/outbox.cif.g09.slc.cpg/sg129_3_cif.got.tgz:5971.got - 2010.04.06 17:19:44.
