data_PCOD8315398
_publ_section_title
;
Structure prediction by ZEFSAII (Michael W. Deem and Ramdas Pophale) SiO2 
 PCOD8315398
Probable space group: P 4/N M M
;
_chemical_formula_sum "Si O2"
_cell_formula_units_Z 80
_cell_length_a 13.580239
_cell_length_b 13.580239
_cell_length_c 24.995358
_cell_angle_alpha 90.000000
_cell_angle_beta 90.000000
_cell_angle_gamma 90.000000
_cell_volume 4609.716191
_symmetry_space_group_name_H-M "P 4/N M M"
_symmetry_group_IT_number 129
_symmetry_cell_setting 'tetragonal'
loop_
_space_group_symop_operation_xyz
x,y,z
1/2-y,x,z
1/2-x,1/2-y,z
y,1/2-x,z
1/2+x,-y,-z
-x,1/2+y,-z
1/2+y,1/2+x,-z
-y,-x,-z
-x,-y,-z
1/2+y,-x,-z
1/2+x,1/2+y,-z
-y,1/2+x,-z
1/2-x,y,z
x,1/2-y,z
1/2-y,1/2-x,z
y,x,z
loop_
_atom_site_type_symbol
_atom_site_label
_atom_site_fract_x
_atom_site_fract_y
_atom_site_fract_z
Si Si1 0.138657 0.979376 0.240914
Si Si2 0.021442 0.637937 0.161505
Si Si3 0.976921 0.135953 0.363420
Si Si4 0.527984 0.133580 0.547713
Si Si5 0.862135 0.478481 0.040196
O O1 0.250000 0.009787 0.229571
O O2 0.108883 0.890470 0.201837
O O3 0.124208 0.944520 0.301911
O O4 0.075284 0.075284 0.227264
O O5 0.991587 0.750000 0.171062
O O6 0.058095 0.619672 0.100861
O O7 0.924435 0.575565 0.174798
O O8 0.990959 0.250000 0.379577
O O9 0.890487 0.085307 0.397436
O O10 0.080843 0.080843 0.374519
O O11 0.598514 0.098514 0.500000
O O12 0.507751 0.250000 0.543852
O O13 0.423287 0.076714 0.545127
O O14 0.750000 0.508000 0.030555
O O15 0.924416 0.575585 0.026952
O O16 0.891011 0.391011 0.000000
#
# Coordination Sequence:
#
# PCOD8315398 Si02
#       5
#    16  16  16  16  16
#     4   9  18  32  49  70  97 127 159 196 236 279
#     4   9  18  32  49  69  93 121 154 193 235 278
#     4   9  18  32  50  73  99 127 160 197 237 281
#     4  10  21  36  53  74 100 129 162 199 238 282
#     4   9  18  32  49  69  93 121 153 190 232 277
#
# _framework density 17.354645999999999
#
# number of rings (size 3 to 8) (size 9 to 14) (size 15 to 20)
#    0.000    2.800    0.000    0.600    0.000    4.600 
#    0.000    8.000    0.000    3.600    0.000   11.200 
#    0.000    0.000    0.000    0.000    0.000    0.000 
#
# Total GULP energy -992002.865644 kJ/mol
# GULP energy per Si atom -12400.035821 kJ/mol
# Density = 1.731515 g / cm^3
# Si number density = 17.354646 Si / 1000 Ang^3
#
#
#
# Elastic Constant Matrix: (Units=GPa)
#
#
# Indices 1 2 3 4 5 6 
#
# 1 110.7460 48.8764 55.7239 0.0000 0.0000 0.0000
# 2 48.8764 110.7460 55.7239 0.0000 0.0000 0.0000
# 3 55.7239 55.7239 91.2107 0.0000 0.0000 0.0000
# 4 0.0000 0.0000 0.0000 26.8116 0.0000 0.0000
# 5 0.0000 0.0000 0.0000 0.0000 26.8116 0.0000
# 6 0.0000 0.0000 0.0000 0.0000 0.0000 12.7512
#
#
#
# Elastic Compliance Matrix: (Units=1/GPa)
#
#
# Indices 1 2 3 4 5 6 
#
# 1 0.013544 -0.002619 -0.006674 0.000000 0.000000 0.000000
# 2 -0.002619 0.013544 -0.006674 0.000000 0.000000 0.000000
# 3 -0.006674 -0.006674 0.019119 0.000000 0.000000 0.000000
# 4 0.000000 0.000000 0.000000 0.037297 0.000000 0.000000
# 5 0.000000 0.000000 0.000000 0.000000 0.037297 0.000000
# 6 0.000000 0.000000 0.000000 0.000000 0.000000 0.078424
#
#
# Mechanical properties :
#
#
# Convention : Reuss Voigt Hill
#
# Bulk Modulus (GPa) = 70.07211 70.37235 70.22223
# Shear Modulus (GPa) = 21.19385 23.43347 22.31366
#
# Velocity S-wave (km/s) = 3.49839 3.67859 3.58962
# Velocity P-wave (km/s) = 7.53542 7.66031 7.59812
#
# Compressibility (1/GPa) = 0.01427101
#
# Stress axis : x y z
#
# Youngs Moduli (GPa) = 73.83393 73.83393 52.30450
#
# Poissons Ratio (x) = 0.19338 0.34910
# Poissons Ratio (y) = 0.19338 0.34910
# Poissons Ratio (z) = 0.49279 0.49279
#
# Static dielectric constant tensor:
#      x y z
#    x 3.162880 0.000000 0.000000 
#    y 0.000000 3.162880 0.000000 
#    z 0.000000 0.000000 3.461590 
# 
# 
# High freq. dielectric constant tensor:
#      x y z
#    x 1.662480 0.000000 0.000000 
#    y 0.000000 1.662480 0.000000 
#    z 0.000000 0.000000 1.682300 
# 
# From -- ./inp_files/6321.got.cif
#   From: 2010.03.12/outbox.cif.g09.slc.cpg/sg129_4_cif.got.tgz:6321.got - 2010.04.06 17:19:44.
