data_PCOD8315570
_publ_section_title
;
Structure prediction by ZEFSAII (Michael W. Deem and Ramdas Pophale) SiO2 
 PCOD8315570
Probable space group: P 4/N C C
;
_chemical_formula_sum "Si O2"
_cell_formula_units_Z 100
_cell_length_a 14.211137
_cell_length_b 14.211137
_cell_length_c 26.904131
_cell_angle_alpha 90.000000
_cell_angle_beta 90.000000
_cell_angle_gamma 90.000000
_cell_volume 5433.461841
_symmetry_space_group_name_H-M "P 4/N C C"
_symmetry_group_IT_number 130
_symmetry_cell_setting 'tetragonal'
loop_
_space_group_symop_operation_xyz
x,y,z
1/2-y,x,z
1/2-x,1/2-y,z
y,1/2-x,z
1/2+x,-y,1/2-z
-x,1/2+y,1/2-z
1/2+y,1/2+x,1/2-z
-y,-x,1/2-z
-x,-y,-z
1/2+y,-x,-z
1/2+x,1/2+y,-z
-y,1/2+x,-z
1/2-x,y,1/2+z
x,1/2-y,1/2+z
1/2-y,1/2-x,1/2+z
y,x,1/2+z
loop_
_atom_site_type_symbol
_atom_site_label
_atom_site_fract_x
_atom_site_fract_y
_atom_site_fract_z
Si Si1 0.607996 0.798884 0.967176
Si Si2 0.894265 0.798464 0.583446
Si Si3 0.129156 0.847413 0.000872
Si Si4 0.083414 0.564182 0.398306
Si Si5 0.250000 0.750000 0.750000
Si Si6 0.854170 0.247236 0.154730
Si Si7 0.046353 0.602406 0.906787
O O1 0.632222 0.692620 0.952926
O O2 0.519779 0.824456 0.934677
O O3 0.585915 0.807529 0.025126
O O4 0.807868 0.867701 0.598432
O O5 0.989502 0.831759 0.610983
O O6 0.080005 0.899155 0.954831
O O7 0.236767 0.879647 0.006985
O O8 0.073579 0.875086 0.051707
O O9 0.094010 0.651266 0.360877
O O10 0.987145 0.509272 0.386281
O O11 0.157267 0.750875 0.785257
O O12 0.750000 0.250000 0.128922
O O13 0.909034 0.341396 0.139269
#
# Coordination Sequence:
#
# PCOD8315570 Si02
#       7
#    16  16  16  16   4  16  16
#     4   9  18  31  44  67 115 168 201 228 271 331
#     4   9  20  33  47  74 121 172 208 238 280 336
#     4  11  23  35  50  82 130 178 206 241 281 344
#     4  12  23  33  60  89 122 162 206 249 290 361
#     4   8  24  48  76  74 116 156 180 276 340 374
#     4  10  23  46  64  86 110 155 199 247 326 369
#     4  12  22  32  55  89 121 154 203 250 287 352
#
# _framework density 18.404472999999999
#
# number of rings (size 3 to 8) (size 9 to 14) (size 15 to 20)
#    0.480    1.120    3.200    3.360    4.480    0.000 
#    0.000    0.800    0.000    0.000    0.000    0.000 
#    0.000    0.000    0.000    0.000    0.000    0.000 
#
# Total GULP energy -1239789.817386 kJ/mol
# GULP energy per Si atom -12397.898174 kJ/mol
# Density = 1.836258 g / cm^3
# Si number density = 18.404473 Si / 1000 Ang^3
#
#
#
# Elastic Constant Matrix: (Units=GPa)
#
#
# Indices 1 2 3 4 5 6 
#
# 1 88.0456 35.6884 34.7808 0.0000 0.0000 0.0000
# 2 35.6884 88.0456 34.7808 0.0000 0.0000 0.0000
# 3 34.7808 34.7808 81.8055 0.0000 0.0000 0.0000
# 4 0.0000 0.0000 0.0000 16.0231 0.0000 0.0000
# 5 0.0000 0.0000 0.0000 0.0000 16.0231 0.0000
# 6 0.0000 0.0000 0.0000 0.0000 0.0000 38.5193
#
#
#
# Elastic Compliance Matrix: (Units=1/GPa)
#
#
# Indices 1 2 3 4 5 6 
#
# 1 0.014860 -0.004240 -0.004515 0.000000 0.000000 0.000000
# 2 -0.004240 0.014860 -0.004515 0.000000 0.000000 0.000000
# 3 -0.004515 -0.004515 0.016064 0.000000 0.000000 0.000000
# 4 0.000000 0.000000 0.000000 0.062410 0.000000 0.000000
# 5 0.000000 0.000000 0.000000 0.000000 0.062410 0.000000
# 6 0.000000 0.000000 0.000000 0.000000 0.000000 0.025961
#
#
# Mechanical properties :
#
#
# Convention : Reuss Voigt Hill
#
# Bulk Modulus (GPa) = 51.96751 52.04410 52.00580
# Shear Modulus (GPa) = 21.78463 24.28953 23.03708
#
# Velocity S-wave (km/s) = 3.44417 3.63679 3.54179
# Velocity P-wave (km/s) = 6.64184 6.78044 6.71150
#
# Compressibility (1/GPa) = 0.01924279
#
# Stress axis : x y z
#
# Youngs Moduli (GPa) = 67.29491 67.29491 62.25222
#
# Poissons Ratio (x) = 0.28530 0.28109
# Poissons Ratio (y) = 0.28530 0.28109
# Poissons Ratio (z) = 0.30386 0.30386
#
# Static dielectric constant tensor:
#      x y z
#    x 3.552140 0.000000 0.000000 
#    y 0.000000 3.552140 0.000000 
#    z 0.000000 0.000000 2.827090 
# 
# 
# High freq. dielectric constant tensor:
#      x y z
#    x 1.730330 0.000000 0.000000 
#    y 0.000000 1.730330 0.000000 
#    z 0.000000 0.000000 1.638280 
# 
# From -- ./inp_files/4580.got.cif
#   From: 2010.03.12/outbox.cif.g09.slc.cpg/sg130_3_cif.got.tgz:4580.got - 2010.04.06 17:30:23.
