data_PCOD8315547
_publ_section_title
;
Structure prediction by ZEFSAII (Michael W. Deem and Ramdas Pophale) SiO2 
 PCOD8315547
Probable space group: P 4/N C C
;
_chemical_formula_sum "Si O2"
_cell_formula_units_Z 96
_cell_length_a 23.037557
_cell_length_b 23.037557
_cell_length_c 10.624244
_cell_angle_alpha 90.000000
_cell_angle_beta 90.000000
_cell_angle_gamma 90.000000
_cell_volume 5638.594739
_symmetry_space_group_name_H-M "P 4/N C C"
_symmetry_group_IT_number 130
_symmetry_cell_setting 'tetragonal'
loop_
_space_group_symop_operation_xyz
x,y,z
1/2-y,x,z
1/2-x,1/2-y,z
y,1/2-x,z
1/2+x,-y,1/2-z
-x,1/2+y,1/2-z
1/2+y,1/2+x,1/2-z
-y,-x,1/2-z
-x,-y,-z
1/2+y,-x,-z
1/2+x,1/2+y,-z
-y,1/2+x,-z
1/2-x,y,1/2+z
x,1/2-y,1/2+z
1/2-y,1/2-x,1/2+z
y,x,1/2+z
loop_
_atom_site_type_symbol
_atom_site_label
_atom_site_fract_x
_atom_site_fract_y
_atom_site_fract_z
Si Si1 0.465506 0.481988 0.128410
Si Si2 0.343371 0.650593 0.477995
Si Si3 0.437963 0.732378 0.880445
Si Si4 0.528228 0.353888 0.532163
Si Si5 0.339424 0.755830 0.187822
Si Si6 0.973004 0.121876 0.248371
O O1 0.479440 0.520560 0.250000
O O2 0.395857 0.486391 0.112615
O O3 0.583086 0.517355 0.331862
O O4 0.500000 0.500000 0.000000
O O5 0.300568 0.597828 0.511114
O O6 0.405609 0.625450 0.437324
O O7 0.306199 0.682824 0.368607
O O8 0.360767 0.697590 0.583394
O O9 0.477459 0.785375 0.932844
O O10 0.392642 0.757733 0.780179
O O11 0.477454 0.684159 0.816625
O O12 0.507960 0.367267 0.390635
O O13 0.283221 0.783221 0.250000
O O14 0.908219 0.091782 0.250000
#
# Coordination Sequence:
#
# PCOD8315547 Si02
#       6
#    16  16  16  16  16  16
#     4  11  22  39  62  84 109 151 195 248 300 357
#     4  11  19  37  48  67  99 143 189 240 285 331
#     4  11  20  36  54  75 102 147 186 242 293 340
#     4  12  23  37  56  83 108 142 204 243 293 344
#     4  10  22  36  45  63  95 144 191 240 289 330
#     4  11  19  41  61  74 115 151 188 245 305 339
#
# _framework density 17.025518999999999
#
# number of rings (size 3 to 8) (size 9 to 14) (size 15 to 20)
#    0.000    1.000    8.333    0.500    2.333    0.333 
#    6.000    0.000    0.000    0.000    0.000    0.000 
#    0.000    0.667    0.000    3.000    0.000    0.333 
#
# Total GULP energy -1189566.153963 kJ/mol
# GULP energy per Si atom -12391.314104 kJ/mol
# Density = 1.698677 g / cm^3
# Si number density = 17.025519 Si / 1000 Ang^3
#
#
#
# Elastic Constant Matrix: (Units=GPa)
#
#
# Indices 1 2 3 4 5 6 
#
# 1 85.5925 46.4867 32.9360 0.0000 0.0000 0.0000
# 2 46.4867 85.5916 32.9359 0.0000 0.0000 0.0000
# 3 32.9360 32.9359 88.1574 0.0000 0.0000 0.0000
# 4 0.0000 0.0000 0.0000 12.4272 0.0000 0.0000
# 5 0.0000 0.0000 0.0000 0.0000 12.4270 0.0000
# 6 0.0000 0.0000 0.0000 0.0000 0.0000 36.9277
#
#
#
# Elastic Compliance Matrix: (Units=1/GPa)
#
#
# Indices 1 2 3 4 5 6 
#
# 1 0.017438 -0.008133 -0.003476 0.000000 0.000000 0.000000
# 2 -0.008133 0.017439 -0.003476 0.000000 0.000000 0.000000
# 3 -0.003476 -0.003476 0.013941 0.000000 0.000000 0.000000
# 4 0.000000 0.000000 0.000000 0.080469 0.000000 0.000000
# 5 0.000000 0.000000 0.000000 0.000000 0.080470 0.000000
# 6 0.000000 0.000000 0.000000 0.000000 0.000000 0.027080
#
#
# Mechanical properties :
#
#
# Convention : Reuss Voigt Hill
#
# Bulk Modulus (GPa) = 53.63248 53.78429 53.70839
# Shear Modulus (GPa) = 18.30000 22.15524 20.22762
#
# Velocity S-wave (km/s) = 3.28206 3.61126 3.45059
# Velocity P-wave (km/s) = 6.77733 7.00337 6.89128
#
# Compressibility (1/GPa) = 0.01864542
#
# Stress axis : x y z
#
# Youngs Moduli (GPa) = 57.34481 57.34417 71.73124
#
# Poissons Ratio (x) = 0.46641 0.24936
# Poissons Ratio (y) = 0.46641 0.24937
# Poissons Ratio (z) = 0.19935 0.19935
#
# Static dielectric constant tensor:
#      x y z
#    x 3.089690 0.000000 0.000000 
#    y 0.000000 3.089700 0.000000 
#    z 0.000000 0.000000 2.830500 
# 
# 
# High freq. dielectric constant tensor:
#      x y z
#    x 1.623690 0.000000 0.000000 
#    y 0.000000 1.623690 0.000000 
#    z 0.000000 0.000000 1.683330 
# 
# From -- ./inp_files/1826.got.cif
#   From: 2010.03.12/outbox.cif.g09.slc.cpg/sg130_1_cif.got.tgz:1826.got - 2010.04.06 17:30:23.
