data_PCOD8316867
_publ_section_title
;
Structure prediction by ZEFSAII (Michael W. Deem and Ramdas Pophale) SiO2 
 PCOD8316867
Probable space group: P 42/M C M
;
_chemical_formula_sum "Si O2"
_cell_formula_units_Z 80
_cell_length_a 17.403256
_cell_length_b 17.403256
_cell_length_c 20.703142
_cell_angle_alpha 90.000000
_cell_angle_beta 90.000000
_cell_angle_gamma 90.000000
_cell_volume 6270.429340
_symmetry_space_group_name_H-M "P 42/M C M"
_symmetry_group_IT_number 132
_symmetry_cell_setting 'tetragonal'
loop_
_space_group_symop_operation_xyz
x,y,z
-y,x,1/2+z
-x,-y,z
y,-x,1/2+z
x,-y,1/2-z
-x,y,1/2-z
y,x,-z
-y,-x,-z
-x,-y,-z
y,-x,1/2-z
x,y,-z
-y,x,1/2-z
-x,y,1/2+z
x,-y,1/2+z
-y,-x,z
y,x,z
loop_
_atom_site_type_symbol
_atom_site_label
_atom_site_fract_x
_atom_site_fract_y
_atom_site_fract_z
Si Si1 0.189545 0.939706 0.375932
Si Si2 0.000000 0.126854 0.250000
Si Si3 0.171469 0.699501 0.427726
Si Si4 0.374670 0.504063 0.821687
Si Si5 0.003597 0.873947 0.000000
Si Si6 0.579284 0.291315 0.573042
O O1 0.122043 0.877958 0.377051
O O2 0.272845 0.897473 0.380614
O O3 0.183591 0.988260 0.310434
O O4 0.179092 0.996345 0.436685
O O5 0.073896 0.073896 0.263796
O O6 0.137911 0.691068 0.500000
O O7 0.236375 0.763626 0.428433
O O8 0.210507 0.619095 0.405928
O O9 0.337066 0.500000 0.750000
O O10 0.412268 0.587733 0.834658
O O11 0.440906 0.440906 0.825282
O O12 0.309979 0.488633 0.876210
O O13 0.087167 0.912834 0.000000
O O14 0.938082 0.938082 0.000000
O O15 0.545961 0.285096 0.500000
O O16 0.641764 0.358237 0.575071
#
# Coordination Sequence:
#
# PCOD8316867 Si02
#       6
#    16   8  16  16   8  16
#     4   9  14  20  28  37  52  76 102 130 164 196
#     4   9  16  22  26  36  56  80 105 132 162 196
#     4   8  12  19  29  40  53  72 102 135 163 188
#     4   8  13  20  28  39  59  88 114 130 148 177
#     4   9  14  18  26  38  50  70 103 133 156 193
#     4   8  13  19  28  42  58  78 107 138 159 178
#
# _framework density 12.758297000000001
#
# number of rings (size 3 to 8) (size 9 to 14) (size 15 to 20)
#    0.000    3.600    1.000    2.400    0.000    2.800 
#    0.000    2.000    0.000    0.000    0.000    0.000 
#    0.000    0.000    3.400    0.900   36.400    6.800 
#
# Total GULP energy -991044.975217 kJ/mol
# GULP energy per Si atom -12388.062190 kJ/mol
# Density = 1.272926 g / cm^3
# Si number density = 12.758297 Si / 1000 Ang^3
#
#
#
# Elastic Constant Matrix: (Units=GPa)
#
#
# Indices 1 2 3 4 5 6 
#
# 1 34.8420 30.1905 42.8481 0.0000 0.0000 0.0000
# 2 30.1905 34.8422 42.8482 0.0000 0.0000 0.0000
# 3 42.8481 42.8482 117.6455 0.0000 0.0000 0.0000
# 4 0.0000 0.0000 0.0000 5.0091 0.0000 0.0000
# 5 0.0000 0.0000 0.0000 0.0000 5.0091 0.0000
# 6 0.0000 0.0000 0.0000 0.0000 0.0000 15.8642
#
#
#
# Elastic Compliance Matrix: (Units=1/GPa)
#
#
# Indices 1 2 3 4 5 6 
#
# 1 0.122273 -0.092705 -0.010769 0.000000 0.000000 0.000000
# 2 -0.092705 0.122273 -0.010769 0.000000 0.000000 0.000000
# 3 -0.010769 -0.010769 0.016345 0.000000 0.000000 0.000000
# 4 0.000000 0.000000 0.000000 0.199638 0.000000 0.000000
# 5 0.000000 0.000000 0.000000 0.000000 0.199638 0.000000
# 6 0.000000 0.000000 0.000000 0.000000 0.000000 0.063035
#
#
# Mechanical properties :
#
#
# Convention : Reuss Voigt Hill
#
# Bulk Modulus (GPa) = 30.86039 46.56703 38.71371
# Shear Modulus (GPa) = 5.19486 9.93934 7.56710
#
# Velocity S-wave (km/s) = 2.02005 2.79417 2.43803
# Velocity P-wave (km/s) = 5.44810 6.85482 6.19154
#
# Compressibility (1/GPa) = 0.03240400
#
# Stress axis : x y z
#
# Youngs Moduli (GPa) = 8.17840 8.17844 61.18259
#
# Poissons Ratio (x) = 0.75819 0.65888
# Poissons Ratio (y) = 0.75818 0.65887
# Poissons Ratio (z) = 0.08807 0.08807
#
# Static dielectric constant tensor:
#      x y z
#    x 2.402430 0.000000 0.000000 
#    y 0.000000 2.402430 0.000000 
#    z 0.000000 0.000000 2.793570 
# 
# 
# High freq. dielectric constant tensor:
#      x y z
#    x 1.437340 0.000000 0.000000 
#    y 0.000000 1.437340 0.000000 
#    z 0.000000 0.000000 1.490160 
# 
# From -- ./inp_files/8009.got.cif
#   From: 2010.03.12/outbox.cif.g09.slc.cpg/sg132_5_cif.got.tgz:8009.got - 2010.04.06 17:53:44.
