data_PCOD8316025
_publ_section_title
;
Structure prediction by ZEFSAII (Michael W. Deem and Ramdas Pophale) SiO2 
 PCOD8316025
Probable space group: P 42/M M C
;
_chemical_formula_sum "Si O2"
_cell_formula_units_Z 72
_cell_length_a 13.783247
_cell_length_b 13.783247
_cell_length_c 20.680657
_cell_angle_alpha 90.000000
_cell_angle_beta 90.000000
_cell_angle_gamma 90.000000
_cell_volume 3928.867743
_symmetry_space_group_name_H-M "P 42/M M C"
_symmetry_group_IT_number 131
_symmetry_cell_setting 'tetragonal'
loop_
_space_group_symop_operation_xyz
x,y,z
-x,-y,z
-y,x,1/2+z
y,-x,1/2+z
-x,y,-z
x,-y,-z
y,x,1/2-z
-y,-x,1/2-z
-x,-y,-z
x,y,-z
y,-x,1/2-z
-y,x,1/2-z
x,-y,z
-x,y,z
-y,-x,1/2+z
y,x,1/2+z
loop_
_atom_site_type_symbol
_atom_site_label
_atom_site_fract_x
_atom_site_fract_y
_atom_site_fract_z
Si Si1 0.000000 0.390132 0.842558
Si Si2 0.339334 0.741719 0.854975
Si Si3 0.204243 0.000000 0.423563
Si Si4 0.799824 0.889312 0.923306
Si Si5 0.500000 0.613725 0.076852
Si Si6 0.802682 0.394644 0.220584
O O1 0.087618 0.369314 0.794775
O O2 0.000000 0.500000 0.870913
O O3 0.000000 0.316368 0.902388
O O4 0.288806 0.823053 0.898986
O O5 0.405101 0.669396 0.897304
O O6 0.259472 0.681641 0.817625
O O7 0.399289 0.792855 0.798173
O O8 0.149742 0.096262 0.397307
O O9 0.203416 0.000000 0.500000
O O10 0.785993 0.000000 0.898930
O O11 0.798057 0.885043 0.000000
O O12 0.500000 0.500000 0.099300
O O13 0.500000 0.619506 0.000000
O O14 0.773214 0.500000 0.193444
#
# Coordination Sequence:
#
# PCOD8316025 Si02
#       6
#     8  16   8  16   8  16
#     4  10  20  36  57  84 120 149 192 241 297 358
#     4  11  21  38  61  83 117 151 199 243 293 349
#     4  10  19  37  60  85 119 154 193 243 296 357
#     4  10  21  37  59  86 116 154 197 239 291 358
#     4  11  24  42  63  89 121 155 195 250 303 351
#     4  10  21  37  57  84 113 153 194 241 293 350
#
# _framework density 18.325890000000001
#
# number of rings (size 3 to 8) (size 9 to 14) (size 15 to 20)
#    0.000    1.667    3.333    1.667    1.556    1.556 
#    0.000    0.556    0.000    2.000    0.000    0.000 
#    0.000    0.000    0.000    0.000    0.000    0.000 
#
# Total GULP energy -892451.082755 kJ/mol
# GULP energy per Si atom -12395.153927 kJ/mol
# Density = 1.828418 g / cm^3
# Si number density = 18.325890 Si / 1000 Ang^3
#
#
#
# Elastic Constant Matrix: (Units=GPa)
#
#
# Indices 1 2 3 4 5 6 
#
# 1 116.7067 68.9604 36.4590 0.0000 0.0000 0.0000
# 2 68.9604 116.7067 36.4590 0.0000 0.0000 0.0000
# 3 36.4590 36.4590 55.1797 0.0000 0.0000 0.0000
# 4 0.0000 0.0000 0.0000 30.6957 0.0000 0.0000
# 5 0.0000 0.0000 0.0000 0.0000 30.6957 0.0000
# 6 0.0000 0.0000 0.0000 0.0000 0.0000 30.9943
#
#
#
# Elastic Compliance Matrix: (Units=1/GPa)
#
#
# Indices 1 2 3 4 5 6 
#
# 1 0.014109 -0.006835 -0.004806 0.000000 0.000000 0.000000
# 2 -0.006835 0.014109 -0.004806 0.000000 0.000000 0.000000
# 3 -0.004806 -0.004806 0.024473 0.000000 0.000000 0.000000
# 4 0.000000 0.000000 0.000000 0.032578 0.000000 0.000000
# 5 0.000000 0.000000 0.000000 0.000000 0.032578 0.000000
# 6 0.000000 0.000000 0.000000 0.000000 0.000000 0.032264
#
#
# Mechanical properties :
#
#
# Convention : Reuss Voigt Hill
#
# Bulk Modulus (GPa) = 50.51278 63.59442 57.05360
# Shear Modulus (GPa) = 26.37091 28.25814 27.31453
#
# Velocity S-wave (km/s) = 3.79753 3.93106 3.86487
# Velocity P-wave (km/s) = 6.84483 7.44188 7.14959
#
# Compressibility (1/GPa) = 0.01979697
#
# Stress axis : x y z
#
# Youngs Moduli (GPa) = 70.87831 70.87831 40.86103
#
# Poissons Ratio (x) = 0.48448 0.19637
# Poissons Ratio (y) = 0.48448 0.19637
# Poissons Ratio (z) = 0.34062 0.34062
#
# Static dielectric constant tensor:
#      x y z
#    x 3.571650 0.000000 0.000000 
#    y 0.000000 3.571650 0.000000 
#    z 0.000000 0.000000 3.289700 
# 
# 
# High freq. dielectric constant tensor:
#      x y z
#    x 1.722950 0.000000 0.000000 
#    y 0.000000 1.722950 0.000000 
#    z 0.000000 0.000000 1.698870 
# 
# From -- ./inp_files/7677.got.cif
#   From: 2010.03.12/outbox.cif.g09.slc.cpg/sg131_4_cif.got.tgz:7677.got - 2010.04.06 17:36:35.
