data_PCOD8316357
_publ_section_title
;
Structure prediction by ZEFSAII (Michael W. Deem and Ramdas Pophale) SiO2 
 PCOD8316357
Probable space group: P 42/M M C
;
_chemical_formula_sum "Si O2"
_cell_formula_units_Z 72
_cell_length_a 12.262234
_cell_length_b 12.262234
_cell_length_c 26.035438
_cell_angle_alpha 90.000000
_cell_angle_beta 90.000000
_cell_angle_gamma 90.000000
_cell_volume 3914.750492
_symmetry_space_group_name_H-M "P 42/M M C"
_symmetry_group_IT_number 131
_symmetry_cell_setting 'tetragonal'
loop_
_space_group_symop_operation_xyz
x,y,z
-x,-y,z
-y,x,1/2+z
y,-x,1/2+z
-x,y,-z
x,-y,-z
y,x,1/2-z
-y,-x,1/2-z
-x,-y,-z
x,y,-z
y,-x,1/2-z
-y,x,1/2-z
x,-y,z
-x,y,z
-y,-x,1/2+z
y,x,1/2+z
loop_
_atom_site_type_symbol
_atom_site_label
_atom_site_fract_x
_atom_site_fract_y
_atom_site_fract_z
Si Si1 0.618839 0.874046 0.817319
Si Si2 0.000000 0.129329 0.060808
Si Si3 0.212717 0.768734 0.885184
Si Si4 0.627480 0.123143 0.294993
Si Si5 0.379700 0.379207 0.939628
O O1 0.500000 0.825419 0.834308
O O2 0.709943 0.861280 0.861044
O O3 0.652915 0.825292 0.761415
O O4 0.602325 0.000000 0.806523
O O5 0.107211 0.180420 0.087200
O O6 0.000000 0.000000 0.070127
O O7 0.000000 0.156428 0.000000
O O8 0.189137 0.688811 0.838532
O O9 0.284109 0.703867 0.926087
O O10 0.500000 0.129274 0.307048
O O11 0.671257 0.000000 0.298460
O O12 0.353035 0.500000 0.917588
O O13 0.500000 0.342201 0.919185
O O14 0.383955 0.384912 0.000000
#
# Coordination Sequence:
#
# PCOD8316357 Si02
#       5
#    16   8  16  16  16
#     4   9  19  34  53  77 107 139 175 219 269 327
#     4  11  26  42  53  73 109 149 192 248 295 320
#     4  12  19  34  57  80 100 142 189 222 269 333
#     4   9  18  33  51  77 110 139 167 209 268 326
#     4   9  19  35  54  79 109 136 168 219 278 333
#
# _framework density 18.391978000000002
#
# number of rings (size 3 to 8) (size 9 to 14) (size 15 to 20)
#    0.000    2.111    1.111    5.333    0.000    0.000 
#    0.000    0.000    0.000    2.667    0.000   18.667 
#    0.000    0.000    0.000    0.000    0.000    0.000 
#
# Total GULP energy -892053.711674 kJ/mol
# GULP energy per Si atom -12389.634884 kJ/mol
# Density = 1.835012 g / cm^3
# Si number density = 18.391978 Si / 1000 Ang^3
#
#
#
# Elastic Constant Matrix: (Units=GPa)
#
#
# Indices 1 2 3 4 5 6 
#
# 1 97.2383 46.4243 47.7382 0.0000 0.0000 0.0000
# 2 46.4243 97.2383 47.7382 0.0000 0.0000 0.0000
# 3 47.7382 47.7382 92.9248 0.0000 0.0000 0.0000
# 4 0.0000 0.0000 0.0000 31.9471 0.0000 0.0000
# 5 0.0000 0.0000 0.0000 0.0000 31.9471 0.0000
# 6 0.0000 0.0000 0.0000 0.0000 0.0000 22.4718
#
#
#
# Elastic Compliance Matrix: (Units=1/GPa)
#
#
# Indices 1 2 3 4 5 6 
#
# 1 0.015124 -0.004555 -0.005430 0.000000 0.000000 0.000000
# 2 -0.004555 0.015124 -0.005430 0.000000 0.000000 0.000000
# 3 -0.005430 -0.005430 0.016340 0.000000 0.000000 0.000000
# 4 0.000000 0.000000 0.000000 0.031302 0.000000 0.000000
# 5 0.000000 0.000000 0.000000 0.000000 0.031302 0.000000
# 6 0.000000 0.000000 0.000000 0.000000 0.000000 0.044500
#
#
# Mechanical properties :
#
#
# Convention : Reuss Voigt Hill
#
# Bulk Modulus (GPa) = 63.45254 63.46697 63.45976
# Shear Modulus (GPa) = 26.34692 26.97324 26.66008
#
# Velocity S-wave (km/s) = 3.78897 3.83375 3.81143
# Velocity P-wave (km/s) = 7.32917 7.36068 7.34495
#
# Compressibility (1/GPa) = 0.01575981
#
# Stress axis : x y z
#
# Youngs Moduli (GPa) = 66.11811 66.11811 61.19867
#
# Poissons Ratio (x) = 0.30118 0.33229
# Poissons Ratio (y) = 0.30118 0.33229
# Poissons Ratio (z) = 0.35900 0.35900
#
# Static dielectric constant tensor:
#      x y z
#    x 3.364520 0.000000 0.000000 
#    y 0.000000 3.364520 0.000000 
#    z 0.000000 0.000000 3.339160 
# 
# 
# High freq. dielectric constant tensor:
#      x y z
#    x 1.711310 0.000000 0.000000 
#    y 0.000000 1.711310 0.000000 
#    z 0.000000 0.000000 1.715380 
# 
# From -- ./inp_files/12119.got.cif
#   From: 2010.03.12/outbox.cif.g09.slc.cpg/sg131_7_cif.got.tgz:12119.got - 2010.04.06 17:36:35.
