data_PCOD8316987
_publ_section_title
;
Structure prediction by ZEFSAII (Michael W. Deem and Ramdas Pophale) SiO2 
 PCOD8316987
Probable space group: P 42/N B C
;
_chemical_formula_sum "Si O2"
_cell_formula_units_Z 88
_cell_length_a 17.152911
_cell_length_b 17.152911
_cell_length_c 13.593581
_cell_angle_alpha 90.000000
_cell_angle_beta 90.000000
_cell_angle_gamma 90.000000
_cell_volume 3999.535425
_symmetry_space_group_name_H-M "P 42/N B C"
_symmetry_group_IT_number 133
_space_group.IT_coordinate_system_code '2'
_symmetry_cell_setting 'tetragonal'
loop_
_space_group_symop_operation_xyz
x,y,z
1/2-y,x,1/2+z
1/2-x,1/2-y,z
y,1/2-x,1/2+z
x,1/2-y,-z
1/2-x,y,-z
y,x,1/2-z
1/2-y,1/2-x,1/2-z
-x,-y,-z
1/2+y,-x,1/2-z
1/2+x,1/2+y,-z
-y,1/2+x,1/2-z
-x,1/2+y,z
1/2+x,-y,z
-y,-x,1/2+z
1/2+y,1/2+x,1/2+z
loop_
_atom_site_type_symbol
_atom_site_label
_atom_site_fract_x
_atom_site_fract_y
_atom_site_fract_z
Si Si1 0.284256 0.963729 0.695839
Si Si2 0.055252 0.750000 0.500000
Si Si3 0.029591 0.130368 0.371197
Si Si4 0.039945 0.456360 0.140595
Si Si5 0.670348 0.569521 0.528616
Si Si6 0.410664 0.654632 0.327186
O O1 0.329902 0.882275 0.707080
O O2 0.194615 0.949971 0.730034
O O3 0.323671 0.026089 0.769132
O O4 0.292512 0.993118 0.583694
O O5 0.107856 0.779455 0.409062
O O6 0.001331 0.819852 0.537793
O O7 0.120806 0.116523 0.391690
O O8 0.981554 0.050056 0.361916
O O9 0.067816 0.432185 0.250000
O O10 0.091805 0.532970 0.118478
O O11 0.051450 0.385635 0.064322
O O12 0.750000 0.616398 0.500000
#
# Coordination Sequence:
#
# PCOD8316987 Si02
#       6
#    16   8  16  16  16  16
#     4  11  24  42  69 100 135 177 228 288 345 418
#     4  10  22  38  67 101 130 174 230 276 342 420
#     4  11  21  41  69  95 128 177 229 279 340 406
#     4  12  21  40  69  97 128 181 233 281 333 411
#     4  12  24  38  63 106 135 166 229 290 346 406
#     4  11  22  42  68  98 134 182 227 283 344 414
#
# _framework density 22.002555000000001
#
# number of rings (size 3 to 8) (size 9 to 14) (size 15 to 20)
#    0.000    0.727    5.455    3.273    0.000    0.364 
#    0.000    0.455    0.000    0.000    4.727    0.000 
#    0.000    0.000    0.000    0.000    0.000    0.000 
#
# Total GULP energy -1090493.332641 kJ/mol
# GULP energy per Si atom -12391.969689 kJ/mol
# Density = 2.195248 g / cm^3
# Si number density = 22.002555 Si / 1000 Ang^3
#
#
#
# Elastic Constant Matrix: (Units=GPa)
#
#
# Indices 1 2 3 4 5 6 
#
# 1 84.3848 5.9654 16.3728 0.0000 0.0000 0.0000
# 2 5.9654 84.3850 16.3730 0.0000 0.0000 0.0000
# 3 16.3728 16.3730 110.5657 0.0000 0.0000 0.0000
# 4 0.0000 0.0000 0.0000 30.7623 0.0000 0.0000
# 5 0.0000 0.0000 0.0000 0.0000 30.7623 0.0000
# 6 0.0000 0.0000 0.0000 0.0000 0.0000 17.0010
#
#
#
# Elastic Compliance Matrix: (Units=1/GPa)
#
#
# Indices 1 2 3 4 5 6 
#
# 1 0.012224 -0.000528 -0.001732 0.000000 0.000000 0.000000
# 2 -0.000528 0.012224 -0.001732 0.000000 0.000000 0.000000
# 3 -0.001732 -0.001732 0.009557 0.000000 0.000000 0.000000
# 4 0.000000 0.000000 0.000000 0.032507 0.000000 0.000000
# 5 0.000000 0.000000 0.000000 0.000000 0.032507 0.000000
# 6 0.000000 0.000000 0.000000 0.000000 0.000000 0.058820
#
#
# Mechanical properties :
#
#
# Convention : Reuss Voigt Hill
#
# Bulk Modulus (GPa) = 38.43042 39.63977 39.03510
# Shear Modulus (GPa) = 28.65373 31.74674 30.20024
#
# Velocity S-wave (km/s) = 3.61264 3.80263 3.70885
# Velocity P-wave (km/s) = 5.90812 6.11024 6.01003
#
# Compressibility (1/GPa) = 0.02602105
#
# Stress axis : x y z
#
# Youngs Moduli (GPa) = 81.80733 81.80750 104.63159
#
# Poissons Ratio (x) = 0.04320 0.18122
# Poissons Ratio (y) = 0.04320 0.18122
# Poissons Ratio (z) = 0.14169 0.14169
#
# Static dielectric constant tensor:
#      x y z
#    x 3.940520 0.000000 0.000000 
#    y 0.000000 3.940520 0.000000 
#    z 0.000000 0.000000 4.429350 
# 
# 
# High freq. dielectric constant tensor:
#      x y z
#    x 1.847050 0.000000 0.000000 
#    y 0.000000 1.847050 0.000000 
#    z 0.000000 0.000000 1.893570 
# 
# From -- ./inp_files/4474.got.cif
#   From: 2010.03.12/outbox.cif.g09.slc.cpg/sg133_3_cif.got.tgz:4474.got - 2010.04.06 18:08:06.
