data_PCOD8316998
_publ_section_title
;
Structure prediction by ZEFSAII (Michael W. Deem and Ramdas Pophale) SiO2 
 PCOD8316998
Probable space group: P 42/N B C
;
_chemical_formula_sum "Si O2"
_cell_formula_units_Z 60
_cell_length_a 17.955547
_cell_length_b 17.955547
_cell_length_c 8.751813
_cell_angle_alpha 90.000000
_cell_angle_beta 90.000000
_cell_angle_gamma 90.000000
_cell_volume 2821.599110
_symmetry_space_group_name_H-M "P 42/N B C"
_symmetry_group_IT_number 133
_space_group.IT_coordinate_system_code '2'
_symmetry_cell_setting 'tetragonal'
loop_
_space_group_symop_operation_xyz
x,y,z
1/2-y,x,1/2+z
1/2-x,1/2-y,z
y,1/2-x,1/2+z
x,1/2-y,-z
1/2-x,y,-z
y,x,1/2-z
1/2-y,1/2-x,1/2-z
-x,-y,-z
1/2+y,-x,1/2-z
1/2+x,1/2+y,-z
-y,1/2+x,1/2-z
-x,1/2+y,z
1/2+x,-y,z
-y,-x,1/2+z
1/2+y,1/2+x,1/2+z
loop_
_atom_site_type_symbol
_atom_site_label
_atom_site_fract_x
_atom_site_fract_y
_atom_site_fract_z
Si Si1 0.100485 0.465675 0.520344
Si Si2 0.625684 0.750000 0.000000
Si Si3 0.750000 0.750000 0.750000
Si Si4 0.660955 0.211402 0.654752
Si Si5 0.595623 0.037631 0.154832
O O1 0.178354 0.426345 0.493439
O O2 0.082958 0.518933 0.376368
O O3 0.099367 0.518788 0.667498
O O4 0.036234 0.403304 0.547476
O O5 0.675628 0.748876 0.849452
O O6 0.687576 0.250000 0.500000
O O7 0.653466 0.275303 0.786375
O O8 0.584598 0.169155 0.618829
#
# Coordination Sequence:
#
# PCOD8316998 Si02
#       5
#    16   8   4  16  16
#     4  10  23  42  68  96 136 168 227 279 338 404
#     4  11  24  46  72  98 137 182 218 296 355 398
#     4  10  24  46  68 102 132 162 248 282 336 438
#     4  11  23  39  61  92 134 174 225 271 325 404
#     4  10  22  42  63  98 130 173 224 275 327 414
#
# _framework density 21.264537000000001
#
# number of rings (size 3 to 8) (size 9 to 14) (size 15 to 20)
#    0.000    1.600    0.000    4.800    3.733    4.267 
#    9.600    0.000    0.000    0.000    0.000    0.000 
#    0.000    0.000    0.000    0.000    0.000    0.000 
#
# Total GULP energy -743769.182545 kJ/mol
# GULP energy per Si atom -12396.153042 kJ/mol
# Density = 2.121614 g / cm^3
# Si number density = 21.264537 Si / 1000 Ang^3
#
#
#
# Elastic Constant Matrix: (Units=GPa)
#
#
# Indices 1 2 3 4 5 6 
#
# 1 144.3795 95.3681 56.5999 0.0000 0.0000 0.0000
# 2 95.3681 144.3795 56.5999 0.0000 0.0000 0.0000
# 3 56.5999 56.5999 120.2522 0.0000 0.0000 0.0000
# 4 0.0000 0.0000 0.0000 21.9775 0.0000 0.0000
# 5 0.0000 0.0000 0.0000 0.0000 21.9775 0.0000
# 6 0.0000 0.0000 0.0000 0.0000 0.0000 59.5084
#
#
#
# Elastic Compliance Matrix: (Units=1/GPa)
#
#
# Indices 1 2 3 4 5 6 
#
# 1 0.012883 -0.007520 -0.002524 0.000000 0.000000 0.000000
# 2 -0.007520 0.012883 -0.002524 0.000000 0.000000 0.000000
# 3 -0.002524 -0.002524 0.010692 0.000000 0.000000 0.000000
# 4 0.000000 0.000000 0.000000 0.045501 0.000000 0.000000
# 5 0.000000 0.000000 0.000000 0.000000 0.045501 0.000000
# 6 0.000000 0.000000 0.000000 0.000000 0.000000 0.016804
#
#
# Mechanical properties :
#
#
# Convention : Reuss Voigt Hill
#
# Bulk Modulus (GPa) = 88.33115 91.79409 90.06262
# Shear Modulus (GPa) = 28.87239 34.05557 31.46398
#
# Velocity S-wave (km/s) = 3.68879 4.00624 3.85079
# Velocity P-wave (km/s) = 7.73125 8.04123 7.88776
#
# Compressibility (1/GPa) = 0.01132103
#
# Stress axis : x y z
#
# Youngs Moduli (GPa) = 77.62072 77.62072 93.52792
#
# Poissons Ratio (x) = 0.58373 0.23608
# Poissons Ratio (y) = 0.58373 0.23608
# Poissons Ratio (z) = 0.19593 0.19593
#
# Static dielectric constant tensor:
#      x y z
#    x 3.875900 0.000000 0.000000 
#    y 0.000000 3.875900 0.000000 
#    z 0.000000 0.000000 3.941410 
# 
# 
# High freq. dielectric constant tensor:
#      x y z
#    x 1.832180 0.000000 0.000000 
#    y 0.000000 1.832180 0.000000 
#    z 0.000000 0.000000 1.842500 
# 
# From -- ./inp_files/1358.got.cif
#   From: 2010.03.12/outbox.cif.g09.slc.cpg/sg133_1_cif.got.tgz:1358.got - 2010.04.06 18:08:06.
