data_PCOD8316682
_publ_section_title
;
Structure prediction by ZEFSAII (Michael W. Deem and Ramdas Pophale) SiO2 
 PCOD8316682
Probable space group: P 42/M C M
;
_chemical_formula_sum "Si O2"
_cell_formula_units_Z 96
_cell_length_a 15.215212
_cell_length_b 15.215212
_cell_length_c 21.433585
_cell_angle_alpha 90.000000
_cell_angle_beta 90.000000
_cell_angle_gamma 90.000000
_cell_volume 4961.932288
_symmetry_space_group_name_H-M "P 42/M C M"
_symmetry_group_IT_number 132
_symmetry_cell_setting 'tetragonal'
loop_
_space_group_symop_operation_xyz
x,y,z
-y,x,1/2+z
-x,-y,z
y,-x,1/2+z
x,-y,1/2-z
-x,y,1/2-z
y,x,-z
-y,-x,-z
-x,-y,-z
y,-x,1/2-z
x,y,-z
-y,x,1/2-z
-x,y,1/2+z
x,-y,1/2+z
-y,-x,z
y,x,z
loop_
_atom_site_type_symbol
_atom_site_label
_atom_site_fract_x
_atom_site_fract_y
_atom_site_fract_z
Si Si1 0.304201 0.437417 0.827922
Si Si2 0.758271 0.617764 0.699876
Si Si3 0.144847 0.001264 0.179594
Si Si4 0.442329 0.079223 0.627012
Si Si5 0.714737 0.981247 0.071099
Si Si6 0.181704 0.399709 0.930072
O O1 0.403852 0.403852 0.816346
O O2 0.239934 0.401868 0.773322
O O3 0.302778 0.542724 0.832254
O O4 0.268387 0.389662 0.889157
O O5 0.712921 0.712921 0.685000
O O6 0.859040 0.609290 0.676850
O O7 0.090611 0.090611 0.170663
O O8 0.186787 0.000000 0.250000
O O9 0.215537 0.995202 0.124503
O O10 0.082141 0.917860 0.172466
O O11 0.370238 0.042323 0.579496
O O12 0.508475 0.135746 0.586152
O O13 0.500000 0.000000 0.659113
O O14 0.684370 0.880905 0.080194
O O15 0.751168 0.995482 0.000000
O O16 0.215043 0.404069 0.000000
#
# Coordination Sequence:
#
# PCOD8316682 Si02
#       6
#    16  16  16  16  16  16
#     4   9  18  32  50  74 103 135 173 215 259 309
#     4   9  18  33  52  76 105 136 173 219 267 313
#     4   9  20  39  57  72  97 135 174 212 262 325
#     4   9  18  34  54  75 105 141 175 212 261 322
#     4  10  20  33  53  80 103 129 171 217 262 315
#     4   9  18  33  51  72 102 138 172 210 256 307
#
# _framework density 19.347301000000002
#
# number of rings (size 3 to 8) (size 9 to 14) (size 15 to 20)
#    0.000    2.833    0.000    1.000    0.000    6.000 
#    0.000   22.500    0.000   12.000    0.000    4.667 
#    0.000    0.000    0.000    0.000    0.000    0.000 
#
# Total GULP energy -1189396.990870 kJ/mol
# GULP energy per Si atom -12389.551988 kJ/mol
# Density = 1.930327 g / cm^3
# Si number density = 19.347301 Si / 1000 Ang^3
#
#
#
# Elastic Constant Matrix: (Units=GPa)
#
#
# Indices 1 2 3 4 5 6 
#
# 1 69.1972 23.2556 37.9305 0.0000 0.0000 0.0000
# 2 23.2556 69.1972 37.9305 0.0000 0.0000 0.0000
# 3 37.9305 37.9305 117.2508 0.0000 0.0000 0.0000
# 4 0.0000 0.0000 0.0000 21.6638 0.0000 0.0000
# 5 0.0000 0.0000 0.0000 0.0000 21.6638 0.0000
# 6 0.0000 0.0000 0.0000 0.0000 0.0000 20.6883
#
#
#
# Elastic Compliance Matrix: (Units=1/GPa)
#
#
# Indices 1 2 3 4 5 6 
#
# 1 0.018246 -0.003521 -0.004764 0.000000 0.000000 0.000000
# 2 -0.003521 0.018246 -0.004764 0.000000 0.000000 0.000000
# 3 -0.004764 -0.004764 0.011611 0.000000 0.000000 0.000000
# 4 0.000000 0.000000 0.000000 0.046160 0.000000 0.000000
# 5 0.000000 0.000000 0.000000 0.000000 0.046160 0.000000
# 6 0.000000 0.000000 0.000000 0.000000 0.000000 0.048336
#
#
# Mechanical properties :
#
#
# Convention : Reuss Voigt Hill
#
# Bulk Modulus (GPa) = 45.44089 50.43093 47.93591
# Shear Modulus (GPa) = 22.50325 23.23843 22.87084
#
# Velocity S-wave (km/s) = 3.41416 3.46948 3.44193
# Velocity P-wave (km/s) = 6.25139 6.49403 6.37386
#
# Compressibility (1/GPa) = 0.02200661
#
# Stress axis : x y z
#
# Youngs Moduli (GPa) = 54.80695 54.80695 86.12737
#
# Poissons Ratio (x) = 0.19297 0.41027
# Poissons Ratio (y) = 0.19297 0.41027
# Poissons Ratio (z) = 0.26107 0.26107
#
# Static dielectric constant tensor:
#      x y z
#    x 3.483100 0.000000 0.000000 
#    y 0.000000 3.483100 0.000000 
#    z 0.000000 0.000000 3.563210 
# 
# 
# High freq. dielectric constant tensor:
#      x y z
#    x 1.744060 0.000000 0.000000 
#    y 0.000000 1.744060 0.000000 
#    z 0.000000 0.000000 1.747860 
# 
# From -- ./inp_files/7857.got.cif
#   From: 2010.03.12/outbox.cif.g09.slc.cpg/sg132_4_cif.got.tgz:7857.got - 2010.04.06 17:53:44.
