data_PCOD8316194
_publ_section_title
;
Structure prediction by ZEFSAII (Michael W. Deem and Ramdas Pophale) SiO2 
 PCOD8316194
Probable space group: P 42/M M C
;
_chemical_formula_sum "Si O2"
_cell_formula_units_Z 112
_cell_length_a 14.226209
_cell_length_b 14.226209
_cell_length_c 26.330993
_cell_angle_alpha 90.000000
_cell_angle_beta 90.000000
_cell_angle_gamma 90.000000
_cell_volume 5328.998611
_symmetry_space_group_name_H-M "P 42/M M C"
_symmetry_group_IT_number 131
_symmetry_cell_setting 'tetragonal'
loop_
_space_group_symop_operation_xyz
x,y,z
-x,-y,z
-y,x,1/2+z
y,-x,1/2+z
-x,y,-z
x,-y,-z
y,x,1/2-z
-y,-x,1/2-z
-x,-y,-z
x,y,-z
y,-x,1/2-z
-y,x,1/2-z
x,-y,z
-x,y,z
-y,-x,1/2+z
y,x,1/2+z
loop_
_atom_site_type_symbol
_atom_site_label
_atom_site_fract_x
_atom_site_fract_y
_atom_site_fract_z
Si Si1 0.703978 0.210021 0.442391
Si Si2 0.893942 0.224809 0.399565
Si Si3 0.235904 0.388604 0.241899
Si Si4 0.892138 0.390166 0.147111
Si Si5 0.605597 0.602994 0.439812
Si Si6 0.896354 0.111627 0.804503
Si Si7 0.604325 0.894962 0.834061
O O1 0.668562 0.192737 0.500000
O O2 0.818107 0.205028 0.443363
O O3 0.661404 0.131305 0.405835
O O4 0.672428 0.312760 0.421013
O O5 0.856842 0.169387 0.350130
O O6 0.889515 0.333835 0.384853
O O7 0.000000 0.195080 0.416610
O O8 0.333853 0.333853 0.250000
O O9 0.257133 0.500000 0.239487
O O10 0.177983 0.355871 0.191821
O O11 0.173122 0.361120 0.290004
O O12 0.878770 0.500000 0.137693
O O13 0.000000 0.367077 0.162010
O O14 0.605490 0.600231 0.500000
O O15 0.639568 0.500000 0.419314
O O16 0.500000 0.622850 0.419740
O O17 0.854131 0.145870 0.750000
O O18 0.000000 0.154097 0.814620
O O19 0.902187 0.000000 0.801362
O O20 0.500000 0.869132 0.852098
O O21 0.609763 0.000000 0.810967
#
# Coordination Sequence:
#
# PCOD8316194 Si02
#       7
#    16  16  16  16  16  16  16
#     4  11  23  37  55  80 111 150 198 248 294 341
#     4  10  21  35  52  77 109 146 186 227 277 338
#     4  10  20  36  59  87 121 156 186 220 270 336
#     4  10  22  40  61  86 117 153 195 243 292 341
#     4   8  15  31  56  82 104 127 162 217 285 346
#     4   8  15  30  52  77 103 128 159 209 273 334
#     4   9  18  34  56  80 107 141 181 224 271 328
#
# _framework density 21.017081000000001
#
# number of rings (size 3 to 8) (size 9 to 14) (size 15 to 20)
#    0.000    2.571    0.000    2.571    0.000    6.143 
#    0.000    2.857    0.000    0.857    0.000    7.000 
#    0.000    1.143    0.000    0.000    0.000    0.000 
#
# Total GULP energy -1388177.708612 kJ/mol
# GULP energy per Si atom -12394.443827 kJ/mol
# Density = 2.096925 g / cm^3
# Si number density = 21.017081 Si / 1000 Ang^3
#
#
#
# Elastic Constant Matrix: (Units=GPa)
#
#
# Indices 1 2 3 4 5 6 
#
# 1 85.2483 33.6420 24.7925 0.0000 0.0000 0.0000
# 2 33.6420 85.2484 24.7924 0.0000 0.0000 0.0000
# 3 24.7925 24.7924 56.9960 0.0000 0.0000 0.0000
# 4 0.0000 0.0000 0.0000 16.1948 0.0000 0.0000
# 5 0.0000 0.0000 0.0000 0.0000 16.1948 0.0000
# 6 0.0000 0.0000 0.0000 0.0000 0.0000 15.1280
#
#
#
# Elastic Compliance Matrix: (Units=1/GPa)
#
#
# Indices 1 2 3 4 5 6 
#
# 1 0.014826 -0.004551 -0.004470 0.000000 0.000000 0.000000
# 2 -0.004551 0.014826 -0.004470 0.000000 0.000000 0.000000
# 3 -0.004470 -0.004470 0.021433 0.000000 0.000000 0.000000
# 4 0.000000 0.000000 0.000000 0.061748 0.000000 0.000000
# 5 0.000000 0.000000 0.000000 0.000000 0.061748 0.000000
# 6 0.000000 0.000000 0.000000 0.000000 0.000000 0.066103
#
#
# Mechanical properties :
#
#
# Convention : Reuss Voigt Hill
#
# Bulk Modulus (GPa) = 41.48409 43.77183 42.62796
# Shear Modulus (GPa) = 18.13558 19.12123 18.62840
#
# Velocity S-wave (km/s) = 2.94070 3.01955 2.98039
# Velocity P-wave (km/s) = 5.59566 5.74708 5.67187
#
# Compressibility (1/GPa) = 0.02410563
#
# Stress axis : x y z
#
# Youngs Moduli (GPa) = 67.44752 67.44757 46.65595
#
# Poissons Ratio (x) = 0.30696 0.20853
# Poissons Ratio (y) = 0.30696 0.20853
# Poissons Ratio (z) = 0.30146 0.30146
#
# Static dielectric constant tensor:
#      x y z
#    x 3.923980 0.000000 0.000000 
#    y 0.000000 3.923980 0.000000 
#    z 0.000000 0.000000 3.474920 
# 
# 
# High freq. dielectric constant tensor:
#      x y z
#    x 1.825770 0.000000 0.000000 
#    y 0.000000 1.825770 0.000000 
#    z 0.000000 0.000000 1.789320 
# 
# From -- ./inp_files/11259.got.cif
#   From: 2010.03.12/outbox.cif.g09.slc.cpg/sg131_6_cif.got.tgz:11259.got - 2010.04.06 17:36:35.
