data_PCOD8316256
_publ_section_title
;
Structure prediction by ZEFSAII (Michael W. Deem and Ramdas Pophale) SiO2 
 PCOD8316256
Probable space group: P 42/M M C
;
_chemical_formula_sum "Si O2"
_cell_formula_units_Z 88
_cell_length_a 17.538554
_cell_length_b 17.538554
_cell_length_c 14.788874
_cell_angle_alpha 90.000000
_cell_angle_beta 90.000000
_cell_angle_gamma 90.000000
_cell_volume 4549.070604
_symmetry_space_group_name_H-M "P 42/M M C"
_symmetry_group_IT_number 131
_symmetry_cell_setting 'tetragonal'
loop_
_space_group_symop_operation_xyz
x,y,z
-x,-y,z
-y,x,1/2+z
y,-x,1/2+z
-x,y,-z
x,-y,-z
y,x,1/2-z
-y,-x,1/2-z
-x,-y,-z
x,y,-z
y,-x,1/2-z
-y,x,1/2-z
x,-y,z
-x,y,z
-y,-x,1/2+z
y,x,1/2+z
loop_
_atom_site_type_symbol
_atom_site_label
_atom_site_fract_x
_atom_site_fract_y
_atom_site_fract_z
Si Si1 0.640625 0.690241 0.663787
Si Si2 0.083767 0.719156 0.104694
Si Si3 0.351310 0.910816 0.895854
Si Si4 0.146717 0.584842 0.216311
Si Si5 0.413528 0.588907 0.000000
Si Si6 0.764674 0.210661 0.102926
O O1 0.635056 0.635056 0.750000
O O2 0.591917 0.766587 0.680777
O O3 0.611990 0.637902 0.583958
O O4 0.729952 0.712069 0.656019
O O5 0.092857 0.643172 0.163495
O O6 0.146900 0.782147 0.134446
O O7 0.000000 0.753955 0.123114
O O8 0.093439 0.696189 0.000000
O O9 0.404733 0.865704 0.825003
O O10 0.266154 0.875244 0.883400
O O11 0.347441 0.000000 0.872822
O O12 0.379802 0.897907 0.000000
O O13 0.119469 0.500000 0.192574
O O14 0.500000 0.625658 0.000000
O O15 0.425230 0.500000 0.000000
O O16 0.758901 0.236961 0.000000
#
# Coordination Sequence:
#
# PCOD8316256 Si02
#       6
#    16  16  16  16   8  16
#     4  11  21  40  64  87 111 151 204 246 292 354
#     4   9  19  34  54  81 112 148 186 229 285 345
#     4  10  21  37  57  82 113 151 194 241 298 358
#     4  11  23  36  55  83 112 146 189 239 291 354
#     4  11  26  44  62  88 122 154 192 253 316 362
#     4   9  17  35  58  80 111 146 191 238 277 341
#
# _framework density 19.344611
#
# number of rings (size 3 to 8) (size 9 to 14) (size 15 to 20)
#    0.000    1.909    2.727    1.091    1.273    3.636 
#    0.000    2.727    0.000    0.545    0.000    3.818 
#    0.000    3.273    0.000    0.364    0.000    0.000 
#
# Total GULP energy -1090353.360087 kJ/mol
# GULP energy per Si atom -12390.379092 kJ/mol
# Density = 1.930058 g / cm^3
# Si number density = 19.344611 Si / 1000 Ang^3
#
#
#
# Elastic Constant Matrix: (Units=GPa)
#
#
# Indices 1 2 3 4 5 6 
#
# 1 101.7267 30.3827 34.4754 0.0000 0.0000 0.0000
# 2 30.3827 101.7267 34.4754 0.0000 0.0000 0.0000
# 3 34.4754 34.4754 98.8552 0.0000 0.0000 0.0000
# 4 0.0000 0.0000 0.0000 16.4639 0.0000 0.0000
# 5 0.0000 0.0000 0.0000 0.0000 16.4639 0.0000
# 6 0.0000 0.0000 0.0000 0.0000 0.0000 12.1266
#
#
#
# Elastic Compliance Matrix: (Units=1/GPa)
#
#
# Indices 1 2 3 4 5 6 
#
# 1 0.011635 -0.002381 -0.003227 0.000000 0.000000 0.000000
# 2 -0.002381 0.011635 -0.003227 0.000000 0.000000 0.000000
# 3 -0.003227 -0.003227 0.012367 0.000000 0.000000 0.000000
# 4 0.000000 0.000000 0.000000 0.060739 0.000000 0.000000
# 5 0.000000 0.000000 0.000000 0.000000 0.060739 0.000000
# 6 0.000000 0.000000 0.000000 0.000000 0.000000 0.082463
#
#
# Mechanical properties :
#
#
# Convention : Reuss Voigt Hill
#
# Bulk Modulus (GPa) = 55.66223 55.66396 55.66310
# Shear Modulus (GPa) = 18.99417 22.54255 20.76836
#
# Velocity S-wave (km/s) = 3.13690 3.41737 3.28014
# Velocity P-wave (km/s) = 6.47740 6.66398 6.57135
#
# Compressibility (1/GPa) = 0.01796550
#
# Stress axis : x y z
#
# Youngs Moduli (GPa) = 85.94585 85.94585 80.86164
#
# Poissons Ratio (x) = 0.20467 0.26096
# Poissons Ratio (y) = 0.20467 0.26096
# Poissons Ratio (z) = 0.27737 0.27737
#
# Static dielectric constant tensor:
#      x y z
#    x 3.502760 0.000000 0.000000 
#    y 0.000000 3.502760 0.000000 
#    z 0.000000 0.000000 3.846010 
# 
# 
# High freq. dielectric constant tensor:
#      x y z
#    x 1.736490 0.000000 0.000000 
#    y 0.000000 1.736490 0.000000 
#    z 0.000000 0.000000 1.773500 
# 
# From -- ./inp_files/5845.got.cif
#   From: 2010.03.12/outbox.cif.g09.slc.cpg/sg131_3_cif.got.tgz:5845.got - 2010.04.06 17:36:35.
