data_PCOD8316894
_publ_section_title
;
Structure prediction by ZEFSAII (Michael W. Deem and Ramdas Pophale) SiO2 
 PCOD8316894
Probable space group: P 42/N B C
;
_chemical_formula_sum "Si O2"
_cell_formula_units_Z 88
_cell_length_a 14.767886
_cell_length_b 14.767886
_cell_length_c 21.964765
_cell_angle_alpha 90.000000
_cell_angle_beta 90.000000
_cell_angle_gamma 90.000000
_cell_volume 4790.305635
_symmetry_space_group_name_H-M "P 42/N B C"
_symmetry_group_IT_number 133
_space_group.IT_coordinate_system_code '2'
_symmetry_cell_setting 'tetragonal'
loop_
_space_group_symop_operation_xyz
x,y,z
1/2-y,x,1/2+z
1/2-x,1/2-y,z
y,1/2-x,1/2+z
x,1/2-y,-z
1/2-x,y,-z
y,x,1/2-z
1/2-y,1/2-x,1/2-z
-x,-y,-z
1/2+y,-x,1/2-z
1/2+x,1/2+y,-z
-y,1/2+x,1/2-z
-x,1/2+y,z
1/2+x,-y,z
-y,-x,1/2+z
1/2+y,1/2+x,1/2+z
loop_
_atom_site_type_symbol
_atom_site_label
_atom_site_fract_x
_atom_site_fract_y
_atom_site_fract_z
Si Si1 0.581347 0.112382 0.363558
Si Si2 0.875806 0.176182 0.758937
Si Si3 0.214098 0.608941 0.389817
Si Si4 0.061097 0.450242 0.550196
Si Si5 0.517737 0.750000 0.000000
Si Si6 0.221864 0.554415 0.931905
O O1 0.568763 0.115417 0.290271
O O2 0.683578 0.141366 0.381183
O O3 0.518977 0.189764 0.394950
O O4 0.561347 0.013280 0.389791
O O5 0.776670 0.133150 0.769449
O O6 0.928767 0.178737 0.823771
O O7 0.206239 0.537955 0.444515
O O8 0.151407 0.692649 0.406639
O O9 0.163173 0.427777 0.526066
O O10 0.000000 0.500000 0.500000
O O11 0.020548 0.356132 0.572637
O O12 0.250000 0.571255 0.000000
#
# Coordination Sequence:
#
# PCOD8316894 Si02
#       6
#    16  16  16  16   8  16
#     4  10  20  33  52  78 112 144 179 222 281 329
#     4   9  16  28  48  77 110 139 170 216 278 345
#     4  10  18  31  54  82 104 139 176 220 296 343
#     4  11  21  36  53  79 109 143 182 229 277 327
#     4  10  20  36  54  72 110 142 178 234 270 326
#     4  12  20  32  55  78 108 140 179 225 274 329
#
# _framework density 18.370435000000001
#
# number of rings (size 3 to 8) (size 9 to 14) (size 15 to 20)
#    0.000    1.636    5.455    1.636    0.000    0.727 
#    0.000    1.364    0.000    0.000    0.000    0.000 
#    0.000    0.000    4.364    0.000    0.000    0.000 
#
# Total GULP energy -1090361.373046 kJ/mol
# GULP energy per Si atom -12390.470148 kJ/mol
# Density = 1.832862 g / cm^3
# Si number density = 18.370435 Si / 1000 Ang^3
#
#
#
# Elastic Constant Matrix: (Units=GPa)
#
#
# Indices 1 2 3 4 5 6 
#
# 1 47.5288 18.1493 23.6376 0.0000 0.0000 0.0000
# 2 18.1493 47.5288 23.6376 0.0000 0.0000 0.0000
# 3 23.6376 23.6376 143.9337 0.0000 0.0000 0.0000
# 4 0.0000 0.0000 0.0000 -1.3820 0.0000 0.0000
# 5 0.0000 0.0000 0.0000 0.0000 -1.3820 0.0000
# 6 0.0000 0.0000 0.0000 0.0000 0.0000 21.0504
#
#
#
# Elastic Compliance Matrix: (Units=1/GPa)
#
#
# Indices 1 2 3 4 5 6 
#
# 1 0.025652 -0.008385 -0.002836 0.000000 0.000000 0.000000
# 2 -0.008385 0.025652 -0.002836 0.000000 0.000000 0.000000
# 3 -0.002836 -0.002836 0.007879 0.000000 0.000000 0.000000
# 4 0.000000 0.000000 0.000000 -0.723605 0.000000 0.000000
# 5 0.000000 0.000000 0.000000 0.000000 -0.723605 0.000000
# 6 0.000000 0.000000 0.000000 0.000000 0.000000 0.047505
#
#
# Mechanical properties :
#
#
# Convention : Reuss Voigt Hill
#
# Bulk Modulus (GPa) = 32.18525 41.09335 36.63930
# Shear Modulus (GPa) = -3.84009 15.22842 5.69416
#
# Velocity S-wave (km/s) = -1.44738 2.88230 1.76249
# Velocity P-wave (km/s) = 3.84252 5.78746 4.91221
#
# Compressibility (1/GPa) = 0.03107013
#
# Stress axis : x y z
#
# Youngs Moduli (GPa) = 38.98317 38.98317 126.91935
#
# Poissons Ratio (x) = 0.32688 0.35990
# Poissons Ratio (y) = 0.32688 0.35990
# Poissons Ratio (z) = 0.11054 0.11054
#
# Static dielectric constant tensor:
#      x y z
#    x 3.259910 0.000000 0.000000 
#    y 0.000000 3.259910 0.000000 
#    z 0.000000 0.000000 3.764950 
# 
# 
# High freq. dielectric constant tensor:
#      x y z
#    x 1.679250 0.000000 0.000000 
#    y 0.000000 1.679250 0.000000 
#    z 0.000000 0.000000 1.731580 
# 
# From -- ./inp_files/6444.got.cif
#   From: 2010.03.12/outbox.cif.g09.slc.cpg/sg133_4_cif.got.tgz:6444.got - 2010.04.06 18:08:06.
