data_PCOD8316803
_publ_section_title
;
Structure prediction by ZEFSAII (Michael W. Deem and Ramdas Pophale) SiO2 
 PCOD8316803
Probable space group: P 42/M C M
;
_chemical_formula_sum "Si O2"
_cell_formula_units_Z 104
_cell_length_a 14.666165
_cell_length_b 14.666165
_cell_length_c 24.328035
_cell_angle_alpha 90.000000
_cell_angle_beta 90.000000
_cell_angle_gamma 90.000000
_cell_volume 5232.872646
_symmetry_space_group_name_H-M "P 42/M C M"
_symmetry_group_IT_number 132
_symmetry_cell_setting 'tetragonal'
loop_
_space_group_symop_operation_xyz
x,y,z
-y,x,1/2+z
-x,-y,z
y,-x,1/2+z
x,-y,1/2-z
-x,y,1/2-z
y,x,-z
-y,-x,-z
-x,-y,-z
y,-x,1/2-z
x,y,-z
-y,x,1/2-z
-x,y,1/2+z
x,-y,1/2+z
-y,-x,z
y,x,z
loop_
_atom_site_type_symbol
_atom_site_label
_atom_site_fract_x
_atom_site_fract_y
_atom_site_fract_z
Si Si1 0.919955 0.774680 0.440109
Si Si2 0.162425 0.581765 0.062840
Si Si3 0.033375 0.648625 0.306794
Si Si4 0.763371 0.619777 0.214708
Si Si5 0.149173 0.999366 0.836463
Si Si6 0.000000 0.500000 0.108717
Si Si7 0.286274 0.565730 0.168494
O O1 0.963879 0.787452 0.500000
O O2 0.821563 0.821563 0.435402
O O3 0.900546 0.669886 0.427800
O O4 0.992017 0.822868 0.400121
O O5 0.092156 0.497217 0.071875
O O6 0.242154 0.580227 0.108353
O O7 0.202113 0.578193 0.000000
O O8 0.140059 0.631242 0.313703
O O9 0.987178 0.591478 0.355223
O O10 0.000000 0.605081 0.250000
O O11 0.005052 0.755452 0.304522
O O12 0.712961 0.712961 0.202415
O O13 0.705547 0.540642 0.183804
O O14 0.773894 0.606569 0.280955
O O15 0.089426 0.910575 0.817518
O O16 0.090260 0.090260 0.827007
O O17 0.385514 0.614487 0.168326
#
# Coordination Sequence:
#
# PCOD8316803 Si02
#       7
#    16  16  16  16  16   8  16
#     4   9  18  33  54  80 109 147 195 242 291 346
#     4  11  21  36  58  88 125 159 199 255 313 367
#     4  12  24  38  62  86 117 158 199 250 306 367
#     4  10  22  39  61  90 123 159 203 251 306 367
#     4  10  22  39  58  84 119 158 199 243 295 358
#     4  12  22  38  58  88 114 155 201 254 302 364
#     4  10  21  38  61  92 124 157 203 254 306 369
#
# _framework density 19.874361
#
# number of rings (size 3 to 8) (size 9 to 14) (size 15 to 20)
#    0.000    1.538    3.077    2.308    2.154    2.769 
#    0.000    3.846    0.000    0.462    0.000    1.077 
#    0.000    0.000    0.000    0.000    0.000    0.000 
#
# Total GULP energy -1288738.802295 kJ/mol
# GULP energy per Si atom -12391.719253 kJ/mol
# Density = 1.982913 g / cm^3
# Si number density = 19.874361 Si / 1000 Ang^3
#
#
#
# Elastic Constant Matrix: (Units=GPa)
#
#
# Indices 1 2 3 4 5 6 
#
# 1 79.2581 18.3931 31.8767 0.0000 0.0000 0.0000
# 2 18.3931 79.2581 31.8767 0.0000 0.0000 0.0000
# 3 31.8767 31.8767 120.3080 0.0000 0.0000 0.0000
# 4 0.0000 0.0000 0.0000 18.9024 0.0000 0.0000
# 5 0.0000 0.0000 0.0000 0.0000 18.9024 0.0000
# 6 0.0000 0.0000 0.0000 0.0000 0.0000 28.9452
#
#
#
# Elastic Compliance Matrix: (Units=1/GPa)
#
#
# Indices 1 2 3 4 5 6 
#
# 1 0.014406 -0.002024 -0.003281 0.000000 0.000000 0.000000
# 2 -0.002024 0.014406 -0.003281 0.000000 0.000000 0.000000
# 3 -0.003281 -0.003281 0.010051 0.000000 0.000000 0.000000
# 4 0.000000 0.000000 0.000000 0.052903 0.000000 0.000000
# 5 0.000000 0.000000 0.000000 0.000000 0.052903 0.000000
# 6 0.000000 0.000000 0.000000 0.000000 0.000000 0.034548
#
#
# Mechanical properties :
#
#
# Convention : Reuss Voigt Hill
#
# Bulk Modulus (GPa) = 46.09960 49.23523 47.66741
# Shear Modulus (GPa) = 24.55567 26.46185 25.50876
#
# Velocity S-wave (km/s) = 3.51885 3.65287 3.58648
# Velocity P-wave (km/s) = 6.30520 6.52827 6.41771
#
# Compressibility (1/GPa) = 0.02169216
#
# Stress axis : x y z
#
# Youngs Moduli (GPa) = 69.41479 69.41479 99.49677
#
# Poissons Ratio (x) = 0.14047 0.32643
# Poissons Ratio (y) = 0.14047 0.32643
# Poissons Ratio (z) = 0.22774 0.22774
#
# Static dielectric constant tensor:
#      x y z
#    x 3.513480 0.000000 0.000000 
#    y 0.000000 3.513480 0.000000 
#    z 0.000000 0.000000 3.694560 
# 
# 
# High freq. dielectric constant tensor:
#      x y z
#    x 1.764300 0.000000 0.000000 
#    y 0.000000 1.764300 0.000000 
#    z 0.000000 0.000000 1.779980 
# 
# From -- ./inp_files/9121.got.cif
#   From: 2010.03.12/outbox.cif.g09.slc.cpg/sg132_5_cif.got.tgz:9121.got - 2010.04.06 17:53:44.
