data_PCOD8316525
_publ_section_title
;
Structure prediction by ZEFSAII (Michael W. Deem and Ramdas Pophale) SiO2 
 PCOD8316525
Probable space group: P 42/M C M
;
_chemical_formula_sum "Si O2"
_cell_formula_units_Z 96
_cell_length_a 27.139408
_cell_length_b 27.139408
_cell_length_c 8.795197
_cell_angle_alpha 90.000000
_cell_angle_beta 90.000000
_cell_angle_gamma 90.000000
_cell_volume 6478.080069
_symmetry_space_group_name_H-M "P 42/M C M"
_symmetry_group_IT_number 132
_symmetry_cell_setting 'tetragonal'
loop_
_space_group_symop_operation_xyz
x,y,z
-y,x,1/2+z
-x,-y,z
y,-x,1/2+z
x,-y,1/2-z
-x,y,1/2-z
y,x,-z
-y,-x,-z
-x,-y,-z
y,-x,1/2-z
x,y,-z
-y,x,1/2-z
-x,y,1/2+z
x,-y,1/2+z
-y,-x,z
y,x,z
loop_
_atom_site_type_symbol
_atom_site_label
_atom_site_fract_x
_atom_site_fract_y
_atom_site_fract_z
Si Si1 0.264164 0.344190 0.679473
Si Si2 0.133012 0.947741 0.322018
Si Si3 0.449554 0.725968 0.678293
Si Si4 0.191244 0.273149 0.169048
Si Si5 0.877942 0.205090 0.171103
Si Si6 0.623533 0.544183 0.671582
O O1 0.267149 0.350616 0.500000
O O2 0.313414 0.313414 0.734495
O O3 0.255998 0.398036 0.751230
O O4 0.215247 0.314556 0.724455
O O5 0.140229 0.953575 0.500000
O O6 0.087543 0.912458 0.280790
O O7 0.183628 0.925915 0.254661
O O8 0.120763 0.000000 0.250000
O O9 0.500000 0.749974 0.750000
O O10 0.449333 0.736997 0.500000
O O11 0.450157 0.668283 0.712888
O O12 0.227102 0.227102 0.156093
O O13 0.140193 0.254575 0.243521
O O14 0.180986 0.294462 0.000000
O O15 0.834914 0.165087 0.172284
O O16 0.892646 0.219354 0.000000
O O17 0.591666 0.500000 0.750000
O O18 0.641031 0.531468 0.500000
O O19 0.594380 0.594380 0.668434
#
# Coordination Sequence:
#
# PCOD8316525 Si02
#       6
#    16  16  16  16  16  16
#     4  10  19  30  44  62  83 104 128 160 197 237
#     4  10  20  32  45  61  82 111 149 192 234 272
#     4  11  21  32  45  58  74  97 124 153 187 229
#     4   9  16  26  41  62  85 106 130 161 199 243
#     4   9  16  27  43  61  82 108 137 171 213 258
#     4  10  20  32  44  56  69  86 110 142 181 224
#
# _framework density 14.819205999999999
#
# number of rings (size 3 to 8) (size 9 to 14) (size 15 to 20)
#    0.000    2.167    0.000    5.500    0.000    9.667 
#    0.000    1.667    0.000    0.000    0.000    0.000 
#    0.000    0.000    0.000    0.000    0.000    0.833 
#
# Total GULP energy -1189637.351014 kJ/mol
# GULP energy per Si atom -12392.055740 kJ/mol
# Density = 1.478548 g / cm^3
# Si number density = 14.819206 Si / 1000 Ang^3
#
#
#
# Elastic Constant Matrix: (Units=GPa)
#
#
# Indices 1 2 3 4 5 6 
#
# 1 54.2583 45.1993 36.2253 0.0000 0.0000 0.0000
# 2 45.1993 54.2583 36.2253 0.0000 0.0000 0.0000
# 3 36.2253 36.2253 101.1225 0.0000 0.0000 0.0000
# 4 0.0000 0.0000 0.0000 23.9190 0.0000 0.0000
# 5 0.0000 0.0000 0.0000 0.0000 23.9190 0.0000
# 6 0.0000 0.0000 0.0000 0.0000 0.0000 20.0903
#
#
#
# Elastic Compliance Matrix: (Units=1/GPa)
#
#
# Indices 1 2 3 4 5 6 
#
# 1 0.061997 -0.048392 -0.004874 0.000000 0.000000 0.000000
# 2 -0.048392 0.061997 -0.004874 0.000000 0.000000 0.000000
# 3 -0.004874 -0.004874 0.013381 0.000000 0.000000 0.000000
# 4 0.000000 0.000000 0.000000 0.041808 0.000000 0.000000
# 5 0.000000 0.000000 0.000000 0.000000 0.041808 0.000000
# 6 0.000000 0.000000 0.000000 0.000000 0.000000 0.049775
#
#
# Mechanical properties :
#
#
# Convention : Reuss Voigt Hill
#
# Bulk Modulus (GPa) = 47.40300 49.43767 48.42034
# Shear Modulus (GPa) = 12.68794 19.71825 16.20309
#
# Velocity S-wave (km/s) = 2.92923 3.65168 3.31022
# Velocity P-wave (km/s) = 6.59527 7.15630 6.88150
#
# Compressibility (1/GPa) = 0.02109571
#
# Stress axis : x y z
#
# Youngs Moduli (GPa) = 16.12993 16.12993 74.73386
#
# Poissons Ratio (x) = 0.78056 0.36423
# Poissons Ratio (y) = 0.78056 0.36423
# Poissons Ratio (z) = 0.07861 0.07861
#
# Static dielectric constant tensor:
#      x y z
#    x 2.883880 0.000000 0.000000 
#    y 0.000000 2.883880 0.000000 
#    z 0.000000 0.000000 3.159550 
# 
# 
# High freq. dielectric constant tensor:
#      x y z
#    x 1.533090 0.000000 0.000000 
#    y 0.000000 1.533090 0.000000 
#    z 0.000000 0.000000 1.591460 
# 
# From -- ./inp_files/1902.got.cif
#   From: 2010.03.12/outbox.cif.g09.slc.cpg/sg132_1_cif.got.tgz:1902.got - 2010.04.06 17:53:44.
