data_PCOD8316171
_publ_section_title
;
Structure prediction by ZEFSAII (Michael W. Deem and Ramdas Pophale) SiO2 
 PCOD8316171
Probable space group: P 42/M M C
;
_chemical_formula_sum "Si O2"
_cell_formula_units_Z 70
_cell_length_a 11.320372
_cell_length_b 11.320372
_cell_length_c 30.300760
_cell_angle_alpha 90.000000
_cell_angle_beta 90.000000
_cell_angle_gamma 90.000000
_cell_volume 3883.067308
_symmetry_space_group_name_H-M "P 42/M M C"
_symmetry_group_IT_number 131
_symmetry_cell_setting 'tetragonal'
loop_
_space_group_symop_operation_xyz
x,y,z
-x,-y,z
-y,x,1/2+z
y,-x,1/2+z
-x,y,-z
x,-y,-z
y,x,1/2-z
-y,-x,1/2-z
-x,-y,-z
x,y,-z
y,-x,1/2-z
-y,x,1/2-z
x,-y,z
-x,y,z
-y,-x,1/2+z
y,x,1/2+z
loop_
_atom_site_type_symbol
_atom_site_label
_atom_site_fract_x
_atom_site_fract_y
_atom_site_fract_z
Si Si1 0.633984 0.500000 0.406620
Si Si2 0.302558 0.731979 0.152192
Si Si3 0.500000 0.500000 0.250000
Si Si4 0.500000 0.269890 0.000000
Si Si5 0.140209 0.255991 0.500000
Si Si6 0.861233 0.500000 0.292973
Si Si7 0.500000 0.255501 0.701667
Si Si8 0.866154 0.860116 0.910764
O O1 0.500000 0.500000 0.390367
O O2 0.696491 0.383836 0.388642
O O3 0.642148 0.500000 0.458962
O O4 0.381238 0.802058 0.187901
O O5 0.238311 0.618226 0.173156
O O6 0.200929 0.814607 0.132645
O O7 0.611049 0.500000 0.218439
O O8 0.610988 0.184085 0.000000
O O9 0.188105 0.189638 0.543599
O O10 0.000000 0.257590 0.500000
O O11 0.840236 0.500000 0.240627
O O12 0.000000 0.500000 0.303809
O O13 0.000000 0.814153 0.908482
O O14 0.859831 0.000000 0.909857
#
# Coordination Sequence:
#
# PCOD8316171 Si02
#       8
#     8  16   2   4   8   8   8  16
#     4  11  21  35  55  85 113 148 187 224 282 347
#     4  11  21  37  59  84 114 144 188 236 283 338
#     4  12  16  40  60  84 108 142 192 220 292 352
#     4  12  20  34  54  84 120 150 178 232 292 338
#     4  10  20  35  56  84 115 148 192 237 280 330
#     4  11  23  36  55  86 114 140 178 237 298 342
#     4  12  21  37  64  82 110 149 186 234 293 358
#     4  10  21  38  59  82 114 158 198 231 273 330
#
# _framework density 18.026985
#
# number of rings (size 3 to 8) (size 9 to 14) (size 15 to 20)
#    0.000    1.143    5.714    2.057    0.000    2.286 
#    0.000    0.000    0.000    0.000    0.000    6.400 
#    0.000    0.000    0.000    0.000    0.000    0.000 
#
# Total GULP energy -868215.997013 kJ/mol
# GULP energy per Si atom -12403.085672 kJ/mol
# Density = 1.798595 g / cm^3
# Si number density = 18.026985 Si / 1000 Ang^3
#
#
#
# Elastic Constant Matrix: (Units=GPa)
#
#
# Indices 1 2 3 4 5 6 
#
# 1 94.4194 24.0858 34.7529 0.0000 0.0000 0.0000
# 2 24.0858 94.4194 34.7529 0.0000 0.0000 0.0000
# 3 34.7529 34.7529 105.3169 0.0000 0.0000 0.0000
# 4 0.0000 0.0000 0.0000 55.8037 0.0000 0.0000
# 5 0.0000 0.0000 0.0000 0.0000 55.8037 0.0000
# 6 0.0000 0.0000 0.0000 0.0000 0.0000 22.7457
#
#
#
# Elastic Compliance Matrix: (Units=1/GPa)
#
#
# Indices 1 2 3 4 5 6 
#
# 1 0.012341 -0.001877 -0.003453 0.000000 0.000000 0.000000
# 2 -0.001877 0.012341 -0.003453 0.000000 0.000000 0.000000
# 3 -0.003453 -0.003453 0.011774 0.000000 0.000000 0.000000
# 4 0.000000 0.000000 0.000000 0.017920 0.000000 0.000000
# 5 0.000000 0.000000 0.000000 0.000000 0.017920 0.000000
# 6 0.000000 0.000000 0.000000 0.000000 0.000000 0.043964
#
#
# Mechanical properties :
#
#
# Convention : Reuss Voigt Hill
#
# Bulk Modulus (GPa) = 52.93854 53.48208 53.21031
# Shear Modulus (GPa) = 35.68318 40.24155 37.96237
#
# Velocity S-wave (km/s) = 4.45391 4.72984 4.59395
# Velocity P-wave (km/s) = 7.47528 7.71756 7.59738
#
# Compressibility (1/GPa) = 0.01888983
#
# Stress axis : x y z
#
# Youngs Moduli (GPa) = 81.03219 81.03219 84.93358
#
# Poissons Ratio (x) = 0.15211 0.29326
# Poissons Ratio (y) = 0.15211 0.29326
# Poissons Ratio (z) = 0.27979 0.27979
#
# Static dielectric constant tensor:
#      x y z
#    x 3.283020 0.000000 0.000000 
#    y 0.000000 3.283020 0.000000 
#    z 0.000000 0.000000 3.443940 
# 
# 
# High freq. dielectric constant tensor:
#      x y z
#    x 1.691340 0.000000 0.000000 
#    y 0.000000 1.691340 0.000000 
#    z 0.000000 0.000000 1.709330 
# 
# From -- ./inp_files/12226.got.cif
#   From: 2010.03.12/outbox.cif.g09.slc.cpg/sg131_7_cif.got.tgz:12226.got - 2010.04.06 17:36:35.
