data_PCOD8316954
_publ_section_title
;
Structure prediction by ZEFSAII (Michael W. Deem and Ramdas Pophale) SiO2 
 PCOD8316954
Probable space group: P 42/N B C
;
_chemical_formula_sum "Si O2"
_cell_formula_units_Z 96
_cell_length_a 22.673569
_cell_length_b 22.673569
_cell_length_c 9.579135
_cell_angle_alpha 90.000000
_cell_angle_beta 90.000000
_cell_angle_gamma 90.000000
_cell_volume 4924.544516
_symmetry_space_group_name_H-M "P 42/N B C"
_symmetry_group_IT_number 133
_space_group.IT_coordinate_system_code '2'
_symmetry_cell_setting 'tetragonal'
loop_
_space_group_symop_operation_xyz
x,y,z
1/2-y,x,1/2+z
1/2-x,1/2-y,z
y,1/2-x,1/2+z
x,1/2-y,-z
1/2-x,y,-z
y,x,1/2-z
1/2-y,1/2-x,1/2-z
-x,-y,-z
1/2+y,-x,1/2-z
1/2+x,1/2+y,-z
-y,1/2+x,1/2-z
-x,1/2+y,z
1/2+x,-y,z
-y,-x,1/2+z
1/2+y,1/2+x,1/2+z
loop_
_atom_site_type_symbol
_atom_site_label
_atom_site_fract_x
_atom_site_fract_y
_atom_site_fract_z
Si Si1 0.529979 0.132979 0.024273
Si Si2 0.907541 0.596767 0.088867
Si Si3 0.308158 0.192959 0.915542
Si Si4 0.468084 0.618459 0.533443
Si Si5 0.415101 0.816207 0.716594
Si Si6 0.409977 0.819141 0.227974
O O1 0.534743 0.160889 0.177335
O O2 0.462437 0.129972 0.979758
O O3 0.557311 0.067319 0.015335
O O4 0.567670 0.178356 0.930332
O O5 0.919355 0.580646 0.250000
O O6 0.852544 0.639336 0.071210
O O7 0.894400 0.536583 0.005022
O O8 0.294681 0.205320 0.750000
O O9 0.333375 0.250000 0.000000
O O10 0.250000 0.173533 0.000000
O O11 0.441328 0.668314 0.433350
O O12 0.460152 0.645448 0.687137
O O13 0.402405 0.747255 0.722419
O O14 0.352558 0.847714 0.747127
#
# Coordination Sequence:
#
# PCOD8316954 Si02
#       6
#    16  16  16  16  16  16
#     4  10  21  39  59  85 121 155 192 243 296 344
#     4  11  22  40  63  89 114 155 194 237 296 356
#     4  10  22  42  63  84 117 154 188 239 294 344
#     4  10  21  39  59  85 121 155 192 243 296 344
#     4  10  22  36  59  89 118 162 200 246 293 342
#     4  10  20  38  59  83 124 160 200 246 295 342
#
# _framework density 19.494188999999999
#
# number of rings (size 3 to 8) (size 9 to 14) (size 15 to 20)
#    0.000    1.833    1.667    2.500    0.000    3.667 
#    6.000    0.000    0.000    6.000    0.000    0.000 
#    0.000    0.000    0.000    0.000    0.000    0.000 
#
# Total GULP energy -1190375.911798 kJ/mol
# GULP energy per Si atom -12399.749081 kJ/mol
# Density = 1.944982 g / cm^3
# Si number density = 19.494189 Si / 1000 Ang^3
#
#
#
# Elastic Constant Matrix: (Units=GPa)
#
#
# Indices 1 2 3 4 5 6 
#
# 1 83.0564 44.4535 21.3751 0.0000 0.0000 0.0000
# 2 44.4535 83.0579 21.3750 0.0000 0.0000 0.0000
# 3 21.3751 21.3750 77.1451 0.0000 0.0000 0.0000
# 4 0.0000 0.0000 0.0000 23.0526 0.0000 0.0000
# 5 0.0000 0.0000 0.0000 0.0000 23.0526 0.0000
# 6 0.0000 0.0000 0.0000 0.0000 0.0000 20.2408
#
#
#
# Elastic Compliance Matrix: (Units=1/GPa)
#
#
# Indices 1 2 3 4 5 6 
#
# 1 0.017275 -0.008629 -0.002396 0.000000 0.000000 0.000000
# 2 -0.008629 0.017275 -0.002395 0.000000 0.000000 0.000000
# 3 -0.002396 -0.002395 0.014290 0.000000 0.000000 0.000000
# 4 0.000000 0.000000 0.000000 0.043379 0.000000 0.000000
# 5 0.000000 0.000000 0.000000 0.000000 0.043379 0.000000
# 6 0.000000 0.000000 0.000000 0.000000 0.000000 0.049405
#
#
# Mechanical properties :
#
#
# Convention : Reuss Voigt Hill
#
# Bulk Modulus (GPa) = 45.45593 46.40736 45.93165
# Shear Modulus (GPa) = 22.81263 23.67293 23.24278
#
# Velocity S-wave (km/s) = 3.42457 3.48855 3.45671
# Velocity P-wave (km/s) = 6.24541 6.33119 6.28845
#
# Compressibility (1/GPa) = 0.02199933
#
# Stress axis : x y z
#
# Youngs Moduli (GPa) = 57.88670 57.88786 69.97874
#
# Poissons Ratio (x) = 0.49953 0.16764
# Poissons Ratio (y) = 0.49952 0.16763
# Poissons Ratio (z) = 0.13867 0.13867
#
# Static dielectric constant tensor:
#      x y z
#    x 3.367100 0.000000 0.000000 
#    y 0.000000 3.367100 0.000000 
#    z 0.000000 0.000000 3.754500 
# 
# 
# High freq. dielectric constant tensor:
#      x y z
#    x 1.753970 0.000000 0.000000 
#    y 0.000000 1.753970 0.000000 
#    z 0.000000 0.000000 1.772230 
# 
# From -- ./inp_files/1920.got.cif
#   From: 2010.03.12/outbox.cif.g09.slc.cpg/sg133_1_cif.got.tgz:1920.got - 2010.04.06 18:08:06.
