data_PCOD8316779
_publ_section_title
;
Structure prediction by ZEFSAII (Michael W. Deem and Ramdas Pophale) SiO2 
 PCOD8316779
Probable space group: P 42/M C M
;
_chemical_formula_sum "Si O2"
_cell_formula_units_Z 64
_cell_length_a 13.283688
_cell_length_b 13.283688
_cell_length_c 18.048646
_cell_angle_alpha 90.000000
_cell_angle_beta 90.000000
_cell_angle_gamma 90.000000
_cell_volume 3184.798500
_symmetry_space_group_name_H-M "P 42/M C M"
_symmetry_group_IT_number 132
_symmetry_cell_setting 'tetragonal'
loop_
_space_group_symop_operation_xyz
x,y,z
-y,x,1/2+z
-x,-y,z
y,-x,1/2+z
x,-y,1/2-z
-x,y,1/2-z
y,x,-z
-y,-x,-z
-x,-y,-z
y,-x,1/2-z
x,y,-z
-y,x,1/2-z
-x,y,1/2+z
x,-y,1/2+z
-y,-x,z
y,x,z
loop_
_atom_site_type_symbol
_atom_site_label
_atom_site_fract_x
_atom_site_fract_y
_atom_site_fract_z
Si Si1 0.115007 0.491666 0.415273
Si Si2 0.229485 0.394594 0.287680
Si Si3 0.993100 0.837958 0.416073
Si Si4 0.139729 0.303248 0.149399
O O1 0.124272 0.456535 0.500000
O O2 0.174417 0.410330 0.366052
O O3 0.160873 0.602532 0.404259
O O4 0.000000 0.500000 0.388178
O O5 0.260651 0.500000 0.250000
O O6 0.330614 0.330614 0.300223
O O7 0.150537 0.335958 0.234878
O O8 0.981868 0.797418 0.500000
O O9 0.885978 0.885978 0.388906
O O10 0.028503 0.745237 0.364156
O O11 0.074593 0.925408 0.413316
O O12 0.223378 0.223378 0.125612
#
# Coordination Sequence:
#
# PCOD8316779 Si02
#       4
#    16  16  16  16
#     4  10  21  36  55  79 107 142 184 230 278 326
#     4   9  19  35  56  81 109 144 183 228 283 339
#     4   8  13  22  40  70 107 141 171 209 255 299
#     4   9  17  31  53  79 106 140 182 220 259 321
#
# _framework density 20.095461
#
# number of rings (size 3 to 8) (size 9 to 14) (size 15 to 20)
#    0.000    3.000    0.000    1.500    0.000    6.750 
#    0.000    1.250    0.000    3.000    0.000    7.000 
#    0.000    0.000    0.000    9.750    0.000    0.000 
#
# Total GULP energy -793309.833817 kJ/mol
# GULP energy per Si atom -12395.466153 kJ/mol
# Density = 2.004972 g / cm^3
# Si number density = 20.095461 Si / 1000 Ang^3
#
#
#
# Elastic Constant Matrix: (Units=GPa)
#
#
# Indices 1 2 3 4 5 6 
#
# 1 102.1280 55.8476 62.8885 0.0000 0.0000 0.0000
# 2 55.8476 102.1280 62.8885 0.0000 0.0000 0.0000
# 3 62.8885 62.8885 108.1384 0.0000 0.0000 0.0000
# 4 0.0000 0.0000 0.0000 24.1199 0.0000 0.0000
# 5 0.0000 0.0000 0.0000 0.0000 24.1199 0.0000
# 6 0.0000 0.0000 0.0000 0.0000 0.0000 34.0955
#
#
#
# Elastic Compliance Matrix: (Units=1/GPa)
#
#
# Indices 1 2 3 4 5 6 
#
# 1 0.016698 -0.004910 -0.006856 0.000000 0.000000 0.000000
# 2 -0.004910 0.016698 -0.006856 0.000000 0.000000 0.000000
# 3 -0.006856 -0.006856 0.017221 0.000000 0.000000 0.000000
# 4 0.000000 0.000000 0.000000 0.041460 0.000000 0.000000
# 5 0.000000 0.000000 0.000000 0.000000 0.041460 0.000000
# 6 0.000000 0.000000 0.000000 0.000000 0.000000 0.029329
#
#
# Mechanical properties :
#
#
# Convention : Reuss Voigt Hill
#
# Bulk Modulus (GPa) = 74.76300 75.07150 74.91725
# Shear Modulus (GPa) = 24.44206 25.18506 24.81356
#
# Velocity S-wave (km/s) = 3.49133 3.54400 3.51776
# Velocity P-wave (km/s) = 7.31691 7.36105 7.33902
#
# Compressibility (1/GPa) = 0.01337560
#
# Stress axis : x y z
#
# Youngs Moduli (GPa) = 59.88778 59.88778 58.06786
#
# Poissons Ratio (x) = 0.29402 0.39809
# Poissons Ratio (y) = 0.29402 0.39809
# Poissons Ratio (z) = 0.41057 0.41057
#
# Static dielectric constant tensor:
#      x y z
#    x 3.746910 0.000000 0.000000 
#    y 0.000000 3.746910 0.000000 
#    z 0.000000 0.000000 3.516370 
# 
# 
# High freq. dielectric constant tensor:
#      x y z
#    x 1.777740 0.000000 0.000000 
#    y 0.000000 1.777740 0.000000 
#    z 0.000000 0.000000 1.771820 
# 
# From -- ./inp_files/7438.got.cif
#   From: 2010.03.12/outbox.cif.g09.slc.cpg/sg132_4_cif.got.tgz:7438.got - 2010.04.06 17:53:44.
