data_PCOD8316191
_publ_section_title
;
Structure prediction by ZEFSAII (Michael W. Deem and Ramdas Pophale) SiO2 
 PCOD8316191
Probable space group: P 42/M M C
;
_chemical_formula_sum "Si O2"
_cell_formula_units_Z 112
_cell_length_a 14.597547
_cell_length_b 14.597547
_cell_length_c 25.695580
_cell_angle_alpha 90.000000
_cell_angle_beta 90.000000
_cell_angle_gamma 90.000000
_cell_volume 5475.429475
_symmetry_space_group_name_H-M "P 42/M M C"
_symmetry_group_IT_number 131
_symmetry_cell_setting 'tetragonal'
loop_
_space_group_symop_operation_xyz
x,y,z
-x,-y,z
-y,x,1/2+z
y,-x,1/2+z
-x,y,-z
x,-y,-z
y,x,1/2-z
-y,-x,1/2-z
-x,-y,-z
x,y,-z
y,-x,1/2-z
-y,x,1/2-z
x,-y,z
-x,y,z
-y,-x,1/2+z
y,x,1/2+z
loop_
_atom_site_type_symbol
_atom_site_label
_atom_site_fract_x
_atom_site_fract_y
_atom_site_fract_z
Si Si1 0.107928 0.745457 0.763589
Si Si2 0.794114 0.899129 0.940673
Si Si3 0.402688 0.860567 0.940527
Si Si4 0.104319 0.743611 0.885677
Si Si5 0.675345 0.599922 0.608812
Si Si6 0.607928 0.743877 0.223217
Si Si7 0.768810 0.601740 0.940999
O O1 0.158184 0.841817 0.750000
O O2 0.116239 0.728553 0.824773
O O3 0.161022 0.659898 0.737042
O O4 0.000000 0.748910 0.746651
O O5 0.690160 0.903946 0.917458
O O6 0.854956 0.840945 0.901786
O O7 0.836714 0.000000 0.940196
O O8 0.794290 0.859390 0.000000
O O9 0.500000 0.893503 0.913894
O O10 0.396230 0.751059 0.936337
O O11 0.407484 0.890063 0.000000
O O12 0.154555 0.665139 0.917026
O O13 0.000000 0.740910 0.903244
O O14 0.626773 0.500000 0.611036
O O15 0.729206 0.620003 0.662014
O O16 0.602200 0.677306 0.594563
O O17 0.656230 0.656230 0.250000
O O18 0.500000 0.749181 0.239291
O O19 0.808883 0.500000 0.939456
O O20 0.746333 0.631873 0.000000
#
# Coordination Sequence:
#
# PCOD8316191 Si02
#       7
#    16  16  16  16  16  16  16
#     4  10  23  42  64  89 117 152 196 251 310 365
#     4  10  21  36  57  86 117 152 192 233 285 350
#     4   9  17  31  54  83 115 150 184 220 273 343
#     4  11  24  42  61  83 115 155 197 245 301 351
#     4  10  20  36  58  85 120 156 189 231 287 350
#     4  10  22  39  60  88 120 155 200 247 294 353
#     4  11  23  38  60  90 121 157 202 246 289 340
#
# _framework density 20.455017000000002
#
# number of rings (size 3 to 8) (size 9 to 14) (size 15 to 20)
#    0.000    1.857    1.429    2.571    0.000    6.571 
#    0.000    7.857    0.000    2.571    0.000    0.000 
#    0.000    0.000    0.000    0.000    0.000    0.000 
#
# Total GULP energy -1387969.881937 kJ/mol
# GULP energy per Si atom -12392.588232 kJ/mol
# Density = 2.040846 g / cm^3
# Si number density = 20.455017 Si / 1000 Ang^3
#
#
#
# Elastic Constant Matrix: (Units=GPa)
#
#
# Indices 1 2 3 4 5 6 
#
# 1 142.7241 64.0118 46.2173 0.0000 0.0000 0.0000
# 2 64.0118 142.7233 46.2180 0.0000 0.0000 0.0000
# 3 46.2173 46.2180 75.4226 0.0000 0.0000 0.0000
# 4 0.0000 0.0000 0.0000 20.5788 0.0000 0.0000
# 5 0.0000 0.0000 0.0000 0.0000 20.5791 0.0000
# 6 0.0000 0.0000 0.0000 0.0000 0.0000 -48.5104
#
#
#
# Elastic Compliance Matrix: (Units=1/GPa)
#
#
# Indices 1 2 3 4 5 6 
#
# 1 0.009683 -0.003021 -0.004083 0.000000 0.000000 0.000000
# 2 -0.003021 0.009684 -0.004083 0.000000 0.000000 0.000000
# 3 -0.004083 -0.004083 0.018262 0.000000 0.000000 0.000000
# 4 0.000000 0.000000 0.000000 0.048594 0.000000 0.000000
# 5 0.000000 0.000000 0.000000 0.000000 0.048593 0.000000
# 6 0.000000 0.000000 0.000000 0.000000 0.000000 -0.020614
#
#
# Mechanical properties :
#
#
# Convention : Reuss Voigt Hill
#
# Bulk Modulus (GPa) = 65.54557 74.86268 70.20413
# Shear Modulus (GPa) = 35.29577 12.15770 23.72674
#
# Velocity S-wave (km/s) = 4.15846 2.44060 3.40949
# Velocity P-wave (km/s) = 7.42768 6.67983 7.06366
#
# Compressibility (1/GPa) = 0.01525656
#
# Stress axis : x y z
#
# Youngs Moduli (GPa) = 103.26859 103.26721 54.75781
#
# Poissons Ratio (x) = 0.31197 0.22355
# Poissons Ratio (y) = 0.31198 0.22356
# Poissons Ratio (z) = 0.42160 0.42162
#
# Static dielectric constant tensor:
#      x y z
#    x 3.819940 0.000000 0.000000 
#    y 0.000000 3.819940 0.000000 
#    z 0.000000 0.000000 3.675540 
# 
# 
# High freq. dielectric constant tensor:
#      x y z
#    x 1.799480 0.000000 0.000000 
#    y 0.000000 1.799480 0.000000 
#    z 0.000000 0.000000 1.794070 
# 
# From -- ./inp_files/11269.got.cif
#   From: 2010.03.12/outbox.cif.g09.slc.cpg/sg131_6_cif.got.tgz:11269.got - 2010.04.06 17:36:35.
