data_PCOD8316238
_publ_section_title
;
Structure prediction by ZEFSAII (Michael W. Deem and Ramdas Pophale) SiO2 
 PCOD8316238
Probable space group: P 42/M M C
;
_chemical_formula_sum "Si O2"
_cell_formula_units_Z 112
_cell_length_a 14.582156
_cell_length_b 14.582156
_cell_length_c 28.698146
_cell_angle_alpha 90.000000
_cell_angle_beta 90.000000
_cell_angle_gamma 90.000000
_cell_volume 6102.352919
_symmetry_space_group_name_H-M "P 42/M M C"
_symmetry_group_IT_number 131
_symmetry_cell_setting 'tetragonal'
loop_
_space_group_symop_operation_xyz
x,y,z
-x,-y,z
-y,x,1/2+z
y,-x,1/2+z
-x,y,-z
x,-y,-z
y,x,1/2-z
-y,-x,1/2-z
-x,-y,-z
x,y,-z
y,-x,1/2-z
-y,x,1/2-z
x,-y,z
-x,y,z
-y,-x,1/2+z
y,x,1/2+z
loop_
_atom_site_type_symbol
_atom_site_label
_atom_site_fract_x
_atom_site_fract_y
_atom_site_fract_z
Si Si1 0.600182 0.891907 0.216541
Si Si2 0.236580 0.108803 0.721716
Si Si3 0.899075 0.608950 0.613364
Si Si4 0.772221 0.607580 0.946241
Si Si5 0.108945 0.899044 0.051720
Si Si6 0.268900 0.396599 0.446221
Si Si7 0.263572 0.890963 0.615111
O O1 0.500000 0.846589 0.225098
O O2 0.670669 0.853838 0.254472
O O3 0.638771 0.868838 0.165249
O O4 0.590386 0.000000 0.221735
O O5 0.151592 0.151592 0.750000
O O6 0.246109 0.139907 0.668147
O O7 0.224211 0.000000 0.725609
O O8 0.905452 0.500000 0.611436
O O9 0.821690 0.645039 0.578310
O O10 0.000000 0.649506 0.600413
O O11 0.768756 0.500000 0.937185
O O12 0.670408 0.646176 0.935937
O O13 0.844764 0.648769 0.909453
O O14 0.801347 0.629103 0.000000
O O15 0.146829 0.825417 0.087955
O O16 0.000000 0.897452 0.051749
O O17 0.143709 0.000000 0.066722
O O18 0.145159 0.874534 0.000000
O O19 0.244094 0.399662 0.500000
O O20 0.293103 0.500000 0.428452
O O21 0.277281 0.000000 0.611470
#
# Coordination Sequence:
#
# PCOD8316238 Si02
#       7
#    16  16  16  16  16  16  16
#     4   8  15  30  51  73  97 128 169 214 259 309
#     4  10  22  36  52  77 107 142 180 219 266 318
#     4   8  14  26  48  77 105 135 169 207 257 314
#     4  10  22  38  55  78 108 142 183 231 278 325
#     4   8  14  27  49  74  98 128 167 209 255 308
#     4   9  18  32  51  77 109 143 176 213 263 325
#     4  10  21  36  54  77 106 140 179 223 269 316
#
# _framework density 18.353574999999999
#
# number of rings (size 3 to 8) (size 9 to 14) (size 15 to 20)
#    0.000    3.000    0.000    1.714    2.000    3.000 
#    0.000    7.143    0.000    0.857    0.000    0.000 
#    0.000    0.286    0.000    0.000    0.000    0.000 
#
# Total GULP energy -1388139.325823 kJ/mol
# GULP energy per Si atom -12394.101123 kJ/mol
# Density = 1.831180 g / cm^3
# Si number density = 18.353575 Si / 1000 Ang^3
#
#
#
# Elastic Constant Matrix: (Units=GPa)
#
#
# Indices 1 2 3 4 5 6 
#
# 1 86.9191 38.5040 58.9070 0.0000 0.0000 0.0000
# 2 38.5040 86.9191 58.9070 0.0000 0.0000 0.0000
# 3 58.9070 58.9070 117.8448 0.0000 0.0000 0.0000
# 4 0.0000 0.0000 0.0000 16.5879 0.0000 0.0000
# 5 0.0000 0.0000 0.0000 0.0000 16.5879 0.0000
# 6 0.0000 0.0000 0.0000 0.0000 0.0000 24.7893
#
#
#
# Elastic Compliance Matrix: (Units=1/GPa)
#
#
# Indices 1 2 3 4 5 6 
#
# 1 0.017843 -0.002812 -0.007513 0.000000 0.000000 0.000000
# 2 -0.002812 0.017843 -0.007513 0.000000 0.000000 0.000000
# 3 -0.007513 -0.007513 0.015997 0.000000 0.000000 0.000000
# 4 0.000000 0.000000 0.000000 0.060285 0.000000 0.000000
# 5 0.000000 0.000000 0.000000 0.000000 0.060285 0.000000
# 6 0.000000 0.000000 0.000000 0.000000 0.000000 0.040340
#
#
# Mechanical properties :
#
#
# Convention : Reuss Voigt Hill
#
# Bulk Modulus (GPa) = 62.48086 67.14656 64.81371
# Shear Modulus (GPa) = 19.71575 20.61735 20.16655
#
# Velocity S-wave (km/s) = 3.28108 3.35527 3.31838
# Velocity P-wave (km/s) = 6.96210 7.18852 7.07622
#
# Compressibility (1/GPa) = 0.01600490
#
# Stress axis : x y z
#
# Youngs Moduli (GPa) = 56.04561 56.04561 62.51146
#
# Poissons Ratio (x) = 0.15761 0.46967
# Poissons Ratio (y) = 0.15761 0.46967
# Poissons Ratio (z) = 0.42109 0.42109
#
# Static dielectric constant tensor:
#      x y z
#    x 3.473290 0.000000 0.000000 
#    y 0.000000 3.473290 0.000000 
#    z 0.000000 0.000000 3.567500 
# 
# 
# High freq. dielectric constant tensor:
#      x y z
#    x 1.696960 0.000000 0.000000 
#    y 0.000000 1.696960 0.000000 
#    z 0.000000 0.000000 1.711580 
# 
# From -- ./inp_files/12444.got.cif
#   From: 2010.03.12/outbox.cif.g09.slc.cpg/sg131_7_cif.got.tgz:12444.got - 2010.04.06 17:36:35.
