data_PCOD8316852
_publ_section_title
;
Structure prediction by ZEFSAII (Michael W. Deem and Ramdas Pophale) SiO2 
 PCOD8316852
Probable space group: P 42/M C M
;
_chemical_formula_sum "Si O2"
_cell_formula_units_Z 116
_cell_length_a 17.601464
_cell_length_b 17.601464
_cell_length_c 18.960178
_cell_angle_alpha 90.000000
_cell_angle_beta 90.000000
_cell_angle_gamma 90.000000
_cell_volume 5874.081849
_symmetry_space_group_name_H-M "P 42/M C M"
_symmetry_group_IT_number 132
_symmetry_cell_setting 'tetragonal'
loop_
_space_group_symop_operation_xyz
x,y,z
-y,x,1/2+z
-x,-y,z
y,-x,1/2+z
x,-y,1/2-z
-x,y,1/2-z
y,x,-z
-y,-x,-z
-x,-y,-z
y,-x,1/2-z
x,y,-z
-y,x,1/2-z
-x,y,1/2+z
x,-y,1/2+z
-y,-x,z
y,x,z
loop_
_atom_site_type_symbol
_atom_site_label
_atom_site_fract_x
_atom_site_fract_y
_atom_site_fract_z
Si Si1 0.303839 0.032995 0.582094
Si Si2 0.596310 0.910718 0.861104
Si Si3 0.452441 0.869298 0.923225
Si Si4 0.921142 0.206079 0.208299
Si Si5 0.317535 0.800896 0.726145
Si Si6 0.000000 0.500000 0.250000
Si Si7 0.446228 0.740509 0.815485
Si Si8 0.380114 0.497005 0.076868
O O1 0.279780 0.033980 0.500000
O O2 0.379927 0.081183 0.596850
O O3 0.232237 0.062323 0.627592
O O4 0.327273 0.949700 0.608968
O O5 0.533087 0.913757 0.923537
O O6 0.623979 0.827276 0.834684
O O7 0.557729 0.949176 0.793888
O O8 0.469588 0.811612 0.861592
O O9 0.439059 0.832108 0.000000
O O10 0.871357 0.128644 0.206837
O O11 0.875128 0.274957 0.243670
O O12 0.000000 0.191140 0.250000
O O13 0.256096 0.743905 0.692301
O O14 0.360297 0.754248 0.788614
O O15 0.500000 0.731169 0.750000
O O16 0.459278 0.668271 0.864582
O O17 0.451685 0.548316 0.063361
O O18 0.413557 0.413557 0.101106
O O19 0.337797 0.488256 0.000000
#
# Coordination Sequence:
#
# PCOD8316852 Si02
#       8
#    16  16  16  16  16   4  16  16
#     4  11  22  38  63  94 130 162 198 255 316 377
#     4  12  20  36  58  86 126 164 204 251 306 375
#     4  11  22  36  55  89 127 161 203 245 299 373
#     4  11  23  42  68  94 125 164 209 259 316 391
#     4  11  23  37  58  89 122 160 203 253 316 379
#     4  12  20  28  62  92 116 156 206 264 316 368
#     4  12  22  36  58  85 117 158 203 259 308 361
#     4   9  20  40  61  79 106 151 206 260 312 362
#
# _framework density 19.747765999999999
#
# number of rings (size 3 to 8) (size 9 to 14) (size 15 to 20)
#    0.000    0.966    5.517    3.310    0.000    2.621 
#    0.000    0.690    0.000    2.897    0.000    0.966 
#    0.000    0.000    0.000    0.000    0.000    0.000 
#
# Total GULP energy -1437160.507727 kJ/mol
# GULP energy per Si atom -12389.314722 kJ/mol
# Density = 1.970282 g / cm^3
# Si number density = 19.747766 Si / 1000 Ang^3
#
#
#
# Elastic Constant Matrix: (Units=GPa)
#
#
# Indices 1 2 3 4 5 6 
#
# 1 95.4678 47.7160 49.0349 0.0000 0.0000 0.0000
# 2 47.7160 95.4678 49.0349 0.0000 0.0000 0.0000
# 3 49.0349 49.0349 117.6041 0.0000 0.0000 0.0000
# 4 0.0000 0.0000 0.0000 -28.9836 0.0000 0.0000
# 5 0.0000 0.0000 0.0000 0.0000 -28.9836 0.0000
# 6 0.0000 0.0000 0.0000 0.0000 0.0000 36.6022
#
#
#
# Elastic Compliance Matrix: (Units=1/GPa)
#
#
# Indices 1 2 3 4 5 6 
#
# 1 0.015359 -0.005583 -0.004076 0.000000 0.000000 0.000000
# 2 -0.005583 0.015359 -0.004076 0.000000 0.000000 0.000000
# 3 -0.004076 -0.004076 0.011902 0.000000 0.000000 0.000000
# 4 0.000000 0.000000 0.000000 -0.034502 0.000000 0.000000
# 5 0.000000 0.000000 0.000000 0.000000 -0.034502 0.000000
# 6 0.000000 0.000000 0.000000 0.000000 0.000000 0.027321
#
#
# Mechanical properties :
#
#
# Convention : Reuss Voigt Hill
#
# Bulk Modulus (GPa) = 66.00825 66.67905 66.34365
# Shear Modulus (GPa) = 149.45277 6.57726 78.01502
#
# Velocity S-wave (km/s) = 8.70891 1.82698 6.29218
# Velocity P-wave (km/s) = 11.60281 6.18782 9.29823
#
# Compressibility (1/GPa) = 0.01514962
#
# Stress axis : x y z
#
# Youngs Moduli (GPa) = 65.10966 65.10966 84.01897
#
# Poissons Ratio (x) = 0.36350 0.34246
# Poissons Ratio (y) = 0.36350 0.34246
# Poissons Ratio (z) = 0.26539 0.26539
#
# Static dielectric constant tensor:
#      x y z
#    x 3.590150 0.000000 0.000000 
#    y 0.000000 3.590150 0.000000 
#    z 0.000000 0.000000 3.959830 
# 
# 
# High freq. dielectric constant tensor:
#      x y z
#    x 1.760520 0.000000 0.000000 
#    y 0.000000 1.760520 0.000000 
#    z 0.000000 0.000000 1.770150 
# 
# From -- ./inp_files/6644.got.cif
#   From: 2010.03.12/outbox.cif.g09.slc.cpg/sg132_4_cif.got.tgz:6644.got - 2010.04.06 17:53:44.
