data_PCOD8316275
_publ_section_title
;
Structure prediction by ZEFSAII (Michael W. Deem and Ramdas Pophale) SiO2 
 PCOD8316275
Probable space group: P 42/M M C
;
_chemical_formula_sum "Si O2"
_cell_formula_units_Z 96
_cell_length_a 23.996169
_cell_length_b 23.996169
_cell_length_c 8.904753
_cell_angle_alpha 90.000000
_cell_angle_beta 90.000000
_cell_angle_gamma 90.000000
_cell_volume 5127.500381
_symmetry_space_group_name_H-M "P 42/M M C"
_symmetry_group_IT_number 131
_symmetry_cell_setting 'tetragonal'
loop_
_space_group_symop_operation_xyz
x,y,z
-x,-y,z
-y,x,1/2+z
y,-x,1/2+z
-x,y,-z
x,-y,-z
y,x,1/2-z
-y,-x,1/2-z
-x,-y,-z
x,y,-z
y,-x,1/2-z
-y,x,1/2-z
x,-y,z
-x,y,z
-y,-x,1/2+z
y,x,1/2+z
loop_
_atom_site_type_symbol
_atom_site_label
_atom_site_fract_x
_atom_site_fract_y
_atom_site_fract_z
Si Si1 0.856759 0.060740 0.675992
Si Si2 0.063259 0.729678 0.173745
Si Si3 0.937140 0.434889 0.169362
Si Si4 0.143550 0.354636 0.676172
Si Si5 0.354791 0.436538 0.176549
Si Si6 0.653281 0.736039 0.677614
O O1 0.891243 0.108758 0.750000
O O2 0.862948 0.065809 0.500000
O O3 0.793226 0.068036 0.724242
O O4 0.878198 0.000000 0.729716
O O5 0.106837 0.698181 0.277730
O O6 0.000000 0.707955 0.200022
O O7 0.079666 0.721899 0.000000
O O8 0.926751 0.500000 0.169929
O O9 0.891676 0.409040 0.279655
O O10 0.000000 0.420987 0.224022
O O11 0.928956 0.411362 0.000000
O O12 0.154971 0.354096 0.500000
O O13 0.202242 0.354732 0.760240
O O14 0.409605 0.409605 0.250000
O O15 0.347388 0.500000 0.234375
O O16 0.299778 0.401497 0.221672
O O17 0.364021 0.435123 0.000000
O O18 0.707982 0.707982 0.750000
O O19 0.661961 0.738637 0.500000
#
# Coordination Sequence:
#
# PCOD8316275 Si02
#       6
#    16  16  16  16  16  16
#     4   9  19  35  54  77 104 135 172 214 261 314
#     4   9  19  37  57  75 101 139 181 225 272 320
#     4   9  19  37  59  81 108 145 186 226 271 322
#     4  12  24  35  53  83 113 142 179 222 271 329
#     4   9  19  36  58  84 112 143 179 218 260 306
#     4  10  21  39  59  78 106 144 185 228 271 317
#
# _framework density 18.722573000000001
#
# number of rings (size 3 to 8) (size 9 to 14) (size 15 to 20)
#    0.000    2.333    0.000    4.000    0.000    6.667 
#    0.000    7.500    0.000    0.000    0.000    0.000 
#    0.000    0.000    0.000    0.000    0.000    0.000 
#
# Total GULP energy -1190308.531627 kJ/mol
# GULP energy per Si atom -12399.047204 kJ/mol
# Density = 1.867996 g / cm^3
# Si number density = 18.722573 Si / 1000 Ang^3
#
#
#
# Elastic Constant Matrix: (Units=GPa)
#
#
# Indices 1 2 3 4 5 6 
#
# 1 122.5442 58.4906 41.8321 0.0000 0.0000 0.0000
# 2 58.4906 122.5389 41.8301 0.0000 0.0000 0.0000
# 3 41.8321 41.8301 71.6214 0.0000 0.0000 0.0000
# 4 0.0000 0.0000 0.0000 32.6655 0.0000 0.0000
# 5 0.0000 0.0000 0.0000 0.0000 32.6660 0.0000
# 6 0.0000 0.0000 0.0000 0.0000 0.0000 30.7599
#
#
#
# Elastic Compliance Matrix: (Units=1/GPa)
#
#
# Indices 1 2 3 4 5 6 
#
# 1 0.011589 -0.004023 -0.004419 0.000000 0.000000 0.000000
# 2 -0.004023 0.011590 -0.004419 0.000000 0.000000 0.000000
# 3 -0.004419 -0.004419 0.019124 0.000000 0.000000 0.000000
# 4 0.000000 0.000000 0.000000 0.030613 0.000000 0.000000
# 5 0.000000 0.000000 0.000000 0.000000 0.030613 0.000000
# 6 0.000000 0.000000 0.000000 0.000000 0.000000 0.032510
#
#
# Mechanical properties :
#
#
# Convention : Reuss Voigt Hill
#
# Bulk Modulus (GPa) = 60.31262 66.77891 63.54577
# Shear Modulus (GPa) = 29.88850 30.85505 30.37177
#
# Velocity S-wave (km/s) = 3.99982 4.06398 4.03202
# Velocity P-wave (km/s) = 7.32224 7.60041 7.46262
#
# Compressibility (1/GPa) = 0.01658028
#
# Stress axis : x y z
#
# Youngs Moduli (GPa) = 86.28753 86.28494 52.28958
#
# Poissons Ratio (x) = 0.34714 0.23108
# Poissons Ratio (y) = 0.34715 0.23106
# Poissons Ratio (z) = 0.38132 0.38129
#
# Static dielectric constant tensor:
#      x y z
#    x 3.490020 0.000000 0.000000 
#    y 0.000000 3.490020 0.000000 
#    z 0.000000 0.000000 3.355160 
# 
# 
# High freq. dielectric constant tensor:
#      x y z
#    x 1.733150 0.000000 0.000000 
#    y 0.000000 1.733150 0.000000 
#    z 0.000000 0.000000 1.718190 
# 
# From -- ./inp_files/2295.got.cif
#   From: 2010.03.12/outbox.cif.g09.slc.cpg/sg131_2_cif.got.tgz:2295.got - 2010.04.06 17:36:35.
