data_PCOD8316448
_publ_section_title
;
Structure prediction by ZEFSAII (Michael W. Deem and Ramdas Pophale) SiO2 
 PCOD8316448
Probable space group: P 42/M C M
;
_chemical_formula_sum "Si O2"
_cell_formula_units_Z 96
_cell_length_a 21.163615
_cell_length_b 21.163615
_cell_length_c 13.637914
_cell_angle_alpha 90.000000
_cell_angle_beta 90.000000
_cell_angle_gamma 90.000000
_cell_volume 6108.402586
_symmetry_space_group_name_H-M "P 42/M C M"
_symmetry_group_IT_number 132
_symmetry_cell_setting 'tetragonal'
loop_
_space_group_symop_operation_xyz
x,y,z
-y,x,1/2+z
-x,-y,z
y,-x,1/2+z
x,-y,1/2-z
-x,y,1/2-z
y,x,-z
-y,-x,-z
-x,-y,-z
y,-x,1/2-z
x,y,-z
-y,x,1/2-z
-x,y,1/2+z
x,-y,1/2+z
-y,-x,z
y,x,z
loop_
_atom_site_type_symbol
_atom_site_label
_atom_site_fract_x
_atom_site_fract_y
_atom_site_fract_z
Si Si1 0.367864 0.091558 0.811288
Si Si2 0.401792 0.301655 0.200635
Si Si3 0.045254 0.385922 0.390533
Si Si4 0.468742 0.733112 0.889237
Si Si5 0.207081 0.694628 0.387528
Si Si6 0.873073 0.504848 0.890202
O O1 0.347874 0.078767 0.698180
O O2 0.311417 0.133746 0.856465
O O3 0.436803 0.125218 0.814031
O O4 0.377727 0.029309 0.876785
O O5 0.369084 0.369084 0.179656
O O6 0.462045 0.295301 0.130822
O O7 0.419071 0.298157 0.315491
O O8 0.353433 0.245571 0.179174
O O9 0.064136 0.361181 0.500000
O O10 0.066296 0.458997 0.379171
O O11 0.467029 0.808407 0.871090
O O12 0.448763 0.716315 0.000000
O O13 0.215400 0.674379 0.500000
O O14 0.233938 0.766063 0.371486
O O15 0.871955 0.533675 0.000000
#
# Coordination Sequence:
#
# PCOD8316448 Si02
#       6
#    16  16  16  16  16  16
#     4  11  19  30  46  63  92 124 155 192 224 266
#     4  10  20  32  48  70  90 108 140 183 231 284
#     4  10  21  30  41  64  93 127 156 182 223 271
#     4  10  20  33  50  67  87 115 141 180 232 280
#     4  10  19  31  49  69  89 117 155 199 237 267
#     4  10  18  28  43  64  88 116 150 184 221 268
#
# _framework density 15.716056
#
# number of rings (size 3 to 8) (size 9 to 14) (size 15 to 20)
#    0.000    1.833    1.667    4.000    2.333    4.000 
#    0.000    0.000    0.000    5.500    0.000    4.667 
#    0.000    0.000    0.000    0.000    0.000    6.667 
#
# Total GULP energy -1189973.369999 kJ/mol
# GULP energy per Si atom -12395.555937 kJ/mol
# Density = 1.568029 g / cm^3
# Si number density = 15.716056 Si / 1000 Ang^3
#
#
#
# Elastic Constant Matrix: (Units=GPa)
#
#
# Indices 1 2 3 4 5 6 
#
# 1 67.3514 40.9684 23.3290 0.0000 0.0000 0.0000
# 2 40.9684 67.3514 23.3290 0.0000 0.0000 0.0000
# 3 23.3290 23.3290 97.9153 0.0000 0.0000 0.0000
# 4 0.0000 0.0000 0.0000 18.4390 0.0000 0.0000
# 5 0.0000 0.0000 0.0000 0.0000 18.4390 0.0000
# 6 0.0000 0.0000 0.0000 0.0000 0.0000 22.1842
#
#
#
# Elastic Compliance Matrix: (Units=1/GPa)
#
#
# Indices 1 2 3 4 5 6 
#
# 1 0.024095 -0.013808 -0.002451 0.000000 0.000000 0.000000
# 2 -0.013808 0.024095 -0.002451 0.000000 0.000000 0.000000
# 3 -0.002451 -0.002451 0.011381 0.000000 0.000000 0.000000
# 4 0.000000 0.000000 0.000000 0.054233 0.000000 0.000000
# 5 0.000000 0.000000 0.000000 0.000000 0.054233 0.000000
# 6 0.000000 0.000000 0.000000 0.000000 0.000000 0.045077
#
#
# Mechanical properties :
#
#
# Convention : Reuss Voigt Hill
#
# Bulk Modulus (GPa) = 45.14293 45.31900 45.23096
# Shear Modulus (GPa) = 19.38595 21.47854 20.43225
#
# Velocity S-wave (km/s) = 3.51595 3.70085 3.60958
# Velocity P-wave (km/s) = 6.72822 6.86735 6.79814
#
# Compressibility (1/GPa) = 0.02215186
#
# Stress axis : x y z
#
# Youngs Moduli (GPa) = 41.50154 41.50154 87.86645
#
# Poissons Ratio (x) = 0.57304 0.21537
# Poissons Ratio (y) = 0.57304 0.21537
# Poissons Ratio (z) = 0.10173 0.10173
#
# Static dielectric constant tensor:
#      x y z
#    x 2.854930 0.000000 0.000000 
#    y 0.000000 2.854930 0.000000 
#    z 0.000000 0.000000 3.283680 
# 
# 
# High freq. dielectric constant tensor:
#      x y z
#    x 1.566910 0.000000 0.000000 
#    y 0.000000 1.566910 0.000000 
#    z 0.000000 0.000000 1.628500 
# 
# From -- ./inp_files/4998.got.cif
#   From: 2010.03.12/outbox.cif.g09.slc.cpg/sg132_3_cif.got.tgz:4998.got - 2010.04.06 17:53:44.
