data_PCOD8317157
_publ_section_title
;
Structure prediction by ZEFSAII (Michael W. Deem and Ramdas Pophale) SiO2 
 PCOD8317157
Probable space group: P 42/N N M
;
_chemical_formula_sum "Si O2"
_cell_formula_units_Z 104
_cell_length_a 17.220680
_cell_length_b 17.220680
_cell_length_c 19.802104
_cell_angle_alpha 90.000000
_cell_angle_beta 90.000000
_cell_angle_gamma 90.000000
_cell_volume 5872.349974
_symmetry_space_group_name_H-M "P 42/N N M"
_symmetry_group_IT_number 134
_space_group.IT_coordinate_system_code '2'
_symmetry_cell_setting 'tetragonal'
loop_
_space_group_symop_operation_xyz
x,y,z
1/2-y,x,1/2+z
1/2-x,1/2-y,z
y,1/2-x,1/2+z
x,1/2-y,1/2-z
1/2-x,y,1/2-z
y,x,-z
1/2-y,1/2-x,-z
-x,-y,-z
1/2+y,-x,1/2-z
1/2+x,1/2+y,-z
-y,1/2+x,1/2-z
-x,1/2+y,1/2+z
1/2+x,-y,1/2+z
-y,-x,z
1/2+y,1/2+x,z
loop_
_atom_site_type_symbol
_atom_site_label
_atom_site_fract_x
_atom_site_fract_y
_atom_site_fract_z
Si Si1 0.424790 0.705882 0.499999
Si Si2 0.003110 0.378388 0.889897
Si Si3 0.032444 0.340113 0.257941
Si Si4 0.564772 0.064772 0.354525
Si Si5 0.117477 0.882524 0.000001
Si Si6 0.435229 0.935229 0.354525
Si Si7 0.621615 0.503109 0.389898
Si Si8 0.159887 0.032444 0.242058
O O1 0.350476 0.649525 0.499999
O O2 0.480877 0.696009 0.434707
O O3 0.394030 0.791706 0.499997
O O4 0.480876 0.696011 0.565292
O O5 0.091479 0.408523 0.903924
O O6 0.990638 0.363821 0.811157
O O7 0.945566 0.445566 0.913783
O O8 0.054436 0.250000 0.250000
O O9 0.111982 0.388017 0.270211
O O10 0.969453 0.358132 0.317204
O O11 0.990638 0.363818 0.188842
O O12 0.580391 0.080391 0.433026
O O13 0.500001 0.000001 0.346565
O O14 0.080388 0.919612 0.066973
O O15 0.469454 0.858133 0.317205
O O16 0.554437 0.445564 0.413783
O O17 0.250000 0.054435 0.250000
#
# Coordination Sequence:
#
# PCOD8317157 Si02
#       8
#    16  16  16   8   8   8  16  16
#     4  10  20  31  48  73 104 133 161 201 257 306
#     4   9  16  30  51  74  96 124 165 211 256 298
#     4  10  19  33  53  76 102 132 168 212 256 301
#     4  10  21  37  55  73  97 135 180 212 242 293
#     4  12  22  34  48  70 102 140 172 206 242 290
#     4  10  21  37  55  73  97 135 180 212 242 293
#     4   9  16  30  51  74  96 124 165 211 256 298
#     4  10  19  33  53  76 102 132 168 212 256 301
#
# _framework density 17.710114999999998
#
# number of rings (size 3 to 8) (size 9 to 14) (size 15 to 20)
#    0.000    2.154    1.538    2.769    0.000    2.154 
#    0.000    0.000    0.000    0.000    0.000    0.000 
#    0.000   22.154    0.000    0.000    0.000    0.000 
#
# Total GULP energy -1288691.627613 kJ/mol
# GULP energy per Si atom -12391.265650 kJ/mol
# Density = 1.766981 g / cm^3
# Si number density = 17.710115 Si / 1000 Ang^3
#
#
#
# Elastic Constant Matrix: (Units=GPa)
#
#
# Indices 1 2 3 4 5 6 
#
# 1 82.6739 36.5420 35.8316 0.0000 0.0000 0.0000
# 2 36.5420 82.6739 35.8316 0.0000 0.0000 0.0000
# 3 35.8316 35.8316 118.6246 0.0000 0.0000 0.0000
# 4 0.0000 0.0000 0.0000 20.4472 0.0000 0.0000
# 5 0.0000 0.0000 0.0000 0.0000 20.4472 0.0000
# 6 0.0000 0.0000 0.0000 0.0000 0.0000 19.5918
#
#
#
# Elastic Compliance Matrix: (Units=1/GPa)
#
#
# Indices 1 2 3 4 5 6 
#
# 1 0.015963 -0.005714 -0.003096 0.000000 0.000000 0.000000
# 2 -0.005714 0.015963 -0.003096 0.000000 0.000000 0.000000
# 3 -0.003096 -0.003096 0.010300 0.000000 0.000000 0.000000
# 4 0.000000 0.000000 0.000000 0.048906 0.000000 0.000000
# 5 0.000000 0.000000 0.000000 0.000000 0.048906 0.000000
# 6 0.000000 0.000000 0.000000 0.000000 0.000000 0.051042
#
#
# Mechanical properties :
#
#
# Convention : Reuss Voigt Hill
#
# Bulk Modulus (GPa) = 54.30328 55.59809 54.95068
# Shear Modulus (GPa) = 22.62130 23.81504 23.21817
#
# Velocity S-wave (km/s) = 3.57782 3.67101 3.62472
# Velocity P-wave (km/s) = 6.91351 7.03065 6.97233
#
# Compressibility (1/GPa) = 0.01841510
#
# Stress axis : x y z
#
# Youngs Moduli (GPa) = 62.64466 62.64466 97.08544
#
# Poissons Ratio (x) = 0.35795 0.30056
# Poissons Ratio (y) = 0.35795 0.30056
# Poissons Ratio (z) = 0.19394 0.19394
#
# Static dielectric constant tensor:
#      x y z
#    x 3.190320 0.000000 0.000000 
#    y 0.000000 3.190320 0.000000 
#    z 0.000000 0.000000 3.479230 
# 
# 
# High freq. dielectric constant tensor:
#      x y z
#    x 1.667930 0.000000 0.000000 
#    y 0.000000 1.667930 0.000000 
#    z 0.000000 0.000000 1.699340 
# 
# From -- ./inp_files/8026.got.cif
#   From: 2010.03.12/outbox.cif.g09.slc.cpg/sg134_5_cif.got.tgz:8026.got - 2010.04.06 18:17:22.
