data_PCOD8317433
_publ_section_title
;
Structure prediction by ZEFSAII (Michael W. Deem and Ramdas Pophale) SiO2 
 PCOD8317433
Probable space group: P 42/M B C
;
_chemical_formula_sum "Si O2"
_cell_formula_units_Z 112
_cell_length_a 14.333418
_cell_length_b 14.333418
_cell_length_c 25.832607
_cell_angle_alpha 90.000000
_cell_angle_beta 90.000000
_cell_angle_gamma 90.000000
_cell_volume 5307.228292
_symmetry_space_group_name_H-M "P 42/M B C"
_symmetry_group_IT_number 135
_symmetry_cell_setting 'tetragonal'
loop_
_space_group_symop_operation_xyz
x,y,z
-y,x,1/2+z
-x,-y,z
y,-x,1/2+z
1/2+x,1/2-y,-z
1/2-x,1/2+y,-z
1/2+y,1/2+x,1/2-z
1/2-y,1/2-x,1/2-z
-x,-y,-z
y,-x,1/2-z
x,y,-z
-y,x,1/2-z
1/2-x,1/2+y,z
1/2+x,1/2-y,z
1/2-y,1/2-x,1/2+z
1/2+y,1/2+x,1/2+z
loop_
_atom_site_type_symbol
_atom_site_label
_atom_site_fract_x
_atom_site_fract_y
_atom_site_fract_z
Si Si1 0.447678 0.220036 0.152141
Si Si2 0.682013 0.761061 0.694701
Si Si3 0.454494 0.356775 0.247933
Si Si4 0.436398 0.344712 0.057925
Si Si5 0.754855 0.034501 0.059130
Si Si6 0.139866 0.135812 0.940460
Si Si7 0.149106 0.315378 0.120929
O O1 0.362376 0.153849 0.170734
O O2 0.464727 0.297901 0.195712
O O3 0.412354 0.263222 0.098111
O O4 0.544928 0.165314 0.143067
O O5 0.727734 0.772267 0.750000
O O6 0.589031 0.699038 0.702756
O O7 0.766037 0.712388 0.663822
O O8 0.388992 0.444089 0.233510
O O9 0.355982 0.419610 0.057680
O O10 0.534240 0.393263 0.075197
O O11 0.448125 0.301413 0.000000
O O12 0.686567 0.086334 0.099201
O O13 0.779199 0.931570 0.083581
O O14 0.713375 0.032654 0.000000
O O15 0.151645 0.243908 0.926897
O O16 0.157074 0.120825 0.000000
#
# Coordination Sequence:
#
# PCOD8317433 Si02
#       7
#    16  16  16  16  16  16  16
#     4  10  20  36  58  86 122 159 206 250 315 373
#     4  10  21  38  54  84 123 157 197 256 309 372
#     4  10  20  36  58  90 121 158 206 262 319 373
#     4   9  17  31  52  83 122 154 192 248 314 373
#     4  10  19  33  55  86 122 160 200 246 305 370
#     4   9  19  33  52  84 119 153 200 255 304 365
#     4  11  20  36  58  87 115 164 203 250 307 378
#
# _framework density 21.103294000000002
#
# number of rings (size 3 to 8) (size 9 to 14) (size 15 to 20)
#    0.000    2.143    2.857    0.857    0.000    3.429 
#    2.571    0.000    0.000    0.857    0.000    6.000 
#    0.000    0.000    0.000    0.000    0.000    0.000 
#
# Total GULP energy -1387683.372084 kJ/mol
# GULP energy per Si atom -12390.030108 kJ/mol
# Density = 2.105526 g / cm^3
# Si number density = 21.103294 Si / 1000 Ang^3
#
#
#
# Elastic Constant Matrix: (Units=GPa)
#
#
# Indices 1 2 3 4 5 6 
#
# 1 89.0399 56.0612 20.4090 0.0000 0.0000 0.0000
# 2 56.0612 89.0402 20.4087 0.0000 0.0000 0.0000
# 3 20.4090 20.4087 50.2782 0.0000 0.0000 0.0000
# 4 0.0000 0.0000 0.0000 20.9130 0.0000 0.0000
# 5 0.0000 0.0000 0.0000 0.0000 20.9129 0.0000
# 6 0.0000 0.0000 0.0000 0.0000 0.0000 32.1011
#
#
#
# Elastic Compliance Matrix: (Units=1/GPa)
#
#
# Indices 1 2 3 4 5 6 
#
# 1 0.019051 -0.011271 -0.003158 0.000000 0.000000 0.000000
# 2 -0.011271 0.019051 -0.003158 0.000000 0.000000 0.000000
# 3 -0.003158 -0.003158 0.022453 0.000000 0.000000 0.000000
# 4 0.000000 0.000000 0.000000 0.047817 0.000000 0.000000
# 5 0.000000 0.000000 0.000000 0.000000 0.047817 0.000000
# 6 0.000000 0.000000 0.000000 0.000000 0.000000 0.031152
#
#
# Mechanical properties :
#
#
# Convention : Reuss Voigt Hill
#
# Bulk Modulus (GPa) = 39.39947 46.90179 43.15063
# Shear Modulus (GPa) = 21.64717 23.55069 22.59893
#
# Velocity S-wave (km/s) = 3.20624 3.34424 3.27597
# Velocity P-wave (km/s) = 5.69359 6.09795 5.89924
#
# Compressibility (1/GPa) = 0.02538105
#
# Stress axis : x y z
#
# Youngs Moduli (GPa) = 52.48958 52.48996 44.53713
#
# Poissons Ratio (x) = 0.59163 0.14066
# Poissons Ratio (y) = 0.59162 0.14065
# Poissons Ratio (z) = 0.16577 0.16576
#
# Static dielectric constant tensor:
#      x y z
#    x 3.859430 0.000000 0.000000 
#    y 0.000000 3.859430 0.000000 
#    z 0.000000 0.000000 4.018830 
# 
# 
# High freq. dielectric constant tensor:
#      x y z
#    x 1.810810 0.000000 0.000000 
#    y 0.000000 1.810810 0.000000 
#    z 0.000000 0.000000 1.835450 
# 
# From -- ./inp_files/6537.got.cif
#   From: 2010.03.12/outbox.cif.g09.slc.cpg/sg135_4_cif.got.tgz:6537.got - 2010.04.06 18:31:24.
