data_PCOD8317467
_publ_section_title
;
Structure prediction by ZEFSAII (Michael W. Deem and Ramdas Pophale) SiO2 
 PCOD8317467
Probable space group: P 42/M B C
;
_chemical_formula_sum "Si O2"
_cell_formula_units_Z 80
_cell_length_a 13.918436
_cell_length_b 13.918436
_cell_length_c 17.280315
_cell_angle_alpha 90.000000
_cell_angle_beta 90.000000
_cell_angle_gamma 90.000000
_cell_volume 3347.592055
_symmetry_space_group_name_H-M "P 42/M B C"
_symmetry_group_IT_number 135
_symmetry_cell_setting 'tetragonal'
loop_
_space_group_symop_operation_xyz
x,y,z
-y,x,1/2+z
-x,-y,z
y,-x,1/2+z
1/2+x,1/2-y,-z
1/2-x,1/2+y,-z
1/2+y,1/2+x,1/2-z
1/2-y,1/2-x,1/2-z
-x,-y,-z
y,-x,1/2-z
x,y,-z
-y,x,1/2-z
1/2-x,1/2+y,z
1/2+x,1/2-y,z
1/2-y,1/2-x,1/2+z
1/2+y,1/2+x,1/2+z
loop_
_atom_site_type_symbol
_atom_site_label
_atom_site_fract_x
_atom_site_fract_y
_atom_site_fract_z
Si Si1 0.893410 0.599804 0.587224
Si Si2 0.228700 0.535404 0.839973
Si Si3 0.686938 0.297671 0.910784
Si Si4 0.265844 0.505710 0.660841
Si Si5 0.089624 0.937639 0.909980
O O1 0.925911 0.577734 0.500000
O O2 0.986289 0.627012 0.638064
O O3 0.819030 0.691597 0.590681
O O4 0.839886 0.504512 0.620801
O O5 0.225871 0.649113 0.864343
O O6 0.250371 0.517792 0.751292
O O7 0.311701 0.491769 0.893341
O O8 0.589942 0.326448 0.863404
O O9 0.680634 0.333594 0.000000
O O10 0.331614 0.592881 0.630282
O O11 0.078559 0.918083 0.000000
O O12 0.000000 0.000000 0.878293
#
# Coordination Sequence:
#
# PCOD8317467 Si02
#       5
#    16  16  16  16  16
#     4   9  19  35  50  66 101 139 170 210 256 313
#     4  12  20  30  52  78  97 134 181 210 255 316
#     4   9  18  33  49  68 102 135 169 214 257 306
#     4  10  20  32  45  70 105 133 164 214 264 294
#     4  11  20  30  47  71 104 140 171 204 256 324
#
# _framework density 23.897776
#
# number of rings (size 3 to 8) (size 9 to 14) (size 15 to 20)
#    1.200    0.600    2.000    4.800    0.000    0.000 
#    0.000    0.000    0.000    0.000    0.000    1.400 
#    0.000    9.600    0.000    0.200    0.000    0.000 
#
# Total GULP energy -991060.462357 kJ/mol
# GULP energy per Si atom -12388.255779 kJ/mol
# Density = 2.384338 g / cm^3
# Si number density = 23.897776 Si / 1000 Ang^3
#
#
#
# Elastic Constant Matrix: (Units=GPa)
#
#
# Indices 1 2 3 4 5 6 
#
# 1 33.2922 -0.9122 5.6234 0.0000 0.0000 0.0000
# 2 -0.9122 33.2922 5.6234 0.0000 0.0000 0.0000
# 3 5.6234 5.6234 157.7316 0.0000 0.0000 0.0000
# 4 0.0000 0.0000 0.0000 15.7981 0.0000 0.0000
# 5 0.0000 0.0000 0.0000 0.0000 15.7981 0.0000
# 6 0.0000 0.0000 0.0000 0.0000 0.0000 28.6250
#
#
#
# Elastic Compliance Matrix: (Units=1/GPa)
#
#
# Indices 1 2 3 4 5 6 
#
# 1 0.030253 0.001017 -0.001115 0.000000 0.000000 0.000000
# 2 0.001017 0.030253 -0.001115 0.000000 0.000000 0.000000
# 3 -0.001115 -0.001115 0.006419 0.000000 0.000000 0.000000
# 4 0.000000 0.000000 0.000000 0.063299 0.000000 0.000000
# 5 0.000000 0.000000 0.000000 0.000000 0.063299 0.000000
# 6 0.000000 0.000000 0.000000 0.000000 0.000000 0.034934
#
#
# Mechanical properties :
#
#
# Convention : Reuss Voigt Hill
#
# Bulk Modulus (GPa) = 15.50364 27.22056 21.36210
# Shear Modulus (GPa) = 19.81114 26.30966 23.06040
#
# Velocity S-wave (km/s) = 2.88235 3.32162 3.10975
# Velocity P-wave (km/s) = 4.19271 5.11136 4.67466
#
# Compressibility (1/GPa) = 0.06450097
#
# Stress axis : x y z
#
# Youngs Moduli (GPa) = 33.05433 33.05433 155.77838
#
# Poissons Ratio (x) = -0.03362 0.17367
# Poissons Ratio (y) = -0.03362 0.17367
# Poissons Ratio (z) = 0.03685 0.03685
#
# Static dielectric constant tensor:
#      x y z
#    x 4.212460 0.000000 0.000000 
#    y 0.000000 4.212460 0.000000 
#    z 0.000000 0.000000 4.002800 
# 
# 
# High freq. dielectric constant tensor:
#      x y z
#    x 1.931850 0.000000 0.000000 
#    y 0.000000 1.931850 0.000000 
#    z 0.000000 0.000000 1.943110 
# 
# From -- ./inp_files/3435.got.cif
#   From: 2010.03.12/outbox.cif.g09.slc.cpg/sg135_2_cif.got.tgz:3435.got - 2010.04.06 18:31:24.
