data_PCOD8317147
_publ_section_title
;
Structure prediction by ZEFSAII (Michael W. Deem and Ramdas Pophale) SiO2 
 PCOD8317147
Probable space group: P 42/N N M
;
_chemical_formula_sum "Si O2"
_cell_formula_units_Z 96
_cell_length_a 15.356977
_cell_length_b 15.356977
_cell_length_c 19.842995
_cell_angle_alpha 90.000000
_cell_angle_beta 90.000000
_cell_angle_gamma 90.000000
_cell_volume 4679.707304
_symmetry_space_group_name_H-M "P 42/N N M"
_symmetry_group_IT_number 134
_space_group.IT_coordinate_system_code '2'
_symmetry_cell_setting 'tetragonal'
loop_
_space_group_symop_operation_xyz
x,y,z
1/2-y,x,1/2+z
1/2-x,1/2-y,z
y,1/2-x,1/2+z
x,1/2-y,1/2-z
1/2-x,y,1/2-z
y,x,-z
1/2-y,1/2-x,-z
-x,-y,-z
1/2+y,-x,1/2-z
1/2+x,1/2+y,-z
-y,1/2+x,1/2-z
-x,1/2+y,1/2+z
1/2+x,-y,1/2+z
-y,-x,z
1/2+y,1/2+x,z
loop_
_atom_site_type_symbol
_atom_site_label
_atom_site_fract_x
_atom_site_fract_y
_atom_site_fract_z
Si Si1 0.062796 0.797889 0.955730
Si Si2 0.349638 0.989197 0.404684
Si Si3 0.479042 0.119957 0.052840
Si Si4 0.469971 0.113941 0.339521
Si Si5 0.911952 0.554088 0.196156
Si Si6 0.444421 0.694837 0.314611
O O1 0.163433 0.836568 0.955571
O O2 0.048699 0.694830 0.968953
O O3 0.019319 0.813911 0.883096
O O4 0.009654 0.848235 0.013887
O O5 0.411803 0.911803 0.378455
O O6 0.253269 0.970176 0.378063
O O7 0.382270 0.082847 0.377959
O O8 0.436950 0.142687 0.126407
O O9 0.529606 0.029606 0.059474
O O10 0.399321 0.100680 0.000000
O O11 0.449052 0.148768 0.263695
O O12 0.528780 0.028780 0.332959
O O13 0.964324 0.464324 0.191639
O O14 0.974337 0.636217 0.206789
O O15 0.415958 0.750000 0.250000
O O16 0.363775 0.636226 0.338740
#
# Coordination Sequence:
#
# PCOD8317147 Si02
#       6
#    16  16  16  16  16  16
#     4  10  21  35  57  85 111 144 192 250 296 333
#     4  10  19  32  50  77 113 151 187 229 285 348
#     4  10  21  38  58  82 115 156 194 228 283 361
#     4   9  17  33  54  78 103 137 192 243 284 341
#     4   9  18  33  54  76 104 148 193 231 275 342
#     4  11  20  31  50  81 117 150 186 232 284 347
#
# _framework density 20.514102999999999
#
# number of rings (size 3 to 8) (size 9 to 14) (size 15 to 20)
#    0.000    2.167    1.667    2.000    0.000    6.167 
#    0.000    1.667    0.000    7.000    0.000    4.667 
#    0.000    0.000    0.000    0.000    0.000    0.000 
#
# Total GULP energy -1189357.844840 kJ/mol
# GULP energy per Si atom -12389.144217 kJ/mol
# Density = 2.046741 g / cm^3
# Si number density = 20.514103 Si / 1000 Ang^3
#
#
#
# Elastic Constant Matrix: (Units=GPa)
#
#
# Indices 1 2 3 4 5 6 
#
# 1 42.9260 25.2707 17.5137 0.0000 0.0000 0.0000
# 2 25.2707 42.9241 17.5132 0.0000 0.0000 0.0000
# 3 17.5137 17.5132 140.9111 0.0000 0.0000 0.0000
# 4 0.0000 0.0000 0.0000 22.6347 0.0000 0.0000
# 5 0.0000 0.0000 0.0000 0.0000 22.6348 0.0000
# 6 0.0000 0.0000 0.0000 0.0000 0.0000 18.6154
#
#
#
# Elastic Compliance Matrix: (Units=1/GPa)
#
#
# Indices 1 2 3 4 5 6 
#
# 1 0.036153 -0.020490 -0.001947 0.000000 0.000000 0.000000
# 2 -0.020490 0.036154 -0.001947 0.000000 0.000000 0.000000
# 3 -0.001947 -0.001947 0.007581 0.000000 0.000000 0.000000
# 4 0.000000 0.000000 0.000000 0.044180 0.000000 0.000000
# 5 0.000000 0.000000 0.000000 0.000000 0.044180 0.000000
# 6 0.000000 0.000000 0.000000 0.000000 0.000000 0.053719
#
#
# Mechanical properties :
#
#
# Convention : Reuss Voigt Hill
#
# Bulk Modulus (GPa) = 32.13305 38.59518 35.36412
# Shear Modulus (GPa) = 17.78683 23.87454 20.83069
#
# Velocity S-wave (km/s) = 2.94777 3.41517 3.19004
# Velocity P-wave (km/s) = 5.22338 5.86566 5.55381
#
# Compressibility (1/GPa) = 0.03112061
#
# Stress axis : x y z
#
# Youngs Moduli (GPa) = 27.66044 27.65926 131.91579
#
# Poissons Ratio (x) = 0.56674 0.25681
# Poissons Ratio (y) = 0.56676 0.25681
# Poissons Ratio (z) = 0.05385 0.05385
#
# Static dielectric constant tensor:
#      x y z
#    x 3.347600 0.000000 0.000000 
#    y 0.000000 3.347610 0.000000 
#    z 0.000000 0.000000 4.179120 
# 
# 
# High freq. dielectric constant tensor:
#      x y z
#    x 1.766300 0.000000 0.000000 
#    y 0.000000 1.766300 0.000000 
#    z 0.000000 0.000000 1.828410 
# 
# From -- ./inp_files/7860.got.cif
#   From: 2010.03.12/outbox.cif.g09.slc.cpg/sg134_4_cif.got.tgz:7860.got - 2010.04.06 18:17:22.
