data_PCOD8317286
_publ_section_title
;
Structure prediction by ZEFSAII (Michael W. Deem and Ramdas Pophale) SiO2 
 PCOD8317286
Probable space group: P 42/N N M
;
_chemical_formula_sum "Si O2"
_cell_formula_units_Z 64
_cell_length_a 13.780242
_cell_length_b 13.780242
_cell_length_c 19.515449
_cell_angle_alpha 90.000000
_cell_angle_beta 90.000000
_cell_angle_gamma 90.000000
_cell_volume 3705.887546
_symmetry_space_group_name_H-M "P 42/N N M"
_symmetry_group_IT_number 134
_space_group.IT_coordinate_system_code '2'
_symmetry_cell_setting 'tetragonal'
loop_
_space_group_symop_operation_xyz
x,y,z
1/2-y,x,1/2+z
1/2-x,1/2-y,z
y,1/2-x,1/2+z
x,1/2-y,1/2-z
1/2-x,y,1/2-z
y,x,-z
1/2-y,1/2-x,-z
-x,-y,-z
1/2+y,-x,1/2-z
1/2+x,1/2+y,-z
-y,1/2+x,1/2-z
-x,1/2+y,1/2+z
1/2+x,-y,1/2+z
-y,-x,z
1/2+y,1/2+x,z
loop_
_atom_site_type_symbol
_atom_site_label
_atom_site_fract_x
_atom_site_fract_y
_atom_site_fract_z
Si Si1 0.600974 0.751111 0.970868
Si Si2 0.907608 0.249643 0.950825
Si Si3 0.174383 0.514625 0.189473
Si Si4 0.209592 0.357924 0.819381
O O1 0.593993 0.750189 0.888543
O O2 0.658831 0.658831 0.000000
O O3 0.651107 0.848894 0.000000
O O4 0.490332 0.744672 0.992675
O O5 0.852539 0.147462 0.948216
O O6 0.835562 0.335562 0.972120
O O7 0.954518 0.268176 0.877614
O O8 0.250000 0.524831 0.250000
O O9 0.082284 0.582284 0.203961
O O10 0.136467 0.405973 0.181281
O O11 0.250000 0.250000 0.819709
O O12 0.250000 0.410254 0.750000
#
# Coordination Sequence:
#
# PCOD8317286 Si02
#       4
#    16  16  16  16
#     4  11  20  35  57  85 109 142 187 231 275 322
#     4  10  22  38  56  81 114 149 184 228 281 332
#     4  11  21  34  55  83 114 148 181 223 279 339
#     4  11  20  36  58  79 113 149 185 227 275 323
#
# _framework density 17.269817
#
# number of rings (size 3 to 8) (size 9 to 14) (size 15 to 20)
#    0.000    1.250    7.500    0.750    0.000    3.250 
#    0.000    1.250    0.000    0.000    0.000    1.750 
#    0.000    0.000    0.000    0.000    0.000    0.000 
#
# Total GULP energy -793627.024741 kJ/mol
# GULP energy per Si atom -12400.422262 kJ/mol
# Density = 1.723051 g / cm^3
# Si number density = 17.269817 Si / 1000 Ang^3
#
#
#
# Elastic Constant Matrix: (Units=GPa)
#
#
# Indices 1 2 3 4 5 6 
#
# 1 99.7109 51.4561 60.6622 0.0000 0.0000 0.0000
# 2 51.4561 99.7108 60.6683 0.0000 0.0000 0.0000
# 3 60.6622 60.6683 162.1150 0.0000 0.0000 0.0000
# 4 0.0000 0.0000 0.0000 25.6678 0.0000 0.0000
# 5 0.0000 0.0000 0.0000 0.0000 25.6679 0.0000
# 6 0.0000 0.0000 0.0000 0.0000 0.0000 5.7859
#
#
#
# Elastic Compliance Matrix: (Units=1/GPa)
#
#
# Indices 1 2 3 4 5 6 
#
# 1 0.015089 -0.005634 -0.003538 0.000000 0.000000 0.000000
# 2 -0.005634 0.015090 -0.003539 0.000000 0.000000 0.000000
# 3 -0.003538 -0.003539 0.008817 0.000000 0.000000 0.000000
# 4 0.000000 0.000000 0.000000 0.038959 0.000000 0.000000
# 5 0.000000 0.000000 0.000000 0.000000 0.038959 0.000000
# 6 0.000000 0.000000 0.000000 0.000000 0.000000 0.172833
#
#
# Mechanical properties :
#
#
# Convention : Reuss Voigt Hill
#
# Bulk Modulus (GPa) = 73.67098 78.56777 76.11938
# Shear Modulus (GPa) = 15.64003 24.00766 19.82384
#
# Velocity S-wave (km/s) = 3.01263 3.73252 3.39173
# Velocity P-wave (km/s) = 7.40626 8.01053 7.71431
#
# Compressibility (1/GPa) = 0.01357387
#
# Stress axis : x y z
#
# Youngs Moduli (GPa) = 66.27454 66.27050 113.42346
#
# Poissons Ratio (x) = 0.37338 0.40125
# Poissons Ratio (y) = 0.37340 0.40138
# Poissons Ratio (z) = 0.23445 0.23451
#
# Static dielectric constant tensor:
#      x y z
#    x 3.242110 0.000000 0.000000 
#    y 0.000000 3.242110 0.000000 
#    z 0.000000 0.000000 3.692470 
# 
# 
# High freq. dielectric constant tensor:
#      x y z
#    x 1.657020 0.000000 0.000000 
#    y 0.000000 1.657020 0.000000 
#    z 0.000000 0.000000 1.683620 
# 
# From -- ./inp_files/7423.got.cif
#   From: 2010.03.12/outbox.cif.g09.slc.cpg/sg134_4_cif.got.tgz:7423.got - 2010.04.06 18:17:22.
