data_PCOD8317913
_publ_section_title
;
Structure prediction by ZEFSAII (Michael W. Deem and Ramdas Pophale) SiO2 
 PCOD8317913
Probable space group: P 42/M N M
;
_chemical_formula_sum "Si O2"
_cell_formula_units_Z 96
_cell_length_a 24.701216
_cell_length_b 24.701216
_cell_length_c 9.076251
_cell_angle_alpha 90.000000
_cell_angle_beta 90.000000
_cell_angle_gamma 90.000000
_cell_volume 5537.875200
_symmetry_space_group_name_H-M "P 42/M N M"
_symmetry_group_IT_number 136
_symmetry_cell_setting 'tetragonal'
loop_
_space_group_symop_operation_xyz
x,y,z
1/2-y,1/2+x,1/2+z
-x,-y,z
1/2+y,1/2-x,1/2+z
1/2+x,1/2-y,1/2-z
1/2-x,1/2+y,1/2-z
y,x,-z
-y,-x,-z
-x,-y,-z
1/2+y,1/2-x,1/2-z
x,y,-z
1/2-y,1/2+x,1/2-z
1/2-x,1/2+y,1/2+z
1/2+x,1/2-y,1/2+z
-y,-x,z
y,x,z
loop_
_atom_site_type_symbol
_atom_site_label
_atom_site_fract_x
_atom_site_fract_y
_atom_site_fract_z
Si Si1 0.708365 0.913977 0.668708
Si Si2 0.382949 0.382949 0.173888
Si Si3 0.280707 0.965705 0.672523
Si Si4 0.331604 0.476542 0.669684
Si Si5 0.301058 0.301058 0.672231
Si Si6 0.902858 0.818879 0.830595
Si Si7 0.689344 0.140342 0.172201
O O1 0.724326 0.907508 0.500000
O O2 0.761657 0.899574 0.755660
O O3 0.664576 0.869247 0.713197
O O4 0.688755 0.976280 0.699095
O O5 0.443249 0.372365 0.229706
O O6 0.340512 0.340512 0.240154
O O7 0.379374 0.379374 0.000000
O O8 0.266971 0.958142 0.500000
O O9 0.227791 0.965327 0.771185
O O10 0.313564 0.914162 0.730711
O O11 0.334360 0.457476 0.500000
O O12 0.347232 0.539006 0.688301
O O13 0.310480 0.310480 0.500000
O O14 0.317822 0.238734 0.713615
O O15 0.858775 0.858775 0.758618
O O16 0.889908 0.808818 0.000000
O O17 0.693295 0.125542 0.000000
#
# Coordination Sequence:
#
# PCOD8317913 Si02
#       7
#    16   8  16  16   8  16  16
#     4   9  20  35  53  78 105 136 171 209 254 308
#     4  12  22  32  49  75 104 131 168 216 261 299
#     4  10  19  33  52  76 104 132 169 214 256 298
#     4  10  19  33  52  71  97 135 174 208 254 311
#     4  10  20  32  50  75 105 138 170 202 251 308
#     4   9  19  35  53  74 100 133 173 215 255 303
#     4  10  20  34  53  77 106 139 173 207 250 310
#
# _framework density 17.335167999999999
#
# number of rings (size 3 to 8) (size 9 to 14) (size 15 to 20)
#    0.000    2.167    1.667    1.750    1.167    2.333 
#    0.000    0.417    0.000    3.000    0.000    3.500 
#    0.000    0.000    0.000    0.000    0.000    0.000 
#
# Total GULP energy -1189767.728745 kJ/mol
# GULP energy per Si atom -12393.413841 kJ/mol
# Density = 1.729571 g / cm^3
# Si number density = 17.335168 Si / 1000 Ang^3
#
#
#
# Elastic Constant Matrix: (Units=GPa)
#
#
# Indices 1 2 3 4 5 6 
#
# 1 99.3871 63.5105 43.2275 0.0000 0.0000 0.0000
# 2 63.5105 99.3871 43.2275 0.0000 0.0000 0.0000
# 3 43.2275 43.2275 71.6740 0.0000 0.0000 0.0000
# 4 0.0000 0.0000 0.0000 20.6009 0.0000 0.0000
# 5 0.0000 0.0000 0.0000 0.0000 20.6009 0.0000
# 6 0.0000 0.0000 0.0000 0.0000 0.0000 24.9099
#
#
#
# Elastic Compliance Matrix: (Units=1/GPa)
#
#
# Indices 1 2 3 4 5 6 
#
# 1 0.018451 -0.009422 -0.005445 0.000000 0.000000 0.000000
# 2 -0.009422 0.018451 -0.005445 0.000000 0.000000 0.000000
# 3 -0.005445 -0.005445 0.020520 0.000000 0.000000 0.000000
# 4 0.000000 0.000000 0.000000 0.048542 0.000000 0.000000
# 5 0.000000 0.000000 0.000000 0.000000 0.048542 0.000000
# 6 0.000000 0.000000 0.000000 0.000000 0.000000 0.040145
#
#
# Mechanical properties :
#
#
# Convention : Reuss Voigt Hill
#
# Bulk Modulus (GPa) = 59.53617 63.37547 61.45582
# Shear Modulus (GPa) = 20.75760 21.25451 21.00606
#
# Velocity S-wave (km/s) = 3.46414 3.50536 3.48481
# Velocity P-wave (km/s) = 7.10064 7.28160 7.19169
#
# Compressibility (1/GPa) = 0.01679651
#
# Stress axis : x y z
#
# Youngs Moduli (GPa) = 54.19728 54.19728 48.73179
#
# Poissons Ratio (x) = 0.51066 0.26537
# Poissons Ratio (y) = 0.51066 0.26537
# Poissons Ratio (z) = 0.29513 0.29513
#
# Static dielectric constant tensor:
#      x y z
#    x 3.516400 0.000000 0.000000 
#    y 0.000000 3.516400 0.000000 
#    z 0.000000 0.000000 3.272420 
# 
# 
# High freq. dielectric constant tensor:
#      x y z
#    x 1.661100 0.000000 0.000000 
#    y 0.000000 1.661100 0.000000 
#    z 0.000000 0.000000 1.675320 
# 
# From -- ./inp_files/2056.got.cif
#   From: 2010.03.12/outbox.cif.g09.slc.cpg/sg136_2_cif.got.tgz:2056.got - 2010.04.06 18:39:43.
