data_PCOD8317471
_publ_section_title
;
Structure prediction by ZEFSAII (Michael W. Deem and Ramdas Pophale) SiO2 
 PCOD8317471
Probable space group: P 42/M B C
;
_chemical_formula_sum "Si O2"
_cell_formula_units_Z 96
_cell_length_a 25.033351
_cell_length_b 25.033351
_cell_length_c 8.827576
_cell_angle_alpha 90.000000
_cell_angle_beta 90.000000
_cell_angle_gamma 90.000000
_cell_volume 5531.965243
_symmetry_space_group_name_H-M "P 42/M B C"
_symmetry_group_IT_number 135
_symmetry_cell_setting 'tetragonal'
loop_
_space_group_symop_operation_xyz
x,y,z
-y,x,1/2+z
-x,-y,z
y,-x,1/2+z
1/2+x,1/2-y,-z
1/2-x,1/2+y,-z
1/2+y,1/2+x,1/2-z
1/2-y,1/2-x,1/2-z
-x,-y,-z
y,-x,1/2-z
x,y,-z
-y,x,1/2-z
1/2-x,1/2+y,z
1/2+x,1/2-y,z
1/2-y,1/2-x,1/2+z
1/2+y,1/2+x,1/2+z
loop_
_atom_site_type_symbol
_atom_site_label
_atom_site_fract_x
_atom_site_fract_y
_atom_site_fract_z
Si Si1 0.936739 0.857191 0.676638
Si Si2 0.250017 0.434746 0.330593
Si Si3 0.440096 0.858217 0.319990
Si Si4 0.556090 0.861901 0.820204
Si Si5 0.939508 0.139252 0.324821
Si Si6 0.744503 0.438468 0.332527
O O1 0.929813 0.847737 0.500000
O O2 0.912803 0.804912 0.758873
O O3 0.904791 0.909118 0.727780
O O4 0.998515 0.866664 0.718337
O O5 0.243901 0.411359 0.500000
O O6 0.199368 0.416908 0.230821
O O7 0.252297 0.498087 0.334338
O O8 0.403614 0.903614 0.250000
O O9 0.440019 0.861632 0.500000
O O10 0.499193 0.868369 0.258440
O O11 0.594557 0.905444 0.750000
O O12 0.581644 0.803433 0.783950
O O13 0.549262 0.869689 0.000000
O O14 0.928211 0.128838 0.500000
O O15 0.918861 0.198926 0.283237
O O16 0.729524 0.417193 0.500000
#
# Coordination Sequence:
#
# PCOD8317471 Si02
#       6
#    16  16  16  16  16  16
#     4  10  20  33  50  73 101 133 167 204 250 298
#     4   9  17  32  52  73  97 127 166 207 246 291
#     4  11  21  34  52  75 103 134 168 205 247 295
#     4  10  20  34  52  76 103 133 167 205 250 297
#     4  10  20  32  49  73  99 130 167 205 247 296
#     4   8  16  31  50  70  95 127 163 202 243 291
#
# _framework density 17.353688999999999
#
# number of rings (size 3 to 8) (size 9 to 14) (size 15 to 20)
#    0.000    2.333    0.000    4.500    0.000    7.333 
#    0.000    3.333    0.000    1.000    0.000    4.667 
#    0.000    0.000    0.000    0.000    0.000    0.000 
#
# Total GULP energy -1190247.562069 kJ/mol
# GULP energy per Si atom -12398.412105 kJ/mol
# Density = 1.731419 g / cm^3
# Si number density = 17.353689 Si / 1000 Ang^3
#
#
#
# Elastic Constant Matrix: (Units=GPa)
#
#
# Indices 1 2 3 4 5 6 
#
# 1 85.9113 51.2793 52.4006 0.0000 0.0000 0.0000
# 2 51.2793 85.9093 52.4006 0.0000 0.0000 0.0000
# 3 52.4006 52.4006 118.7817 0.0000 0.0000 0.0000
# 4 0.0000 0.0000 0.0000 29.7679 0.0000 0.0000
# 5 0.0000 0.0000 0.0000 0.0000 29.7681 0.0000
# 6 0.0000 0.0000 0.0000 0.0000 0.0000 -2.3928
#
#
#
# Elastic Compliance Matrix: (Units=1/GPa)
#
#
# Indices 1 2 3 4 5 6 
#
# 1 0.019935 -0.008941 -0.004850 0.000000 0.000000 0.000000
# 2 -0.008941 0.019935 -0.004850 0.000000 0.000000 0.000000
# 3 -0.004850 -0.004850 0.012698 0.000000 0.000000 0.000000
# 4 0.000000 0.000000 0.000000 0.033593 0.000000 0.000000
# 5 0.000000 0.000000 0.000000 0.000000 0.033593 0.000000
# 6 0.000000 0.000000 0.000000 0.000000 0.000000 -0.417928
#
#
# Mechanical properties :
#
#
# Convention : Reuss Voigt Hill
#
# Bulk Modulus (GPa) = 65.41888 66.97369 66.19629
# Shear Modulus (GPa) = -19.54685 20.39675 0.42495
#
# Velocity S-wave (km/s) = -3.35980 3.43206 0.49539
# Velocity P-wave (km/s) = 4.76741 7.37445 6.20930
#
# Compressibility (1/GPa) = 0.01528611
#
# Stress axis : x y z
#
# Youngs Moduli (GPa) = 50.16362 50.16204 78.75211
#
# Poissons Ratio (x) = 0.44849 0.38195
# Poissons Ratio (y) = 0.44850 0.38197
# Poissons Ratio (z) = 0.24329 0.24330
#
# Static dielectric constant tensor:
#      x y z
#    x 3.230390 0.000000 0.000000 
#    y 0.000000 3.230390 0.000000 
#    z 0.000000 0.000000 3.423200 
# 
# 
# High freq. dielectric constant tensor:
#      x y z
#    x 1.654020 0.000000 0.000000 
#    y 0.000000 1.654020 0.000000 
#    z 0.000000 0.000000 1.687410 
# 
# From -- ./inp_files/1245.got.cif
#   From: 2010.03.12/outbox.cif.g09.slc.cpg/sg135_1_cif.got.tgz:1245.got - 2010.04.06 18:31:24.
