data_PCOD8317396
_publ_section_title
;
Structure prediction by ZEFSAII (Michael W. Deem and Ramdas Pophale) SiO2 
 PCOD8317396
Probable space group: P 42/M B C
;
_chemical_formula_sum "Si O2"
_cell_formula_units_Z 96
_cell_length_a 25.068268
_cell_length_b 25.068268
_cell_length_c 9.431673
_cell_angle_alpha 90.000000
_cell_angle_beta 90.000000
_cell_angle_gamma 90.000000
_cell_volume 5927.033654
_symmetry_space_group_name_H-M "P 42/M B C"
_symmetry_group_IT_number 135
_symmetry_cell_setting 'tetragonal'
loop_
_space_group_symop_operation_xyz
x,y,z
-y,x,1/2+z
-x,-y,z
y,-x,1/2+z
1/2+x,1/2-y,-z
1/2-x,1/2+y,-z
1/2+y,1/2+x,1/2-z
1/2-y,1/2-x,1/2-z
-x,-y,-z
y,-x,1/2-z
x,y,-z
-y,x,1/2-z
1/2-x,1/2+y,z
1/2+x,1/2-y,z
1/2-y,1/2-x,1/2+z
1/2+y,1/2+x,1/2+z
loop_
_atom_site_type_symbol
_atom_site_label
_atom_site_fract_x
_atom_site_fract_y
_atom_site_fract_z
Si Si1 0.108862 0.186192 0.164024
Si Si2 0.509717 0.311842 0.342822
Si Si3 0.885676 0.688928 0.165398
Si Si4 0.106353 0.801899 0.331402
Si Si5 0.395201 0.182051 0.333079
Si Si6 0.685397 0.014970 0.156524
O O1 0.055907 0.165179 0.242484
O O2 0.119966 0.248147 0.191386
O O3 0.159629 0.153406 0.223228
O O4 0.099687 0.173937 0.000000
O O5 0.517357 0.336412 0.500000
O O6 0.450981 0.325321 0.279652
O O7 0.513753 0.248625 0.351205
O O8 0.837024 0.662977 0.250000
O O9 0.941438 0.666499 0.228453
O O10 0.882914 0.674182 0.000000
O O11 0.103940 0.798688 0.500000
O O12 0.116314 0.741925 0.275047
O O13 0.357493 0.142508 0.250000
O O14 0.383579 0.178003 0.500000
O O15 0.456260 0.165061 0.299458
O O16 0.663133 0.030390 0.000000
#
# Coordination Sequence:
#
# PCOD8317396 Si02
#       6
#    16  16  16  16  16  16
#     4   9  17  29  45  65  89 116 146 180 217 257
#     4   8  14  27  46  63  81 111 150 184 213 251
#     4  10  19  29  44  66  90 116 145 178 216 257
#     4   8  15  29  46  63  88 121 148 173 215 265
#     4   9  17  29  46  67  90 117 146 176 214 259
#     4   8  15  29  46  62  83 113 148 181 212 251
#
# _framework density 16.196973
#
# number of rings (size 3 to 8) (size 9 to 14) (size 15 to 20)
#    0.000    3.333    0.000    2.500    0.000    2.000 
#    0.000    4.167    0.000    1.000    0.000    7.000 
#    0.000    0.000    0.000    0.000    0.000    0.000 
#
# Total GULP energy -1189777.859593 kJ/mol
# GULP energy per Si atom -12393.519371 kJ/mol
# Density = 1.616011 g / cm^3
# Si number density = 16.196973 Si / 1000 Ang^3
#
#
#
# Elastic Constant Matrix: (Units=GPa)
#
#
# Indices 1 2 3 4 5 6 
#
# 1 83.6267 50.4423 47.3929 0.0000 0.0000 0.0000
# 2 50.4423 83.6227 47.3921 0.0000 0.0000 0.0000
# 3 47.3929 47.3921 72.6408 0.0000 0.0000 0.0000
# 4 0.0000 0.0000 0.0000 21.8913 0.0000 0.0000
# 5 0.0000 0.0000 0.0000 0.0000 21.8913 0.0000
# 6 0.0000 0.0000 0.0000 0.0000 0.0000 3.5139
#
#
#
# Elastic Compliance Matrix: (Units=1/GPa)
#
#
# Indices 1 2 3 4 5 6 
#
# 1 0.021990 -0.008146 -0.009033 0.000000 0.000000 0.000000
# 2 -0.008146 0.021991 -0.009033 0.000000 0.000000 0.000000
# 3 -0.009033 -0.009033 0.025553 0.000000 0.000000 0.000000
# 4 0.000000 0.000000 0.000000 0.045680 0.000000 0.000000
# 5 0.000000 0.000000 0.000000 0.000000 0.045680 0.000000
# 6 0.000000 0.000000 0.000000 0.000000 0.000000 0.284585
#
#
# Mechanical properties :
#
#
# Convention : Reuss Voigt Hill
#
# Bulk Modulus (GPa) = 58.43972 58.92721 58.68346
# Shear Modulus (GPa) = 9.92837 15.77015 12.84926
#
# Velocity S-wave (km/s) = 2.47852 3.12372 2.81964
# Velocity P-wave (km/s) = 6.65956 7.03354 6.84911
#
# Compressibility (1/GPa) = 0.01711165
#
# Stress axis : x y z
#
# Youngs Moduli (GPa) = 45.47480 45.47220 39.13438
#
# Poissons Ratio (x) = 0.37040 0.35349
# Poissons Ratio (y) = 0.37042 0.35351
# Poissons Ratio (z) = 0.41076 0.41076
#
# Static dielectric constant tensor:
#      x y z
#    x 3.118970 0.000000 0.000000 
#    y 0.000000 3.118970 0.000000 
#    z 0.000000 0.000000 3.082630 
# 
# 
# High freq. dielectric constant tensor:
#      x y z
#    x 1.608450 0.000000 0.000000 
#    y 0.000000 1.608450 0.000000 
#    z 0.000000 0.000000 1.610120 
# 
# From -- ./inp_files/1211.got.cif
#   From: 2010.03.12/outbox.cif.g09.slc.cpg/sg135_1_cif.got.tgz:1211.got - 2010.04.06 18:31:24.
