data_PCOD8317261
_publ_section_title
;
Structure prediction by ZEFSAII (Michael W. Deem and Ramdas Pophale) SiO2 
 PCOD8317261
Probable space group: P 42/N N M
;
_chemical_formula_sum "Si O2"
_cell_formula_units_Z 72
_cell_length_a 12.469030
_cell_length_b 12.469030
_cell_length_c 25.475319
_cell_angle_alpha 90.000000
_cell_angle_beta 90.000000
_cell_angle_gamma 90.000000
_cell_volume 3960.818762
_symmetry_space_group_name_H-M "P 42/N N M"
_symmetry_group_IT_number 134
_space_group.IT_coordinate_system_code '2'
_symmetry_cell_setting 'tetragonal'
loop_
_space_group_symop_operation_xyz
x,y,z
1/2-y,x,1/2+z
1/2-x,1/2-y,z
y,1/2-x,1/2+z
x,1/2-y,1/2-z
1/2-x,y,1/2-z
y,x,-z
1/2-y,1/2-x,-z
-x,-y,-z
1/2+y,-x,1/2-z
1/2+x,1/2+y,-z
-y,1/2+x,1/2-z
-x,1/2+y,1/2+z
1/2+x,-y,1/2+z
-y,-x,z
1/2+y,1/2+x,z
loop_
_atom_site_type_symbol
_atom_site_label
_atom_site_fract_x
_atom_site_fract_y
_atom_site_fract_z
Si Si1 0.250000 0.572246 0.750000
Si Si2 0.186404 0.520130 0.202258
Si Si3 0.253022 0.576689 0.094148
Si Si4 0.851483 0.673875 0.058243
Si Si5 0.524181 0.645942 0.654012
O O1 0.143614 0.643614 0.743411
O O2 0.240459 0.500620 0.803490
O O3 0.250000 0.466975 0.250000
O O4 0.121412 0.621412 0.224792
O O5 0.265255 0.560222 0.156482
O O6 0.106468 0.432264 0.181277
O O7 0.359009 0.640992 0.073966
O O8 0.145687 0.645687 0.081962
O O9 0.241351 0.459419 0.069284
O O10 0.750000 0.750000 0.060044
O O11 0.820733 0.578110 0.098815
O O12 0.871544 0.628457 0.000000
O O13 0.413145 0.586856 0.639963
#
# Coordination Sequence:
#
# PCOD8317261 Si02
#       5
#     8  16  16  16  16
#     4   9  18  34  53  74 104 136 173 226 276 323
#     4   9  16  26  43  69 100 129 158 196 246 308
#     4   9  18  33  53  76 102 134 172 215 263 313
#     4  10  21  37  54  76 106 140 178 223 276 328
#     4   9  19  34  51  72  98 135 177 215 264 321
#
# _framework density 18.178059999999999
#
# number of rings (size 3 to 8) (size 9 to 14) (size 15 to 20)
#    0.000    2.778    0.000    2.667    0.000    6.444 
#    0.000    6.667    0.000    2.667    0.000    0.000 
#    0.000    0.000    0.000    0.000    0.000    0.000 
#
# Total GULP energy -892026.608144 kJ/mol
# GULP energy per Si atom -12389.258446 kJ/mol
# Density = 1.813669 g / cm^3
# Si number density = 18.178060 Si / 1000 Ang^3
#
#
#
# Elastic Constant Matrix: (Units=GPa)
#
#
# Indices 1 2 3 4 5 6 
#
# 1 79.7135 28.2344 46.2437 0.0000 0.0000 0.0000
# 2 28.2344 79.7135 46.2437 0.0000 0.0000 0.0000
# 3 46.2437 46.2437 140.1558 0.0000 0.0000 0.0000
# 4 0.0000 0.0000 0.0000 19.7141 0.0000 0.0000
# 5 0.0000 0.0000 0.0000 0.0000 19.7144 0.0000
# 6 0.0000 0.0000 0.0000 0.0000 0.0000 16.2947
#
#
#
# Elastic Compliance Matrix: (Units=1/GPa)
#
#
# Indices 1 2 3 4 5 6 
#
# 1 0.016170 -0.003255 -0.004261 0.000000 0.000000 0.000000
# 2 -0.003255 0.016170 -0.004261 0.000000 0.000000 0.000000
# 3 -0.004261 -0.004261 0.009947 0.000000 0.000000 0.000000
# 4 0.000000 0.000000 0.000000 0.050725 0.000000 0.000000
# 5 0.000000 0.000000 0.000000 0.000000 0.050724 0.000000
# 6 0.000000 0.000000 0.000000 0.000000 0.000000 0.061369
#
#
# Mechanical properties :
#
#
# Convention : Reuss Voigt Hill
#
# Bulk Modulus (GPa) = 53.38606 60.11405 56.75006
# Shear Modulus (GPa) = 21.28523 23.06871 22.17697
#
# Velocity S-wave (km/s) = 3.42560 3.56623 3.49662
# Velocity P-wave (km/s) = 6.71405 7.07804 6.89845
#
# Compressibility (1/GPa) = 0.01873148
#
# Stress axis : x y z
#
# Youngs Moduli (GPa) = 61.84314 61.84316 100.53530
#
# Poissons Ratio (x) = 0.20133 0.42839
# Poissons Ratio (y) = 0.20133 0.42839
# Poissons Ratio (z) = 0.26352 0.26352
#
# Static dielectric constant tensor:
#      x y z
#    x 3.410540 0.000000 0.000000 
#    y 0.000000 3.410540 0.000000 
#    z 0.000000 0.000000 3.556980 
# 
# 
# High freq. dielectric constant tensor:
#      x y z
#    x 1.693830 0.000000 0.000000 
#    y 0.000000 1.693830 0.000000 
#    z 0.000000 0.000000 1.701530 
# 
# From -- ./inp_files/10590.got.cif
#   From: 2010.03.12/outbox.cif.g09.slc.cpg/sg134_6_cif.got.tgz:10590.got - 2010.04.06 18:17:22.
