data_PCOD8317149
_publ_section_title
;
Structure prediction by ZEFSAII (Michael W. Deem and Ramdas Pophale) SiO2 
 PCOD8317149
Probable space group: P 42/N N M
;
_chemical_formula_sum "Si O2"
_cell_formula_units_Z 112
_cell_length_a 15.585832
_cell_length_b 15.585832
_cell_length_c 24.413200
_cell_angle_alpha 90.000000
_cell_angle_beta 90.000000
_cell_angle_gamma 90.000000
_cell_volume 5930.409603
_symmetry_space_group_name_H-M "P 42/N N M"
_symmetry_group_IT_number 134
_space_group.IT_coordinate_system_code '2'
_symmetry_cell_setting 'tetragonal'
loop_
_space_group_symop_operation_xyz
x,y,z
1/2-y,x,1/2+z
1/2-x,1/2-y,z
y,1/2-x,1/2+z
x,1/2-y,1/2-z
1/2-x,y,1/2-z
y,x,-z
1/2-y,1/2-x,-z
-x,-y,-z
1/2+y,-x,1/2-z
1/2+x,1/2+y,-z
-y,1/2+x,1/2-z
-x,1/2+y,1/2+z
1/2+x,-y,1/2+z
-y,-x,z
1/2+y,1/2+x,z
loop_
_atom_site_type_symbol
_atom_site_label
_atom_site_fract_x
_atom_site_fract_y
_atom_site_fract_z
Si Si1 0.682831 0.821199 0.058079
Si Si2 0.242682 0.435274 0.149502
Si Si3 0.079208 0.058438 0.824493
Si Si4 0.888431 0.254279 0.471699
Si Si5 0.023468 0.251241 0.379625
Si Si6 0.751202 0.108939 0.905925
Si Si7 0.337145 0.397778 0.719046
O O1 0.750000 0.750000 0.044171
O O2 0.604008 0.786088 0.092374
O O3 0.741411 0.888859 0.088652
O O4 0.644664 0.855337 0.000000
O O5 0.341528 0.417664 0.161656
O O6 0.234721 0.537534 0.140936
O O7 0.183277 0.392865 0.196733
O O8 0.150722 0.010592 0.860907
O O9 0.102919 0.049655 0.760586
O O10 0.987714 0.012287 0.835426
O O11 0.814167 0.185834 0.475353
O O12 0.847404 0.347404 0.458791
O O13 0.931977 0.257591 0.532396
O O14 0.949160 0.225822 0.421876
O O15 0.032083 0.187475 0.327436
O O16 0.838885 0.161116 0.893267
O O17 0.670858 0.170858 0.901807
O O18 0.250000 0.364410 0.750000
#
# Coordination Sequence:
#
# PCOD8317149 Si02
#       7
#    16  16  16  16  16  16  16
#     4  10  19  32  51  78 110 137 167 206 256 314
#     4  11  20  35  57  79 102 142 181 213 266 329
#     4  11  22  35  51  77 105 131 172 228 272 312
#     4   9  18  34  56  80 109 145 180 214 260 319
#     4  10  19  35  55  78 103 141 176 214 266 319
#     4   9  19  36  56  80 112 146 179 219 263 312
#     4   9  22  37  56  75 103 139 181 224 274 322
#
# _framework density 18.885712000000002
#
# number of rings (size 3 to 8) (size 9 to 14) (size 15 to 20)
#    0.000    2.143    1.429    3.000    0.000    2.857 
#    0.000    2.143    0.000   11.143    0.000    9.000 
#    0.000    0.000    0.000    0.000    0.000    0.000 
#
# Total GULP energy -1387530.629368 kJ/mol
# GULP energy per Si atom -12388.666334 kJ/mol
# Density = 1.884273 g / cm^3
# Si number density = 18.885712 Si / 1000 Ang^3
#
#
#
# Elastic Constant Matrix: (Units=GPa)
#
#
# Indices 1 2 3 4 5 6 
#
# 1 110.6054 -12.8868 30.4930 0.0000 0.0000 0.0000
# 2 -12.8868 110.6068 30.4932 0.0000 0.0000 0.0000
# 3 30.4930 30.4932 96.4735 0.0000 0.0000 0.0000
# 4 0.0000 0.0000 0.0000 26.8548 0.0000 0.0000
# 5 0.0000 0.0000 0.0000 0.0000 26.8547 0.0000
# 6 0.0000 0.0000 0.0000 0.0000 0.0000 26.4393
#
#
#
# Elastic Compliance Matrix: (Units=1/GPa)
#
#
# Indices 1 2 3 4 5 6 
#
# 1 0.010423 0.002325 -0.004029 0.000000 0.000000 0.000000
# 2 0.002325 0.010423 -0.004029 0.000000 0.000000 0.000000
# 3 -0.004029 -0.004029 0.012913 0.000000 0.000000 0.000000
# 4 0.000000 0.000000 0.000000 0.037237 0.000000 0.000000
# 5 0.000000 0.000000 0.000000 0.000000 0.037237 0.000000
# 6 0.000000 0.000000 0.000000 0.000000 0.000000 0.037822
#
#
# Mechanical properties :
#
#
# Convention : Reuss Voigt Hill
#
# Bulk Modulus (GPa) = 44.86034 45.98718 45.42376
# Shear Modulus (GPa) = 30.31162 34.00219 32.15691
#
# Velocity S-wave (km/s) = 4.01060 4.24774 4.13087
# Velocity P-wave (km/s) = 6.72693 6.96138 6.84516
#
# Compressibility (1/GPa) = 0.02229140
#
# Stress axis : x y z
#
# Youngs Moduli (GPa) = 95.94216 95.94341 77.44289
#
# Poissons Ratio (x) = -0.22309 0.31205
# Poissons Ratio (y) = -0.22309 0.31205
# Poissons Ratio (z) = 0.38659 0.38659
#
# Static dielectric constant tensor:
#      x y z
#    x 1.104820 0.000000 0.000000 
#    y 0.000000 1.104920 0.000000 
#    z 0.000000 0.000000 3.913010 
# 
# 
# High freq. dielectric constant tensor:
#      x y z
#    x 1.721000 0.000000 0.000000 
#    y 0.000000 1.721000 0.000000 
#    z 0.000000 0.000000 1.748020 
# 
# From -- ./inp_files/10828.got.cif
#   From: 2010.03.12/outbox.cif.g09.slc.cpg/sg134_6_cif.got.tgz:10828.got - 2010.04.06 18:17:22.
