data_PCOD8317539
_publ_section_title
;
Structure prediction by ZEFSAII (Michael W. Deem and Ramdas Pophale) SiO2 
 PCOD8317539
Probable space group: P 42/M B C
;
_chemical_formula_sum "Si O2"
_cell_formula_units_Z 112
_cell_length_a 14.961463
_cell_length_b 14.961463
_cell_length_c 26.080892
_cell_angle_alpha 90.000000
_cell_angle_beta 90.000000
_cell_angle_gamma 90.000000
_cell_volume 5838.087053
_symmetry_space_group_name_H-M "P 42/M B C"
_symmetry_group_IT_number 135
_symmetry_cell_setting 'tetragonal'
loop_
_space_group_symop_operation_xyz
x,y,z
-y,x,1/2+z
-x,-y,z
y,-x,1/2+z
1/2+x,1/2-y,-z
1/2-x,1/2+y,-z
1/2+y,1/2+x,1/2-z
1/2-y,1/2-x,1/2-z
-x,-y,-z
y,-x,1/2-z
x,y,-z
-y,x,1/2-z
1/2-x,1/2+y,z
1/2+x,1/2-y,z
1/2-y,1/2-x,1/2+z
1/2+y,1/2+x,1/2+z
loop_
_atom_site_type_symbol
_atom_site_label
_atom_site_fract_x
_atom_site_fract_y
_atom_site_fract_z
Si Si1 0.430408 0.071594 0.060510
Si Si2 0.751166 0.822405 0.799702
Si Si3 0.598412 0.396200 0.260021
Si Si4 0.442464 0.272557 0.940752
Si Si5 0.746293 0.967745 0.118449
Si Si6 0.073863 0.072895 0.940841
Si Si7 0.310912 0.343184 0.140858
O O1 0.459340 0.171244 0.078189
O O2 0.330673 0.049965 0.077745
O O3 0.500000 0.000000 0.084429
O O4 0.431901 0.064435 0.000000
O O5 0.686032 0.813969 0.750000
O O6 0.852172 0.827494 0.778021
O O7 0.724761 0.912036 0.830143
O O8 0.748357 0.738072 0.837684
O O9 0.494360 0.376164 0.258697
O O10 0.631032 0.387096 0.318277
O O11 0.533048 0.328557 0.931871
O O12 0.358808 0.315408 0.911456
O O13 0.413791 0.275504 0.000000
O O14 0.840731 0.936705 0.095158
O O15 0.746382 0.072816 0.131167
O O16 0.101813 0.058318 0.000000
O O17 0.000000 0.000000 0.924513
#
# Coordination Sequence:
#
# PCOD8317539 Si02
#       7
#    16  16  16  16  16  16  16
#     4  10  23  44  64  87 125 171 220 261 296 367
#     4  10  23  41  56  87 130 158 202 266 311 371
#     4  10  21  37  63  92 121 158 202 257 315 373
#     4  10  21  39  60  90 132 168 202 256 318 374
#     4  12  22  38  67  93 119 169 214 251 321 383
#     4  10  21  35  57  96 137 160 195 261 325 381
#     4  11  22  38  62  93 125 164 204 256 321 373
#
# _framework density 19.184367000000002
#
# number of rings (size 3 to 8) (size 9 to 14) (size 15 to 20)
#    0.000    1.571    4.286    0.429    2.000    1.714 
#    0.000    0.000    0.000    0.000    0.000    0.000 
#    0.000    0.000    0.000    0.000    0.000    0.000 
#
# Total GULP energy -1388995.349515 kJ/mol
# GULP energy per Si atom -12401.744192 kJ/mol
# Density = 1.914070 g / cm^3
# Si number density = 19.184367 Si / 1000 Ang^3
#
#
#
# Elastic Constant Matrix: (Units=GPa)
#
#
# Indices 1 2 3 4 5 6 
#
# 1 117.9546 53.4775 35.7461 0.0000 0.0000 0.0000
# 2 53.4775 117.9543 35.7463 0.0000 0.0000 0.0000
# 3 35.7461 35.7463 54.4582 0.0000 0.0000 0.0000
# 4 0.0000 0.0000 0.0000 25.7292 0.0000 0.0000
# 5 0.0000 0.0000 0.0000 0.0000 25.7290 0.0000
# 6 0.0000 0.0000 0.0000 0.0000 0.0000 31.6673
#
#
#
# Elastic Compliance Matrix: (Units=1/GPa)
#
#
# Indices 1 2 3 4 5 6 
#
# 1 0.011771 -0.003739 -0.005272 0.000000 0.000000 0.000000
# 2 -0.003739 0.011771 -0.005272 0.000000 0.000000 0.000000
# 3 -0.005272 -0.005272 0.025284 0.000000 0.000000 0.000000
# 4 0.000000 0.000000 0.000000 0.038866 0.000000 0.000000
# 5 0.000000 0.000000 0.000000 0.000000 0.038867 0.000000
# 6 0.000000 0.000000 0.000000 0.000000 0.000000 0.031578
#
#
# Mechanical properties :
#
#
# Convention : Reuss Voigt Hill
#
# Bulk Modulus (GPa) = 49.36020 60.03408 54.69714
# Shear Modulus (GPa) = 25.84576 27.65158 26.74867
#
# Velocity S-wave (km/s) = 3.67445 3.80064 3.73808
# Velocity P-wave (km/s) = 6.61720 7.11484 6.87053
#
# Compressibility (1/GPa) = 0.02025924
#
# Stress axis : x y z
#
# Youngs Moduli (GPa) = 84.95753 84.95704 39.55099
#
# Poissons Ratio (x) = 0.31764 0.20851
# Poissons Ratio (y) = 0.31764 0.20852
# Poissons Ratio (z) = 0.44790 0.44790
#
# Static dielectric constant tensor:
#      x y z
#    x 3.595030 0.000000 0.000000 
#    y 0.000000 3.595020 0.000000 
#    z 0.000000 0.000000 3.577910 
# 
# 
# High freq. dielectric constant tensor:
#      x y z
#    x 1.742710 0.000000 0.000000 
#    y 0.000000 1.742710 0.000000 
#    z 0.000000 0.000000 1.753080 
# 
# From -- ./inp_files/6491.got.cif
#   From: 2010.03.12/outbox.cif.g09.slc.cpg/sg135_4_cif.got.tgz:6491.got - 2010.04.06 18:31:24.
