data_PCOD8317612
_publ_section_title
;
Structure prediction by ZEFSAII (Michael W. Deem and Ramdas Pophale) SiO2 
 PCOD8317612
Probable space group: P 42/M B C
;
_chemical_formula_sum "Si O2"
_cell_formula_units_Z 36
_cell_length_a 10.073129
_cell_length_b 10.073129
_cell_length_c 13.949363
_cell_angle_alpha 90.000000
_cell_angle_beta 90.000000
_cell_angle_gamma 90.000000
_cell_volume 1415.412958
_symmetry_space_group_name_H-M "P 42/M B C"
_symmetry_group_IT_number 135
_symmetry_cell_setting 'tetragonal'
loop_
_space_group_symop_operation_xyz
x,y,z
-y,x,1/2+z
-x,-y,z
y,-x,1/2+z
1/2+x,1/2-y,-z
1/2-x,1/2+y,-z
1/2+y,1/2+x,1/2-z
1/2-y,1/2-x,1/2-z
-x,-y,-z
y,-x,1/2-z
x,y,-z
-y,x,1/2-z
1/2-x,1/2+y,z
1/2+x,1/2-y,z
1/2-y,1/2-x,1/2+z
1/2+y,1/2+x,1/2+z
loop_
_atom_site_type_symbol
_atom_site_label
_atom_site_fract_x
_atom_site_fract_y
_atom_site_fract_z
Si Si1 0.031257 0.856773 0.611656
Si Si2 0.500000 0.000000 0.250000
Si Si3 0.832479 0.630568 0.611649
O O1 0.999033 0.866175 0.500000
O O2 0.183913 0.819859 0.631618
O O3 0.932676 0.744218 0.651338
O O4 0.000000 0.000000 0.659108
O O5 0.497002 0.871877 0.177286
O O6 0.851857 0.592904 0.500000
#
# Coordination Sequence:
#
# PCOD8317612 Si02
#       3
#    16   4  16
#     4   9  20  41  69  98 134 182 232 285 348 417
#     4  12  26  40  64  98 134 178 238 280 360 418
#     4  10  23  43  68  97 136 180 230 288 351 421
#
# _framework density 25.434272
#
# number of rings (size 3 to 8) (size 9 to 14) (size 15 to 20)
#    0.000    2.222    0.000    0.667    6.222    1.778 
#    0.000    0.000    0.000    0.000    0.000    0.000 
#    0.000    0.000    0.000    0.000    0.000    0.000 
#
# Total GULP energy -446090.373620 kJ/mol
# GULP energy per Si atom -12391.399267 kJ/mol
# Density = 2.537638 g / cm^3
# Si number density = 25.434272 Si / 1000 Ang^3
#
#
#
# Elastic Constant Matrix: (Units=GPa)
#
#
# Indices 1 2 3 4 5 6 
#
# 1 152.4638 80.8860 42.0810 0.0000 0.0000 0.0000
# 2 80.8860 152.4638 42.0810 0.0000 0.0000 0.0000
# 3 42.0810 42.0810 98.6760 0.0000 0.0000 0.0000
# 4 0.0000 0.0000 0.0000 7.6070 0.0000 0.0000
# 5 0.0000 0.0000 0.0000 0.0000 7.6070 0.0000
# 6 0.0000 0.0000 0.0000 0.0000 0.0000 58.9924
#
#
#
# Elastic Compliance Matrix: (Units=1/GPa)
#
#
# Indices 1 2 3 4 5 6 
#
# 1 0.009518 -0.004453 -0.002160 0.000000 0.000000 0.000000
# 2 -0.004453 0.009518 -0.002160 0.000000 0.000000 0.000000
# 3 -0.002160 -0.002160 0.011976 0.000000 0.000000 0.000000
# 4 0.000000 0.000000 0.000000 0.131457 0.000000 0.000000
# 5 0.000000 0.000000 0.000000 0.000000 0.131457 0.000000
# 6 0.000000 0.000000 0.000000 0.000000 0.000000 0.016951
#
#
# Mechanical properties :
#
#
# Convention : Reuss Voigt Hill
#
# Bulk Modulus (GPa) = 74.26083 81.52215 77.89149
# Shear Modulus (GPa) = 15.01903 30.74502 22.88203
#
# Velocity S-wave (km/s) = 2.43266 3.48056 3.00268
# Velocity P-wave (km/s) = 6.09516 6.94795 6.53548
#
# Compressibility (1/GPa) = 0.01346605
#
# Stress axis : x y z
#
# Youngs Moduli (GPa) = 105.06875 105.06875 83.49868
#
# Poissons Ratio (x) = 0.46789 0.18033
# Poissons Ratio (y) = 0.46789 0.18033
# Poissons Ratio (z) = 0.22692 0.22692
#
# Static dielectric constant tensor:
#      x y z
#    x 4.658910 0.000000 0.000000 
#    y 0.000000 4.658910 0.000000 
#    z 0.000000 0.000000 4.511960 
# 
# 
# High freq. dielectric constant tensor:
#      x y z
#    x 2.002400 0.000000 0.000000 
#    y 0.000000 2.002400 0.000000 
#    z 0.000000 0.000000 2.026260 
# 
# From -- ./inp_files/2804.got.cif
#   From: 2010.03.12/outbox.cif.g09.slc.cpg/sg135_2_cif.got.tgz:2804.got - 2010.04.06 18:31:24.
