data_PCOD8317244
_publ_section_title
;
Structure prediction by ZEFSAII (Michael W. Deem and Ramdas Pophale) SiO2 
 PCOD8317244
Probable space group: P 42/N N M
;
_chemical_formula_sum "Si O2"
_cell_formula_units_Z 112
_cell_length_a 14.746531
_cell_length_b 14.746531
_cell_length_c 26.066926
_cell_angle_alpha 90.000000
_cell_angle_beta 90.000000
_cell_angle_gamma 90.000000
_cell_volume 5668.518330
_symmetry_space_group_name_H-M "P 42/N N M"
_symmetry_group_IT_number 134
_space_group.IT_coordinate_system_code '2'
_symmetry_cell_setting 'tetragonal'
loop_
_space_group_symop_operation_xyz
x,y,z
1/2-y,x,1/2+z
1/2-x,1/2-y,z
y,1/2-x,1/2+z
x,1/2-y,1/2-z
1/2-x,y,1/2-z
y,x,-z
1/2-y,1/2-x,-z
-x,-y,-z
1/2+y,-x,1/2-z
1/2+x,1/2+y,-z
-y,1/2+x,1/2-z
-x,1/2+y,1/2+z
1/2+x,-y,1/2+z
-y,-x,z
1/2+y,1/2+x,z
loop_
_atom_site_type_symbol
_atom_site_label
_atom_site_fract_x
_atom_site_fract_y
_atom_site_fract_z
Si Si1 0.718547 0.518339 0.608152
Si Si2 0.148297 0.404156 0.945875
Si Si3 0.562801 0.697425 0.871510
Si Si4 0.776252 0.650686 0.691095
Si Si5 0.897956 0.251742 0.192109
Si Si6 0.906119 0.950139 0.944474
Si Si7 0.424686 0.924686 0.985156
Si Si8 0.326867 0.826867 0.079762
O O1 0.627367 0.554447 0.581166
O O2 0.726264 0.567086 0.663272
O O3 0.803228 0.546392 0.573395
O O4 0.715025 0.409314 0.613282
O O5 0.232735 0.380984 0.908368
O O6 0.147492 0.514226 0.953506
O O7 0.151207 0.348794 0.000000
O O8 0.617525 0.652077 0.823608
O O9 0.478269 0.750402 0.848462
O O10 0.533861 0.613348 0.907171
O O11 0.750000 0.750000 0.670631
O O12 0.750000 0.638637 0.750000
O O13 0.936369 0.250000 0.250000
O O14 0.833776 0.166225 0.183201
O O15 0.844251 0.344251 0.182106
O O16 0.905275 0.905275 0.000000
O O17 0.949780 0.050221 0.945630
O O18 0.367625 0.867625 0.027010
O O19 0.500000 0.000000 0.000000
O O20 0.250000 0.750000 0.069511
#
# Coordination Sequence:
#
# PCOD8317244 Si02
#       8
#    16  16  16  16  16  16   8   8
#     4  11  21  40  63  91 122 171 213 262 332 383
#     4  11  20  35  58  87 124 160 203 260 309 377
#     4  11  22  35  63  88 116 164 205 254 314 385
#     4  10  22  40  63  92 126 154 206 279 332 382
#     4   9  20  39  59  84 122 158 196 249 308 378
#     4  10  22  38  56  85 126 165 205 254 312 384
#     4  10  20  38  58  88 130 162 202 270 312 368
#     4  12  24  42  70  96 130 180 226 270 323 398
#
# _framework density 19.758248999999999
#
# number of rings (size 3 to 8) (size 9 to 14) (size 15 to 20)
#    0.000    1.571    4.286    2.143    3.000    0.000 
#    0.000    2.857    9.429    0.000    0.000    0.000 
#    0.000    0.000    0.000    0.000    0.000    0.000 
#
# Total GULP energy -1387774.987301 kJ/mol
# GULP energy per Si atom -12390.848101 kJ/mol
# Density = 1.971328 g / cm^3
# Si number density = 19.758249 Si / 1000 Ang^3
#
#
#
# Elastic Constant Matrix: (Units=GPa)
#
#
# Indices 1 2 3 4 5 6 
#
# 1 92.2934 39.4193 58.8831 0.0000 0.0000 0.0000
# 2 39.4193 92.2934 58.8831 0.0000 0.0000 0.0000
# 3 58.8831 58.8831 134.6506 0.0000 0.0000 0.0000
# 4 0.0000 0.0000 0.0000 25.1154 0.0000 0.0000
# 5 0.0000 0.0000 0.0000 0.0000 25.1153 0.0000
# 6 0.0000 0.0000 0.0000 0.0000 0.0000 25.3768
#
#
#
# Elastic Compliance Matrix: (Units=1/GPa)
#
#
# Indices 1 2 3 4 5 6 
#
# 1 0.015690 -0.003223 -0.005452 0.000000 0.000000 0.000000
# 2 -0.003223 0.015690 -0.005452 0.000000 0.000000 0.000000
# 3 -0.005452 -0.005452 0.012195 0.000000 0.000000 0.000000
# 4 0.000000 0.000000 0.000000 0.039816 0.000000 0.000000
# 5 0.000000 0.000000 0.000000 0.000000 0.039816 0.000000
# 6 0.000000 0.000000 0.000000 0.000000 0.000000 0.039406
#
#
# Mechanical properties :
#
#
# Convention : Reuss Voigt Hill
#
# Bulk Modulus (GPa) = 65.26866 70.40095 67.83481
# Shear Modulus (GPa) = 25.51368 25.92496 25.71932
#
# Velocity S-wave (km/s) = 3.59735 3.62623 3.61182
# Velocity P-wave (km/s) = 7.09647 7.29666 7.19726
#
# Compressibility (1/GPa) = 0.01532129
#
# Stress axis : x y z
#
# Youngs Moduli (GPa) = 63.73554 63.73566 82.00239
#
# Poissons Ratio (x) = 0.20542 0.44706
# Poissons Ratio (y) = 0.20542 0.44706
# Poissons Ratio (z) = 0.34747 0.34747
#
# Static dielectric constant tensor:
#      x y z
#    x 3.683360 0.000000 0.000000 
#    y 0.000000 3.683360 0.000000 
#    z 0.000000 0.000000 3.516350 
# 
# 
# High freq. dielectric constant tensor:
#      x y z
#    x 1.765490 0.000000 0.000000 
#    y 0.000000 1.765490 0.000000 
#    z 0.000000 0.000000 1.761940 
# 
# From -- ./inp_files/10908.got.cif
#   From: 2010.03.12/outbox.cif.g09.slc.cpg/sg134_6_cif.got.tgz:10908.got - 2010.04.06 18:17:22.
