data_PCOD8317892
_publ_section_title
;
Structure prediction by ZEFSAII (Michael W. Deem and Ramdas Pophale) SiO2 
 PCOD8317892
Probable space group: P 42/M N M
;
_chemical_formula_sum "Si O2"
_cell_formula_units_Z 56
_cell_length_a 21.706061
_cell_length_b 21.706061
_cell_length_c 7.437584
_cell_angle_alpha 90.000000
_cell_angle_beta 90.000000
_cell_angle_gamma 90.000000
_cell_volume 3504.240640
_symmetry_space_group_name_H-M "P 42/M N M"
_symmetry_group_IT_number 136
_symmetry_cell_setting 'tetragonal'
loop_
_space_group_symop_operation_xyz
x,y,z
1/2-y,1/2+x,1/2+z
-x,-y,z
1/2+y,1/2-x,1/2+z
1/2+x,1/2-y,1/2-z
1/2-x,1/2+y,1/2-z
y,x,-z
-y,-x,-z
-x,-y,-z
1/2+y,1/2-x,1/2-z
x,y,-z
1/2-y,1/2+x,1/2-z
1/2-x,1/2+y,1/2+z
1/2+x,1/2-y,1/2+z
-y,-x,z
y,x,z
loop_
_atom_site_type_symbol
_atom_site_label
_atom_site_fract_x
_atom_site_fract_y
_atom_site_fract_z
Si Si1 0.819195 0.282796 0.500000
Si Si2 0.684870 0.474314 0.791019
Si Si3 0.613946 0.714158 0.293106
Si Si4 0.222941 0.117868 0.000000
Si Si5 0.452185 0.547816 0.212816
O O1 0.762106 0.237895 0.500000
O O2 0.859899 0.271111 0.322072
O O3 0.790448 0.350869 0.500000
O O4 0.707374 0.543031 0.756696
O O5 0.722896 0.424518 0.677660
O O6 0.615202 0.470298 0.719591
O O7 0.691144 0.456629 0.000000
O O8 0.622375 0.731906 0.500000
O O9 0.650989 0.650989 0.246084
O O10 0.166651 0.166651 0.000000
O O11 0.500000 0.500000 0.300486
O O12 0.455548 0.544453 0.000000
#
# Coordination Sequence:
#
# PCOD8317892 Si02
#       5
#     8  16  16   8   8
#     4   9  20  36  52  69 101 137 173 217 258 305
#     4  11  20  32  50  73 105 138 174 212 252 299
#     4  10  19  32  52  76  99 134 177 217 253 292
#     4  11  22  36  50  74 106 142 176 207 262 311
#     4   9  18  29  43  69 104 145 177 204 239 287
#
# _framework density 15.980638000000001
#
# number of rings (size 3 to 8) (size 9 to 14) (size 15 to 20)
#    0.000    1.857    4.286    0.857    0.000    2.286 
#    0.000    3.571    0.000    0.000    0.000    0.000 
#    0.000    3.429    0.000    0.000    0.000    0.000 
#
# Total GULP energy -694352.506339 kJ/mol
# GULP energy per Si atom -12399.151899 kJ/mol
# Density = 1.594427 g / cm^3
# Si number density = 15.980638 Si / 1000 Ang^3
#
#
#
# Elastic Constant Matrix: (Units=GPa)
#
#
# Indices 1 2 3 4 5 6 
#
# 1 69.2694 96.6276 46.7416 0.0000 0.0000 0.0000
# 2 96.6276 69.2712 46.7412 0.0000 0.0000 0.0000
# 3 46.7416 46.7412 114.6605 0.0000 0.0000 0.0000
# 4 0.0000 0.0000 0.0000 14.1175 0.0000 0.0000
# 5 0.0000 0.0000 0.0000 0.0000 14.1138 0.0000
# 6 0.0000 0.0000 0.0000 0.0000 0.0000 34.5304
#
#
#
# Elastic Compliance Matrix: (Units=1/GPa)
#
#
# Indices 1 2 3 4 5 6 
#
# 1 -0.014364 0.022189 -0.003190 0.000000 0.000000 0.000000
# 2 0.022189 -0.014364 -0.003190 0.000000 0.000000 0.000000
# 3 -0.003190 -0.003190 0.011322 0.000000 0.000000 0.000000
# 4 0.000000 0.000000 0.000000 0.070834 0.000000 0.000000
# 5 0.000000 0.000000 0.000000 0.000000 0.070852 0.000000
# 6 0.000000 0.000000 0.000000 0.000000 0.000000 0.028960
#
#
# Mechanical properties :
#
#
# Convention : Reuss Voigt Hill
#
# Bulk Modulus (GPa) = 70.35865 70.38022 70.36944
# Shear Modulus (GPa) = 39.56953 16.75839 28.16396
#
# Velocity S-wave (km/s) = 4.98143 3.24183 4.20263
# Velocity P-wave (km/s) = 8.78688 7.62556 8.22674
#
# Compressibility (1/GPa) = 0.01421289
#
# Stress axis : x y z
#
# Youngs Moduli (GPa) = -69.61714 -69.62000 88.32185
#
# Poissons Ratio (x) = 1.54482 0.28173
# Poissons Ratio (y) = 1.54476 0.28176
# Poissons Ratio (z) = -0.22207 -0.22210
#
# Static dielectric constant tensor:
#      x y z
#    x 2.979230 0.000000 0.000000 
#    y 0.000000 2.979240 0.000000 
#    z 0.000000 0.000000 3.196310 
# 
# 
# High freq. dielectric constant tensor:
#      x y z
#    x 1.589850 0.000000 0.000000 
#    y 0.000000 1.589850 0.000000 
#    z 0.000000 0.000000 1.631860 
# 
# From -- ./inp_files/1189.got.cif
#   From: 2010.03.12/outbox.cif.g09.slc.cpg/sg136_1_cif.got.tgz:1189.got - 2010.04.06 18:39:43.
