data_PCOD8317311
_publ_section_title
;
Structure prediction by ZEFSAII (Michael W. Deem and Ramdas Pophale) SiO2 
 PCOD8317311
Probable space group: P 42/N N M
;
_chemical_formula_sum "Si O2"
_cell_formula_units_Z 96
_cell_length_a 15.665062
_cell_length_b 15.665062
_cell_length_c 19.029976
_cell_angle_alpha 90.000000
_cell_angle_beta 90.000000
_cell_angle_gamma 90.000000
_cell_volume 4669.845117
_symmetry_space_group_name_H-M "P 42/N N M"
_symmetry_group_IT_number 134
_space_group.IT_coordinate_system_code '2'
_symmetry_cell_setting 'tetragonal'
loop_
_space_group_symop_operation_xyz
x,y,z
1/2-y,x,1/2+z
1/2-x,1/2-y,z
y,1/2-x,1/2+z
x,1/2-y,1/2-z
1/2-x,y,1/2-z
y,x,-z
1/2-y,1/2-x,-z
-x,-y,-z
1/2+y,-x,1/2-z
1/2+x,1/2+y,-z
-y,1/2+x,1/2-z
-x,1/2+y,1/2+z
1/2+x,-y,1/2+z
-y,-x,z
1/2+y,1/2+x,z
loop_
_atom_site_type_symbol
_atom_site_label
_atom_site_fract_x
_atom_site_fract_y
_atom_site_fract_z
Si Si1 0.076602 0.790078 0.819748
Si Si2 0.480387 0.844811 0.229610
Si Si3 0.645972 0.491281 0.426442
Si Si4 0.835184 0.695823 0.424727
Si Si5 0.157765 0.460194 0.082141
Si Si6 0.602103 0.662679 0.786851
O O1 0.120362 0.750000 0.750000
O O2 0.146473 0.853528 0.855051
O O3 0.039319 0.726142 0.879420
O O4 0.999905 0.843937 0.784058
O O5 0.449691 0.750000 0.250000
O O6 0.415017 0.915017 0.262732
O O7 0.474567 0.856191 0.145608
O O8 0.578776 0.857684 0.252347
O O9 0.567696 0.432305 0.404313
O O10 0.616951 0.588539 0.413576
O O11 0.660842 0.485092 0.510281
O O12 0.750000 0.750000 0.424973
O O13 0.848517 0.651484 0.500000
O O14 0.917139 0.751370 0.406524
O O15 0.829715 0.621690 0.368660
O O16 0.635998 0.750000 0.750000
#
# Coordination Sequence:
#
# PCOD8317311 Si02
#       6
#    16  16  16  16  16  16
#     4  11  23  40  62  91 128 167 204 248 305 376
#     4  12  25  43  65  89 121 167 219 268 313 362
#     4  11  22  38  62  92 125 166 210 254 306 368
#     4  11  20  33  58  93 130 158 189 241 318 390
#     4  11  21  39  62  93 123 158 204 262 320 369
#     4  11  23  39  64  96 129 159 202 254 321 387
#
# _framework density 20.557427000000001
#
# number of rings (size 3 to 8) (size 9 to 14) (size 15 to 20)
#    0.000    0.833    1.667   10.000    0.000    1.333 
#    0.000    0.833    0.000    4.000    0.000    0.000 
#    0.000    0.000    0.000    0.000    0.000    0.000 
#
# Total GULP energy -1189864.797041 kJ/mol
# GULP energy per Si atom -12394.424969 kJ/mol
# Density = 2.051064 g / cm^3
# Si number density = 20.557427 Si / 1000 Ang^3
#
#
#
# Elastic Constant Matrix: (Units=GPa)
#
#
# Indices 1 2 3 4 5 6 
#
# 1 85.4885 57.5455 35.3538 0.0000 0.0000 0.0000
# 2 57.5455 85.4884 35.3538 0.0000 0.0000 0.0000
# 3 35.3538 35.3538 137.8594 0.0000 0.0000 0.0000
# 4 0.0000 0.0000 0.0000 38.1058 0.0000 0.0000
# 5 0.0000 0.0000 0.0000 0.0000 38.1059 0.0000
# 6 0.0000 0.0000 0.0000 0.0000 0.0000 34.2554
#
#
#
# Elastic Compliance Matrix: (Units=1/GPa)
#
#
# Indices 1 2 3 4 5 6 
#
# 1 0.021897 -0.013890 -0.002053 0.000000 0.000000 0.000000
# 2 -0.013890 0.021897 -0.002053 0.000000 0.000000 0.000000
# 3 -0.002053 -0.002053 0.008307 0.000000 0.000000 0.000000
# 4 0.000000 0.000000 0.000000 0.026243 0.000000 0.000000
# 5 0.000000 0.000000 0.000000 0.000000 0.026243 0.000000
# 6 0.000000 0.000000 0.000000 0.000000 0.000000 0.029192
#
#
# Mechanical properties :
#
#
# Convention : Reuss Voigt Hill
#
# Bulk Modulus (GPa) = 62.08604 62.81583 62.45094
# Shear Modulus (GPa) = 28.54845 34.13229 31.34037
#
# Velocity S-wave (km/s) = 3.73059 4.07915 3.90876
# Velocity P-wave (km/s) = 6.98736 7.26695 7.12853
#
# Compressibility (1/GPa) = 0.01610668
#
# Stress axis : x y z
#
# Youngs Moduli (GPa) = 45.66886 45.66884 120.38257
#
# Poissons Ratio (x) = 0.63436 0.24717
# Poissons Ratio (y) = 0.63436 0.24717
# Poissons Ratio (z) = 0.09377 0.09377
#
# Static dielectric constant tensor:
#      x y z
#    x 3.650750 0.000000 0.000000 
#    y 0.000000 3.650750 0.000000 
#    z 0.000000 0.000000 4.127630 
# 
# 
# High freq. dielectric constant tensor:
#      x y z
#    x 1.792480 0.000000 0.000000 
#    y 0.000000 1.792480 0.000000 
#    z 0.000000 0.000000 1.815240 
# 
# From -- ./inp_files/9129.got.cif
#   From: 2010.03.12/outbox.cif.g09.slc.cpg/sg134_5_cif.got.tgz:9129.got - 2010.04.06 18:17:22.
