data_PCOD8317495
_publ_section_title
;
Structure prediction by ZEFSAII (Michael W. Deem and Ramdas Pophale) SiO2 
 PCOD8317495
Probable space group: P 42/M B C
;
_chemical_formula_sum "Si O2"
_cell_formula_units_Z 96
_cell_length_a 14.289923
_cell_length_b 14.289923
_cell_length_c 21.191450
_cell_angle_alpha 90.000000
_cell_angle_beta 90.000000
_cell_angle_gamma 90.000000
_cell_volume 4327.334340
_symmetry_space_group_name_H-M "P 42/M B C"
_symmetry_group_IT_number 135
_symmetry_cell_setting 'tetragonal'
loop_
_space_group_symop_operation_xyz
x,y,z
-y,x,1/2+z
-x,-y,z
y,-x,1/2+z
1/2+x,1/2-y,-z
1/2-x,1/2+y,-z
1/2+y,1/2+x,1/2-z
1/2-y,1/2-x,1/2-z
-x,-y,-z
y,-x,1/2-z
x,y,-z
-y,x,1/2-z
1/2-x,1/2+y,z
1/2+x,1/2-y,z
1/2-y,1/2-x,1/2+z
1/2+y,1/2+x,1/2+z
loop_
_atom_site_type_symbol
_atom_site_label
_atom_site_fract_x
_atom_site_fract_y
_atom_site_fract_z
Si Si1 0.329332 0.727010 0.872603
Si Si2 0.447310 0.637251 0.760637
Si Si3 0.071392 0.924787 0.925314
Si Si4 0.670798 0.909160 0.925034
Si Si5 0.572929 0.245316 0.644413
Si Si6 0.984890 0.271924 0.927827
O O1 0.384865 0.669389 0.819492
O O2 0.260732 0.656399 0.909194
O O3 0.274696 0.817102 0.846834
O O4 0.403633 0.777876 0.919224
O O5 0.552848 0.604007 0.778013
O O6 0.460210 0.724538 0.713643
O O7 0.175985 0.950143 0.907532
O O8 0.047421 0.824404 0.895006
O O9 0.059610 0.924706 0.000000
O O10 0.000000 0.000000 0.895104
O O11 0.575708 0.858035 0.900909
O O12 0.665101 0.004757 0.883589
O O13 0.670629 0.930865 0.000000
O O14 0.956967 0.266942 0.000000
#
# Coordination Sequence:
#
# PCOD8317495 Si02
#       6
#    16  16  16  16  16  16
#     4  12  24  44  69  96 138 180 225 281 337 403
#     4  11  25  44  70  99 134 174 227 286 344 393
#     4  10  20  35  61  96 131 167 220 280 334 390
#     4  11  24  43  67 101 140 178 223 277 338 407
#     4  12  24  41  67  98 130 181 228 272 336 405
#     4  10  22  40  64  97 135 176 217 272 339 401
#
# _framework density 22.184559
#
# number of rings (size 3 to 8) (size 9 to 14) (size 15 to 20)
#    0.000    1.000    3.333    3.500    2.333    4.000 
#    0.000    2.500    0.000    2.000    0.000    0.000 
#    0.000    0.000    0.000    0.000    0.000    0.000 
#
# Total GULP energy -1189735.892294 kJ/mol
# GULP energy per Si atom -12393.082211 kJ/mol
# Density = 2.213407 g / cm^3
# Si number density = 22.184559 Si / 1000 Ang^3
#
#
#
# Elastic Constant Matrix: (Units=GPa)
#
#
# Indices 1 2 3 4 5 6 
#
# 1 70.7123 5.4841 7.2543 0.0000 0.0000 0.0000
# 2 5.4841 70.7123 7.2543 0.0000 0.0000 0.0000
# 3 7.2543 7.2543 41.4008 0.0000 0.0000 0.0000
# 4 0.0000 0.0000 0.0000 21.5906 0.0000 0.0000
# 5 0.0000 0.0000 0.0000 0.0000 21.5906 0.0000
# 6 0.0000 0.0000 0.0000 0.0000 0.0000 45.6105
#
#
#
# Elastic Compliance Matrix: (Units=1/GPa)
#
#
# Indices 1 2 3 4 5 6 
#
# 1 0.014454 -0.000877 -0.002379 0.000000 0.000000 0.000000
# 2 -0.000877 0.014454 -0.002379 0.000000 0.000000 0.000000
# 3 -0.002379 -0.002379 0.024988 0.000000 0.000000 0.000000
# 4 0.000000 0.000000 0.000000 0.046317 0.000000 0.000000
# 5 0.000000 0.000000 0.000000 0.000000 0.046317 0.000000
# 6 0.000000 0.000000 0.000000 0.000000 0.000000 0.021925
#
#
# Mechanical properties :
#
#
# Convention : Reuss Voigt Hill
#
# Bulk Modulus (GPa) = 23.45996 24.75677 24.10836
# Shear Modulus (GPa) = 25.78226 28.61383 27.19805
#
# Velocity S-wave (km/s) = 3.41276 3.59529 3.50521
# Velocity P-wave (km/s) = 5.11147 5.33090 5.22234
#
# Compressibility (1/GPa) = 0.04262583
#
# Stress axis : x y z
#
# Youngs Moduli (GPa) = 69.18561 69.18561 40.01951
#
# Poissons Ratio (x) = 0.06067 0.09521
# Poissons Ratio (y) = 0.06067 0.09521
# Poissons Ratio (z) = 0.16459 0.16459
#
# Static dielectric constant tensor:
#      x y z
#    x 4.200400 0.000000 0.000000 
#    y 0.000000 4.200400 0.000000 
#    z 0.000000 0.000000 3.694490 
# 
# 
# High freq. dielectric constant tensor:
#      x y z
#    x 1.876240 0.000000 0.000000 
#    y 0.000000 1.876240 0.000000 
#    z 0.000000 0.000000 1.862440 
# 
# From -- ./inp_files/5450.got.cif
#   From: 2010.03.12/outbox.cif.g09.slc.cpg/sg135_3_cif.got.tgz:5450.got - 2010.04.06 18:31:24.
