data_PCOD8317916
_publ_section_title
;
Structure prediction by ZEFSAII (Michael W. Deem and Ramdas Pophale) SiO2 
 PCOD8317916
Probable space group: P 42/M N M
;
_chemical_formula_sum "Si O2"
_cell_formula_units_Z 120
_cell_length_a 17.175411
_cell_length_b 17.175411
_cell_length_c 21.897750
_cell_angle_alpha 90.000000
_cell_angle_beta 90.000000
_cell_angle_gamma 90.000000
_cell_volume 6459.721134
_symmetry_space_group_name_H-M "P 42/M N M"
_symmetry_group_IT_number 136
_symmetry_cell_setting 'tetragonal'
loop_
_space_group_symop_operation_xyz
x,y,z
1/2-y,1/2+x,1/2+z
-x,-y,z
1/2+y,1/2-x,1/2+z
1/2+x,1/2-y,1/2-z
1/2-x,1/2+y,1/2-z
y,x,-z
-y,-x,-z
-x,-y,-z
1/2+y,1/2-x,1/2-z
x,y,-z
1/2-y,1/2+x,1/2-z
1/2-x,1/2+y,1/2+z
1/2+x,1/2-y,1/2+z
-y,-x,z
y,x,z
loop_
_atom_site_type_symbol
_atom_site_label
_atom_site_fract_x
_atom_site_fract_y
_atom_site_fract_z
Si Si1 0.162019 0.292149 0.722068
Si Si2 0.170702 0.300181 0.861118
Si Si3 0.734897 0.471563 0.571566
Si Si4 0.412353 0.284538 0.070931
Si Si5 0.317506 0.557005 0.149171
Si Si6 0.901529 0.229598 0.155565
Si Si7 0.061660 0.061660 0.927688
Si Si8 0.376582 0.503553 0.271013
O O1 0.227183 0.227183 0.724957
O O2 0.142831 0.315656 0.791695
O O3 0.088837 0.259595 0.684039
O O4 0.194519 0.367527 0.687738
O O5 0.223180 0.223180 0.867612
O O6 0.093266 0.291180 0.900830
O O7 0.217633 0.373919 0.887436
O O8 0.741236 0.464054 0.500000
O O9 0.757545 0.559663 0.591814
O O10 0.646733 0.460577 0.596116
O O11 0.365002 0.365002 0.078866
O O12 0.501613 0.295833 0.092558
O O13 0.412689 0.258772 0.000000
O O14 0.371547 0.628454 0.125205
O O15 0.363425 0.505490 0.198520
O O16 0.836174 0.163827 0.144995
O O17 0.976515 0.201777 0.195390
O O18 0.059237 0.059237 0.000000
O O19 0.000000 0.000000 0.899957
O O20 0.411184 0.588817 0.292661
O O21 0.439703 0.439703 0.285758
#
# Coordination Sequence:
#
# PCOD8317916 Si02
#       8
#    16  16  16  16  16  16   8  16
#     4   9  19  34  53  76 102 141 185 231 273 319
#     4  10  19  34  55  79 108 141 182 226 273 321
#     4  11  21  32  50  75 108 146 180 216 256 312
#     4  10  21  35  54  81 113 146 178 219 273 333
#     4  10  19  33  53  77 106 138 179 225 277 331
#     4  10  20  33  49  73 108 143 184 223 264 315
#     4   9  18  30  44  70 110 152 183 203 238 294
#     4   9  17  28  46  74 105 137 171 215 270 325
#
# _framework density 18.576651999999999
#
# number of rings (size 3 to 8) (size 9 to 14) (size 15 to 20)
#    0.000    2.200    0.667    2.800    0.933    5.600 
#    0.000    1.333    0.000    3.200    0.000    3.733 
#    0.000    0.000    0.000    0.000    0.000    0.000 
#
# Total GULP energy -1487526.212850 kJ/mol
# GULP energy per Si atom -12396.051774 kJ/mol
# Density = 1.853437 g / cm^3
# Si number density = 18.576652 Si / 1000 Ang^3
#
#
#
# Elastic Constant Matrix: (Units=GPa)
#
#
# Indices 1 2 3 4 5 6 
#
# 1 70.7044 40.8772 51.6362 0.0000 0.0000 0.0000
# 2 40.8772 70.7044 51.6362 0.0000 0.0000 0.0000
# 3 51.6362 51.6362 99.8204 0.0000 0.0000 0.0000
# 4 0.0000 0.0000 0.0000 32.0807 0.0000 0.0000
# 5 0.0000 0.0000 0.0000 0.0000 32.0807 0.0000
# 6 0.0000 0.0000 0.0000 0.0000 0.0000 19.6566
#
#
#
# Elastic Compliance Matrix: (Units=1/GPa)
#
#
# Indices 1 2 3 4 5 6 
#
# 1 0.025360 -0.008166 -0.008894 0.000000 0.000000 0.000000
# 2 -0.008166 0.025360 -0.008894 0.000000 0.000000 0.000000
# 3 -0.008894 -0.008894 0.019220 0.000000 0.000000 0.000000
# 4 0.000000 0.000000 0.000000 0.031171 0.000000 0.000000
# 5 0.000000 0.000000 0.000000 0.000000 0.031171 0.000000
# 6 0.000000 0.000000 0.000000 0.000000 0.000000 0.050873
#
#
# Mechanical properties :
#
#
# Convention : Reuss Voigt Hill
#
# Bulk Modulus (GPa) = 55.46100 58.83648 57.14874
# Shear Modulus (GPa) = 20.74030 23.23557 21.98793
#
# Velocity S-wave (km/s) = 3.34499 3.54049 3.44413
# Velocity P-wave (km/s) = 6.69617 6.96093 6.82983
#
# Compressibility (1/GPa) = 0.01803069
#
# Stress axis : x y z
#
# Youngs Moduli (GPa) = 39.43179 39.43179 52.02948
#
# Poissons Ratio (x) = 0.32201 0.46277
# Poissons Ratio (y) = 0.32201 0.46277
# Poissons Ratio (z) = 0.35072 0.35072
#
# Static dielectric constant tensor:
#      x y z
#    x 3.352970 0.000000 0.000000 
#    y 0.000000 3.352970 0.000000 
#    z 0.000000 0.000000 3.458190 
# 
# 
# High freq. dielectric constant tensor:
#      x y z
#    x 1.697800 0.000000 0.000000 
#    y 0.000000 1.697800 0.000000 
#    z 0.000000 0.000000 1.727440 
# 
# From -- ./inp_files/7798.got.cif
#   From: 2010.03.12/outbox.cif.g09.slc.cpg/sg136_4_cif.got.tgz:7798.got - 2010.04.06 18:39:43.
