data_PCOD8317899
_publ_section_title
;
Structure prediction by ZEFSAII (Michael W. Deem and Ramdas Pophale) SiO2 
 PCOD8317899
Probable space group: P 42/M N M
;
_chemical_formula_sum "Si O2"
_cell_formula_units_Z 96
_cell_length_a 20.828863
_cell_length_b 20.828863
_cell_length_c 13.088593
_cell_angle_alpha 90.000000
_cell_angle_beta 90.000000
_cell_angle_gamma 90.000000
_cell_volume 5678.375263
_symmetry_space_group_name_H-M "P 42/M N M"
_symmetry_group_IT_number 136
_symmetry_cell_setting 'tetragonal'
loop_
_space_group_symop_operation_xyz
x,y,z
1/2-y,1/2+x,1/2+z
-x,-y,z
1/2+y,1/2-x,1/2+z
1/2+x,1/2-y,1/2-z
1/2-x,1/2+y,1/2-z
y,x,-z
-y,-x,-z
-x,-y,-z
1/2+y,1/2-x,1/2-z
x,y,-z
1/2-y,1/2+x,1/2-z
1/2-x,1/2+y,1/2+z
1/2+x,1/2-y,1/2+z
-y,-x,z
y,x,z
loop_
_atom_site_type_symbol
_atom_site_label
_atom_site_fract_x
_atom_site_fract_y
_atom_site_fract_z
Si Si1 0.875768 0.651671 0.614242
Si Si2 0.541025 0.788720 0.379068
Si Si3 0.332922 0.499328 0.742916
Si Si4 0.947622 0.947622 0.120247
Si Si5 0.894570 0.791948 0.615249
Si Si6 0.054881 0.945120 0.621976
Si Si7 0.020820 0.398507 0.244732
O O1 0.889523 0.629496 0.500000
O O2 0.815104 0.611054 0.653392
O O3 0.855604 0.725747 0.623395
O O4 0.943947 0.640100 0.666722
O O5 0.531291 0.776607 0.500000
O O6 0.539852 0.720331 0.320636
O O7 0.491855 0.845740 0.344463
O O8 0.377929 0.533719 0.660731
O O9 0.289547 0.547510 0.806913
O O10 0.377399 0.462501 0.825178
O O11 0.944095 0.944095 0.000000
O O12 0.000000 0.000000 0.156952
O O13 0.919807 0.803205 0.500000
O O14 0.848837 0.848837 0.650104
O O15 0.064150 0.935851 0.500000
O O16 0.000000 0.000000 0.641461
O O17 0.069520 0.455595 0.209679
#
# Coordination Sequence:
#
# PCOD8317899 Si02
#       7
#    16  16  16   8  16   8  16
#     4   9  18  34  51  74 103 136 176 221 261 308
#     4  10  21  34  51  76 110 143 179 214 254 314
#     4  12  19  36  54  80 105 140 170 211 271 309
#     4  11  22  36  52  75 108 141 179 214 253 311
#     4  10  19  32  54  79 101 127 167 214 263 313
#     4  11  22  38  60  85 108 131 171 226 279 323
#     4   9  17  31  53  78 104 136 174 220 272 312
#
# _framework density 16.906244000000001
#
# number of rings (size 3 to 8) (size 9 to 14) (size 15 to 20)
#    0.000    1.833    4.167    1.000    0.000    2.000 
#    1.500    3.333    0.000    0.000    0.000    1.167 
#    0.000    0.000    0.000    0.000    0.000    0.000 
#
# Total GULP energy -1189315.166418 kJ/mol
# GULP energy per Si atom -12388.699650 kJ/mol
# Density = 1.686776 g / cm^3
# Si number density = 16.906244 Si / 1000 Ang^3
#
#
#
# Elastic Constant Matrix: (Units=GPa)
#
#
# Indices 1 2 3 4 5 6 
#
# 1 88.6742 33.2387 47.0345 0.0000 0.0000 0.0000
# 2 33.2387 88.6741 47.0344 0.0000 0.0000 0.0000
# 3 47.0345 47.0344 92.2335 0.0000 0.0000 0.0000
# 4 0.0000 0.0000 0.0000 28.4634 0.0000 0.0000
# 5 0.0000 0.0000 0.0000 0.0000 28.4634 0.0000
# 6 0.0000 0.0000 0.0000 0.0000 0.0000 18.5108
#
#
#
# Elastic Compliance Matrix: (Units=1/GPa)
#
#
# Indices 1 2 3 4 5 6 
#
# 1 0.015782 -0.002257 -0.006897 0.000000 0.000000 0.000000
# 2 -0.002257 0.015782 -0.006897 0.000000 0.000000 0.000000
# 3 -0.006897 -0.006897 0.017876 0.000000 0.000000 0.000000
# 4 0.000000 0.000000 0.000000 0.035133 0.000000 0.000000
# 5 0.000000 0.000000 0.000000 0.000000 0.035133 0.000000
# 6 0.000000 0.000000 0.000000 0.000000 0.000000 0.054022
#
#
# Mechanical properties :
#
#
# Convention : Reuss Voigt Hill
#
# Bulk Modulus (GPa) = 57.67804 58.24411 57.96107
# Shear Modulus (GPa) = 23.62865 24.57248 24.10057
#
# Velocity S-wave (km/s) = 3.74254 3.81656 3.77973
# Velocity P-wave (km/s) = 7.27090 7.34490 7.30799
#
# Compressibility (1/GPa) = 0.01733762
#
# Stress axis : x y z
#
# Youngs Moduli (GPa) = 63.36525 63.36522 55.94133
#
# Poissons Ratio (x) = 0.14305 0.38580
# Poissons Ratio (y) = 0.14305 0.38580
# Poissons Ratio (z) = 0.43700 0.43700
#
# Static dielectric constant tensor:
#      x y z
#    x 3.221040 0.000000 0.000000 
#    y 0.000000 3.221040 0.000000 
#    z 0.000000 0.000000 3.187420 
# 
# 
# High freq. dielectric constant tensor:
#      x y z
#    x 1.650200 0.000000 0.000000 
#    y 0.000000 1.650200 0.000000 
#    z 0.000000 0.000000 1.652690 
# 
# From -- ./inp_files/3845.got.cif
#   From: 2010.03.12/outbox.cif.g09.slc.cpg/sg136_2_cif.got.tgz:3845.got - 2010.04.06 18:39:43.
