data_PCOD8317644
_publ_section_title
;
Structure prediction by ZEFSAII (Michael W. Deem and Ramdas Pophale) SiO2 
 PCOD8317644
Probable space group: P 42/M B C
;
_chemical_formula_sum "Si O2"
_cell_formula_units_Z 96
_cell_length_a 23.932089
_cell_length_b 23.932089
_cell_length_c 8.626936
_cell_angle_alpha 90.000000
_cell_angle_beta 90.000000
_cell_angle_gamma 90.000000
_cell_volume 4941.033458
_symmetry_space_group_name_H-M "P 42/M B C"
_symmetry_group_IT_number 135
_symmetry_cell_setting 'tetragonal'
loop_
_space_group_symop_operation_xyz
x,y,z
-y,x,1/2+z
-x,-y,z
y,-x,1/2+z
1/2+x,1/2-y,-z
1/2-x,1/2+y,-z
1/2+y,1/2+x,1/2-z
1/2-y,1/2-x,1/2-z
-x,-y,-z
y,-x,1/2-z
x,y,-z
-y,x,1/2-z
1/2-x,1/2+y,z
1/2+x,1/2-y,z
1/2-y,1/2-x,1/2+z
1/2+y,1/2+x,1/2+z
loop_
_atom_site_type_symbol
_atom_site_label
_atom_site_fract_x
_atom_site_fract_y
_atom_site_fract_z
Si Si1 0.763649 0.650336 0.182297
Si Si2 0.641965 0.640587 0.316830
Si Si3 0.962930 0.710416 0.823425
Si Si4 0.949428 0.933090 0.682251
Si Si5 0.257524 0.565084 0.817822
Si Si6 0.433184 0.146109 0.823405
O O1 0.799551 0.700450 0.250000
O O2 0.704506 0.652795 0.266121
O O3 0.794440 0.591752 0.218195
O O4 0.756487 0.657642 0.000000
O O5 0.639066 0.632202 0.500000
O O6 0.621582 0.584651 0.231702
O O7 0.603130 0.691624 0.260747
O O8 0.003782 0.760629 0.764165
O O9 0.998943 0.652378 0.810557
O O10 0.944967 0.722861 0.000000
O O11 0.945438 0.943280 0.500000
O O12 0.013782 0.923801 0.728204
O O13 0.199036 0.594627 0.766709
O O14 0.258923 0.555954 0.000000
O O15 0.412056 0.087945 0.750000
O O16 0.413585 0.148776 0.000000
#
# Coordination Sequence:
#
# PCOD8317644 Si02
#       6
#    16  16  16  16  16  16
#     4  12  26  44  66  90 123 165 210 257 311 371
#     4  11  24  41  62  88 120 159 207 258 309 371
#     4   9  20  38  61  88 120 158 201 247 302 363
#     4  11  23  40  61  87 122 161 205 258 315 372
#     4   9  19  35  57  85 117 153 198 246 300 359
#     4   9  18  31  55  86 120 154 191 243 300 359
#
# _framework density 19.429134999999999
#
# number of rings (size 3 to 8) (size 9 to 14) (size 15 to 20)
#    1.000    0.833    0.000    5.000    2.333    3.333 
#    0.000    0.000    0.000    0.500    0.000    3.500 
#    0.000    0.000    0.000    0.000    0.000    0.000 
#
# Total GULP energy -1189972.626677 kJ/mol
# GULP energy per Si atom -12395.548195 kJ/mol
# Density = 1.938491 g / cm^3
# Si number density = 19.429135 Si / 1000 Ang^3
#
#
#
# Elastic Constant Matrix: (Units=GPa)
#
#
# Indices 1 2 3 4 5 6 
#
# 1 83.3455 48.4457 21.9669 0.0000 0.0000 0.0000
# 2 48.4457 83.3348 21.9697 0.0000 0.0000 0.0000
# 3 21.9669 21.9697 92.3861 0.0000 0.0000 0.0000
# 4 0.0000 0.0000 0.0000 33.4195 0.0000 0.0000
# 5 0.0000 0.0000 0.0000 0.0000 33.4194 0.0000
# 6 0.0000 0.0000 0.0000 0.0000 0.0000 36.0166
#
#
#
# Elastic Compliance Matrix: (Units=1/GPa)
#
#
# Indices 1 2 3 4 5 6 
#
# 1 0.018448 -0.010208 -0.001959 0.000000 0.000000 0.000000
# 2 -0.010208 0.018451 -0.001960 0.000000 0.000000 0.000000
# 3 -0.001959 -0.001960 0.011756 0.000000 0.000000 0.000000
# 4 0.000000 0.000000 0.000000 0.029923 0.000000 0.000000
# 5 0.000000 0.000000 0.000000 0.000000 0.029923 0.000000
# 6 0.000000 0.000000 0.000000 0.000000 0.000000 0.027765
#
#
# Mechanical properties :
#
#
# Convention : Reuss Voigt Hill
#
# Bulk Modulus (GPa) = 49.01928 49.31455 49.16691
# Shear Modulus (GPa) = 29.18497 31.68337 30.43417
#
# Velocity S-wave (km/s) = 3.87993 4.04259 3.96210
# Velocity P-wave (km/s) = 6.73471 6.87218 6.80380
#
# Compressibility (1/GPa) = 0.02040014
#
# Stress axis : x y z
#
# Youngs Moduli (GPa) = 54.20577 54.19747 85.06194
#
# Poissons Ratio (x) = 0.55326 0.16663
# Poissons Ratio (y) = 0.55334 0.16676
# Poissons Ratio (z) = 0.10619 0.10625
#
# Static dielectric constant tensor:
#      x y z
#    x 3.439210 0.000000 0.000000 
#    y 0.000000 3.439210 0.000000 
#    z 0.000000 0.000000 3.600250 
# 
# 
# High freq. dielectric constant tensor:
#      x y z
#    x 1.742690 0.000000 0.000000 
#    y 0.000000 1.742690 0.000000 
#    z 0.000000 0.000000 1.774390 
# 
# From -- ./inp_files/1282.got.cif
#   From: 2010.03.12/outbox.cif.g09.slc.cpg/sg135_1_cif.got.tgz:1282.got - 2010.04.06 18:31:24.
