data_PCOD8317411
_publ_section_title
;
Structure prediction by ZEFSAII (Michael W. Deem and Ramdas Pophale) SiO2 
 PCOD8317411
Probable space group: P 42/M B C
;
_chemical_formula_sum "Si O2"
_cell_formula_units_Z 96
_cell_length_a 25.160982
_cell_length_b 25.160982
_cell_length_c 8.953583
_cell_angle_alpha 90.000000
_cell_angle_beta 90.000000
_cell_angle_gamma 90.000000
_cell_volume 5668.289694
_symmetry_space_group_name_H-M "P 42/M B C"
_symmetry_group_IT_number 135
_symmetry_cell_setting 'tetragonal'
loop_
_space_group_symop_operation_xyz
x,y,z
-y,x,1/2+z
-x,-y,z
y,-x,1/2+z
1/2+x,1/2-y,-z
1/2-x,1/2+y,-z
1/2+y,1/2+x,1/2-z
1/2-y,1/2-x,1/2-z
-x,-y,-z
y,-x,1/2-z
x,y,-z
-y,x,1/2-z
1/2-x,1/2+y,z
1/2+x,1/2-y,z
1/2-y,1/2-x,1/2+z
1/2+y,1/2+x,1/2+z
loop_
_atom_site_type_symbol
_atom_site_label
_atom_site_fract_x
_atom_site_fract_y
_atom_site_fract_z
Si Si1 0.807189 0.113286 0.825065
Si Si2 0.997880 0.187556 0.664070
Si Si3 0.509693 0.186815 0.664802
Si Si4 0.892876 0.312152 0.677019
Si Si5 0.194534 0.385493 0.323953
Si Si6 0.105079 0.800656 0.174250
O O1 0.754759 0.122818 0.728448
O O2 0.848936 0.158421 0.782750
O O3 0.834159 0.055922 0.785737
O O4 0.791697 0.114633 0.000000
O O5 0.982292 0.165377 0.500000
O O6 0.004815 0.250366 0.655118
O O7 0.951380 0.172825 0.779834
O O8 0.523179 0.163871 0.500000
O O9 0.451901 0.166078 0.719883
O O10 0.556783 0.170920 0.777274
O O11 0.850481 0.350481 0.750000
O O12 0.885410 0.310842 0.500000
O O13 0.883227 0.252966 0.736688
O O14 0.160264 0.339737 0.250000
O O15 0.191350 0.380204 0.500000
O O16 0.103696 0.787700 0.000000
#
# Coordination Sequence:
#
# PCOD8317411 Si02
#       6
#    16  16  16  16  16  16
#     4   9  19  34  49  68  97 129 158 194 239 283
#     4   8  15  30  49  67  91 123 158 196 237 279
#     4   8  16  32  50  68  93 124 158 195 234 276
#     4  10  20  33  50  72  99 129 158 193 236 280
#     4  11  21  32  50  73  97 126 159 195 235 281
#     4  10  19  31  49  72  97 125 159 197 237 283
#
# _framework density 16.936326000000001
#
# number of rings (size 3 to 8) (size 9 to 14) (size 15 to 20)
#    0.000    2.667    0.000    4.500    0.000    8.667 
#    0.000    0.000    0.000    1.000    0.000    7.000 
#    0.000    0.000    0.000    0.000    0.000    0.000 
#
# Total GULP energy -1189861.772450 kJ/mol
# GULP energy per Si atom -12394.393463 kJ/mol
# Density = 1.689778 g / cm^3
# Si number density = 16.936326 Si / 1000 Ang^3
#
#
#
# Elastic Constant Matrix: (Units=GPa)
#
#
# Indices 1 2 3 4 5 6 
#
# 1 91.3652 57.5449 58.2438 0.0000 0.0000 0.0000
# 2 57.5449 91.3753 58.2455 0.0000 0.0000 0.0000
# 3 58.2438 58.2455 108.7967 0.0000 0.0000 0.0000
# 4 0.0000 0.0000 0.0000 22.5816 0.0000 0.0000
# 5 0.0000 0.0000 0.0000 0.0000 22.5807 0.0000
# 6 0.0000 0.0000 0.0000 0.0000 0.0000 -2.5272
#
#
#
# Elastic Compliance Matrix: (Units=1/GPa)
#
#
# Indices 1 2 3 4 5 6 
#
# 1 0.020560 -0.009005 -0.006186 0.000000 0.000000 0.000000
# 2 -0.009005 0.020557 -0.006185 0.000000 0.000000 0.000000
# 3 -0.006186 -0.006185 0.015814 0.000000 0.000000 0.000000
# 4 0.000000 0.000000 0.000000 0.044284 0.000000 0.000000
# 5 0.000000 0.000000 0.000000 0.000000 0.044286 0.000000
# 6 0.000000 0.000000 0.000000 0.000000 0.000000 -0.395698
#
#
# Mechanical properties :
#
#
# Convention : Reuss Voigt Hill
#
# Bulk Modulus (GPa) = 70.52049 71.06729 70.79389
# Shear Modulus (GPa) = -24.66462 16.36056 -4.15203
#
# Velocity S-wave (km/s) = -3.82031 3.11143 -1.56744
# Velocity P-wave (km/s) = 4.71904 7.41354 6.21409
#
# Compressibility (1/GPa) = 0.01418028
#
# Stress axis : x y z
#
# Youngs Moduli (GPa) = 48.63798 48.64471 63.23467
#
# Poissons Ratio (x) = 0.43804 0.39116
# Poissons Ratio (y) = 0.43798 0.39109
# Poissons Ratio (z) = 0.30087 0.30086
#
# Static dielectric constant tensor:
#      x y z
#    x 3.327450 0.000000 0.000000 
#    y 0.000000 3.327450 0.000000 
#    z 0.000000 0.000000 3.228680 
# 
# 
# High freq. dielectric constant tensor:
#      x y z
#    x 1.638430 0.000000 0.000000 
#    y 0.000000 1.638430 0.000000 
#    z 0.000000 0.000000 1.659200 
# 
# From -- ./inp_files/1384.got.cif
#   From: 2010.03.12/outbox.cif.g09.slc.cpg/sg135_1_cif.got.tgz:1384.got - 2010.04.06 18:31:24.
