data_PCOD8317905
_publ_section_title
;
Structure prediction by ZEFSAII (Michael W. Deem and Ramdas Pophale) SiO2 
 PCOD8317905
Probable space group: P 42/M N M
;
_chemical_formula_sum "Si O2"
_cell_formula_units_Z 80
_cell_length_a 11.608471
_cell_length_b 11.608471
_cell_length_c 30.804831
_cell_angle_alpha 90.000000
_cell_angle_beta 90.000000
_cell_angle_gamma 90.000000
_cell_volume 4151.154257
_symmetry_space_group_name_H-M "P 42/M N M"
_symmetry_group_IT_number 136
_symmetry_cell_setting 'tetragonal'
loop_
_space_group_symop_operation_xyz
x,y,z
1/2-y,1/2+x,1/2+z
-x,-y,z
1/2+y,1/2-x,1/2+z
1/2+x,1/2-y,1/2-z
1/2-x,1/2+y,1/2-z
y,x,-z
-y,-x,-z
-x,-y,-z
1/2+y,1/2-x,1/2-z
x,y,-z
1/2-y,1/2+x,1/2-z
1/2-x,1/2+y,1/2+z
1/2+x,1/2-y,1/2+z
-y,-x,z
y,x,z
loop_
_atom_site_type_symbol
_atom_site_label
_atom_site_fract_x
_atom_site_fract_y
_atom_site_fract_z
Si Si1 0.601663 0.087671 0.047225
Si Si2 0.542245 0.808788 0.843153
Si Si3 0.495235 0.317749 0.071227
Si Si4 0.407036 0.407036 0.684328
Si Si5 0.404026 0.404026 0.213341
Si Si6 0.670801 0.041117 0.140253
O O1 0.545231 0.214246 0.042444
O O2 0.686189 0.069034 0.088259
O O3 0.500000 0.000000 0.057097
O O4 0.660980 0.062355 0.000000
O O5 0.558141 0.729885 0.884836
O O6 0.562816 0.724945 0.802331
O O7 0.415845 0.864467 0.839936
O O8 0.633171 0.911841 0.848279
O O9 0.600498 0.399503 0.083575
O O10 0.393072 0.393072 0.047900
O O11 0.500000 0.500000 0.670591
O O12 0.395456 0.395456 0.735446
O O13 0.445961 0.289328 0.663715
O O14 0.500000 0.500000 0.199173
#
# Coordination Sequence:
#
# PCOD8317905 Si02
#       6
#    16  16  16   8   8  16
#     4  10  20  38  61  88 120 159 206 253 302 370
#     4  10  20  38  65  91 120 165 200 248 307 377
#     4  10  19  32  55  91 126 155 192 245 311 368
#     4  11  28  44  61  89 126 165 210 267 302 353
#     4  11  24  40  64 100 126 154 204 258 316 368
#     4  10  22  43  63  89 122 167 210 247 310 367
#
# _framework density 19.271749
#
# number of rings (size 3 to 8) (size 9 to 14) (size 15 to 20)
#    0.000    1.800    5.000    0.600    8.400    2.400 
#    0.000    3.000    0.000    1.200    0.000    0.000 
#    0.000    0.000    0.000    0.000    0.000    0.000 
#
# Total GULP energy -991285.220443 kJ/mol
# GULP energy per Si atom -12391.065256 kJ/mol
# Density = 1.922789 g / cm^3
# Si number density = 19.271749 Si / 1000 Ang^3
#
#
#
# Elastic Constant Matrix: (Units=GPa)
#
#
# Indices 1 2 3 4 5 6 
#
# 1 6.9845 175.6598 53.2969 0.0000 0.0000 0.0000
# 2 175.6598 6.9845 53.2969 0.0000 0.0000 0.0000
# 3 53.2969 53.2969 109.2534 0.0000 0.0000 0.0000
# 4 0.0000 0.0000 0.0000 20.8113 0.0000 0.0000
# 5 0.0000 0.0000 0.0000 0.0000 20.8113 0.0000
# 6 0.0000 0.0000 0.0000 0.0000 0.0000 15.7848
#
#
#
# Elastic Compliance Matrix: (Units=1/GPa)
#
#
# Indices 1 2 3 4 5 6 
#
# 1 0.000863 0.006791 -0.003734 0.000000 0.000000 0.000000
# 2 0.006791 0.000863 -0.003734 0.000000 0.000000 0.000000
# 3 -0.003734 -0.003734 0.012796 0.000000 0.000000 0.000000
# 4 0.000000 0.000000 0.000000 0.048051 0.000000 0.000000
# 5 0.000000 0.000000 0.000000 0.000000 0.048051 0.000000
# 6 0.000000 0.000000 0.000000 0.000000 0.000000 0.063352
#
#
# Mechanical properties :
#
#
# Convention : Reuss Voigt Hill
#
# Bulk Modulus (GPa) = 75.93703 76.41439 76.17571
# Shear Modulus (GPa) = 27.82130 0.87940 14.35035
#
# Velocity S-wave (km/s) = 3.80364 0.67624 2.73175
# Velocity P-wave (km/s) = 7.66675 6.35191 7.04009
#
# Compressibility (1/GPa) = 0.01316881
#
# Stress axis : x y z
#
# Youngs Moduli (GPa) = 1158.89046 1158.89046 78.14860
#
# Poissons Ratio (x) = -7.87054 0.29181
# Poissons Ratio (y) = -7.87054 0.29181
# Poissons Ratio (z) = 4.32730 4.32730
#
# Static dielectric constant tensor:
#      x y z
#    x 3.596720 0.000000 0.000000 
#    y 0.000000 3.596720 0.000000 
#    z 0.000000 0.000000 3.551240 
# 
# 
# High freq. dielectric constant tensor:
#      x y z
#    x 1.750200 0.000000 0.000000 
#    y 0.000000 1.750200 0.000000 
#    z 0.000000 0.000000 1.747200 
# 
# From -- ./inp_files/9589.got.cif
#   From: 2010.03.12/outbox.cif.g09.slc.cpg/sg136_5_cif.got.tgz:9589.got - 2010.04.06 18:39:43.
