data_PCOD8317734
_publ_section_title
;
Structure prediction by ZEFSAII (Michael W. Deem and Ramdas Pophale) SiO2 
 PCOD8317734
Probable space group: P 42/M N M
;
_chemical_formula_sum "Si O2"
_cell_formula_units_Z 72
_cell_length_a 22.777731
_cell_length_b 22.777731
_cell_length_c 9.117621
_cell_angle_alpha 90.000000
_cell_angle_beta 90.000000
_cell_angle_gamma 90.000000
_cell_volume 4730.449984
_symmetry_space_group_name_H-M "P 42/M N M"
_symmetry_group_IT_number 136
_symmetry_cell_setting 'tetragonal'
loop_
_space_group_symop_operation_xyz
x,y,z
1/2-y,1/2+x,1/2+z
-x,-y,z
1/2+y,1/2-x,1/2+z
1/2+x,1/2-y,1/2-z
1/2-x,1/2+y,1/2-z
y,x,-z
-y,-x,-z
-x,-y,-z
1/2+y,1/2-x,1/2-z
x,y,-z
1/2-y,1/2+x,1/2-z
1/2-x,1/2+y,1/2+z
1/2+x,1/2-y,1/2+z
-y,-x,z
y,x,z
loop_
_atom_site_type_symbol
_atom_site_label
_atom_site_fract_x
_atom_site_fract_y
_atom_site_fract_z
Si Si1 0.489293 0.325798 0.328614
Si Si2 0.689230 0.212189 0.335121
Si Si3 0.546659 0.546659 0.674311
Si Si4 0.271239 0.366530 0.331314
Si Si5 0.108269 0.204308 0.327177
O O1 0.506234 0.328533 0.500000
O O2 0.471614 0.389643 0.267162
O O3 0.434924 0.282383 0.300734
O O4 0.543788 0.303168 0.236503
O O5 0.668091 0.198594 0.500000
O O6 0.740050 0.259950 0.332812
O O7 0.715050 0.152903 0.263876
O O8 0.634625 0.236313 0.242028
O O9 0.500000 0.500000 0.735154
O O10 0.548331 0.548331 0.500000
O O11 0.255328 0.355259 0.500000
O O12 0.329712 0.329712 0.289820
O O13 0.105094 0.212867 0.500000
O O14 0.147964 0.147964 0.284659
#
# Coordination Sequence:
#
# PCOD8317734 Si02
#       5
#    16  16   8  16  16
#     4  10  18  29  45  65  88 118 155 190 222 263
#     4   9  17  29  46  65  83 108 145 185 228 275
#     4   9  16  26  41  61  85 119 161 195 217 246
#     4   9  16  28  45  65  89 114 144 183 228 271
#     4  10  20  32  44  61  87 119 152 189 232 269
#
# _framework density 15.220539
#
# number of rings (size 3 to 8) (size 9 to 14) (size 15 to 20)
#    0.000    2.556    1.111    2.000    0.000    5.778 
#    0.000    0.556    0.000    2.000    0.000    0.000 
#    0.000    0.889    0.000    9.333    0.000    4.000 
#
# Total GULP energy -892795.803832 kJ/mol
# GULP energy per Si atom -12399.941720 kJ/mol
# Density = 1.518590 g / cm^3
# Si number density = 15.220539 Si / 1000 Ang^3
#
#
#
# Elastic Constant Matrix: (Units=GPa)
#
#
# Indices 1 2 3 4 5 6 
#
# 1 74.2645 62.3621 48.3372 0.0000 0.0000 0.0000
# 2 62.3621 74.2645 48.3372 0.0000 0.0000 0.0000
# 3 48.3372 48.3372 82.0931 0.0000 0.0000 0.0000
# 4 0.0000 0.0000 0.0000 25.0697 0.0000 0.0000
# 5 0.0000 0.0000 0.0000 0.0000 25.0697 0.0000
# 6 0.0000 0.0000 0.0000 0.0000 0.0000 24.7872
#
#
#
# Elastic Compliance Matrix: (Units=1/GPa)
#
#
# Indices 1 2 3 4 5 6 
#
# 1 0.048281 -0.035735 -0.007387 0.000000 0.000000 0.000000
# 2 -0.035735 0.048281 -0.007387 0.000000 0.000000 0.000000
# 3 -0.007387 -0.007387 0.020881 0.000000 0.000000 0.000000
# 4 0.000000 0.000000 0.000000 0.039889 0.000000 0.000000
# 5 0.000000 0.000000 0.000000 0.000000 0.039889 0.000000
# 6 0.000000 0.000000 0.000000 0.000000 0.000000 0.040343
#
#
# Mechanical properties :
#
#
# Convention : Reuss Voigt Hill
#
# Bulk Modulus (GPa) = 60.88674 60.96613 60.92644
# Shear Modulus (GPa) = 14.53241 19.75769 17.14505
#
# Velocity S-wave (km/s) = 3.09332 3.60682 3.35989
# Velocity P-wave (km/s) = 7.26966 7.58206 7.42750
#
# Compressibility (1/GPa) = 0.01642394
#
# Stress axis : x y z
#
# Youngs Moduli (GPa) = 20.71198 20.71198 47.89059
#
# Poissons Ratio (x) = 0.74014 0.35379
# Poissons Ratio (y) = 0.74014 0.35379
# Poissons Ratio (z) = 0.15301 0.15301
#
# Static dielectric constant tensor:
#      x y z
#    x 2.818890 0.000000 0.000000 
#    y 0.000000 2.818890 0.000000 
#    z 0.000000 0.000000 2.908870 
# 
# 
# High freq. dielectric constant tensor:
#      x y z
#    x 1.562700 0.000000 0.000000 
#    y 0.000000 1.562700 0.000000 
#    z 0.000000 0.000000 1.581410 
# 
# From -- ./inp_files/1557.got.cif
#   From: 2010.03.12/outbox.cif.g09.slc.cpg/sg136_1_cif.got.tgz:1557.got - 2010.04.06 18:39:43.
