data_PCOD8317585
_publ_section_title
;
Structure prediction by ZEFSAII (Michael W. Deem and Ramdas Pophale) SiO2 
 PCOD8317585
Probable space group: P 42/M B C
;
_chemical_formula_sum "Si O2"
_cell_formula_units_Z 96
_cell_length_a 14.361237
_cell_length_b 14.361237
_cell_length_c 22.333630
_cell_angle_alpha 90.000000
_cell_angle_beta 90.000000
_cell_angle_gamma 90.000000
_cell_volume 4606.202382
_symmetry_space_group_name_H-M "P 42/M B C"
_symmetry_group_IT_number 135
_symmetry_cell_setting 'tetragonal'
loop_
_space_group_symop_operation_xyz
x,y,z
-y,x,1/2+z
-x,-y,z
y,-x,1/2+z
1/2+x,1/2-y,-z
1/2-x,1/2+y,-z
1/2+y,1/2+x,1/2-z
1/2-y,1/2-x,1/2-z
-x,-y,-z
y,-x,1/2-z
x,y,-z
-y,x,1/2-z
1/2-x,1/2+y,z
1/2+x,1/2-y,z
1/2-y,1/2-x,1/2+z
1/2+y,1/2+x,1/2+z
loop_
_atom_site_type_symbol
_atom_site_label
_atom_site_fract_x
_atom_site_fract_y
_atom_site_fract_z
Si Si1 0.613771 0.339088 0.689611
Si Si2 0.699311 0.532413 0.681800
Si Si3 0.538620 0.594367 0.601485
Si Si4 0.285543 0.893801 0.500000
Si Si5 0.900184 0.210633 0.500000
Si Si6 0.361412 0.860210 0.629458
Si Si7 0.000000 0.500000 0.600059
Si Si8 0.575622 0.870750 0.000000
O O1 0.693892 0.419238 0.686233
O O2 0.584101 0.327728 0.757537
O O3 0.525167 0.381007 0.657156
O O4 0.646264 0.241770 0.659627
O O5 0.640090 0.573625 0.627037
O O6 0.801811 0.564032 0.665298
O O7 0.500000 0.500000 0.569572
O O8 0.538609 0.685199 0.558297
O O9 0.179716 0.865662 0.500000
O O10 0.338099 0.852237 0.558494
O O11 0.280313 0.007942 0.500000
O O12 0.855359 0.313264 0.500000
O O13 0.461468 0.911305 0.637435
O O14 0.922138 0.452602 0.559863
#
# Coordination Sequence:
#
# PCOD8317585 Si02
#       8
#    16  16  16   8   8  16   8   8
#     4  11  23  42  69  91 127 178 219 266 331 401
#     4  11  22  43  65  92 129 168 221 263 328 392
#     4  10  22  38  64  94 126 169 211 271 329 387
#     4  10  23  40  59  94 133 162 219 266 325 396
#     4  12  20  39  62  99 131 159 220 277 327 396
#     4  11  23  42  65  98 128 171 216 275 326 394
#     4   9  20  42  61  88 130 164 217 255 324 394
#     4   9  20  37  65  81 125 185 197 248 333 407
#
# _framework density 20.841463000000001
#
# number of rings (size 3 to 8) (size 9 to 14) (size 15 to 20)
#    0.000    1.500    3.333    2.250    0.000    3.333 
#    3.000    1.667    0.000    0.000    0.000    0.000 
#    0.000    0.000    0.000    0.000    0.000    0.000 
#
# Total GULP energy -1189417.720958 kJ/mol
# GULP energy per Si atom -12389.767927 kJ/mol
# Density = 2.079403 g / cm^3
# Si number density = 20.841463 Si / 1000 Ang^3
#
#
#
# Elastic Constant Matrix: (Units=GPa)
#
#
# Indices 1 2 3 4 5 6 
#
# 1 102.8441 35.4723 24.4230 0.0000 0.0000 0.0000
# 2 35.4723 102.8441 24.4230 0.0000 0.0000 0.0000
# 3 24.4230 24.4230 85.9139 0.0000 0.0000 0.0000
# 4 0.0000 0.0000 0.0000 22.3958 0.0000 0.0000
# 5 0.0000 0.0000 0.0000 0.0000 22.3958 0.0000
# 6 0.0000 0.0000 0.0000 0.0000 0.0000 31.6084
#
#
#
# Elastic Compliance Matrix: (Units=1/GPa)
#
#
# Indices 1 2 3 4 5 6 
#
# 1 0.011440 -0.003403 -0.002285 0.000000 0.000000 0.000000
# 2 -0.003403 0.011440 -0.002285 0.000000 0.000000 0.000000
# 3 -0.002285 -0.002285 0.012938 0.000000 0.000000 0.000000
# 4 0.000000 0.000000 0.000000 0.044651 0.000000 0.000000
# 5 0.000000 0.000000 0.000000 0.000000 0.044651 0.000000
# 6 0.000000 0.000000 0.000000 0.000000 0.000000 0.031637
#
#
# Mechanical properties :
#
#
# Convention : Reuss Voigt Hill
#
# Bulk Modulus (GPa) = 50.31876 51.13762 50.72819
# Shear Modulus (GPa) = 27.88202 29.09891 28.49046
#
# Velocity S-wave (km/s) = 3.66158 3.74063 3.70132
# Velocity P-wave (km/s) = 6.48631 6.57618 6.53140
#
# Compressibility (1/GPa) = 0.01987330
#
# Stress axis : x y z
#
# Youngs Moduli (GPa) = 87.41409 87.41409 77.28901
#
# Poissons Ratio (x) = 0.29749 0.17657
# Poissons Ratio (y) = 0.29749 0.17657
# Poissons Ratio (z) = 0.19970 0.19970
#
# Static dielectric constant tensor:
#      x y z
#    x 3.873420 0.000000 0.000000 
#    y 0.000000 3.873420 0.000000 
#    z 0.000000 0.000000 3.810100 
# 
# 
# High freq. dielectric constant tensor:
#      x y z
#    x 1.812150 0.000000 0.000000 
#    y 0.000000 1.812150 0.000000 
#    z 0.000000 0.000000 1.819850 
# 
# From -- ./inp_files/6075.got.cif
#   From: 2010.03.12/outbox.cif.g09.slc.cpg/sg135_4_cif.got.tgz:6075.got - 2010.04.06 18:31:24.
