data_PCOD8317517
_publ_section_title
;
Structure prediction by ZEFSAII (Michael W. Deem and Ramdas Pophale) SiO2 
 PCOD8317517
Probable space group: P 42/M B C
;
_chemical_formula_sum "Si O2"
_cell_formula_units_Z 96
_cell_length_a 14.659357
_cell_length_b 14.659357
_cell_length_c 22.358555
_cell_angle_alpha 90.000000
_cell_angle_beta 90.000000
_cell_angle_gamma 90.000000
_cell_volume 4804.780752
_symmetry_space_group_name_H-M "P 42/M B C"
_symmetry_group_IT_number 135
_symmetry_cell_setting 'tetragonal'
loop_
_space_group_symop_operation_xyz
x,y,z
-y,x,1/2+z
-x,-y,z
y,-x,1/2+z
1/2+x,1/2-y,-z
1/2-x,1/2+y,-z
1/2+y,1/2+x,1/2-z
1/2-y,1/2-x,1/2-z
-x,-y,-z
y,-x,1/2-z
x,y,-z
-y,x,1/2-z
1/2-x,1/2+y,z
1/2+x,1/2-y,z
1/2-y,1/2-x,1/2+z
1/2+y,1/2+x,1/2+z
loop_
_atom_site_type_symbol
_atom_site_label
_atom_site_fract_x
_atom_site_fract_y
_atom_site_fract_z
Si Si1 0.422164 0.623828 0.753792
Si Si2 0.051950 0.409715 0.068595
Si Si3 0.008438 0.253405 0.567360
Si Si4 0.722125 0.549474 0.625194
Si Si5 0.237073 0.193108 0.930910
Si Si6 0.347193 0.647226 0.630819
O O1 0.524072 0.613845 0.726224
O O2 0.418087 0.696887 0.807703
O O3 0.354359 0.659319 0.702225
O O4 0.159149 0.427195 0.072226
O O5 0.027786 0.329507 0.115293
O O6 0.000000 0.500000 0.090131
O O7 0.023238 0.384752 0.000000
O O8 0.000286 0.218203 0.500000
O O9 0.054871 0.173043 0.604144
O O10 0.905832 0.274478 0.589692
O O11 0.695250 0.628166 0.578501
O O12 0.667995 0.457054 0.611010
O O13 0.287531 0.266761 0.890622
O O14 0.258936 0.214506 0.000000
#
# Coordination Sequence:
#
# PCOD8317517 Si02
#       6
#    16  16  16  16  16  16
#     4   9  20  39  62  90 122 161 209 260 315 370
#     4  10  20  37  60  89 127 167 204 248 311 376
#     4  10  21  37  57  86 126 162 197 252 313 368
#     4  11  22  38  63  91 119 161 214 257 306 377
#     4  11  23  38  59  92 127 162 207 254 314 385
#     4  11  22  39  62  87 122 162 206 260 311 366
#
# _framework density 19.980098999999999
#
# number of rings (size 3 to 8) (size 9 to 14) (size 15 to 20)
#    0.000    1.667    1.667    3.000    0.000    6.667 
#    0.000    1.667    0.000    4.000    0.000    0.000 
#    0.000    0.000    0.000    0.000    0.000    0.000 
#
# Total GULP energy -1190358.455107 kJ/mol
# GULP energy per Si atom -12399.567241 kJ/mol
# Density = 1.993462 g / cm^3
# Si number density = 19.980099 Si / 1000 Ang^3
#
#
#
# Elastic Constant Matrix: (Units=GPa)
#
#
# Indices 1 2 3 4 5 6 
#
# 1 97.6472 32.6029 63.0856 0.0000 0.0000 0.0000
# 2 32.6029 97.6472 63.0856 0.0000 0.0000 0.0000
# 3 63.0856 63.0856 89.9099 0.0000 0.0000 0.0000
# 4 0.0000 0.0000 0.0000 33.3659 0.0000 0.0000
# 5 0.0000 0.0000 0.0000 0.0000 33.3659 0.0000
# 6 0.0000 0.0000 0.0000 0.0000 0.0000 38.6257
#
#
#
# Elastic Compliance Matrix: (Units=1/GPa)
#
#
# Indices 1 2 3 4 5 6 
#
# 1 0.019671 0.004297 -0.016818 0.000000 0.000000 0.000000
# 2 0.004297 0.019671 -0.016818 0.000000 0.000000 0.000000
# 3 -0.016818 -0.016818 0.034722 0.000000 0.000000 0.000000
# 4 0.000000 0.000000 0.000000 0.029971 0.000000 0.000000
# 5 0.000000 0.000000 0.000000 0.000000 0.029971 0.000000
# 6 0.000000 0.000000 0.000000 0.000000 0.000000 0.025889
#
#
# Mechanical properties :
#
#
# Convention : Reuss Voigt Hill
#
# Bulk Modulus (GPa) = 64.98094 66.97250 65.97672
# Shear Modulus (GPa) = 22.35124 29.50019 25.92571
#
# Velocity S-wave (km/s) = 3.34829 3.84667 3.60610
# Velocity P-wave (km/s) = 6.89503 7.30216 7.10151
#
# Compressibility (1/GPa) = 0.01538913
#
# Stress axis : x y z
#
# Youngs Moduli (GPa) = 50.83557 50.83557 28.79988
#
# Poissons Ratio (x) = -0.21845 0.48434
# Poissons Ratio (y) = -0.21845 0.48434
# Poissons Ratio (z) = 0.85493 0.85493
#
# Static dielectric constant tensor:
#      x y z
#    x 3.728670 0.000000 0.000000 
#    y 0.000000 3.728670 0.000000 
#    z 0.000000 0.000000 3.455770 
# 
# 
# High freq. dielectric constant tensor:
#      x y z
#    x 1.786350 0.000000 0.000000 
#    y 0.000000 1.786350 0.000000 
#    z 0.000000 0.000000 1.760130 
# 
# From -- ./inp_files/5446.got.cif
#   From: 2010.03.12/outbox.cif.g09.slc.cpg/sg135_3_cif.got.tgz:5446.got - 2010.04.06 18:31:24.
