data_PCOD8317491
_publ_section_title
;
Structure prediction by ZEFSAII (Michael W. Deem and Ramdas Pophale) SiO2 
 PCOD8317491
Probable space group: P 42/M B C
;
_chemical_formula_sum "Si O2"
_cell_formula_units_Z 88
_cell_length_a 13.172112
_cell_length_b 13.172112
_cell_length_c 23.575953
_cell_angle_alpha 90.000000
_cell_angle_beta 90.000000
_cell_angle_gamma 90.000000
_cell_volume 4090.534752
_symmetry_space_group_name_H-M "P 42/M B C"
_symmetry_group_IT_number 135
_symmetry_cell_setting 'tetragonal'
loop_
_space_group_symop_operation_xyz
x,y,z
-y,x,1/2+z
-x,-y,z
y,-x,1/2+z
1/2+x,1/2-y,-z
1/2-x,1/2+y,-z
1/2+y,1/2+x,1/2-z
1/2-y,1/2-x,1/2-z
-x,-y,-z
y,-x,1/2-z
x,y,-z
-y,x,1/2-z
1/2-x,1/2+y,z
1/2+x,1/2-y,z
1/2-y,1/2-x,1/2+z
1/2+y,1/2+x,1/2+z
loop_
_atom_site_type_symbol
_atom_site_label
_atom_site_fract_x
_atom_site_fract_y
_atom_site_fract_z
Si Si1 0.875074 0.694188 0.370861
Si Si2 0.104705 0.899665 0.722305
Si Si3 0.575432 0.799610 0.435782
Si Si4 0.796975 0.703026 0.750000
Si Si5 0.669553 0.592291 0.598895
Si Si6 0.374579 0.292705 0.936539
O O1 0.872276 0.680808 0.302602
O O2 0.787300 0.624298 0.397111
O O3 0.855588 0.810167 0.390586
O O4 0.986497 0.663826 0.393330
O O5 0.180121 0.805750 0.731348
O O6 0.117616 0.937020 0.658386
O O7 0.990443 0.864549 0.734639
O O8 0.538457 0.818239 0.500000
O O9 0.603519 0.680615 0.429822
O O10 0.673259 0.868110 0.420719
O O11 0.667787 0.489801 0.562577
O O12 0.329583 0.309317 0.000000
#
# Coordination Sequence:
#
# PCOD8317491 Si02
#       6
#    16  16  16   8  16  16
#     4  10  21  37  56  82 113 149 191 235 288 345
#     4  10  20  35  57  83 110 147 192 235 282 342
#     4  10  21  37  58  84 116 152 190 237 288 341
#     4  10  20  36  58  80 112 148 186 238 290 330
#     4  10  21  36  56  82 114 148 190 239 285 341
#     4  10  21  37  58  85 116 151 191 235 286 343
#
# _framework density 21.513079000000001
#
# number of rings (size 3 to 8) (size 9 to 14) (size 15 to 20)
#    0.000    2.000    0.000    3.273    0.000    5.091 
#    0.000    3.636    0.000    7.091    0.000    0.000 
#    0.000    0.000    0.000    0.000    0.000    0.000 
#
# Total GULP energy -1091052.442766 kJ/mol
# GULP energy per Si atom -12398.323213 kJ/mol
# Density = 2.146411 g / cm^3
# Si number density = 21.513079 Si / 1000 Ang^3
#
#
#
# Elastic Constant Matrix: (Units=GPa)
#
#
# Indices 1 2 3 4 5 6 
#
# 1 76.1265 8.7386 29.4853 0.0000 0.0000 0.0000
# 2 8.7386 76.1281 29.4851 0.0000 0.0000 0.0000
# 3 29.4853 29.4851 113.1015 0.0000 0.0000 0.0000
# 4 0.0000 0.0000 0.0000 27.5105 0.0000 0.0000
# 5 0.0000 0.0000 0.0000 0.0000 27.5102 0.0000
# 6 0.0000 0.0000 0.0000 0.0000 0.0000 23.6151
#
#
#
# Elastic Compliance Matrix: (Units=1/GPa)
#
#
# Indices 1 2 3 4 5 6 
#
# 1 0.014615 -0.000225 -0.003752 0.000000 0.000000 0.000000
# 2 -0.000225 0.014614 -0.003751 0.000000 0.000000 0.000000
# 3 -0.003752 -0.003751 0.010798 0.000000 0.000000 0.000000
# 4 0.000000 0.000000 0.000000 0.036350 0.000000 0.000000
# 5 0.000000 0.000000 0.000000 0.000000 0.036350 0.000000
# 6 0.000000 0.000000 0.000000 0.000000 0.000000 0.042346
#
#
# Mechanical properties :
#
#
# Convention : Reuss Voigt Hill
#
# Bulk Modulus (GPa) = 40.69685 44.53046 42.61365
# Shear Modulus (GPa) = 27.97700 28.90364 28.44032
#
# Velocity S-wave (km/s) = 3.61011 3.66941 3.63988
# Velocity P-wave (km/s) = 6.02789 6.22068 6.12505
#
# Compressibility (1/GPa) = 0.02457192
#
# Stress axis : x y z
#
# Youngs Moduli (GPa) = 68.42358 68.42533 92.61321
#
# Poissons Ratio (x) = 0.01537 0.34744
# Poissons Ratio (y) = 0.01537 0.34743
# Poissons Ratio (z) = 0.25669 0.25669
#
# Static dielectric constant tensor:
#      x y z
#    x 3.750440 0.000000 0.000000 
#    y 0.000000 3.750440 0.000000 
#    z 0.000000 0.000000 3.956690 
# 
# 
# High freq. dielectric constant tensor:
#      x y z
#    x 1.832820 0.000000 0.000000 
#    y 0.000000 1.832820 0.000000 
#    z 0.000000 0.000000 1.852770 
# 
# From -- ./inp_files/5300.got.cif
#   From: 2010.03.12/outbox.cif.g09.slc.cpg/sg135_3_cif.got.tgz:5300.got - 2010.04.06 18:31:24.
