data_PCOD8318926
_publ_section_title
;
Structure prediction by ZEFSAII (Michael W. Deem and Ramdas Pophale) SiO2 
 PCOD8318926
Probable space group: P 42/N C M
;
_chemical_formula_sum "Si O2"
_cell_formula_units_Z 80
_cell_length_a 11.997283
_cell_length_b 11.997283
_cell_length_c 27.270770
_cell_angle_alpha 90.000000
_cell_angle_beta 90.000000
_cell_angle_gamma 90.000000
_cell_volume 3925.212809
_symmetry_space_group_name_H-M "P 42/N C M"
_symmetry_group_IT_number 138
_space_group.IT_coordinate_system_code '2'
_symmetry_cell_setting 'tetragonal'
loop_
_space_group_symop_operation_xyz
x,y,z
1/2-y,x,1/2+z
1/2-x,1/2-y,z
y,1/2-x,1/2+z
1/2+x,-y,1/2-z
-x,1/2+y,1/2-z
1/2+y,1/2+x,-z
-y,-x,-z
-x,-y,-z
1/2+y,-x,1/2-z
1/2+x,1/2+y,-z
-y,1/2+x,1/2-z
1/2-x,y,1/2+z
x,1/2-y,1/2+z
1/2-y,1/2-x,z
y,x,z
loop_
_atom_site_type_symbol
_atom_site_label
_atom_site_fract_x
_atom_site_fract_y
_atom_site_fract_z
Si Si1 0.069538 0.255931 0.539616
Si Si2 0.195767 0.491695 0.937982
Si Si3 0.046000 0.640326 0.877701
Si Si4 0.343983 0.156018 0.267022
Si Si5 0.843574 0.656427 0.621410
Si Si6 0.212379 0.914775 0.729299
O O1 0.119636 0.380365 0.537495
O O2 0.167807 0.167807 0.533517
O O3 0.985200 0.236289 0.493827
O O4 0.012234 0.239939 0.592316
O O5 0.101970 0.398031 0.937981
O O6 0.146225 0.601153 0.912857
O O7 0.301274 0.453976 0.905730
O O8 0.098949 0.688788 0.828354
O O9 0.959928 0.540073 0.865502
O O10 0.250000 0.250000 0.260638
O O11 0.372105 0.127896 0.322891
O O12 0.456054 0.199951 0.242127
O O13 0.750000 0.750000 0.619041
O O14 0.338210 0.875281 0.740872
#
# Coordination Sequence:
#
# PCOD8318926 Si02
#       6
#    16  16  16   8   8  16
#     4   9  16  27  45  79 125 162 197 253 316 377
#     4   9  15  26  48  78 123 158 200 253 310 369
#     4  10  19  33  53  83 116 163 211 261 317 380
#     4  11  24  40  68  96 123 169 219 273 334 386
#     4   9  16  28  50  83 112 151 197 252 307 367
#     4  11  25  44  63  90 130 170 222 278 330 390
#
# _framework density 20.381060999999999
#
# number of rings (size 3 to 8) (size 9 to 14) (size 15 to 20)
#    0.000    2.200    2.000    1.800    1.400    4.800 
#    0.000    0.000    0.000    0.000    0.000   25.200 
#    0.000    0.000    0.000    0.000    0.000    0.000 
#
# Total GULP energy -991775.946362 kJ/mol
# GULP energy per Si atom -12397.199330 kJ/mol
# Density = 2.033467 g / cm^3
# Si number density = 20.381061 Si / 1000 Ang^3
#
#
#
# Elastic Constant Matrix: (Units=GPa)
#
#
# Indices 1 2 3 4 5 6 
#
# 1 73.3232 46.6188 46.7474 0.0000 0.0000 0.0000
# 2 46.6188 73.3232 46.7474 0.0000 0.0000 0.0000
# 3 46.7474 46.7474 161.6386 0.0000 0.0000 0.0000
# 4 0.0000 0.0000 0.0000 22.1435 0.0000 0.0000
# 5 0.0000 0.0000 0.0000 0.0000 22.1435 0.0000
# 6 0.0000 0.0000 0.0000 0.0000 0.0000 26.1026
#
#
#
# Elastic Compliance Matrix: (Units=1/GPa)
#
#
# Indices 1 2 3 4 5 6 
#
# 1 0.024106 -0.013342 -0.003113 0.000000 0.000000 0.000000
# 2 -0.013342 0.024106 -0.003113 0.000000 0.000000 0.000000
# 3 -0.003113 -0.003113 0.007987 0.000000 0.000000 0.000000
# 4 0.000000 0.000000 0.000000 0.045160 0.000000 0.000000
# 5 0.000000 0.000000 0.000000 0.000000 0.045160 0.000000
# 6 0.000000 0.000000 0.000000 0.000000 0.000000 0.038310
#
#
# Mechanical properties :
#
#
# Convention : Reuss Voigt Hill
#
# Bulk Modulus (GPa) = 58.60609 65.39024 61.99816
# Shear Modulus (GPa) = 21.77209 25.28932 23.53070
#
# Velocity S-wave (km/s) = 3.27196 3.52636 3.40154
# Velocity P-wave (km/s) = 6.56444 6.98095 6.77590
#
# Compressibility (1/GPa) = 0.01706307
#
# Stress axis : x y z
#
# Youngs Moduli (GPa) = 41.48426 41.48426 125.19900
#
# Poissons Ratio (x) = 0.55346 0.38975
# Poissons Ratio (y) = 0.55346 0.38975
# Poissons Ratio (z) = 0.12914 0.12914
#
# Static dielectric constant tensor:
#      x y z
#    x 3.521500 0.000000 0.000000 
#    y 0.000000 3.521500 0.000000 
#    z 0.000000 0.000000 3.890920 
# 
# 
# High freq. dielectric constant tensor:
#      x y z
#    x 1.770580 0.000000 0.000000 
#    y 0.000000 1.770580 0.000000 
#    z 0.000000 0.000000 1.813460 
# 
# From -- ./inp_files/7964.got.cif
#   From: 2010.03.12/outbox.cif.g09.slc.cpg/sg138_4_cif.got.tgz:7964.got - 2010.04.08 09:41:05.
