data_PCOD8318045
_publ_section_title
;
Structure prediction by ZEFSAII (Michael W. Deem and Ramdas Pophale) SiO2 
 PCOD8318045
Probable space group: P 42/M N M
;
_chemical_formula_sum "Si O2"
_cell_formula_units_Z 96
_cell_length_a 23.985530
_cell_length_b 23.985530
_cell_length_c 8.760002
_cell_angle_alpha 90.000000
_cell_angle_beta 90.000000
_cell_angle_gamma 90.000000
_cell_volume 5039.678639
_symmetry_space_group_name_H-M "P 42/M N M"
_symmetry_group_IT_number 136
_symmetry_cell_setting 'tetragonal'
loop_
_space_group_symop_operation_xyz
x,y,z
1/2-y,1/2+x,1/2+z
-x,-y,z
1/2+y,1/2-x,1/2+z
1/2+x,1/2-y,1/2-z
1/2-x,1/2+y,1/2-z
y,x,-z
-y,-x,-z
-x,-y,-z
1/2+y,1/2-x,1/2-z
x,y,-z
1/2-y,1/2+x,1/2-z
1/2-x,1/2+y,1/2+z
1/2+x,1/2-y,1/2+z
-y,-x,z
y,x,z
loop_
_atom_site_type_symbol
_atom_site_label
_atom_site_fract_x
_atom_site_fract_y
_atom_site_fract_z
Si Si1 0.135005 0.221673 0.181514
Si Si2 0.012186 0.207777 0.181134
Si Si3 0.187978 0.721247 0.321811
Si Si4 0.589999 0.498961 0.822069
Si Si5 0.421963 0.967700 0.817385
Si Si6 0.428720 0.199434 0.319947
O O1 0.167243 0.167243 0.244240
O O2 0.073119 0.221389 0.249966
O O3 0.167631 0.276920 0.233771
O O4 0.134272 0.219795 0.000000
O O5 0.992954 0.146679 0.230249
O O6 0.971734 0.255269 0.248184
O O7 0.013152 0.209705 0.000000
O O8 0.174088 0.717395 0.500000
O O9 0.222303 0.777698 0.286224
O O10 0.131650 0.720426 0.227924
O O11 0.556970 0.443030 0.770526
O O12 0.552422 0.552422 0.785014
O O13 0.603740 0.495663 0.000000
O O14 0.469434 0.928377 0.745082
O O15 0.362448 0.943904 0.760342
O O16 0.427562 0.968165 0.000000
O O17 0.432575 0.199111 0.500000
#
# Coordination Sequence:
#
# PCOD8318045 Si02
#       6
#    16  16  16  16  16  16
#     4   8  15  30  54  80 101 127 169 220 265 304
#     4  10  20  34  53  79 108 138 174 218 266 317
#     4   9  19  36  58  80 102 139 187 223 262 320
#     4   9  19  36  55  76 107 144 178 218 268 317
#     4  10  21  38  59  83 110 143 184 228 278 332
#     4  10  23  37  52  81 115 146 179 220 274 326
#
# _framework density 19.048833999999999
#
# number of rings (size 3 to 8) (size 9 to 14) (size 15 to 20)
#    0.000    2.667    0.000    3.000    2.333    4.333 
#    0.000    5.000    0.000    1.000    0.000    0.000 
#    0.000    0.000    0.000    0.000    0.000    0.000 
#
# Total GULP energy -1190209.282671 kJ/mol
# GULP energy per Si atom -12398.013361 kJ/mol
# Density = 1.900548 g / cm^3
# Si number density = 19.048834 Si / 1000 Ang^3
#
#
#
# Elastic Constant Matrix: (Units=GPa)
#
#
# Indices 1 2 3 4 5 6 
#
# 1 138.6078 73.4241 17.7301 0.0000 0.0000 0.0000
# 2 73.4241 138.6078 17.7301 0.0000 0.0000 0.0000
# 3 17.7301 17.7301 22.0399 0.0000 0.0000 0.0000
# 4 0.0000 0.0000 0.0000 26.7937 0.0000 0.0000
# 5 0.0000 0.0000 0.0000 0.0000 26.7937 0.0000
# 6 0.0000 0.0000 0.0000 0.0000 0.0000 24.3750
#
#
#
# Elastic Compliance Matrix: (Units=1/GPa)
#
#
# Indices 1 2 3 4 5 6 
#
# 1 0.010395 -0.004946 -0.004384 0.000000 0.000000 0.000000
# 2 -0.004946 0.010395 -0.004384 0.000000 0.000000 0.000000
# 3 -0.004384 -0.004384 0.052426 0.000000 0.000000 0.000000
# 4 0.000000 0.000000 0.000000 0.037322 0.000000 0.000000
# 5 0.000000 0.000000 0.000000 0.000000 0.037322 0.000000
# 6 0.000000 0.000000 0.000000 0.000000 0.000000 0.041026
#
#
# Mechanical properties :
#
#
# Convention : Reuss Voigt Hill
#
# Bulk Modulus (GPa) = 21.83928 57.44713 39.64321
# Shear Modulus (GPa) = 21.59114 28.28389 24.93752
#
# Velocity S-wave (km/s) = 3.37035 3.85750 3.62212
# Velocity P-wave (km/s) = 5.16095 7.07557 6.19270
#
# Compressibility (1/GPa) = 0.04578905
#
# Stress axis : x y z
#
# Youngs Moduli (GPa) = 96.19693 96.19693 19.07468
#
# Poissons Ratio (x) = 0.47578 0.08362
# Poissons Ratio (y) = 0.47578 0.08362
# Poissons Ratio (z) = 0.42171 0.42171
#
# Static dielectric constant tensor:
#      x y z
#    x 3.687460 0.000000 0.000000 
#    y 0.000000 3.687460 0.000000 
#    z 0.000000 0.000000 3.144630 
# 
# 
# High freq. dielectric constant tensor:
#      x y z
#    x 1.748830 0.000000 0.000000 
#    y 0.000000 1.748830 0.000000 
#    z 0.000000 0.000000 1.712330 
# 
# From -- ./inp_files/1975.got.cif
#   From: 2010.03.12/outbox.cif.g09.slc.cpg/sg136_1_cif.got.tgz:1975.got - 2010.04.06 18:39:43.
