data_PCOD8318334
_publ_section_title
;
Structure prediction by ZEFSAII (Michael W. Deem and Ramdas Pophale) SiO2 
 PCOD8318334
Probable space group: P 42/M N M
;
_chemical_formula_sum "Si O2"
_cell_formula_units_Z 72
_cell_length_a 23.057662
_cell_length_b 23.057662
_cell_length_c 9.833574
_cell_angle_alpha 90.000000
_cell_angle_beta 90.000000
_cell_angle_gamma 90.000000
_cell_volume 5228.076425
_symmetry_space_group_name_H-M "P 42/M N M"
_symmetry_group_IT_number 136
_symmetry_cell_setting 'tetragonal'
loop_
_space_group_symop_operation_xyz
x,y,z
1/2-y,1/2+x,1/2+z
-x,-y,z
1/2+y,1/2-x,1/2+z
1/2+x,1/2-y,1/2-z
1/2-x,1/2+y,1/2-z
y,x,-z
-y,-x,-z
-x,-y,-z
1/2+y,1/2-x,1/2-z
x,y,-z
1/2-y,1/2+x,1/2-z
1/2-x,1/2+y,1/2+z
1/2+x,1/2-y,1/2+z
-y,-x,z
y,x,z
loop_
_atom_site_type_symbol
_atom_site_label
_atom_site_fract_x
_atom_site_fract_y
_atom_site_fract_z
Si Si1 0.546208 0.546208 0.837673
Si Si2 0.018241 0.826607 0.338283
Si Si3 0.299830 0.608406 0.838195
Si Si4 0.731491 0.634964 0.156750
Si Si5 0.695848 0.206622 0.848497
O O1 0.500000 0.500000 0.782027
O O2 0.609089 0.528807 0.779934
O O3 0.546898 0.546898 0.000000
O O4 0.017053 0.829678 0.500000
O O5 0.070488 0.784671 0.292193
O O6 0.957072 0.802786 0.280384
O O7 0.353834 0.646167 0.780118
O O8 0.238266 0.637159 0.795619
O O9 0.304112 0.608270 0.000000
O O10 0.675544 0.675544 0.178341
O O11 0.786379 0.655736 0.245284
O O12 0.750884 0.635407 0.000000
O O13 0.745408 0.254593 0.853495
O O14 0.687040 0.180449 0.000000
#
# Coordination Sequence:
#
# PCOD8318334 Si02
#       5
#     8  16  16  16  16
#     4   9  14  18  26  44  73 105 127 145 173 210
#     4   9  14  20  30  48  74  99 122 147 178 214
#     4   8  13  21  33  49  69  95 124 152 179 208
#     4   9  15  23  35  52  74  96 117 145 181 217
#     4   8  14  24  37  51  67  90 122 153 179 210
#
# _framework density 13.771796999999999
#
# number of rings (size 3 to 8) (size 9 to 14) (size 15 to 20)
#    0.000    3.444    1.111    2.000    0.000    2.667 
#    0.000    0.000    0.000    1.333    0.000    0.000 
#    0.000    4.444    0.000   11.111    0.000    0.444 
#
# Total GULP energy -892234.301480 kJ/mol
# GULP energy per Si atom -12392.143076 kJ/mol
# Density = 1.374045 g / cm^3
# Si number density = 13.771797 Si / 1000 Ang^3
#
#
#
# Elastic Constant Matrix: (Units=GPa)
#
#
# Indices 1 2 3 4 5 6 
#
# 1 94.0977 72.5107 29.1088 0.0000 0.0000 0.0000
# 2 72.5107 94.0977 29.1088 0.0000 0.0000 0.0000
# 3 29.1088 29.1088 28.0454 0.0000 0.0000 0.0000
# 4 0.0000 0.0000 0.0000 12.7933 0.0000 0.0000
# 5 0.0000 0.0000 0.0000 0.0000 12.7933 0.0000
# 6 0.0000 0.0000 0.0000 0.0000 0.0000 25.7929
#
#
#
# Elastic Compliance Matrix: (Units=1/GPa)
#
#
# Indices 1 2 3 4 5 6 
#
# 1 0.027871 -0.018453 -0.009775 0.000000 0.000000 0.000000
# 2 -0.018453 0.027871 -0.009775 0.000000 0.000000 0.000000
# 3 -0.009775 -0.009775 0.055947 0.000000 0.000000 0.000000
# 4 0.000000 0.000000 0.000000 0.078166 0.000000 0.000000
# 5 0.000000 0.000000 0.000000 0.000000 0.078166 0.000000
# 6 0.000000 0.000000 0.000000 0.000000 0.000000 0.038770
#
#
# Mechanical properties :
#
#
# Convention : Reuss Voigt Hill
#
# Bulk Modulus (GPa) = 28.02416 53.07747 40.55081
# Shear Modulus (GPa) = 12.66816 15.97676 14.32246
#
# Velocity S-wave (km/s) = 3.03621 3.40973 3.22838
# Velocity P-wave (km/s) = 5.71704 7.35704 6.58827
#
# Compressibility (1/GPa) = 0.03568350
#
# Stress axis : x y z
#
# Youngs Moduli (GPa) = 35.87977 35.87977 17.87404
#
# Poissons Ratio (x) = 0.66210 0.17471
# Poissons Ratio (y) = 0.66210 0.17471
# Poissons Ratio (z) = 0.35071 0.35071
#
# Static dielectric constant tensor:
#      x y z
#    x 2.843680 0.000000 0.000000 
#    y 0.000000 2.843680 0.000000 
#    z 0.000000 0.000000 2.382300 
# 
# 
# High freq. dielectric constant tensor:
#      x y z
#    x 1.510690 0.000000 0.000000 
#    y 0.000000 1.510690 0.000000 
#    z 0.000000 0.000000 1.474230 
# 
# From -- ./inp_files/1713.got.cif
#   From: 2010.03.12/outbox.cif.g09.slc.cpg/sg136_1_cif.got.tgz:1713.got - 2010.04.06 18:39:43.
