data_PCOD8318670
_publ_section_title
;
Structure prediction by ZEFSAII (Michael W. Deem and Ramdas Pophale) SiO2 
 PCOD8318670
Probable space group: P 42/N M C
;
_chemical_formula_sum "Si O2"
_cell_formula_units_Z 96
_cell_length_a 23.099904
_cell_length_b 23.099904
_cell_length_c 10.942053
_cell_angle_alpha 90.000000
_cell_angle_beta 90.000000
_cell_angle_gamma 90.000000
_cell_volume 5838.740371
_symmetry_space_group_name_H-M "P 42/N M C"
_symmetry_group_IT_number 137
_space_group.IT_coordinate_system_code '2'
_symmetry_cell_setting 'tetragonal'
loop_
_space_group_symop_operation_xyz
x,y,z
1/2-y,x,1/2+z
1/2-x,1/2-y,z
y,1/2-x,1/2+z
1/2+x,-y,-z
-x,1/2+y,-z
1/2+y,1/2+x,1/2-z
-y,-x,1/2-z
-x,-y,-z
1/2+y,-x,1/2-z
1/2+x,1/2+y,-z
-y,1/2+x,1/2-z
1/2-x,y,z
x,1/2-y,z
1/2-y,1/2-x,1/2+z
y,x,1/2+z
loop_
_atom_site_type_symbol
_atom_site_label
_atom_site_fract_x
_atom_site_fract_y
_atom_site_fract_z
Si Si1 0.983479 0.913505 0.436316
Si Si2 0.686546 0.998580 0.767439
Si Si3 0.638706 0.814391 0.255691
Si Si4 0.815175 0.498345 0.495855
Si Si5 0.969819 0.069398 0.125499
Si Si6 0.638760 0.874919 0.504662
O O1 0.017455 0.866416 0.353887
O O2 0.930602 0.884417 0.510054
O O3 0.031838 0.938041 0.524315
O O4 0.955065 0.964986 0.355152
O O5 0.750000 0.017247 0.819804
O O6 0.684204 0.930013 0.756931
O O7 0.677864 0.026447 0.633558
O O8 0.664012 0.750000 0.249859
O O9 0.660276 0.841975 0.382842
O O10 0.659498 0.847093 0.131198
O O11 0.750000 0.485562 0.446969
O O12 0.863006 0.468545 0.410276
O O13 0.824876 0.566596 0.500738
O O14 0.934669 0.065331 0.250000
#
# Coordination Sequence:
#
# PCOD8318670 Si02
#       6
#    16  16  16  16  16  16
#     4   9  19  28  46  71 102 125 157 199 244 295
#     4   8  15  29  48  68  93 126 163 195 236 287
#     4   9  17  30  47  67  90 121 164 206 244 288
#     4   9  18  32  49  67  90 127 164 198 240 293
#     4  10  21  29  44  71 104 132 158 193 245 300
#     4   9  17  29  51  68  91 123 160 203 245 293
#
# _framework density 16.441903
#
# number of rings (size 3 to 8) (size 9 to 14) (size 15 to 20)
#    0.000    3.000    0.000    1.500   14.000    0.000 
#    0.000    2.500    0.000    4.000    0.000    0.000 
#    0.000    2.333    0.000    7.333    0.000    0.833 
#
# Total GULP energy -1189587.700630 kJ/mol
# GULP energy per Si atom -12391.538548 kJ/mol
# Density = 1.640448 g / cm^3
# Si number density = 16.441903 Si / 1000 Ang^3
#
#
#
# Elastic Constant Matrix: (Units=GPa)
#
#
# Indices 1 2 3 4 5 6 
#
# 1 75.4332 28.6967 39.4596 0.0000 0.0000 0.0000
# 2 28.6967 75.4328 39.4585 0.0000 0.0000 0.0000
# 3 39.4596 39.4585 99.3554 0.0000 0.0000 0.0000
# 4 0.0000 0.0000 0.0000 21.2418 0.0000 0.0000
# 5 0.0000 0.0000 0.0000 0.0000 21.2415 0.0000
# 6 0.0000 0.0000 0.0000 0.0000 0.0000 7.9996
#
#
#
# Elastic Compliance Matrix: (Units=1/GPa)
#
#
# Indices 1 2 3 4 5 6 
#
# 1 0.017568 -0.003829 -0.005456 0.000000 0.000000 0.000000
# 2 -0.003829 0.017568 -0.005456 0.000000 0.000000 0.000000
# 3 -0.005456 -0.005456 0.014399 0.000000 0.000000 0.000000
# 4 0.000000 0.000000 0.000000 0.047077 0.000000 0.000000
# 5 0.000000 0.000000 0.000000 0.000000 0.047078 0.000000
# 6 0.000000 0.000000 0.000000 0.000000 0.000000 0.125006
#
#
# Mechanical properties :
#
#
# Convention : Reuss Voigt Hill
#
# Bulk Modulus (GPa) = 49.87313 51.71679 50.79496
# Shear Modulus (GPa) = 16.40086 19.60369 18.00227
#
# Velocity S-wave (km/s) = 3.16175 3.45672 3.31252
# Velocity P-wave (km/s) = 6.61269 6.88872 6.75212
#
# Compressibility (1/GPa) = 0.02005088
#
# Stress axis : x y z
#
# Youngs Moduli (GPa) = 56.92264 56.92304 69.45008
#
# Poissons Ratio (x) = 0.21796 0.37895
# Poissons Ratio (y) = 0.21796 0.37893
# Poissons Ratio (z) = 0.31060 0.31058
#
# Static dielectric constant tensor:
#      x y z
#    x 2.980970 0.000000 0.000000 
#    y 0.000000 2.980970 0.000000 
#    z 0.000000 0.000000 3.371160 
# 
# 
# High freq. dielectric constant tensor:
#      x y z
#    x 1.601710 0.000000 0.000000 
#    y 0.000000 1.601710 0.000000 
#    z 0.000000 0.000000 1.637430 
# 
# From -- ./inp_files/3743.got.cif
#   From: 2010.03.12/outbox.cif.g09.slc.cpg/sg137_2_cif.got.tgz:3743.got - 2010.04.08 09:34:49.
