data_PCOD8318147
_publ_section_title
;
Structure prediction by ZEFSAII (Michael W. Deem and Ramdas Pophale) SiO2 
 PCOD8318147
Probable space group: P 42/M N M
;
_chemical_formula_sum "Si O2"
_cell_formula_units_Z 60
_cell_length_a 11.102615
_cell_length_b 11.102615
_cell_length_c 24.321432
_cell_angle_alpha 90.000000
_cell_angle_beta 90.000000
_cell_angle_gamma 90.000000
_cell_volume 2998.055735
_symmetry_space_group_name_H-M "P 42/M N M"
_symmetry_group_IT_number 136
_symmetry_cell_setting 'tetragonal'
loop_
_space_group_symop_operation_xyz
x,y,z
1/2-y,1/2+x,1/2+z
-x,-y,z
1/2+y,1/2-x,1/2+z
1/2+x,1/2-y,1/2-z
1/2-x,1/2+y,1/2-z
y,x,-z
-y,-x,-z
-x,-y,-z
1/2+y,1/2-x,1/2-z
x,y,-z
1/2-y,1/2+x,1/2-z
1/2-x,1/2+y,1/2+z
1/2+x,1/2-y,1/2+z
-y,-x,z
y,x,z
loop_
_atom_site_type_symbol
_atom_site_label
_atom_site_fract_x
_atom_site_fract_y
_atom_site_fract_z
Si Si1 0.761471 0.238530 0.384493
Si Si2 0.467049 0.178628 0.270084
Si Si3 0.766563 0.766563 0.000000
Si Si4 0.357168 0.992414 0.889201
Si Si5 0.449545 0.254440 0.500000
Si Si6 0.404416 0.404416 0.206438
O O1 0.795604 0.204397 0.447500
O O2 0.619576 0.210939 0.379340
O O3 0.841915 0.158086 0.345137
O O4 0.601167 0.123238 0.267861
O O5 0.419902 0.175020 0.333207
O O6 0.472768 0.311211 0.245688
O O7 0.908511 0.752717 0.000000
O O8 0.500000 0.000000 0.895391
O O9 0.312553 0.916320 0.942585
O O10 0.384977 0.384977 0.500000
O O11 0.500000 0.500000 0.183331
#
# Coordination Sequence:
#
# PCOD8318147 Si02
#       6
#     8  16   4  16   8   8
#     4  10  20  41  63  86 122 159 212 248 299 377
#     4  11  22  42  64  87 122 168 209 251 318 384
#     4   8  19  38  69  84 120 174 202 244 311 379
#     4  11  21  40  63  86 118 166 206 252 308 378
#     4  10  22  37  59  96 126 152 203 262 314 367
#     4  12  26  36  60  95 131 156 206 274 316 366
#
# _framework density 20.012971
#
# number of rings (size 3 to 8) (size 9 to 14) (size 15 to 20)
#    0.000    1.333    5.333    0.600    5.600    0.000 
#    0.000    1.667    0.000    0.000    0.000    0.000 
#    0.000    0.000    0.000    0.000    0.000    0.000 
#
# Total GULP energy -743423.638577 kJ/mol
# GULP energy per Si atom -12390.393976 kJ/mol
# Density = 1.996742 g / cm^3
# Si number density = 20.012971 Si / 1000 Ang^3
#
#
#
# Elastic Constant Matrix: (Units=GPa)
#
#
# Indices 1 2 3 4 5 6 
#
# 1 83.6422 20.5816 22.9576 0.0000 0.0000 0.0000
# 2 20.5816 83.6422 22.9576 0.0000 0.0000 0.0000
# 3 22.9576 22.9576 184.4836 0.0000 0.0000 0.0000
# 4 0.0000 0.0000 0.0000 23.7713 0.0000 0.0000
# 5 0.0000 0.0000 0.0000 0.0000 23.7713 0.0000
# 6 0.0000 0.0000 0.0000 0.0000 0.0000 21.7409
#
#
#
# Elastic Compliance Matrix: (Units=1/GPa)
#
#
# Indices 1 2 3 4 5 6 
#
# 1 0.013005 -0.002853 -0.001263 0.000000 0.000000 0.000000
# 2 -0.002853 0.013005 -0.001263 0.000000 0.000000 0.000000
# 3 -0.001263 -0.001263 0.005735 0.000000 0.000000 0.000000
# 4 0.000000 0.000000 0.000000 0.042067 0.000000 0.000000
# 5 0.000000 0.000000 0.000000 0.000000 0.042067 0.000000
# 6 0.000000 0.000000 0.000000 0.000000 0.000000 0.045996
#
#
# Mechanical properties :
#
#
# Convention : Reuss Voigt Hill
#
# Bulk Modulus (GPa) = 47.65434 53.86243 50.75838
# Shear Modulus (GPa) = 27.83508 32.87479 30.35494
#
# Velocity S-wave (km/s) = 3.73346 4.05739 3.89879
# Velocity P-wave (km/s) = 6.51524 6.99443 6.75908
#
# Compressibility (1/GPa) = 0.02098445
#
# Stress axis : x y z
#
# Youngs Moduli (GPa) = 76.89640 76.89640 174.36974
#
# Poissons Ratio (x) = 0.21941 0.22027
# Poissons Ratio (y) = 0.21941 0.22027
# Poissons Ratio (z) = 0.09714 0.09714
#
# Static dielectric constant tensor:
#      x y z
#    x 3.681560 0.000000 0.000000 
#    y 0.000000 3.681560 0.000000 
#    z 0.000000 0.000000 4.384150 
# 
# 
# High freq. dielectric constant tensor:
#      x y z
#    x 1.758980 0.000000 0.000000 
#    y 0.000000 1.758980 0.000000 
#    z 0.000000 0.000000 1.813930 
# 
# From -- ./inp_files/8193.got.cif
#   From: 2010.03.12/outbox.cif.g09.slc.cpg/sg136_5_cif.got.tgz:8193.got - 2010.04.06 18:39:43.
