data_PCOD8318352
_publ_section_title
;
Structure prediction by ZEFSAII (Michael W. Deem and Ramdas Pophale) SiO2 
 PCOD8318352
Probable space group: P 42/M N M
;
_chemical_formula_sum "Si O2"
_cell_formula_units_Z 72
_cell_length_a 21.112539
_cell_length_b 21.112539
_cell_length_c 9.656194
_cell_angle_alpha 90.000000
_cell_angle_beta 90.000000
_cell_angle_gamma 90.000000
_cell_volume 4304.145183
_symmetry_space_group_name_H-M "P 42/M N M"
_symmetry_group_IT_number 136
_symmetry_cell_setting 'tetragonal'
loop_
_space_group_symop_operation_xyz
x,y,z
1/2-y,1/2+x,1/2+z
-x,-y,z
1/2+y,1/2-x,1/2+z
1/2+x,1/2-y,1/2-z
1/2-x,1/2+y,1/2-z
y,x,-z
-y,-x,-z
-x,-y,-z
1/2+y,1/2-x,1/2-z
x,y,-z
1/2-y,1/2+x,1/2-z
1/2-x,1/2+y,1/2+z
1/2+x,1/2-y,1/2+z
-y,-x,z
y,x,z
loop_
_atom_site_type_symbol
_atom_site_label
_atom_site_fract_x
_atom_site_fract_y
_atom_site_fract_z
Si Si1 0.025484 0.325001 0.661164
Si Si2 0.783599 0.117129 0.844324
Si Si3 0.683578 0.503904 0.837874
Si Si4 0.643402 0.091001 0.159795
Si Si5 0.948864 0.948864 0.663868
O O1 0.009414 0.333791 0.500000
O O2 0.030992 0.250124 0.698281
O O3 0.090941 0.357992 0.703062
O O4 0.971608 0.361161 0.747361
O O5 0.813594 0.186407 0.827501
O O6 0.709888 0.125105 0.809922
O O7 0.818903 0.070377 0.740206
O O8 0.792876 0.090587 0.000000
O O9 0.622862 0.463703 0.786164
O O10 0.678440 0.518156 0.000000
O O11 0.635897 0.070640 0.000000
O O12 0.952082 0.952082 0.500000
O O13 0.000000 0.000000 0.724020
#
# Coordination Sequence:
#
# PCOD8318352 Si02
#       5
#    16  16  16  16   8
#     4   9  18  32  48  68  92 118 153 189 226 272
#     4   9  17  30  47  67  90 119 153 186 223 266
#     4   9  17  30  47  67  92 121 150 187 228 267
#     4   9  18  32  48  67  92 120 149 187 230 270
#     4   9  16  26  43  69  95 119 149 183 225 270
#
# _framework density 16.728059999999999
#
# number of rings (size 3 to 8) (size 9 to 14) (size 15 to 20)
#    0.000    3.000    0.000    0.667    0.000    2.667 
#    2.000    2.778    0.000    2.000    0.000    0.000 
#    0.000    0.000    0.000    0.000    0.000    0.000 
#
# Total GULP energy -892558.523717 kJ/mol
# GULP energy per Si atom -12396.646163 kJ/mol
# Density = 1.668999 g / cm^3
# Si number density = 16.728060 Si / 1000 Ang^3
#
#
#
# Elastic Constant Matrix: (Units=GPa)
#
#
# Indices 1 2 3 4 5 6 
#
# 1 116.2360 85.1036 41.4980 0.0000 0.0000 0.0000
# 2 85.1036 116.2360 41.4980 0.0000 0.0000 0.0000
# 3 41.4980 41.4980 41.0611 0.0000 0.0000 0.0000
# 4 0.0000 0.0000 0.0000 22.9545 0.0000 0.0000
# 5 0.0000 0.0000 0.0000 0.0000 22.9545 0.0000
# 6 0.0000 0.0000 0.0000 0.0000 0.0000 32.5430
#
#
#
# Elastic Compliance Matrix: (Units=1/GPa)
#
#
# Indices 1 2 3 4 5 6 
#
# 1 0.020317 -0.011804 -0.008604 0.000000 0.000000 0.000000
# 2 -0.011804 0.020317 -0.008604 0.000000 0.000000 0.000000
# 3 -0.008604 -0.008604 0.041745 0.000000 0.000000 0.000000
# 4 0.000000 0.000000 0.000000 0.043565 0.000000 0.000000
# 5 0.000000 0.000000 0.000000 0.000000 0.043565 0.000000
# 6 0.000000 0.000000 0.000000 0.000000 0.000000 0.030729
#
#
# Mechanical properties :
#
#
# Convention : Reuss Voigt Hill
#
# Bulk Modulus (GPa) = 41.05781 67.74802 54.40291
# Shear Modulus (GPa) = 18.77021 22.71929 20.74475
#
# Velocity S-wave (km/s) = 3.35338 3.68931 3.52535
# Velocity P-wave (km/s) = 6.29215 7.66391 7.01166
#
# Compressibility (1/GPa) = 0.02435590
#
# Stress axis : x y z
#
# Youngs Moduli (GPa) = 49.21941 49.21941 23.95483
#
# Poissons Ratio (x) = 0.58097 0.20611
# Poissons Ratio (y) = 0.58097 0.20611
# Poissons Ratio (z) = 0.42349 0.42349
#
# Static dielectric constant tensor:
#      x y z
#    x 3.213040 0.000000 0.000000 
#    y 0.000000 3.213040 0.000000 
#    z 0.000000 0.000000 3.089790 
# 
# 
# High freq. dielectric constant tensor:
#      x y z
#    x 1.642330 0.000000 0.000000 
#    y 0.000000 1.642330 0.000000 
#    z 0.000000 0.000000 1.633420 
# 
# From -- ./inp_files/1530.got.cif
#   From: 2010.03.12/outbox.cif.g09.slc.cpg/sg136_1_cif.got.tgz:1530.got - 2010.04.06 18:39:43.
