data_PCOD8318629
_publ_section_title
;
Structure prediction by ZEFSAII (Michael W. Deem and Ramdas Pophale) SiO2 
 PCOD8318629
Probable space group: P 42/N M C
;
_chemical_formula_sum "Si O2"
_cell_formula_units_Z 72
_cell_length_a 18.501321
_cell_length_b 18.501321
_cell_length_c 10.767178
_cell_angle_alpha 90.000000
_cell_angle_beta 90.000000
_cell_angle_gamma 90.000000
_cell_volume 3685.592957
_symmetry_space_group_name_H-M "P 42/N M C"
_symmetry_group_IT_number 137
_space_group.IT_coordinate_system_code '2'
_symmetry_cell_setting 'tetragonal'
loop_
_space_group_symop_operation_xyz
x,y,z
1/2-y,x,1/2+z
1/2-x,1/2-y,z
y,1/2-x,1/2+z
1/2+x,-y,-z
-x,1/2+y,-z
1/2+y,1/2+x,1/2-z
-y,-x,1/2-z
-x,-y,-z
1/2+y,-x,1/2-z
1/2+x,1/2+y,-z
-y,1/2+x,1/2-z
1/2-x,y,z
x,1/2-y,z
1/2-y,1/2-x,1/2+z
y,x,1/2+z
loop_
_atom_site_type_symbol
_atom_site_label
_atom_site_fract_x
_atom_site_fract_y
_atom_site_fract_z
Si Si1 0.167628 0.922029 0.154125
Si Si2 0.833497 0.589684 0.811869
Si Si3 0.664373 0.578098 0.530159
Si Si4 0.671697 0.328304 0.250000
Si Si5 0.083821 0.668713 0.979859
O O1 0.113822 0.886179 0.250000
O O2 0.250000 0.903917 0.187843
O O3 0.154503 0.006924 0.152679
O O4 0.145285 0.886785 0.024693
O O5 0.750000 0.611943 0.820651
O O6 0.860933 0.603976 0.668930
O O7 0.874660 0.635171 0.916383
O O8 0.750000 0.581533 0.523182
O O9 0.638332 0.495745 0.509299
O O10 0.750000 0.331242 0.179017
O O11 0.670055 0.399614 0.334560
O O12 0.091936 0.750000 0.036949
#
# Coordination Sequence:
#
# PCOD8318629 Si02
#       5
#    16  16  16   8  16
#     4  11  21  36  58  86 121 158 196 241 291 349
#     4  10  23  42  62  89 122 154 199 255 305 366
#     4  10  22  42  64  86 119 157 197 253 311 362
#     4   9  18  32  50  78 118 158 198 244 287 342
#     4  10  20  36  56  83 119 157 199 244 293 354
#
# _framework density 19.535526000000001
#
# number of rings (size 3 to 8) (size 9 to 14) (size 15 to 20)
#    0.000    1.889    2.222    1.333    0.000    6.444 
#    2.000    6.667    0.000    0.000    0.000    0.000 
#    0.000    0.000    0.000    0.000    0.000    0.000 
#
# Total GULP energy -891992.831295 kJ/mol
# GULP energy per Si atom -12388.789324 kJ/mol
# Density = 1.949106 g / cm^3
# Si number density = 19.535526 Si / 1000 Ang^3
#
#
#
# Elastic Constant Matrix: (Units=GPa)
#
#
# Indices 1 2 3 4 5 6 
#
# 1 50.6732 30.7479 42.8371 0.0000 0.0000 0.0000
# 2 30.7479 50.6695 42.8377 0.0000 0.0000 0.0000
# 3 42.8371 42.8377 130.1225 0.0000 0.0000 0.0000
# 4 0.0000 0.0000 0.0000 36.6196 0.0000 0.0000
# 5 0.0000 0.0000 0.0000 0.0000 36.6203 0.0000
# 6 0.0000 0.0000 0.0000 0.0000 0.0000 29.4533
#
#
#
# Elastic Compliance Matrix: (Units=1/GPa)
#
#
# Indices 1 2 3 4 5 6 
#
# 1 0.034490 -0.015700 -0.006186 0.000000 0.000000 0.000000
# 2 -0.015700 0.034494 -0.006187 0.000000 0.000000 0.000000
# 3 -0.006186 -0.006187 0.011758 0.000000 0.000000 0.000000
# 4 0.000000 0.000000 0.000000 0.027308 0.000000 0.000000
# 5 0.000000 0.000000 0.000000 0.000000 0.027307 0.000000
# 6 0.000000 0.000000 0.000000 0.000000 0.000000 0.033952
#
#
# Mechanical properties :
#
#
# Convention : Reuss Voigt Hill
#
# Bulk Modulus (GPa) = 40.65650 51.59009 46.12329
# Shear Modulus (GPa) = 21.39914 28.20813 24.80364
#
# Velocity S-wave (km/s) = 3.31327 3.80404 3.56711
# Velocity P-wave (km/s) = 5.95766 6.76461 6.37392
#
# Compressibility (1/GPa) = 0.02459631
#
# Stress axis : x y z
#
# Youngs Moduli (GPa) = 28.99387 28.99058 85.04617
#
# Poissons Ratio (x) = 0.45516 0.52607
# Poissons Ratio (y) = 0.45521 0.52620
# Poissons Ratio (z) = 0.17935 0.17937
#
# Static dielectric constant tensor:
#      x y z
#    x 2.954370 0.000000 0.000000 
#    y 0.000000 2.954630 0.000000 
#    z 0.000000 0.000000 3.918780 
# 
# 
# High freq. dielectric constant tensor:
#      x y z
#    x 1.754470 0.000000 0.000000 
#    y 0.000000 1.754470 0.000000 
#    z 0.000000 0.000000 1.766770 
# 
# From -- ./inp_files/3461.got.cif
#   From: 2010.03.12/outbox.cif.g09.slc.cpg/sg137_2_cif.got.tgz:3461.got - 2010.04.08 09:34:49.
