data_PCOD8318508
_publ_section_title
;
Structure prediction by ZEFSAII (Michael W. Deem and Ramdas Pophale) SiO2 
 PCOD8318508
Probable space group: P 42/N M C
;
_chemical_formula_sum "Si O2"
_cell_formula_units_Z 112
_cell_length_a 15.215990
_cell_length_b 15.215990
_cell_length_c 26.202799
_cell_angle_alpha 90.000000
_cell_angle_beta 90.000000
_cell_angle_gamma 90.000000
_cell_volume 6066.638456
_symmetry_space_group_name_H-M "P 42/N M C"
_symmetry_group_IT_number 137
_space_group.IT_coordinate_system_code '2'
_symmetry_cell_setting 'tetragonal'
loop_
_space_group_symop_operation_xyz
x,y,z
1/2-y,x,1/2+z
1/2-x,1/2-y,z
y,1/2-x,1/2+z
1/2+x,-y,-z
-x,1/2+y,-z
1/2+y,1/2+x,1/2-z
-y,-x,1/2-z
-x,-y,-z
1/2+y,-x,1/2-z
1/2+x,1/2+y,-z
-y,1/2+x,1/2-z
1/2-x,y,z
x,1/2-y,z
1/2-y,1/2-x,1/2+z
y,x,1/2+z
loop_
_atom_site_type_symbol
_atom_site_label
_atom_site_fract_x
_atom_site_fract_y
_atom_site_fract_z
Si Si1 0.008369 0.346208 0.943046
Si Si2 0.429422 0.521970 0.893780
Si Si3 0.085242 0.346942 0.126346
Si Si4 0.346143 0.119923 0.022474
Si Si5 0.853406 0.022589 0.216634
Si Si6 0.345354 0.146128 0.233063
Si Si7 0.925317 0.349530 0.499657
O O1 0.003454 0.250000 0.915685
O O2 0.033961 0.422847 0.903135
O O3 0.082440 0.337991 0.985967
O O4 0.916081 0.359764 0.972376
O O5 0.509229 0.587103 0.887951
O O6 0.370195 0.528831 0.843482
O O7 0.371435 0.556658 0.940544
O O8 0.046212 0.250000 0.139203
O O9 0.149901 0.338141 0.078431
O O10 0.138221 0.383408 0.174811
O O11 0.250000 0.139401 0.998868
O O12 0.361015 0.016281 0.029469
O O13 0.904744 0.095257 0.250000
O O14 0.750000 0.035337 0.227735
O O15 0.888386 0.925834 0.232674
O O16 0.250000 0.106881 0.250339
O O17 0.340469 0.250000 0.237373
O O18 0.888301 0.250000 0.503442
#
# Coordination Sequence:
#
# PCOD8318508 Si02
#       7
#    16  16  16  16  16  16  16
#     4  11  22  37  56  81 116 154 193 234 276 336
#     4  11  21  38  56  83 115 150 191 235 283 337
#     4  11  19  31  55  82 109 140 180 232 287 335
#     4  10  19  33  54  80 110 143 182 233 288 337
#     4  11  23  39  61  85 115 152 190 236 288 345
#     4   9  19  35  55  82 111 140 181 233 287 341
#     4  10  20  36  56  79 112 154 194 233 278 331
#
# _framework density 18.461625000000002
#
# number of rings (size 3 to 8) (size 9 to 14) (size 15 to 20)
#    0.000    1.571    4.286    2.143    0.000    3.286 
#    0.000    0.000    0.000    2.571    0.000    0.000 
#    0.000    0.286    0.000    0.000    0.000    0.000 
#
# Total GULP energy -1388170.780899 kJ/mol
# GULP energy per Si atom -12394.381972 kJ/mol
# Density = 1.841961 g / cm^3
# Si number density = 18.461625 Si / 1000 Ang^3
#
#
#
# Elastic Constant Matrix: (Units=GPa)
#
#
# Indices 1 2 3 4 5 6 
#
# 1 105.2706 38.5726 17.7265 0.0000 0.0000 0.0000
# 2 38.5726 105.2710 17.7266 0.0000 0.0000 0.0000
# 3 17.7265 17.7266 71.8159 0.0000 0.0000 0.0000
# 4 0.0000 0.0000 0.0000 15.9646 0.0000 0.0000
# 5 0.0000 0.0000 0.0000 0.0000 15.9650 0.0000
# 6 0.0000 0.0000 0.0000 0.0000 0.0000 6.5932
#
#
#
# Elastic Compliance Matrix: (Units=1/GPa)
#
#
# Indices 1 2 3 4 5 6 
#
# 1 0.011198 -0.003795 -0.001827 0.000000 0.000000 0.000000
# 2 -0.003795 0.011198 -0.001827 0.000000 0.000000 0.000000
# 3 -0.001827 -0.001827 0.014826 0.000000 0.000000 0.000000
# 4 0.000000 0.000000 0.000000 0.062639 0.000000 0.000000
# 5 0.000000 0.000000 0.000000 0.000000 0.062637 0.000000
# 6 0.000000 0.000000 0.000000 0.000000 0.000000 0.151671
#
#
# Mechanical properties :
#
#
# Convention : Reuss Voigt Hill
#
# Bulk Modulus (GPa) = 44.79767 47.82322 46.31044
# Shear Modulus (GPa) = 14.85847 21.59335 18.22591
#
# Velocity S-wave (km/s) = 2.84003 3.42370 3.14543
# Velocity P-wave (km/s) = 5.92219 6.44898 6.19119
#
# Compressibility (1/GPa) = 0.02232259
#
# Stress axis : x y z
#
# Youngs Moduli (GPa) = 89.30445 89.30480 67.44687
#
# Poissons Ratio (x) = 0.33894 0.12323
# Poissons Ratio (y) = 0.33894 0.12324
# Poissons Ratio (z) = 0.16317 0.16317
#
# Static dielectric constant tensor:
#      x y z
#    x 3.506350 0.000000 0.000000 
#    y 0.000000 3.506350 0.000000 
#    z 0.000000 0.000000 3.660500 
# 
# 
# High freq. dielectric constant tensor:
#      x y z
#    x 1.713880 0.000000 0.000000 
#    y 0.000000 1.713880 0.000000 
#    z 0.000000 0.000000 1.703930 
# 
# From -- ./inp_files/9832.got.cif
#   From: 2010.03.12/outbox.cif.g09.slc.cpg/sg137_5_cif.got.tgz:9832.got - 2010.04.08 09:34:49.
