data_PCOD8318877
_publ_section_title
;
Structure prediction by ZEFSAII (Michael W. Deem and Ramdas Pophale) SiO2 
 PCOD8318877
Probable space group: P 42/N C M
;
_chemical_formula_sum "Si O2"
_cell_formula_units_Z 96
_cell_length_a 23.188908
_cell_length_b 23.188908
_cell_length_c 9.508222
_cell_angle_alpha 90.000000
_cell_angle_beta 90.000000
_cell_angle_gamma 90.000000
_cell_volume 5112.812994
_symmetry_space_group_name_H-M "P 42/N C M"
_symmetry_group_IT_number 138
_space_group.IT_coordinate_system_code '2'
_symmetry_cell_setting 'tetragonal'
loop_
_space_group_symop_operation_xyz
x,y,z
1/2-y,x,1/2+z
1/2-x,1/2-y,z
y,1/2-x,1/2+z
1/2+x,-y,1/2-z
-x,1/2+y,1/2-z
1/2+y,1/2+x,-z
-y,-x,-z
-x,-y,-z
1/2+y,-x,1/2-z
1/2+x,1/2+y,-z
-y,1/2+x,1/2-z
1/2-x,y,1/2+z
x,1/2-y,1/2+z
1/2-y,1/2-x,z
y,x,z
loop_
_atom_site_type_symbol
_atom_site_label
_atom_site_fract_x
_atom_site_fract_y
_atom_site_fract_z
Si Si1 0.312089 0.015821 0.975010
Si Si2 0.817242 0.979538 0.985657
Si Si3 0.394851 0.811086 0.416223
Si Si4 0.671321 0.920986 0.749641
Si Si5 0.191524 0.891670 0.415561
Si Si6 0.893348 0.801328 0.738399
O O1 0.244526 0.008764 0.943555
O O2 0.333223 0.070329 0.884310
O O3 0.339327 0.954465 0.930268
O O4 0.323239 0.028287 0.137319
O O5 0.854907 0.954727 0.114745
O O6 0.815571 0.927262 0.878715
O O7 0.837749 0.040030 0.918780
O O8 0.354919 0.854919 0.500000
O O9 0.390857 0.752041 0.502648
O O10 0.376407 0.802757 0.251657
O O11 0.627255 0.872745 0.801995
O O12 0.732289 0.888483 0.718946
O O13 0.153601 0.846400 0.500000
O O14 0.829499 0.829499 0.742604
#
# Coordination Sequence:
#
# PCOD8318877 Si02
#       6
#    16  16  16  16  16  16
#     4   9  19  34  55  79 110 151 199 232 276 339
#     4   9  19  34  55  79 110 151 199 232 276 339
#     4  11  23  39  63  91 120 151 188 232 281 336
#     4  10  20  33  53  83 114 150 194 244 294 346
#     4  11  23  39  63  91 120 151 188 232 281 336
#     4  10  18  33  55  81 112 150 192 242 292 346
#
# _framework density 18.776357000000001
#
# number of rings (size 3 to 8) (size 9 to 14) (size 15 to 20)
#    0.000    2.000    1.667    2.000    9.333    0.667 
#    0.000    1.667    0.000   12.000    0.000    0.000 
#    0.000    0.000    0.000    0.000    0.000    0.000 
#
# Total GULP energy -1189361.965688 kJ/mol
# GULP energy per Si atom -12389.187143 kJ/mol
# Density = 1.873362 g / cm^3
# Si number density = 18.776357 Si / 1000 Ang^3
#
#
#
# Elastic Constant Matrix: (Units=GPa)
#
#
# Indices 1 2 3 4 5 6 
#
# 1 69.8733 34.1613 24.4938 0.0000 0.0000 0.0000
# 2 34.1613 69.8748 24.4940 0.0000 0.0000 0.0000
# 3 24.4938 24.4940 129.9788 0.0000 0.0000 0.0000
# 4 0.0000 0.0000 0.0000 24.0517 0.0000 0.0000
# 5 0.0000 0.0000 0.0000 0.0000 24.0518 0.0000
# 6 0.0000 0.0000 0.0000 0.0000 0.0000 7.0403
#
#
#
# Elastic Compliance Matrix: (Units=1/GPa)
#
#
# Indices 1 2 3 4 5 6 
#
# 1 0.019275 -0.008727 -0.001988 0.000000 0.000000 0.000000
# 2 -0.008727 0.019274 -0.001988 0.000000 0.000000 0.000000
# 3 -0.001988 -0.001988 0.008443 0.000000 0.000000 0.000000
# 4 0.000000 0.000000 0.000000 0.041577 0.000000 0.000000
# 5 0.000000 0.000000 0.000000 0.000000 0.041577 0.000000
# 6 0.000000 0.000000 0.000000 0.000000 0.000000 0.142039
#
#
# Mechanical properties :
#
#
# Convention : Reuss Voigt Hill
#
# Bulk Modulus (GPa) = 46.32212 48.44723 47.38468
# Shear Modulus (GPa) = 16.40503 23.46730 19.93617
#
# Velocity S-wave (km/s) = 2.95906 3.53913 3.26202
# Velocity P-wave (km/s) = 6.03314 6.52372 6.28322
#
# Compressibility (1/GPa) = 0.02158796
#
# Stress axis : x y z
#
# Youngs Moduli (GPa) = 51.88108 51.88223 118.44517
#
# Poissons Ratio (x) = 0.45275 0.23544
# Poissons Ratio (y) = 0.45274 0.23544
# Poissons Ratio (z) = 0.10313 0.10313
#
# Static dielectric constant tensor:
#      x y z
#    x 3.398590 0.000000 0.000000 
#    y 0.000000 3.398590 0.000000 
#    z 0.000000 0.000000 3.667620 
# 
# 
# High freq. dielectric constant tensor:
#      x y z
#    x 1.705470 0.000000 0.000000 
#    y 0.000000 1.705470 0.000000 
#    z 0.000000 0.000000 1.754190 
# 
# From -- ./inp_files/1749.got.cif
#   From: 2010.03.12/outbox.cif.g09.slc.cpg/sg138_1_cif.got.tgz:1749.got - 2010.04.08 09:41:05.
