data_PCOD8318287
_publ_section_title
;
Structure prediction by ZEFSAII (Michael W. Deem and Ramdas Pophale) SiO2 
 PCOD8318287
Probable space group: P 42/M N M
;
_chemical_formula_sum "Si O2"
_cell_formula_units_Z 48
_cell_length_a 10.688585
_cell_length_b 10.688585
_cell_length_c 21.886715
_cell_angle_alpha 90.000000
_cell_angle_beta 90.000000
_cell_angle_gamma 90.000000
_cell_volume 2500.466344
_symmetry_space_group_name_H-M "P 42/M N M"
_symmetry_group_IT_number 136
_symmetry_cell_setting 'tetragonal'
loop_
_space_group_symop_operation_xyz
x,y,z
1/2-y,1/2+x,1/2+z
-x,-y,z
1/2+y,1/2-x,1/2+z
1/2+x,1/2-y,1/2-z
1/2-x,1/2+y,1/2-z
y,x,-z
-y,-x,-z
-x,-y,-z
1/2+y,1/2-x,1/2-z
x,y,-z
1/2-y,1/2+x,1/2-z
1/2-x,1/2+y,1/2+z
1/2+x,1/2-y,1/2+z
-y,-x,z
y,x,z
loop_
_atom_site_type_symbol
_atom_site_label
_atom_site_fract_x
_atom_site_fract_y
_atom_site_fract_z
Si Si1 0.923791 0.620455 0.326758
Si Si2 0.796568 0.004477 0.570026
Si Si3 0.998928 0.804689 0.220719
O O1 0.975197 0.673451 0.390601
O O2 0.940186 0.725081 0.275360
O O3 0.779972 0.571588 0.329587
O O4 0.000000 0.500000 0.307041
O O5 0.753042 0.011481 0.500000
O O6 0.892430 0.892430 0.580414
O O7 0.864864 0.135137 0.588452
O O8 0.884819 0.884819 0.190217
O O9 0.099515 0.900486 0.249531
#
# Coordination Sequence:
#
# PCOD8318287 Si02
#       3
#    16  16  16
#     4  12  22  35  55  83 114 150 184 241 286 340
#     4   9  19  37  61  86 112 147 191 238 286 337
#     4  11  22  36  55  79 112 152 191 234 284 339
#
# _framework density 19.19642
#
# number of rings (size 3 to 8) (size 9 to 14) (size 15 to 20)
#    0.000    1.333    3.333    5.000    0.000    4.667 
#    0.000    0.000    0.000    1.000    0.000    4.667 
#    0.000    0.000    0.000    0.000    0.000    0.000 
#
# Total GULP energy -594825.837128 kJ/mol
# GULP energy per Si atom -12392.204940 kJ/mol
# Density = 1.915273 g / cm^3
# Si number density = 19.196420 Si / 1000 Ang^3
#
#
#
# Elastic Constant Matrix: (Units=GPa)
#
#
# Indices 1 2 3 4 5 6 
#
# 1 123.9908 70.6120 43.4979 0.0000 0.0000 0.0000
# 2 70.6120 123.9908 43.4979 0.0000 0.0000 0.0000
# 3 43.4979 43.4979 79.8745 0.0000 0.0000 0.0000
# 4 0.0000 0.0000 0.0000 13.8991 0.0000 0.0000
# 5 0.0000 0.0000 0.0000 0.0000 13.8991 0.0000
# 6 0.0000 0.0000 0.0000 0.0000 0.0000 46.6547
#
#
#
# Elastic Compliance Matrix: (Units=1/GPa)
#
#
# Indices 1 2 3 4 5 6 
#
# 1 0.012763 -0.005971 -0.003699 0.000000 0.000000 0.000000
# 2 -0.005971 0.012763 -0.003699 0.000000 0.000000 0.000000
# 3 -0.003699 -0.003699 0.016548 0.000000 0.000000 0.000000
# 4 0.000000 0.000000 0.000000 0.071947 0.000000 0.000000
# 5 0.000000 0.000000 0.000000 0.000000 0.071947 0.000000
# 6 0.000000 0.000000 0.000000 0.000000 0.000000 0.021434
#
#
# Mechanical properties :
#
#
# Convention : Reuss Voigt Hill
#
# Bulk Modulus (GPa) = 65.20100 71.45240 68.32670
# Shear Modulus (GPa) = 20.89836 26.24045 23.56941
#
# Velocity S-wave (km/s) = 3.30306 3.70123 3.50780
# Velocity P-wave (km/s) = 6.97036 7.45440 7.21644
#
# Compressibility (1/GPa) = 0.01533719
#
# Stress axis : x y z
#
# Youngs Moduli (GPa) = 78.35060 78.35060 60.42902
#
# Poissons Ratio (x) = 0.46782 0.22352
# Poissons Ratio (y) = 0.46782 0.22352
# Poissons Ratio (z) = 0.28981 0.28981
#
# Static dielectric constant tensor:
#      x y z
#    x 3.886880 0.000000 0.000000 
#    y 0.000000 3.886880 0.000000 
#    z 0.000000 0.000000 3.254590 
# 
# 
# High freq. dielectric constant tensor:
#      x y z
#    x 1.757980 0.000000 0.000000 
#    y 0.000000 1.757980 0.000000 
#    z 0.000000 0.000000 1.703340 
# 
# From -- ./inp_files/5705.got.cif
#   From: 2010.03.12/outbox.cif.g09.slc.cpg/sg136_3_cif.got.tgz:5705.got - 2010.04.06 18:39:43.
