data_PCOD8318259
_publ_section_title
;
Structure prediction by ZEFSAII (Michael W. Deem and Ramdas Pophale) SiO2 
 PCOD8318259
Probable space group: P 42/M N M
;
_chemical_formula_sum "Si O2"
_cell_formula_units_Z 104
_cell_length_a 16.958594
_cell_length_b 16.958594
_cell_length_c 19.055309
_cell_angle_alpha 90.000000
_cell_angle_beta 90.000000
_cell_angle_gamma 90.000000
_cell_volume 5480.190830
_symmetry_space_group_name_H-M "P 42/M N M"
_symmetry_group_IT_number 136
_symmetry_cell_setting 'tetragonal'
loop_
_space_group_symop_operation_xyz
x,y,z
1/2-y,1/2+x,1/2+z
-x,-y,z
1/2+y,1/2-x,1/2+z
1/2+x,1/2-y,1/2-z
1/2-x,1/2+y,1/2-z
y,x,-z
-y,-x,-z
-x,-y,-z
1/2+y,1/2-x,1/2-z
x,y,-z
1/2-y,1/2+x,1/2-z
1/2-x,1/2+y,1/2+z
1/2+x,1/2-y,1/2+z
-y,-x,z
y,x,z
loop_
_atom_site_type_symbol
_atom_site_label
_atom_site_fract_x
_atom_site_fract_y
_atom_site_fract_z
Si Si1 0.015322 0.592953 0.342921
Si Si2 0.828428 0.411688 0.279329
Si Si3 0.025421 0.793947 0.178395
Si Si4 0.434327 0.434327 0.580199
Si Si5 0.056665 0.271772 0.580158
Si Si6 0.127846 0.997341 0.324156
Si Si7 0.701664 0.175428 0.838233
O O1 0.972357 0.627640 0.273939
O O2 0.988819 0.645437 0.409050
O O3 0.000000 0.500000 0.354266
O O4 0.108332 0.609497 0.338336
O O5 0.749222 0.441429 0.317124
O O6 0.800409 0.336196 0.235875
O O7 0.031283 0.855859 0.115710
O O8 0.082666 0.719510 0.162320
O O9 0.038982 0.837881 0.252207
O O10 0.500000 0.500000 0.586632
O O11 0.413954 0.413954 0.500000
O O12 0.052191 0.244969 0.500000
O O13 0.019682 0.200233 0.625176
O O14 0.146960 0.291599 0.599605
O O15 0.075574 0.075574 0.309408
O O16 0.071347 0.928654 0.356868
O O17 0.787189 0.212811 0.845874
#
# Coordination Sequence:
#
# PCOD8318259 Si02
#       7
#    16  16  16   8  16  16  16
#     4  11  18  35  60  85 120 160 202 255 316 378
#     4  11  18  32  60  92 115 151 198 257 311 366
#     4  12  21  38  65  94 122 158 208 259 316 384
#     4  11  26  46  66  90 129 175 216 264 320 383
#     4  11  25  40  56  87 131 173 211 259 320 384
#     4  11  22  39  66  95 122 162 217 269 321 383
#     4  11  21  34  55  86 122 157 198 254 317 369
#
# _framework density 18.977440000000001
#
# number of rings (size 3 to 8) (size 9 to 14) (size 15 to 20)
#    0.000    0.846    7.692    1.846    0.000    3.077 
#    0.000    1.538    0.000    0.000    0.000    0.000 
#    0.000    0.000    0.000    0.000    0.000    0.000 
#
# Total GULP energy -1288921.059267 kJ/mol
# GULP energy per Si atom -12393.471724 kJ/mol
# Density = 1.893425 g / cm^3
# Si number density = 18.977440 Si / 1000 Ang^3
#
#
#
# Elastic Constant Matrix: (Units=GPa)
#
#
# Indices 1 2 3 4 5 6 
#
# 1 87.2932 19.1349 39.9153 0.0000 0.0000 0.0000
# 2 19.1349 87.2932 39.9153 0.0000 0.0000 0.0000
# 3 39.9153 39.9153 108.9165 0.0000 0.0000 0.0000
# 4 0.0000 0.0000 0.0000 18.2995 0.0000 0.0000
# 5 0.0000 0.0000 0.0000 0.0000 18.2995 0.0000
# 6 0.0000 0.0000 0.0000 0.0000 0.0000 39.6111
#
#
#
# Elastic Compliance Matrix: (Units=1/GPa)
#
#
# Indices 1 2 3 4 5 6 
#
# 1 0.013815 -0.000857 -0.004749 0.000000 0.000000 0.000000
# 2 -0.000857 0.013815 -0.004749 0.000000 0.000000 0.000000
# 3 -0.004749 -0.004749 0.012662 0.000000 0.000000 0.000000
# 4 0.000000 0.000000 0.000000 0.054646 0.000000 0.000000
# 5 0.000000 0.000000 0.000000 0.000000 0.054646 0.000000
# 6 0.000000 0.000000 0.000000 0.000000 0.000000 0.025245
#
#
# Mechanical properties :
#
#
# Convention : Reuss Voigt Hill
#
# Bulk Modulus (GPa) = 51.06512 53.49265 52.27889
# Shear Modulus (GPa) = 24.74433 27.54449 26.14441
#
# Velocity S-wave (km/s) = 3.61485 3.81390 3.71571
# Velocity P-wave (km/s) = 6.66255 6.90240 6.78354
#
# Compressibility (1/GPa) = 0.01958284
#
# Stress axis : x y z
#
# Youngs Moduli (GPa) = 72.38566 72.38566 78.97646
#
# Poissons Ratio (x) = 0.06202 0.37504
# Poissons Ratio (y) = 0.06202 0.37504
# Poissons Ratio (z) = 0.34375 0.34375
#
# Static dielectric constant tensor:
#      x y z
#    x 3.707600 0.000000 0.000000 
#    y 0.000000 3.707600 0.000000 
#    z 0.000000 0.000000 3.219230 
# 
# 
# High freq. dielectric constant tensor:
#      x y z
#    x 1.749460 0.000000 0.000000 
#    y 0.000000 1.749460 0.000000 
#    z 0.000000 0.000000 1.696990 
# 
# From -- ./inp_files/6440.got.cif
#   From: 2010.03.12/outbox.cif.g09.slc.cpg/sg136_4_cif.got.tgz:6440.got - 2010.04.06 18:39:43.
