data_PCOD8318122
_publ_section_title
;
Structure prediction by ZEFSAII (Michael W. Deem and Ramdas Pophale) SiO2 
 PCOD8318122
Probable space group: P 42/M N M
;
_chemical_formula_sum "Si O2"
_cell_formula_units_Z 96
_cell_length_a 22.912781
_cell_length_b 22.912781
_cell_length_c 8.987848
_cell_angle_alpha 90.000000
_cell_angle_beta 90.000000
_cell_angle_gamma 90.000000
_cell_volume 4718.580053
_symmetry_space_group_name_H-M "P 42/M N M"
_symmetry_group_IT_number 136
_symmetry_cell_setting 'tetragonal'
loop_
_space_group_symop_operation_xyz
x,y,z
1/2-y,1/2+x,1/2+z
-x,-y,z
1/2+y,1/2-x,1/2+z
1/2+x,1/2-y,1/2-z
1/2-x,1/2+y,1/2-z
y,x,-z
-y,-x,-z
-x,-y,-z
1/2+y,1/2-x,1/2-z
x,y,-z
1/2-y,1/2+x,1/2-z
1/2-x,1/2+y,1/2+z
1/2+x,1/2-y,1/2+z
-y,-x,z
y,x,z
loop_
_atom_site_type_symbol
_atom_site_label
_atom_site_fract_x
_atom_site_fract_y
_atom_site_fract_z
Si Si1 0.333132 0.576349 0.829297
Si Si2 0.106828 0.795690 0.664516
Si Si3 0.216108 0.310805 0.675322
Si Si4 0.975472 0.584128 0.679038
Si Si5 0.526974 0.619802 0.324545
Si Si6 0.703350 0.913987 0.676049
O O1 0.356401 0.643600 0.815578
O O2 0.380215 0.538252 0.737913
O O3 0.267464 0.567080 0.764741
O O4 0.334949 0.556131 0.000000
O O5 0.083749 0.778864 0.500000
O O6 0.157633 0.842368 0.652776
O O7 0.130787 0.738890 0.746372
O O8 0.054615 0.820849 0.761778
O O9 0.218732 0.320876 0.500000
O O10 0.253826 0.253826 0.720039
O O11 0.151030 0.305300 0.737996
O O12 0.977987 0.576612 0.500000
O O13 0.928559 0.538481 0.747480
O O14 0.956256 0.650069 0.725244
O O15 0.526993 0.622140 0.500000
O O16 0.562484 0.562484 0.269636
O O17 0.706029 0.910640 0.500000
#
# Coordination Sequence:
#
# PCOD8318122 Si02
#       6
#    16  16  16  16  16  16
#     4  10  21  38  59  82 110 144 183 227 274 325
#     4   9  17  30  49  75 106 137 174 223 274 321
#     4   9  16  29  51  77 108 147 187 224 269 327
#     4  10  20  37  59  82 111 142 177 220 267 320
#     4  10  21  37  56  78 107 144 185 229 278 329
#     4   9  19  35  56  82 110 144 184 224 267 321
#
# _framework density 20.345103999999999
#
# number of rings (size 3 to 8) (size 9 to 14) (size 15 to 20)
#    0.000    2.500    0.000    2.500    0.000    7.000 
#    0.000    9.167    0.000    2.000    0.000    0.000 
#    0.000    0.000    0.000    0.000    0.000    0.000 
#
# Total GULP energy -1189746.960247 kJ/mol
# GULP energy per Si atom -12393.197503 kJ/mol
# Density = 2.029880 g / cm^3
# Si number density = 20.345104 Si / 1000 Ang^3
#
#
#
# Elastic Constant Matrix: (Units=GPa)
#
#
# Indices 1 2 3 4 5 6 
#
# 1 114.4943 54.6137 32.0341 0.0000 0.0000 0.0000
# 2 54.6137 114.4943 32.0341 0.0000 0.0000 0.0000
# 3 32.0341 32.0341 61.9336 0.0000 0.0000 0.0000
# 4 0.0000 0.0000 0.0000 23.4791 0.0000 0.0000
# 5 0.0000 0.0000 0.0000 0.0000 23.4791 0.0000
# 6 0.0000 0.0000 0.0000 0.0000 0.0000 31.3709
#
#
#
# Elastic Compliance Matrix: (Units=1/GPa)
#
#
# Indices 1 2 3 4 5 6 
#
# 1 0.012027 -0.004673 -0.003804 0.000000 0.000000 0.000000
# 2 -0.004673 0.012027 -0.003804 0.000000 0.000000 0.000000
# 3 -0.003804 -0.003804 0.020081 0.000000 0.000000 0.000000
# 4 0.000000 0.000000 0.000000 0.042591 0.000000 0.000000
# 5 0.000000 0.000000 0.000000 0.000000 0.042591 0.000000
# 6 0.000000 0.000000 0.000000 0.000000 0.000000 0.031877
#
#
# Mechanical properties :
#
#
# Convention : Reuss Voigt Hill
#
# Bulk Modulus (GPa) = 51.08686 58.69843 54.89265
# Shear Modulus (GPa) = 26.00364 27.14854 26.57609
#
# Velocity S-wave (km/s) = 3.57897 3.65691 3.61815
# Velocity P-wave (km/s) = 6.49949 6.83701 6.67038
#
# Compressibility (1/GPa) = 0.01957450
#
# Stress axis : x y z
#
# Youngs Moduli (GPa) = 83.14468 83.14468 49.79718
#
# Poissons Ratio (x) = 0.38851 0.18943
# Poissons Ratio (y) = 0.38851 0.18943
# Poissons Ratio (z) = 0.31628 0.31628
#
# Static dielectric constant tensor:
#      x y z
#    x 3.792880 0.000000 0.000000 
#    y 0.000000 3.792880 0.000000 
#    z 0.000000 0.000000 3.523560 
# 
# 
# High freq. dielectric constant tensor:
#      x y z
#    x 1.793630 0.000000 0.000000 
#    y 0.000000 1.793630 0.000000 
#    z 0.000000 0.000000 1.773430 
# 
# From -- ./inp_files/1926.got.cif
#   From: 2010.03.12/outbox.cif.g09.slc.cpg/sg136_1_cif.got.tgz:1926.got - 2010.04.06 18:39:43.
