data_PCOD8318006
_publ_section_title
;
Structure prediction by ZEFSAII (Michael W. Deem and Ramdas Pophale) SiO2 
 PCOD8318006
Probable space group: P 42/M N M
;
_chemical_formula_sum "Si O2"
_cell_formula_units_Z 128
_cell_length_a 18.077717
_cell_length_b 18.077717
_cell_length_c 22.300197
_cell_angle_alpha 90.000000
_cell_angle_beta 90.000000
_cell_angle_gamma 90.000000
_cell_volume 7287.790278
_symmetry_space_group_name_H-M "P 42/M N M"
_symmetry_group_IT_number 136
_symmetry_cell_setting 'tetragonal'
loop_
_space_group_symop_operation_xyz
x,y,z
1/2-y,1/2+x,1/2+z
-x,-y,z
1/2+y,1/2-x,1/2+z
1/2+x,1/2-y,1/2-z
1/2-x,1/2+y,1/2-z
y,x,-z
-y,-x,-z
-x,-y,-z
1/2+y,1/2-x,1/2-z
x,y,-z
1/2-y,1/2+x,1/2-z
1/2-x,1/2+y,1/2+z
1/2+x,1/2-y,1/2+z
-y,-x,z
y,x,z
loop_
_atom_site_type_symbol
_atom_site_label
_atom_site_fract_x
_atom_site_fract_y
_atom_site_fract_z
Si Si1 0.701375 0.992754 0.244429
Si Si2 0.371512 0.744772 0.329910
Si Si3 0.573273 0.307348 0.070909
Si Si4 0.168841 0.609388 0.145993
Si Si5 0.874202 0.645864 0.929397
Si Si6 0.788923 0.093041 0.570847
Si Si7 0.083325 0.493876 0.642377
Si Si8 0.341555 0.225883 0.256218
O O1 0.763722 0.947334 0.207454
O O2 0.680461 0.957065 0.307344
O O3 0.629064 0.993370 0.202909
O O4 0.734451 0.072537 0.258603
O O5 0.335776 0.664225 0.332020
O O6 0.382044 0.774242 0.397538
O O7 0.321258 0.804928 0.296379
O O8 0.621024 0.378977 0.092146
O O9 0.609221 0.232452 0.096322
O O10 0.488295 0.314666 0.093688
O O11 0.575869 0.299774 0.000000
O O12 0.087862 0.600674 0.115453
O O13 0.172508 0.687492 0.179916
O O14 0.796267 0.607832 0.910840
O O15 0.943387 0.596597 0.907889
O O16 0.879092 0.658783 0.000000
O O17 0.795900 0.095825 0.500000
O O18 0.843726 0.156275 0.598390
O O19 0.000000 0.500000 0.663636
O O20 0.307574 0.307574 0.258791
#
# Coordination Sequence:
#
# PCOD8318006 Si02
#       8
#    16  16  16  16  16  16  16  16
#     4   9  20  32  49  74  96 124 162 203 245 292
#     4   9  18  32  50  72  98 127 162 203 245 292
#     4  10  21  35  50  69  94 126 167 210 249 296
#     4  10  20  32  51  72  99 130 164 201 247 295
#     4  10  20  33  47  71 103 134 168 200 242 295
#     4   9  18  32  49  67  91 126 164 202 243 287
#     4  10  21  30  48  72 102 132 163 201 240 292
#     4   9  18  33  52  73  96 126 162 201 247 294
#
# _framework density 17.563623
#
# number of rings (size 3 to 8) (size 9 to 14) (size 15 to 20)
#    0.000    2.500    0.000    1.500    8.750    2.250 
#    0.000    1.250    0.000    0.375    0.000    0.000 
#    0.000    0.000    0.000   10.125    0.000    0.000 
#
# Total GULP energy -1586807.542017 kJ/mol
# GULP energy per Si atom -12396.933922 kJ/mol
# Density = 1.752365 g / cm^3
# Si number density = 17.563623 Si / 1000 Ang^3
#
#
#
# Elastic Constant Matrix: (Units=GPa)
#
#
# Indices 1 2 3 4 5 6 
#
# 1 90.6339 40.1899 18.0754 0.0000 0.0000 0.0000
# 2 40.1899 90.6339 18.0754 0.0000 0.0000 0.0000
# 3 18.0754 18.0754 38.0800 0.0000 0.0000 0.0000
# 4 0.0000 0.0000 0.0000 17.4560 0.0000 0.0000
# 5 0.0000 0.0000 0.0000 0.0000 17.4560 0.0000
# 6 0.0000 0.0000 0.0000 0.0000 0.0000 25.7903
#
#
#
# Elastic Compliance Matrix: (Units=1/GPa)
#
#
# Indices 1 2 3 4 5 6 
#
# 1 0.014311 -0.005513 -0.004176 0.000000 0.000000 0.000000
# 2 -0.005513 0.014311 -0.004176 0.000000 0.000000 0.000000
# 3 -0.004176 -0.004176 0.030225 0.000000 0.000000 0.000000
# 4 0.000000 0.000000 0.000000 0.057287 0.000000 0.000000
# 5 0.000000 0.000000 0.000000 0.000000 0.057287 0.000000
# 6 0.000000 0.000000 0.000000 0.000000 0.000000 0.038774
#
#
# Mechanical properties :
#
#
# Convention : Reuss Voigt Hill
#
# Bulk Modulus (GPa) = 32.13735 41.33657 36.73696
# Shear Modulus (GPa) = 19.97624 21.67427 20.82525
#
# Velocity S-wave (km/s) = 3.37614 3.51671 3.44714
# Velocity P-wave (km/s) = 5.79096 6.33056 6.06676
#
# Compressibility (1/GPa) = 0.03111644
#
# Stress axis : x y z
#
# Youngs Moduli (GPa) = 69.87673 69.87673 33.08515
#
# Poissons Ratio (x) = 0.38523 0.13817
# Poissons Ratio (y) = 0.38523 0.13817
# Poissons Ratio (z) = 0.29181 0.29181
#
# Static dielectric constant tensor:
#      x y z
#    x 3.438050 0.000000 0.000000 
#    y 0.000000 3.438050 0.000000 
#    z 0.000000 0.000000 3.105780 
# 
# 
# High freq. dielectric constant tensor:
#      x y z
#    x 1.671500 0.000000 0.000000 
#    y 0.000000 1.671500 0.000000 
#    z 0.000000 0.000000 1.666470 
# 
# From -- ./inp_files/8679.got.cif
#   From: 2010.03.12/outbox.cif.g09.slc.cpg/sg136_5_cif.got.tgz:8679.got - 2010.04.06 18:39:43.
