data_PCOD8318184
_publ_section_title
;
Structure prediction by ZEFSAII (Michael W. Deem and Ramdas Pophale) SiO2 
 PCOD8318184
Probable space group: P 42/M N M
;
_chemical_formula_sum "Si O2"
_cell_formula_units_Z 96
_cell_length_a 24.102498
_cell_length_b 24.102498
_cell_length_c 8.425131
_cell_angle_alpha 90.000000
_cell_angle_beta 90.000000
_cell_angle_gamma 90.000000
_cell_volume 4894.414805
_symmetry_space_group_name_H-M "P 42/M N M"
_symmetry_group_IT_number 136
_symmetry_cell_setting 'tetragonal'
loop_
_space_group_symop_operation_xyz
x,y,z
1/2-y,1/2+x,1/2+z
-x,-y,z
1/2+y,1/2-x,1/2+z
1/2+x,1/2-y,1/2-z
1/2-x,1/2+y,1/2-z
y,x,-z
-y,-x,-z
-x,-y,-z
1/2+y,1/2-x,1/2-z
x,y,-z
1/2-y,1/2+x,1/2-z
1/2-x,1/2+y,1/2+z
1/2+x,1/2-y,1/2+z
-y,-x,z
y,x,z
loop_
_atom_site_type_symbol
_atom_site_label
_atom_site_fract_x
_atom_site_fract_y
_atom_site_fract_z
Si Si1 0.515333 0.289312 0.189981
Si Si2 0.000289 0.912424 0.688771
Si Si3 0.568605 0.801548 0.814531
Si Si4 0.577487 0.035292 0.687424
Si Si5 0.775820 0.685999 0.685711
Si Si6 0.775780 0.861989 0.311359
O O1 0.498842 0.350015 0.257099
O O2 0.474026 0.243013 0.260153
O O3 0.576083 0.273872 0.256570
O O4 0.514551 0.290048 0.000000
O O5 0.999425 0.910811 0.500000
O O6 0.055390 0.944611 0.748464
O O7 0.945461 0.945461 0.748068
O O8 0.557138 0.863231 0.745808
O O9 0.629353 0.778151 0.781454
O O10 0.557988 0.804572 0.000000
O O11 0.571772 0.043940 0.500000
O O12 0.529851 0.071029 0.773385
O O13 0.780185 0.673164 0.500000
O O14 0.718779 0.718779 0.723844
O O15 0.828163 0.721931 0.745520
O O16 0.776981 0.862348 0.500000
O O17 0.831178 0.831178 0.248778
#
# Coordination Sequence:
#
# PCOD8318184 Si02
#       6
#    16  16  16  16  16  16
#     4   9  16  26  41  65  97 128 159 197 242 295
#     4   8  13  21  35  58  90 127 161 192 233 286
#     4  10  22  34  49  78 107 135 170 207 259 317
#     4  10  21  37  56  78 103 135 176 219 269 324
#     4   9  19  35  54  74  97 133 177 213 254 306
#     4   8  14  26  47  71  91 120 164 208 246 287
#
# _framework density 19.614194000000001
#
# number of rings (size 3 to 8) (size 9 to 14) (size 15 to 20)
#    0.000    3.000    0.000    3.000    2.333    4.333 
#    0.000    1.667    0.000    0.000    0.000    0.000 
#    0.000    2.000    0.000    9.167    0.000    7.000 
#
# Total GULP energy -1189940.867313 kJ/mol
# GULP energy per Si atom -12395.217368 kJ/mol
# Density = 1.956955 g / cm^3
# Si number density = 19.614194 Si / 1000 Ang^3
#
#
#
# Elastic Constant Matrix: (Units=GPa)
#
#
# Indices 1 2 3 4 5 6 
#
# 1 148.7970 77.0497 2.5745 0.0000 0.0000 0.0000
# 2 77.0497 148.7970 2.5745 0.0000 0.0000 0.0000
# 3 2.5745 2.5745 9.0425 0.0000 0.0000 0.0000
# 4 0.0000 0.0000 0.0000 17.2791 0.0000 0.0000
# 5 0.0000 0.0000 0.0000 0.0000 17.2791 0.0000
# 6 0.0000 0.0000 0.0000 0.0000 0.0000 27.0815
#
#
#
# Elastic Compliance Matrix: (Units=1/GPa)
#
#
# Indices 1 2 3 4 5 6 
#
# 1 0.009197 -0.004741 -0.001269 0.000000 0.000000 0.000000
# 2 -0.004741 0.009197 -0.001269 0.000000 0.000000 0.000000
# 3 -0.001269 -0.001269 0.111312 0.000000 0.000000 0.000000
# 4 0.000000 0.000000 0.000000 0.057873 0.000000 0.000000
# 5 0.000000 0.000000 0.000000 0.000000 0.057873 0.000000
# 6 0.000000 0.000000 0.000000 0.000000 0.000000 0.036926
#
#
# Mechanical properties :
#
#
# Convention : Reuss Voigt Hill
#
# Bulk Modulus (GPa) = 8.68436 52.33710 30.51073
# Shear Modulus (GPa) = 14.91120 27.29045 21.10083
#
# Velocity S-wave (km/s) = 2.76021 3.73414 3.28349
# Velocity P-wave (km/s) = 3.82041 6.73298 5.47396
#
# Compressibility (1/GPa) = 0.11514954
#
# Stress axis : x y z
#
# Youngs Moduli (GPa) = 108.72805 108.72805 8.98379
#
# Poissons Ratio (x) = 0.51543 0.01140
# Poissons Ratio (y) = 0.51543 0.01140
# Poissons Ratio (z) = 0.13796 0.13796
#
# Static dielectric constant tensor:
#      x y z
#    x 3.835060 0.000000 0.000000 
#    y 0.000000 3.835060 0.000000 
#    z 0.000000 0.000000 2.917420 
# 
# 
# High freq. dielectric constant tensor:
#      x y z
#    x 1.772280 0.000000 0.000000 
#    y 0.000000 1.772280 0.000000 
#    z 0.000000 0.000000 1.703770 
# 
# From -- ./inp_files/2010.got.cif
#   From: 2010.03.12/outbox.cif.g09.slc.cpg/sg136_2_cif.got.tgz:2010.got - 2010.04.06 18:39:43.
