data_PCOD8319418
_publ_section_title
;
Structure prediction by ZEFSAII (Michael W. Deem and Ramdas Pophale) SiO2 
 PCOD8319418
Probable space group: I 4/M M M
;
_chemical_formula_sum "Si O2"
_cell_formula_units_Z 192
_cell_length_a 31.031267
_cell_length_b 31.031267
_cell_length_c 10.920722
_cell_angle_alpha 90.000000
_cell_angle_beta 90.000000
_cell_angle_gamma 90.000000
_cell_volume 10515.994928
_symmetry_space_group_name_H-M "I 4/M M M"
_symmetry_group_IT_number 139
_symmetry_cell_setting 'tetragonal'
loop_
_space_group_symop_operation_xyz
x,y,z
-y,x,z
-x,-y,z
y,-x,z
x,-y,-z
-x,y,-z
y,x,-z
-y,-x,-z
-x,-y,-z
y,-x,-z
x,y,-z
-y,x,-z
-x,y,z
x,-y,z
-y,-x,z
y,x,z
1/2+x,1/2+y,1/2+z
1/2-y,1/2+x,1/2+z
1/2-x,1/2-y,1/2+z
1/2+y,1/2-x,1/2+z
1/2+x,1/2-y,1/2-z
1/2-x,1/2+y,1/2-z
1/2+y,1/2+x,1/2-z
1/2-y,1/2-x,1/2-z
1/2-x,1/2-y,1/2-z
1/2+y,1/2-x,1/2-z
1/2+x,1/2+y,1/2-z
1/2-y,1/2+x,1/2-z
1/2-x,1/2+y,1/2+z
1/2+x,1/2-y,1/2+z
1/2-y,1/2-x,1/2+z
1/2+y,1/2+x,1/2+z
loop_
_atom_site_type_symbol
_atom_site_label
_atom_site_fract_x
_atom_site_fract_y
_atom_site_fract_z
Si Si1 0.299763 0.574547 0.639897
Si Si2 0.449415 0.249323 0.000000
Si Si3 0.215804 0.452719 0.255902
Si Si4 0.368336 0.822239 0.356045
Si Si5 0.230578 0.164693 0.143935
Si Si6 0.882071 0.950819 0.261390
Si Si7 0.341779 0.410320 0.000000
O O1 0.286303 0.575950 0.500000
O O2 0.265810 0.543378 0.705221
O O3 0.294646 0.622803 0.696628
O O4 0.347773 0.556547 0.653229
O O5 0.439340 0.217672 0.113444
O O6 0.500000 0.264622 0.000000
O O7 0.415873 0.289860 0.000000
O O8 0.194404 0.500000 0.273331
O O9 0.189805 0.418477 0.337726
O O10 0.362177 0.837072 0.500000
O O11 0.357190 0.857190 0.250000
O O12 0.338153 0.781116 0.324890
O O13 0.207696 0.207696 0.200284
O O14 0.224532 0.165397 0.000000
O O15 0.925208 0.925208 0.229796
O O16 0.859877 0.935148 0.384211
O O17 0.895851 0.000000 0.272185
O O18 0.360563 0.360563 0.000000
#
# Coordination Sequence:
#
# PCOD8319418 Si02
#       7
#    32  16  32  32  32  32  16
#     4  10  19  31  50  75  99 125 159 210 269 319
#     4  10  18  32  54  80 108 135 169 222 282 329
#     4  10  20  34  57  84 110 139 174 218 269 323
#     4  10  22  37  54  78 111 151 187 224 266 312
#     4   8  15  30  50  71  98 132 174 218 260 309
#     4  11  22  34  48  64  86 118 157 206 265 331
#     4  10  20  34  51  71  97 124 160 209 273 338
#
# _framework density 18.257901
#
# number of rings (size 3 to 8) (size 9 to 14) (size 15 to 20)
#    0.000    2.167    1.667    3.250    1.167    3.833 
#    0.000    0.000    0.000    1.500    0.000    1.167 
#    0.000    0.333    0.000    1.500    0.000    0.000 
#
# Total GULP energy -1189540.152340 kJ/mol
# GULP energy per Si atom -12391.043254 kJ/mol
# Density = 1.821634 g / cm^3
# Si number density = 18.257901 Si / 1000 Ang^3
#
#
#
# Elastic Constant Matrix: (Units=GPa)
#
#
# Indices 1 2 3 4 5 6 
#
# 1 52.9942 28.2343 21.1342 0.0000 0.0000 0.0000
# 2 28.2343 52.9942 21.1342 0.0000 0.0000 0.0000
# 3 21.1342 21.1342 80.2796 0.0000 0.0000 0.0000
# 4 0.0000 0.0000 0.0000 29.1417 0.0000 0.0000
# 5 0.0000 0.0000 0.0000 0.0000 29.1417 0.0000
# 6 0.0000 0.0000 0.0000 0.0000 0.0000 18.8185
#
#
#
# Elastic Compliance Matrix: (Units=1/GPa)
#
#
# Indices 1 2 3 4 5 6 
#
# 1 0.027326 -0.013061 -0.003755 0.000000 0.000000 0.000000
# 2 -0.013061 0.027326 -0.003755 0.000000 0.000000 0.000000
# 3 -0.003755 -0.003755 0.014434 0.000000 0.000000 0.000000
# 4 0.000000 0.000000 0.000000 0.034315 0.000000 0.000000
# 5 0.000000 0.000000 0.000000 0.000000 0.034315 0.000000
# 6 0.000000 0.000000 0.000000 0.000000 0.000000 0.053139
#
#
# Mechanical properties :
#
#
# Convention : Reuss Voigt Hill
#
# Bulk Modulus (GPa) = 35.78791 36.36370 36.07581
# Shear Modulus (GPa) = 20.71985 23.13808 21.92897
#
# Velocity S-wave (km/s) = 3.37240 3.56377 3.46940
# Velocity P-wave (km/s) = 5.89983 6.07403 5.98756
#
# Compressibility (1/GPa) = 0.02794239
#
# Stress axis : x y z
#
# Youngs Moduli (GPa) = 36.59454 36.59454 69.28214
#
# Poissons Ratio (x) = 0.47797 0.26018
# Poissons Ratio (y) = 0.47797 0.26018
# Poissons Ratio (z) = 0.13743 0.13743
#
# Static dielectric constant tensor:
#      x y z
#    x 3.187280 0.000000 0.000000 
#    y 0.000000 3.187280 0.000000 
#    z 0.000000 0.000000 3.313990 
# 
# 
# High freq. dielectric constant tensor:
#      x y z
#    x 1.677210 0.000000 0.000000 
#    y 0.000000 1.677210 0.000000 
#    z 0.000000 0.000000 1.713010 
# 
# From -- ./inp_files/4330.got.cif
#   From: 2010.03.12/outbox.cif.g09.slc.cpg/sg139_3_cif.got.tgz:4330.got - 2010.04.08 09:46:31.
