data_PCOD8319568
_publ_section_title
;
Structure prediction by ZEFSAII (Michael W. Deem and Ramdas Pophale) SiO2 
 PCOD8319568
Probable space group: I 4/M M M
;
_chemical_formula_sum "Si O2"
_cell_formula_units_Z 160
_cell_length_a 32.179565
_cell_length_b 32.179565
_cell_length_c 8.699181
_cell_angle_alpha 90.000000
_cell_angle_beta 90.000000
_cell_angle_gamma 90.000000
_cell_volume 9008.214217
_symmetry_space_group_name_H-M "I 4/M M M"
_symmetry_group_IT_number 139
_symmetry_cell_setting 'tetragonal'
loop_
_space_group_symop_operation_xyz
x,y,z
-y,x,z
-x,-y,z
y,-x,z
x,-y,-z
-x,y,-z
y,x,-z
-y,-x,-z
-x,-y,-z
y,-x,-z
x,y,-z
-y,x,-z
-x,y,z
x,-y,z
-y,-x,z
y,x,z
1/2+x,1/2+y,1/2+z
1/2-y,1/2+x,1/2+z
1/2-x,1/2-y,1/2+z
1/2+y,1/2-x,1/2+z
1/2+x,1/2-y,1/2-z
1/2-x,1/2+y,1/2-z
1/2+y,1/2+x,1/2-z
1/2-y,1/2-x,1/2-z
1/2-x,1/2-y,1/2-z
1/2+y,1/2-x,1/2-z
1/2+x,1/2+y,1/2-z
1/2-y,1/2+x,1/2-z
1/2-x,1/2+y,1/2+z
1/2+x,1/2-y,1/2+z
1/2-y,1/2-x,1/2+z
1/2+y,1/2+x,1/2+z
loop_
_atom_site_type_symbol
_atom_site_label
_atom_site_fract_x
_atom_site_fract_y
_atom_site_fract_z
Si Si1 0.612406 0.453174 0.816872
Si Si2 0.500000 0.754199 0.333909
Si Si3 0.851805 0.500000 0.330867
Si Si4 0.411635 0.240145 0.317100
Si Si5 0.388024 0.679570 0.177598
Si Si6 0.086651 0.348989 0.682106
O O1 0.613354 0.500000 0.748637
O O2 0.570659 0.429342 0.760097
O O3 0.652883 0.427532 0.760734
O O4 0.612416 0.454204 0.000000
O O5 0.500000 0.731909 0.500000
O O6 0.500000 0.803278 0.357340
O O7 0.543286 0.743746 0.249271
O O8 0.873554 0.500000 0.500000
O O9 0.864173 0.458677 0.237615
O O10 0.413179 0.233284 0.500000
O O11 0.381090 0.277530 0.271037
O O12 0.399882 0.196847 0.238940
O O13 0.346279 0.653722 0.203966
O O14 0.394343 0.690560 0.000000
O O15 0.087781 0.349772 0.500000
O O16 0.119961 0.380040 0.750000
#
# Coordination Sequence:
#
# PCOD8319568 Si02
#       6
#    32  16  16  32  32  32
#     4   8  14  24  38  59  88 123 164 211 261 314
#     4   7  14  27  43  67  98 124 152 200 253 298
#     4   9  17  33  53  78 112 145 177 214 252 293
#     4  10  19  32  50  73 100 131 169 213 260 311
#     4   9  18  31  45  65  95 129 166 212 265 322
#     4  11  21  35  56  83 113 146 179 213 256 302
#
# _framework density 17.761565999999998
#
# number of rings (size 3 to 8) (size 9 to 14) (size 15 to 20)
#    0.000    2.800    0.000    5.100    1.400    0.600 
#    0.000    2.000    0.000    0.900    0.000    2.100 
#    0.000    0.000    0.000    4.400    0.000    4.400 
#
# Total GULP energy -991178.368432 kJ/mol
# GULP energy per Si atom -12389.729605 kJ/mol
# Density = 1.772114 g / cm^3
# Si number density = 17.761566 Si / 1000 Ang^3
#
#
#
# Elastic Constant Matrix: (Units=GPa)
#
#
# Indices 1 2 3 4 5 6 
#
# 1 108.4811 59.3475 45.2514 0.0000 0.0000 0.0000
# 2 59.3475 108.4860 45.2505 0.0000 0.0000 0.0000
# 3 45.2514 45.2505 96.8501 0.0000 0.0000 0.0000
# 4 0.0000 0.0000 0.0000 18.8833 0.0000 0.0000
# 5 0.0000 0.0000 0.0000 0.0000 18.8836 0.0000
# 6 0.0000 0.0000 0.0000 0.0000 0.0000 17.8915
#
#
#
# Elastic Compliance Matrix: (Units=1/GPa)
#
#
# Indices 1 2 3 4 5 6 
#
# 1 0.014159 -0.006193 -0.003722 0.000000 0.000000 0.000000
# 2 -0.006193 0.014158 -0.003721 0.000000 0.000000 0.000000
# 3 -0.003722 -0.003721 0.013803 0.000000 0.000000 0.000000
# 4 0.000000 0.000000 0.000000 0.052957 0.000000 0.000000
# 5 0.000000 0.000000 0.000000 0.000000 0.052956 0.000000
# 6 0.000000 0.000000 0.000000 0.000000 0.000000 0.055892
#
#
# Mechanical properties :
#
#
# Convention : Reuss Voigt Hill
#
# Bulk Modulus (GPa) = 67.35352 68.16845 67.76099
# Shear Modulus (GPa) = 21.17330 22.06288 21.61809
#
# Velocity S-wave (km/s) = 3.45640 3.52827 3.49252
# Velocity P-wave (km/s) = 7.34386 7.42033 7.38219
#
# Compressibility (1/GPa) = 0.01484703
#
# Stress axis : x y z
#
# Youngs Moduli (GPa) = 70.62702 70.63162 72.44881
#
# Poissons Ratio (x) = 0.43744 0.26964
# Poissons Ratio (y) = 0.43741 0.26960
# Poissons Ratio (z) = 0.26286 0.26284
#
# Static dielectric constant tensor:
#      x y z
#    x 3.356030 0.000000 0.000000 
#    y 0.000000 3.356050 0.000000 
#    z 0.000000 0.000000 3.097940 
# 
# 
# High freq. dielectric constant tensor:
#      x y z
#    x 1.674540 0.000000 0.000000 
#    y 0.000000 1.674540 0.000000 
#    z 0.000000 0.000000 1.669070 
# 
# From -- ./inp_files/2187.got.cif
#   From: 2010.03.12/outbox.cif.g09.slc.cpg/sg139_2_cif.got.tgz:2187.got - 2010.04.08 09:46:31.
