data_PCOD8319844
_publ_section_title
;
Structure prediction by ZEFSAII (Michael W. Deem and Ramdas Pophale) SiO2 
 PCOD8319844
Probable space group: I 4/M M M
;
_chemical_formula_sum "Si O2"
_cell_formula_units_Z 160
_cell_length_a 25.117730
_cell_length_b 25.117730
_cell_length_c 12.987519
_cell_angle_alpha 90.000000
_cell_angle_beta 90.000000
_cell_angle_gamma 90.000000
_cell_volume 8193.830417
_symmetry_space_group_name_H-M "I 4/M M M"
_symmetry_group_IT_number 139
_symmetry_cell_setting 'tetragonal'
loop_
_space_group_symop_operation_xyz
x,y,z
-y,x,z
-x,-y,z
y,-x,z
x,-y,-z
-x,y,-z
y,x,-z
-y,-x,-z
-x,-y,-z
y,-x,-z
x,y,-z
-y,x,-z
-x,y,z
x,-y,z
-y,-x,z
y,x,z
1/2+x,1/2+y,1/2+z
1/2-y,1/2+x,1/2+z
1/2-x,1/2-y,1/2+z
1/2+y,1/2-x,1/2+z
1/2+x,1/2-y,1/2-z
1/2-x,1/2+y,1/2-z
1/2+y,1/2+x,1/2-z
1/2-y,1/2-x,1/2-z
1/2-x,1/2-y,1/2-z
1/2+y,1/2-x,1/2-z
1/2+x,1/2+y,1/2-z
1/2-y,1/2+x,1/2-z
1/2-x,1/2+y,1/2+z
1/2+x,1/2-y,1/2+z
1/2-y,1/2-x,1/2+z
1/2+y,1/2+x,1/2+z
loop_
_atom_site_type_symbol
_atom_site_label
_atom_site_fract_x
_atom_site_fract_y
_atom_site_fract_z
Si Si1 0.916275 0.437212 0.000000
Si Si2 0.437130 0.204700 0.000000
Si Si3 0.283859 0.560545 0.824289
Si Si4 0.603766 0.243886 0.617584
Si Si5 0.150968 0.849033 0.384143
Si Si6 0.869421 0.560308 0.321402
Si Si7 0.290360 0.709641 0.297228
O O1 0.855257 0.414953 0.000000
O O2 0.949082 0.414505 0.094744
O O3 0.918833 0.500000 0.000000
O O4 0.417778 0.234333 0.105338
O O5 0.500000 0.202189 0.000000
O O6 0.294147 0.500000 0.848736
O O7 0.275259 0.569177 0.702538
O O8 0.337459 0.589162 0.862633
O O9 0.588794 0.260554 0.500000
O O10 0.588569 0.182351 0.631527
O O11 0.665867 0.258427 0.635226
O O12 0.167009 0.832992 0.500000
O O13 0.184624 0.815377 0.304010
O O14 0.857073 0.500000 0.274486
O O15 0.895436 0.604564 0.250000
O O16 0.250000 0.750000 0.250000
#
# Coordination Sequence:
#
# PCOD8319844 Si02
#       7
#    16  16  32  32  16  32  16
#     4  11  23  38  56  79 107 143 195 252 301 353
#     4   9  18  34  55  82 110 144 192 245 300 349
#     4  10  20  36  61  87 120 159 196 248 303 356
#     4  11  23  41  62  89 122 158 205 255 310 377
#     4  10  20  35  56  90 120 149 197 239 287 364
#     4  12  25  41  59  82 113 155 204 256 310 364
#     4  10  23  41  60  89 124 159 192 243 316 378
#
# _framework density 19.526886000000001
#
# number of rings (size 3 to 8) (size 9 to 14) (size 15 to 20)
#    0.000    1.400    2.000    3.600    0.000    7.000 
#    0.000    0.000    0.000    0.300    0.000    0.700 
#    0.000    0.000    0.000    7.300    0.000    0.000 
#
# Total GULP energy -991110.191812 kJ/mol
# GULP energy per Si atom -12388.877398 kJ/mol
# Density = 1.948244 g / cm^3
# Si number density = 19.526886 Si / 1000 Ang^3
#
#
#
# Elastic Constant Matrix: (Units=GPa)
#
#
# Indices 1 2 3 4 5 6 
#
# 1 90.8508 56.4276 23.8310 0.0000 0.0000 0.0000
# 2 56.4276 90.8499 23.8302 0.0000 0.0000 0.0000
# 3 23.8310 23.8302 133.4064 0.0000 0.0000 0.0000
# 4 0.0000 0.0000 0.0000 24.5220 0.0000 0.0000
# 5 0.0000 0.0000 0.0000 0.0000 24.5225 0.0000
# 6 0.0000 0.0000 0.0000 0.0000 0.0000 27.6286
#
#
#
# Elastic Compliance Matrix: (Units=1/GPa)
#
#
# Indices 1 2 3 4 5 6 
#
# 1 0.018128 -0.010922 -0.001287 0.000000 0.000000 0.000000
# 2 -0.010922 0.018129 -0.001287 0.000000 0.000000 0.000000
# 3 -0.001287 -0.001287 0.007956 0.000000 0.000000 0.000000
# 4 0.000000 0.000000 0.000000 0.040780 0.000000 0.000000
# 5 0.000000 0.000000 0.000000 0.000000 0.040779 0.000000
# 6 0.000000 0.000000 0.000000 0.000000 0.000000 0.036194
#
#
# Mechanical properties :
#
#
# Convention : Reuss Voigt Hill
#
# Bulk Modulus (GPa) = 58.07361 58.14275 58.10818
# Shear Modulus (GPa) = 25.68069 29.40251 27.54160
#
# Velocity S-wave (km/s) = 3.63043 3.88460 3.75966
# Velocity P-wave (km/s) = 6.88318 7.06828 6.97635
#
# Compressibility (1/GPa) = 0.01721953
#
# Stress axis : x y z
#
# Youngs Moduli (GPa) = 55.16192 55.16150 125.69446
#
# Poissons Ratio (x) = 0.60248 0.16182
# Poissons Ratio (y) = 0.60248 0.16180
# Poissons Ratio (z) = 0.07101 0.07101
#
# Static dielectric constant tensor:
#      x y z
#    x 3.575000 0.000000 0.000000 
#    y 0.000000 3.574990 0.000000 
#    z 0.000000 0.000000 3.600360 
# 
# 
# High freq. dielectric constant tensor:
#      x y z
#    x 1.748550 0.000000 0.000000 
#    y 0.000000 1.748550 0.000000 
#    z 0.000000 0.000000 1.778130 
# 
# From -- ./inp_files/3992.got.cif
#   From: 2010.03.12/outbox.cif.g09.slc.cpg/sg139_2_cif.got.tgz:3992.got - 2010.04.08 09:46:31.
