data_PCOD8319583
_publ_section_title
;
Structure prediction by ZEFSAII (Michael W. Deem and Ramdas Pophale) SiO2 
 PCOD8319583
Probable space group: I 4/M M M
;
_chemical_formula_sum "Si O2"
_cell_formula_units_Z 192
_cell_length_a 26.728298
_cell_length_b 26.728298
_cell_length_c 14.034177
_cell_angle_alpha 90.000000
_cell_angle_beta 90.000000
_cell_angle_gamma 90.000000
_cell_volume 10026.042910
_symmetry_space_group_name_H-M "I 4/M M M"
_symmetry_group_IT_number 139
_symmetry_cell_setting 'tetragonal'
loop_
_space_group_symop_operation_xyz
x,y,z
-y,x,z
-x,-y,z
y,-x,z
x,-y,-z
-x,y,-z
y,x,-z
-y,-x,-z
-x,-y,-z
y,-x,-z
x,y,-z
-y,x,-z
-x,y,z
x,-y,z
-y,-x,z
y,x,z
1/2+x,1/2+y,1/2+z
1/2-y,1/2+x,1/2+z
1/2-x,1/2-y,1/2+z
1/2+y,1/2-x,1/2+z
1/2+x,1/2-y,1/2-z
1/2-x,1/2+y,1/2-z
1/2+y,1/2+x,1/2-z
1/2-y,1/2-x,1/2-z
1/2-x,1/2-y,1/2-z
1/2+y,1/2-x,1/2-z
1/2+x,1/2+y,1/2-z
1/2-y,1/2+x,1/2-z
1/2-x,1/2+y,1/2+z
1/2+x,1/2-y,1/2+z
1/2-y,1/2-x,1/2+z
1/2+y,1/2+x,1/2+z
loop_
_atom_site_type_symbol
_atom_site_label
_atom_site_fract_x
_atom_site_fract_y
_atom_site_fract_z
Si Si1 0.000000 0.078682 0.113001
Si Si2 0.612999 0.054715 0.391644
Si Si3 0.691964 0.771290 0.610571
Si Si4 0.752003 0.408165 0.700755
Si Si5 0.713333 0.884663 0.392456
Si Si6 0.148847 0.558513 0.392416
Si Si7 0.000000 0.807760 0.114161
O O1 0.000000 0.135204 0.150145
O O2 0.950454 0.049547 0.149859
O O3 0.000000 0.078921 0.000000
O O4 0.596478 0.046406 0.500000
O O5 0.668345 0.076507 0.387573
O O6 0.574289 0.095228 0.347449
O O7 0.610882 0.000000 0.339469
O O8 0.680899 0.767846 0.500000
O O9 0.743707 0.743707 0.638203
O O10 0.646682 0.740951 0.659549
O O11 0.695822 0.829384 0.641391
O O12 0.746055 0.405277 0.816039
O O13 0.809498 0.419742 0.676476
O O14 0.716379 0.449931 0.656215
O O15 0.736101 0.882899 0.500000
O O16 0.155065 0.581226 0.500000
O O17 0.154304 0.500000 0.397275
O O18 0.000000 0.801405 0.000000
#
# Coordination Sequence:
#
# PCOD8319583 Si02
#       7
#    16  32  32  32  32  32  16
#     4   8  16  35  62  89 121 159 186 207 253 327
#     4   9  18  32  51  73 100 137 187 239 280 326
#     4  10  21  38  60  85 113 146 187 234 286 346
#     4  12  22  34  55  81 113 151 188 228 283 345
#     4  10  22  38  54  75 106 146 192 240 284 331
#     4  10  19  32  51  75 108 143 178 227 290 348
#     4  11  23  36  56  89 124 152 188 233 282 339
#
# _framework density 19.150126
#
# number of rings (size 3 to 8) (size 9 to 14) (size 15 to 20)
#    0.000    1.917    2.500    2.250    1.167    2.333 
#    0.000    3.333    0.000    0.000    0.000    2.333 
#    0.000    0.667    0.000    3.667    0.000    0.333 
#
# Total GULP energy -1189814.126416 kJ/mol
# GULP energy per Si atom -12393.897150 kJ/mol
# Density = 1.910654 g / cm^3
# Si number density = 19.150126 Si / 1000 Ang^3
#
#
#
# Elastic Constant Matrix: (Units=GPa)
#
#
# Indices 1 2 3 4 5 6 
#
# 1 90.1274 48.7178 28.5190 0.0000 0.0000 0.0000
# 2 48.7178 90.1274 28.5190 0.0000 0.0000 0.0000
# 3 28.5190 28.5190 86.8968 0.0000 0.0000 0.0000
# 4 0.0000 0.0000 0.0000 -58.4688 0.0000 0.0000
# 5 0.0000 0.0000 0.0000 0.0000 -58.4688 0.0000
# 6 0.0000 0.0000 0.0000 0.0000 0.0000 27.5155
#
#
#
# Elastic Compliance Matrix: (Units=1/GPa)
#
#
# Indices 1 2 3 4 5 6 
#
# 1 0.016237 -0.007912 -0.002732 0.000000 0.000000 0.000000
# 2 -0.007912 0.016237 -0.002732 0.000000 0.000000 0.000000
# 3 -0.002732 -0.002732 0.013301 0.000000 0.000000 0.000000
# 4 0.000000 0.000000 0.000000 -0.017103 0.000000 0.000000
# 5 0.000000 0.000000 0.000000 0.000000 -0.017103 0.000000
# 6 0.000000 0.000000 0.000000 0.000000 0.000000 0.036343
#
#
# Mechanical properties :
#
#
# Convention : Reuss Voigt Hill
#
# Bulk Modulus (GPa) = 52.57046 53.18481 52.87764
# Shear Modulus (GPa) = 61.72445 -7.12472 27.29987
#
# Velocity S-wave (km/s) = 5.68347 -1.93094 3.77977
# Velocity P-wave (km/s) = 8.40122 4.78137 6.83527
#
# Compressibility (1/GPa) = 0.01902209
#
# Stress axis : x y z
#
# Youngs Moduli (GPa) = 61.58849 61.58849 75.18107
#
# Poissons Ratio (x) = 0.48730 0.20540
# Poissons Ratio (y) = 0.48730 0.20540
# Poissons Ratio (z) = 0.16827 0.16827
#
# Static dielectric constant tensor:
#      x y z
#    x 3.597190 0.000000 0.000000 
#    y 0.000000 3.597190 0.000000 
#    z 0.000000 0.000000 3.629500 
# 
# 
# High freq. dielectric constant tensor:
#      x y z
#    x 1.730930 0.000000 0.000000 
#    y 0.000000 1.730930 0.000000 
#    z 0.000000 0.000000 1.738630 
# 
# From -- ./inp_files/6506.got.cif
#   From: 2010.03.12/outbox.cif.g09.slc.cpg/sg139_4_cif.got.tgz:6506.got - 2010.04.08 09:46:31.
