data_PCOD8319955
_publ_section_title
;
Structure prediction by ZEFSAII (Michael W. Deem and Ramdas Pophale) SiO2 
 PCOD8319955
Probable space group: I 4/M M M
;
_chemical_formula_sum "Si O2"
_cell_formula_units_Z 96
_cell_length_a 24.471366
_cell_length_b 24.471366
_cell_length_c 7.698178
_cell_angle_alpha 90.000000
_cell_angle_beta 90.000000
_cell_angle_gamma 90.000000
_cell_volume 4610.036604
_symmetry_space_group_name_H-M "I 4/M M M"
_symmetry_group_IT_number 139
_symmetry_cell_setting 'tetragonal'
loop_
_space_group_symop_operation_xyz
x,y,z
-y,x,z
-x,-y,z
y,-x,z
x,-y,-z
-x,y,-z
y,x,-z
-y,-x,-z
-x,-y,-z
y,-x,-z
x,y,-z
-y,x,-z
-x,y,z
x,-y,z
-y,-x,z
y,x,z
1/2+x,1/2+y,1/2+z
1/2-y,1/2+x,1/2+z
1/2-x,1/2-y,1/2+z
1/2+y,1/2-x,1/2+z
1/2+x,1/2-y,1/2-z
1/2-x,1/2+y,1/2-z
1/2+y,1/2+x,1/2-z
1/2-y,1/2-x,1/2-z
1/2-x,1/2-y,1/2-z
1/2+y,1/2-x,1/2-z
1/2+x,1/2+y,1/2-z
1/2-y,1/2+x,1/2-z
1/2-x,1/2+y,1/2+z
1/2+x,1/2-y,1/2+z
1/2-y,1/2-x,1/2+z
1/2+y,1/2+x,1/2+z
loop_
_atom_site_type_symbol
_atom_site_label
_atom_site_fract_x
_atom_site_fract_y
_atom_site_fract_z
Si Si1 0.729550 0.587711 0.699387
Si Si2 0.706486 0.706486 0.701596
Si Si3 0.438790 0.150766 0.800110
Si Si4 0.058539 0.848435 0.500000
O O1 0.708595 0.581527 0.500000
O O2 0.726157 0.648921 0.776045
O O3 0.792559 0.569286 0.699091
O O4 0.689662 0.555543 0.828136
O O5 0.700252 0.700252 0.500000
O O6 0.750000 0.750000 0.750000
O O7 0.500000 0.128672 0.759419
O O8 0.395546 0.104455 0.750000
O O9 0.431372 0.165122 0.000000
O O10 0.108453 0.891548 0.500000
O O11 0.000000 0.879953 0.500000
#
# Coordination Sequence:
#
# PCOD8319955 Si02
#       4
#    32  16  32  16
#     4  11  23  42  66  98 133 171 216 264 327 393
#     4  10  22  34  58  96 132 171 207 255 321 385
#     4  11  24  41  62  91 128 173 226 279 331 388
#     4  12  26  45  72 100 133 173 217 269 325 392
#
# _framework density 20.824128999999999
#
# number of rings (size 3 to 8) (size 9 to 14) (size 15 to 20)
#    0.000    1.000    3.333    3.000    2.333    7.833 
#    0.000    1.667    0.000    0.000    0.000    2.333 
#    0.000    0.000    0.000    0.000    0.000    0.000 
#
# Total GULP energy -594935.771596 kJ/mol
# GULP energy per Si atom -12394.495242 kJ/mol
# Density = 2.077673 g / cm^3
# Si number density = 20.824129 Si / 1000 Ang^3
#
#
#
# Elastic Constant Matrix: (Units=GPa)
#
#
# Indices 1 2 3 4 5 6 
#
# 1 131.6811 49.7931 33.4195 0.0000 0.0000 0.0000
# 2 49.7931 131.6824 33.4174 0.0000 0.0000 0.0000
# 3 33.4195 33.4174 109.9722 0.0000 0.0000 0.0000
# 4 0.0000 0.0000 0.0000 22.8625 0.0000 0.0000
# 5 0.0000 0.0000 0.0000 0.0000 22.8625 0.0000
# 6 0.0000 0.0000 0.0000 0.0000 0.0000 13.7401
#
#
#
# Elastic Compliance Matrix: (Units=1/GPa)
#
#
# Indices 1 2 3 4 5 6 
#
# 1 0.009208 -0.003003 -0.001886 0.000000 0.000000 0.000000
# 2 -0.003003 0.009208 -0.001885 0.000000 0.000000 0.000000
# 3 -0.001886 -0.001885 0.010239 0.000000 0.000000 0.000000
# 4 0.000000 0.000000 0.000000 0.043740 0.000000 0.000000
# 5 0.000000 0.000000 0.000000 0.000000 0.043740 0.000000
# 6 0.000000 0.000000 0.000000 0.000000 0.000000 0.072780
#
#
# Mechanical properties :
#
#
# Convention : Reuss Voigt Hill
#
# Bulk Modulus (GPa) = 66.19573 67.39953 66.79763
# Shear Modulus (GPa) = 24.09644 29.00673 26.55158
#
# Velocity S-wave (km/s) = 3.40537 3.73626 3.57464
# Velocity P-wave (km/s) = 6.87888 7.14487 7.01314
#
# Compressibility (1/GPa) = 0.01510671
#
# Stress axis : x y z
#
# Youngs Moduli (GPa) = 108.59685 108.59910 97.66428
#
# Poissons Ratio (x) = 0.32617 0.18416
# Poissons Ratio (y) = 0.32616 0.18414
# Poissons Ratio (z) = 0.20478 0.20475
#
# Static dielectric constant tensor:
#      x y z
#    x 3.622140 0.000000 0.000000 
#    y 0.000000 3.622120 0.000000 
#    z 0.000000 0.000000 9.649810 
# 
# 
# High freq. dielectric constant tensor:
#      x y z
#    x 1.814800 0.000000 0.000000 
#    y 0.000000 1.814800 0.000000 
#    z 0.000000 0.000000 1.827180 
# 
# From -- ./inp_files/1157.got.cif
#   From: 2010.03.12/outbox.cif.g09.slc.cpg/sg139_1_cif.got.tgz:1157.got - 2010.04.08 09:46:31.
