data_PCOD8319145
_publ_section_title
;
Structure prediction by ZEFSAII (Michael W. Deem and Ramdas Pophale) SiO2 
 PCOD8319145
Probable space group: P 42/N C M
;
_chemical_formula_sum "Si O2"
_cell_formula_units_Z 48
_cell_length_a 10.927528
_cell_length_b 10.927528
_cell_length_c 19.435119
_cell_angle_alpha 90.000000
_cell_angle_beta 90.000000
_cell_angle_gamma 90.000000
_cell_volume 2320.764433
_symmetry_space_group_name_H-M "P 42/N C M"
_symmetry_group_IT_number 138
_space_group.IT_coordinate_system_code '2'
_symmetry_cell_setting 'tetragonal'
loop_
_space_group_symop_operation_xyz
x,y,z
1/2-y,x,1/2+z
1/2-x,1/2-y,z
y,1/2-x,1/2+z
1/2+x,-y,1/2-z
-x,1/2+y,1/2-z
1/2+y,1/2+x,-z
-y,-x,-z
-x,-y,-z
1/2+y,-x,1/2-z
1/2+x,1/2+y,-z
-y,1/2+x,1/2-z
1/2-x,y,1/2+z
x,1/2-y,1/2+z
1/2-y,1/2-x,z
y,x,z
loop_
_atom_site_type_symbol
_atom_site_label
_atom_site_fract_x
_atom_site_fract_y
_atom_site_fract_z
Si Si1 0.014075 0.485926 0.120746
Si Si2 0.878024 0.621977 0.015716
Si Si3 0.570385 0.302190 0.733677
Si Si4 0.151598 0.348403 0.323729
Si Si5 0.598361 0.901640 0.529451
O O1 0.124421 0.547871 0.163096
O O2 0.914405 0.585596 0.095043
O O3 0.057684 0.442317 0.047173
O O4 0.738097 0.578079 0.006155
O O5 0.667211 0.376670 0.781591
O O6 0.447720 0.281770 0.776327
O O7 0.250000 0.250000 0.350973
O O8 0.087101 0.412899 0.388173
O O9 0.500000 0.000000 0.500000
#
# Coordination Sequence:
#
# PCOD8319145 Si02
#       5
#     8   8  16   8   8
#     4  10  22  43  65  91 129 169 202 268 328 377
#     4  10  22  44  65  90 133 166 215 271 328 392
#     4  10  23  40  65  94 124 163 216 264 315 397
#     4  11  23  40  66  90 131 170 203 270 339 381
#     4  11  24  40  64  95 123 171 218 268 323 402
#
# _framework density 20.682839000000001
#
# number of rings (size 3 to 8) (size 9 to 14) (size 15 to 20)
#    0.000    1.667    1.667    2.000    9.333    0.000 
#   12.000    1.667    0.000    0.000    0.000    0.000 
#    0.000    0.000    0.000    0.000    0.000    0.000 
#
# Total GULP energy -594689.833565 kJ/mol
# GULP energy per Si atom -12389.371533 kJ/mol
# Density = 2.063576 g / cm^3
# Si number density = 20.682839 Si / 1000 Ang^3
#
#
#
# Elastic Constant Matrix: (Units=GPa)
#
#
# Indices 1 2 3 4 5 6 
#
# 1 87.3818 58.2539 39.5909 0.0000 0.0000 0.0000
# 2 58.2539 87.3818 39.5909 0.0000 0.0000 0.0000
# 3 39.5909 39.5909 114.3500 0.0000 0.0000 0.0000
# 4 0.0000 0.0000 0.0000 21.1732 0.0000 0.0000
# 5 0.0000 0.0000 0.0000 0.0000 21.1732 0.0000
# 6 0.0000 0.0000 0.0000 0.0000 0.0000 39.3705
#
#
#
# Elastic Compliance Matrix: (Units=1/GPa)
#
#
# Indices 1 2 3 4 5 6 
#
# 1 0.021395 -0.012936 -0.002929 0.000000 0.000000 0.000000
# 2 -0.012936 0.021395 -0.002929 0.000000 0.000000 0.000000
# 3 -0.002929 -0.002929 0.010773 0.000000 0.000000 0.000000
# 4 0.000000 0.000000 0.000000 0.047229 0.000000 0.000000
# 5 0.000000 0.000000 0.000000 0.000000 0.047229 0.000000
# 6 0.000000 0.000000 0.000000 0.000000 0.000000 0.025400
#
#
# Mechanical properties :
#
#
# Convention : Reuss Voigt Hill
#
# Bulk Modulus (GPa) = 62.59405 62.66502 62.62953
# Shear Modulus (GPa) = 23.11237 26.45525 24.78381
#
# Velocity S-wave (km/s) = 3.34648 3.58032 3.46537
# Velocity P-wave (km/s) = 6.72766 6.88879 6.80870
#
# Compressibility (1/GPa) = 0.01597596
#
# Stress axis : x y z
#
# Youngs Moduli (GPa) = 46.73971 46.73971 92.82445
#
# Poissons Ratio (x) = 0.60464 0.27185
# Poissons Ratio (y) = 0.60464 0.27185
# Poissons Ratio (z) = 0.13688 0.13688
#
# Static dielectric constant tensor:
#      x y z
#    x 3.912780 0.000000 0.000000 
#    y 0.000000 3.912780 0.000000 
#    z 0.000000 0.000000 3.553400 
# 
# 
# High freq. dielectric constant tensor:
#      x y z
#    x 1.817700 0.000000 0.000000 
#    y 0.000000 1.817700 0.000000 
#    z 0.000000 0.000000 1.803950 
# 
# From -- ./inp_files/4792.got.cif
#   From: 2010.03.12/outbox.cif.g09.slc.cpg/sg138_3_cif.got.tgz:4792.got - 2010.04.08 09:41:05.
