data_PCOD8319837
_publ_section_title
;
Structure prediction by ZEFSAII (Michael W. Deem and Ramdas Pophale) SiO2 
 PCOD8319837
Probable space group: I 4/M M M
;
_chemical_formula_sum "Si O2"
_cell_formula_units_Z 160
_cell_length_a 30.517852
_cell_length_b 30.517852
_cell_length_c 8.829785
_cell_angle_alpha 90.000000
_cell_angle_beta 90.000000
_cell_angle_gamma 90.000000
_cell_volume 8223.525699
_symmetry_space_group_name_H-M "I 4/M M M"
_symmetry_group_IT_number 139
_symmetry_cell_setting 'tetragonal'
loop_
_space_group_symop_operation_xyz
x,y,z
-y,x,z
-x,-y,z
y,-x,z
x,-y,-z
-x,y,-z
y,x,-z
-y,-x,-z
-x,-y,-z
y,-x,-z
x,y,-z
-y,x,-z
-x,y,z
x,-y,z
-y,-x,z
y,x,z
1/2+x,1/2+y,1/2+z
1/2-y,1/2+x,1/2+z
1/2-x,1/2-y,1/2+z
1/2+y,1/2-x,1/2+z
1/2+x,1/2-y,1/2-z
1/2-x,1/2+y,1/2-z
1/2+y,1/2+x,1/2-z
1/2-y,1/2-x,1/2-z
1/2-x,1/2-y,1/2-z
1/2+y,1/2-x,1/2-z
1/2+x,1/2+y,1/2-z
1/2-y,1/2+x,1/2-z
1/2-x,1/2+y,1/2+z
1/2+x,1/2-y,1/2+z
1/2-y,1/2-x,1/2+z
1/2+y,1/2+x,1/2+z
loop_
_atom_site_type_symbol
_atom_site_label
_atom_site_fract_x
_atom_site_fract_y
_atom_site_fract_z
Si Si1 0.211360 0.892309 0.677435
Si Si2 0.118421 0.118421 0.180231
Si Si3 0.951284 0.048717 0.820090
Si Si4 0.948475 0.283682 0.829479
Si Si5 0.756744 0.685595 0.666030
Si Si6 0.450173 0.117709 0.679400
O O1 0.202675 0.893621 0.500000
O O2 0.165187 0.898175 0.760699
O O3 0.246522 0.929147 0.721218
O O4 0.230370 0.845865 0.724522
O O5 0.083426 0.083426 0.243049
O O6 0.120823 0.120823 0.000000
O O7 0.000000 0.061275 0.762145
O O8 0.950607 0.049394 0.000000
O O9 0.935965 0.332801 0.772820
O O10 0.000000 0.278284 0.826069
O O11 0.930812 0.276443 0.000000
O O12 0.766472 0.664433 0.500000
O O13 0.729333 0.729333 0.639716
O O14 0.802262 0.697739 0.750000
O O15 0.448271 0.113645 0.500000
O O16 0.500000 0.108251 0.735306
O O17 0.417370 0.082631 0.750000
#
# Coordination Sequence:
#
# PCOD8319837 Si02
#       6
#    32  16  16  32  32  32
#     4  12  24  37  56  83 117 152 190 238 289 341
#     4  11  22  37  59  87 118 153 192 233 283 342
#     4   8  16  34  61  91 117 141 178 229 281 338
#     4   9  20  40  61  79 107 150 197 242 288 343
#     4  10  20  35  56  79 107 143 184 227 273 328
#     4   9  19  36  58  85 116 151 192 238 288 342
#
# _framework density 19.456375999999999
#
# number of rings (size 3 to 8) (size 9 to 14) (size 15 to 20)
#    0.000    2.100    1.000    4.200    0.000    4.200 
#    0.000    7.000    0.000    1.800    0.000    2.800 
#    0.000    0.000    0.000    0.000    0.000    0.000 
#
# Total GULP energy -991663.798131 kJ/mol
# GULP energy per Si atom -12395.797477 kJ/mol
# Density = 1.941209 g / cm^3
# Si number density = 19.456376 Si / 1000 Ang^3
#
#
#
# Elastic Constant Matrix: (Units=GPa)
#
#
# Indices 1 2 3 4 5 6 
#
# 1 230.5627 -27.2733 43.1846 0.0000 0.0000 0.0000
# 2 -27.2733 230.5561 43.2061 0.0000 0.0000 0.0000
# 3 43.1846 43.2061 92.7879 0.0000 0.0000 0.0000
# 4 0.0000 0.0000 0.0000 25.7092 0.0000 0.0000
# 5 0.0000 0.0000 0.0000 0.0000 25.7092 0.0000
# 6 0.0000 0.0000 0.0000 0.0000 0.0000 38.3831
#
#
#
# Elastic Compliance Matrix: (Units=1/GPa)
#
#
# Indices 1 2 3 4 5 6 
#
# 1 0.005005 0.001127 -0.002854 0.000000 0.000000 0.000000
# 2 0.001127 0.005006 -0.002855 0.000000 0.000000 0.000000
# 3 -0.002854 -0.002855 0.013435 0.000000 0.000000 0.000000
# 4 0.000000 0.000000 0.000000 0.038897 0.000000 0.000000
# 5 0.000000 0.000000 0.000000 0.000000 0.038897 0.000000
# 6 0.000000 0.000000 0.000000 0.000000 0.000000 0.026053
#
#
# Mechanical properties :
#
#
# Convention : Reuss Voigt Hill
#
# Bulk Modulus (GPa) = 70.02397 74.68238 72.35318
# Shear Modulus (GPa) = 35.40625 50.94624 43.17624
#
# Velocity S-wave (km/s) = 4.27051 5.12267 4.71588
# Velocity P-wave (km/s) = 7.77076 8.57069 8.18051
#
# Compressibility (1/GPa) = 0.01428082
#
# Stress axis : x y z
#
# Youngs Moduli (GPa) = 199.79552 199.77035 74.43113
#
# Poissons Ratio (x) = -0.22513 0.21244
# Poissons Ratio (y) = -0.22516 0.21253
# Poissons Ratio (z) = 0.57026 0.57042
#
# Static dielectric constant tensor:
#      x y z
#    x 3.714540 0.000000 0.000000 
#    y 0.000000 3.714520 0.000000 
#    z 0.000000 0.000000 3.636080 
# 
# 
# High freq. dielectric constant tensor:
#      x y z
#    x 1.759350 0.000000 0.000000 
#    y 0.000000 1.759350 0.000000 
#    z 0.000000 0.000000 1.747980 
# 
# From -- ./inp_files/2230.got.cif
#   From: 2010.03.12/outbox.cif.g09.slc.cpg/sg139_2_cif.got.tgz:2230.got - 2010.04.08 09:46:31.
