data_PCOD8319172
_publ_section_title
;
Structure prediction by ZEFSAII (Michael W. Deem and Ramdas Pophale) SiO2 
 PCOD8319172
Probable space group: P 42/N C M
;
_chemical_formula_sum "Si O2"
_cell_formula_units_Z 96
_cell_length_a 16.005994
_cell_length_b 16.005994
_cell_length_c 19.220336
_cell_angle_alpha 90.000000
_cell_angle_beta 90.000000
_cell_angle_gamma 90.000000
_cell_volume 4924.093321
_symmetry_space_group_name_H-M "P 42/N C M"
_symmetry_group_IT_number 138
_space_group.IT_coordinate_system_code '2'
_symmetry_cell_setting 'tetragonal'
loop_
_space_group_symop_operation_xyz
x,y,z
1/2-y,x,1/2+z
1/2-x,1/2-y,z
y,1/2-x,1/2+z
1/2+x,-y,1/2-z
-x,1/2+y,1/2-z
1/2+y,1/2+x,-z
-y,-x,-z
-x,-y,-z
1/2+y,-x,1/2-z
1/2+x,1/2+y,-z
-y,1/2+x,1/2-z
1/2-x,y,1/2+z
x,1/2-y,1/2+z
1/2-y,1/2-x,z
y,x,z
loop_
_atom_site_type_symbol
_atom_site_label
_atom_site_fract_x
_atom_site_fract_y
_atom_site_fract_z
Si Si1 0.068326 0.295521 0.931861
Si Si2 0.750284 0.884313 0.922331
Si Si3 0.576732 0.791311 0.275569
Si Si4 0.677143 0.364099 0.248363
Si Si5 0.341328 0.470517 0.825794
Si Si6 0.528583 0.100991 0.829154
O O1 0.157148 0.342853 0.916951
O O2 0.056921 0.280028 0.014035
O O3 0.061823 0.206590 0.894150
O O4 0.993805 0.353365 0.901587
O O5 0.674017 0.825984 0.896831
O O6 0.826423 0.826423 0.949520
O O7 0.780312 0.942001 0.857961
O O8 0.668921 0.831079 0.266756
O O9 0.573561 0.700963 0.240626
O O10 0.509523 0.850456 0.237655
O O11 0.773195 0.358344 0.272161
O O12 0.663178 0.428508 0.183857
O O13 0.627865 0.399989 0.316130
O O14 0.437005 0.437005 0.830329
O O15 0.493348 0.006653 0.830785
#
# Coordination Sequence:
#
# PCOD8319172 Si02
#       6
#    16  16  16  16  16  16
#     4   9  17  30  48  75 110 137 164 199 251 310
#     4   9  16  26  44  72 107 144 166 190 245 316
#     4   9  17  30  48  75 110 137 164 199 251 310
#     4  11  21  35  53  76  99 129 175 220 261 298
#     4  11  20  31  51  80 104 129 170 214 258 303
#     4   9  17  33  53  76 101 130 167 213 260 297
#
# _framework density 19.495974
#
# number of rings (size 3 to 8) (size 9 to 14) (size 15 to 20)
#    0.000    2.333    3.333    3.000    0.000    2.667 
#    0.000    0.000    0.000    2.000    0.000   11.667 
#    0.000    0.000    0.000    0.000    0.000    0.000 
#
# Total GULP energy -1189363.287081 kJ/mol
# GULP energy per Si atom -12389.200907 kJ/mol
# Density = 1.945160 g / cm^3
# Si number density = 19.495974 Si / 1000 Ang^3
#
#
#
# Elastic Constant Matrix: (Units=GPa)
#
#
# Indices 1 2 3 4 5 6 
#
# 1 56.3160 40.3745 9.4261 0.0000 0.0000 0.0000
# 2 40.3745 56.3160 9.4261 0.0000 0.0000 0.0000
# 3 9.4261 9.4261 98.9665 0.0000 0.0000 0.0000
# 4 0.0000 0.0000 0.0000 11.6699 0.0000 0.0000
# 5 0.0000 0.0000 0.0000 0.0000 11.6699 0.0000
# 6 0.0000 0.0000 0.0000 0.0000 0.0000 22.0548
#
#
#
# Elastic Compliance Matrix: (Units=1/GPa)
#
#
# Indices 1 2 3 4 5 6 
#
# 1 0.036634 -0.026096 -0.001004 0.000000 0.000000 0.000000
# 2 -0.026096 0.036634 -0.001004 0.000000 0.000000 0.000000
# 3 -0.001004 -0.001004 0.010296 0.000000 0.000000 0.000000
# 4 0.000000 0.000000 0.000000 0.085691 0.000000 0.000000
# 5 0.000000 0.000000 0.000000 0.000000 0.085691 0.000000
# 6 0.000000 0.000000 0.000000 0.000000 0.000000 0.045342
#
#
# Mechanical properties :
#
#
# Convention : Reuss Voigt Hill
#
# Bulk Modulus (GPa) = 36.55401 36.67246 36.61323
# Shear Modulus (GPa) = 13.67575 19.23703 16.45639
#
# Velocity S-wave (km/s) = 2.65139 3.14462 2.90848
# Velocity P-wave (km/s) = 5.30692 5.66003 5.48632
#
# Compressibility (1/GPa) = 0.02735678
#
# Stress axis : x y z
#
# Youngs Moduli (GPa) = 27.29735 27.29735 97.12867
#
# Poissons Ratio (x) = 0.71234 0.09749
# Poissons Ratio (y) = 0.71234 0.09749
# Poissons Ratio (z) = 0.02740 0.02740
#
# Static dielectric constant tensor:
#      x y z
#    x 3.572510 0.000000 0.000000 
#    y 0.000000 3.572510 0.000000 
#    z 0.000000 0.000000 3.367290 
# 
# 
# High freq. dielectric constant tensor:
#      x y z
#    x 1.748570 0.000000 0.000000 
#    y 0.000000 1.748570 0.000000 
#    z 0.000000 0.000000 1.729230 
# 
# From -- ./inp_files/6391.got.cif
#   From: 2010.03.12/outbox.cif.g09.slc.cpg/sg138_4_cif.got.tgz:6391.got - 2010.04.08 09:41:05.
