data_PCOD8319051
_publ_section_title
;
Structure prediction by ZEFSAII (Michael W. Deem and Ramdas Pophale) SiO2 
 PCOD8319051
Probable space group: P 42/N C M
;
_chemical_formula_sum "Si O2"
_cell_formula_units_Z 56
_cell_length_a 17.046151
_cell_length_b 17.046151
_cell_length_c 9.904903
_cell_angle_alpha 90.000000
_cell_angle_beta 90.000000
_cell_angle_gamma 90.000000
_cell_volume 2878.080184
_symmetry_space_group_name_H-M "P 42/N C M"
_symmetry_group_IT_number 138
_space_group.IT_coordinate_system_code '2'
_symmetry_cell_setting 'tetragonal'
loop_
_space_group_symop_operation_xyz
x,y,z
1/2-y,x,1/2+z
1/2-x,1/2-y,z
y,1/2-x,1/2+z
1/2+x,-y,1/2-z
-x,1/2+y,1/2-z
1/2+y,1/2+x,-z
-y,-x,-z
-x,-y,-z
1/2+y,-x,1/2-z
1/2+x,1/2+y,-z
-y,1/2+x,1/2-z
1/2-x,y,1/2+z
x,1/2-y,1/2+z
1/2-y,1/2-x,z
y,x,z
loop_
_atom_site_type_symbol
_atom_site_label
_atom_site_fract_x
_atom_site_fract_y
_atom_site_fract_z
Si Si1 0.980467 0.245634 0.580241
Si Si2 0.959663 0.416815 0.217997
Si Si3 0.110680 0.610680 0.500000
Si Si4 0.542434 0.832142 0.171514
O O1 0.949187 0.166161 0.646269
O O2 0.904141 0.298997 0.544401
O O3 0.032727 0.230975 0.447577
O O4 0.037180 0.290324 0.684015
O O5 0.947656 0.409752 0.378109
O O6 0.895207 0.473411 0.152477
O O7 0.046152 0.453849 0.192868
O O8 0.627064 0.872937 0.161179
#
# Coordination Sequence:
#
# PCOD8319051 Si02
#       4
#    16  16   8  16
#     4  11  20  39  61  90 122 155 198 251 305 356
#     4  10  20  37  64  89 116 157 209 253 292 354
#     4  10  21  36  59  92 124 154 193 254 309 362
#     4  10  22  39  62  90 119 160 208 250 295 359
#
# _framework density 19.457414
#
# number of rings (size 3 to 8) (size 9 to 14) (size 15 to 20)
#    0.000    1.714    2.857    2.143    0.000    3.429 
#    0.000    2.857    0.000    6.857    0.000    0.000 
#    0.000    0.000    0.000    0.000    0.000    0.000 
#
# Total GULP energy -694479.584278 kJ/mol
# GULP energy per Si atom -12401.421148 kJ/mol
# Density = 1.941313 g / cm^3
# Si number density = 19.457414 Si / 1000 Ang^3
#
#
#
# Elastic Constant Matrix: (Units=GPa)
#
#
# Indices 1 2 3 4 5 6 
#
# 1 100.7832 70.2181 55.5804 0.0000 0.0000 0.0000
# 2 70.2181 100.7832 55.5804 0.0000 0.0000 0.0000
# 3 55.5804 55.5804 128.7198 0.0000 0.0000 0.0000
# 4 0.0000 0.0000 0.0000 28.2130 0.0000 0.0000
# 5 0.0000 0.0000 0.0000 0.0000 28.2130 0.0000
# 6 0.0000 0.0000 0.0000 0.0000 0.0000 25.1246
#
#
#
# Elastic Compliance Matrix: (Units=1/GPa)
#
#
# Indices 1 2 3 4 5 6 
#
# 1 0.020423 -0.012294 -0.003510 0.000000 0.000000 0.000000
# 2 -0.012294 0.020423 -0.003510 0.000000 0.000000 0.000000
# 3 -0.003510 -0.003510 0.010800 0.000000 0.000000 0.000000
# 4 0.000000 0.000000 0.000000 0.035445 0.000000 0.000000
# 5 0.000000 0.000000 0.000000 0.000000 0.035445 0.000000
# 6 0.000000 0.000000 0.000000 0.000000 0.000000 0.039802
#
#
# Mechanical properties :
#
#
# Convention : Reuss Voigt Hill
#
# Bulk Modulus (GPa) = 76.81420 77.00488 76.90954
# Shear Modulus (GPa) = 24.35381 26.23727 25.29554
#
# Velocity S-wave (km/s) = 3.54170 3.67610 3.60953
# Velocity P-wave (km/s) = 7.50258 7.59476 7.54881
#
# Compressibility (1/GPa) = 0.01301843
#
# Stress axis : x y z
#
# Youngs Moduli (GPa) = 48.96327 48.96327 92.58924
#
# Poissons Ratio (x) = 0.60193 0.32503
# Poissons Ratio (y) = 0.60193 0.32503
# Poissons Ratio (z) = 0.17188 0.17188
#
# Static dielectric constant tensor:
#      x y z
#    x 3.461090 0.000000 0.000000 
#    y 0.000000 3.461090 0.000000 
#    z 0.000000 0.000000 3.806590 
# 
# 
# High freq. dielectric constant tensor:
#      x y z
#    x 1.739120 0.000000 0.000000 
#    y 0.000000 1.739120 0.000000 
#    z 0.000000 0.000000 1.786200 
# 
# From -- ./inp_files/1173.got.cif
#   From: 2010.03.12/outbox.cif.g09.slc.cpg/sg138_1_cif.got.tgz:1173.got - 2010.04.08 09:41:05.
