data_PCOD8319421
_publ_section_title
;
Structure prediction by ZEFSAII (Michael W. Deem and Ramdas Pophale) SiO2 
 PCOD8319421
Probable space group: I 4/M M M
;
_chemical_formula_sum "Si O2"
_cell_formula_units_Z 160
_cell_length_a 30.382849
_cell_length_b 30.382849
_cell_length_c 9.603996
_cell_angle_alpha 90.000000
_cell_angle_beta 90.000000
_cell_angle_gamma 90.000000
_cell_volume 8865.616906
_symmetry_space_group_name_H-M "I 4/M M M"
_symmetry_group_IT_number 139
_symmetry_cell_setting 'tetragonal'
loop_
_space_group_symop_operation_xyz
x,y,z
-y,x,z
-x,-y,z
y,-x,z
x,-y,-z
-x,y,-z
y,x,-z
-y,-x,-z
-x,-y,-z
y,-x,-z
x,y,-z
-y,x,-z
-x,y,z
x,-y,z
-y,-x,z
y,x,z
1/2+x,1/2+y,1/2+z
1/2-y,1/2+x,1/2+z
1/2-x,1/2-y,1/2+z
1/2+y,1/2-x,1/2+z
1/2+x,1/2-y,1/2-z
1/2-x,1/2+y,1/2-z
1/2+y,1/2+x,1/2-z
1/2-y,1/2-x,1/2-z
1/2-x,1/2-y,1/2-z
1/2+y,1/2-x,1/2-z
1/2+x,1/2+y,1/2-z
1/2-y,1/2+x,1/2-z
1/2-x,1/2+y,1/2+z
1/2+x,1/2-y,1/2+z
1/2-y,1/2-x,1/2+z
1/2+y,1/2+x,1/2+z
loop_
_atom_site_type_symbol
_atom_site_label
_atom_site_fract_x
_atom_site_fract_y
_atom_site_fract_z
Si Si1 0.741494 0.813930 0.657750
Si Si2 0.551364 0.109007 0.000000
Si Si3 0.947734 0.634204 0.000000
Si Si4 0.696529 0.625248 0.662097
Si Si5 0.448517 0.275378 0.159081
Si Si6 0.821333 0.551678 0.772512
O O1 0.729197 0.830479 0.500000
O O2 0.770580 0.770580 0.640102
O O3 0.698361 0.801640 0.750000
O O4 0.767224 0.850388 0.745212
O O5 0.583259 0.067063 0.000000
O O6 0.564225 0.138676 0.129465
O O7 0.500000 0.093762 0.000000
O O8 0.929080 0.663222 0.125907
O O9 0.000000 0.631339 0.000000
O O10 0.711094 0.622172 0.500000
O O11 0.649628 0.649628 0.673468
O O12 0.692577 0.576903 0.732539
O O13 0.500000 0.278745 0.194554
O O14 0.429382 0.225720 0.179892
O O15 0.439506 0.289860 0.000000
O O16 0.814973 0.500000 0.769434
#
# Coordination Sequence:
#
# PCOD8319421 Si02
#       6
#    32  16  16  32  32  32
#     4   9  16  28  47  68  94 133 175 212 255 307
#     4  10  18  33  52  68  97 133 165 213 272 324
#     4  10  20  31  48  74  99 129 169 213 268 328
#     4  10  21  35  53  80 112 141 172 214 264 315
#     4  10  20  36  58  79 101 136 181 219 259 312
#     4   9  18  33  51  71  95 126 165 213 264 311
#
# _framework density 18.047249999999998
#
# number of rings (size 3 to 8) (size 9 to 14) (size 15 to 20)
#    0.000    2.400    1.000    1.800    1.400    4.200 
#    0.000    2.000    0.000    3.600    0.000    0.000 
#    0.000    0.400    0.000    4.400    0.000    3.200 
#
# Total GULP energy -991308.996641 kJ/mol
# GULP energy per Si atom -12391.362458 kJ/mol
# Density = 1.800617 g / cm^3
# Si number density = 18.047250 Si / 1000 Ang^3
#
#
#
# Elastic Constant Matrix: (Units=GPa)
#
#
# Indices 1 2 3 4 5 6 
#
# 1 58.6762 28.7223 43.9585 0.0000 0.0000 0.0000
# 2 28.7223 58.6754 43.9582 0.0000 0.0000 0.0000
# 3 43.9585 43.9582 170.5769 0.0000 0.0000 0.0000
# 4 0.0000 0.0000 0.0000 33.4812 0.0000 0.0000
# 5 0.0000 0.0000 0.0000 0.0000 33.4812 0.0000
# 6 0.0000 0.0000 0.0000 0.0000 0.0000 22.9886
#
#
#
# Elastic Compliance Matrix: (Units=1/GPa)
#
#
# Indices 1 2 3 4 5 6 
#
# 1 0.024415 -0.008970 -0.003980 0.000000 0.000000 0.000000
# 2 -0.008970 0.024416 -0.003981 0.000000 0.000000 0.000000
# 3 -0.003980 -0.003981 0.007914 0.000000 0.000000 0.000000
# 4 0.000000 0.000000 0.000000 0.029868 0.000000 0.000000
# 5 0.000000 0.000000 0.000000 0.000000 0.029868 0.000000
# 6 0.000000 0.000000 0.000000 0.000000 0.000000 0.043500
#
#
# Mechanical properties :
#
#
# Convention : Reuss Voigt Hill
#
# Bulk Modulus (GPa) = 43.69853 57.91185 50.80519
# Shear Modulus (GPa) = 24.81770 29.40948 27.11359
#
# Velocity S-wave (km/s) = 3.71233 4.04119 3.88024
# Velocity P-wave (km/s) = 6.53002 7.34395 6.94891
#
# Compressibility (1/GPa) = 0.02288406
#
# Stress axis : x y z
#
# Youngs Moduli (GPa) = 40.95777 40.95729 126.35771
#
# Poissons Ratio (x) = 0.36737 0.50297
# Poissons Ratio (y) = 0.36737 0.50297
# Poissons Ratio (z) = 0.16303 0.16303
#
# Static dielectric constant tensor:
#      x y z
#    x 3.141900 0.000000 0.000000 
#    y 0.000000 3.141900 0.000000 
#    z 0.000000 0.000000 3.650700 
# 
# 
# High freq. dielectric constant tensor:
#      x y z
#    x 1.669490 0.000000 0.000000 
#    y 0.000000 1.669490 0.000000 
#    z 0.000000 0.000000 1.723380 
# 
# From -- ./inp_files/2285.got.cif
#   From: 2010.03.12/outbox.cif.g09.slc.cpg/sg139_2_cif.got.tgz:2285.got - 2010.04.08 09:46:31.
