data_PCOD8319324
_publ_section_title
;
Structure prediction by ZEFSAII (Michael W. Deem and Ramdas Pophale) SiO2 
 PCOD8319324
Probable space group: I 4/M M M
;
_chemical_formula_sum "Si O2"
_cell_formula_units_Z 160
_cell_length_a 19.292635
_cell_length_b 19.292635
_cell_length_c 31.002006
_cell_angle_alpha 90.000000
_cell_angle_beta 90.000000
_cell_angle_gamma 90.000000
_cell_volume 11539.125367
_symmetry_space_group_name_H-M "I 4/M M M"
_symmetry_group_IT_number 139
_symmetry_cell_setting 'tetragonal'
loop_
_space_group_symop_operation_xyz
x,y,z
-y,x,z
-x,-y,z
y,-x,z
x,-y,-z
-x,y,-z
y,x,-z
-y,-x,-z
-x,-y,-z
y,-x,-z
x,y,-z
-y,x,-z
-x,y,z
x,-y,z
-y,-x,z
y,x,z
1/2+x,1/2+y,1/2+z
1/2-y,1/2+x,1/2+z
1/2-x,1/2-y,1/2+z
1/2+y,1/2-x,1/2+z
1/2+x,1/2-y,1/2-z
1/2-x,1/2+y,1/2-z
1/2+y,1/2+x,1/2-z
1/2-y,1/2-x,1/2-z
1/2-x,1/2-y,1/2-z
1/2+y,1/2-x,1/2-z
1/2+x,1/2+y,1/2-z
1/2-y,1/2+x,1/2-z
1/2-x,1/2+y,1/2+z
1/2+x,1/2-y,1/2+z
1/2-y,1/2-x,1/2+z
1/2+y,1/2+x,1/2+z
loop_
_atom_site_type_symbol
_atom_site_label
_atom_site_fract_x
_atom_site_fract_y
_atom_site_fract_z
Si Si1 0.689690 0.578886 0.915358
Si Si2 0.578132 0.309767 0.185626
Si Si3 0.417509 0.166245 0.047863
Si Si4 0.577753 0.917540 0.626519
Si Si5 0.343407 0.919121 0.288275
O O1 0.672703 0.500000 0.928107
O O2 0.623830 0.623830 0.929432
O O3 0.705654 0.585703 0.864855
O O4 0.756473 0.607578 0.940585
O O5 0.500000 0.335166 0.195897
O O6 0.630856 0.369144 0.201470
O O7 0.594465 0.238754 0.210587
O O8 0.500000 0.164939 0.049930
O O9 0.387382 0.111884 0.082651
O O10 0.390850 0.146126 0.000000
O O11 0.500000 0.887896 0.630198
O O12 0.621945 0.892542 0.667466
O O13 0.577234 0.000000 0.624657
O O14 0.374622 0.874622 0.250000
O O15 0.360160 0.000000 0.280754
#
# Coordination Sequence:
#
# PCOD8319324 Si02
#       5
#    32  32  32  32  32
#     4   9  16  27  41  56  76 101 130 165 202 238
#     4   9  17  29  44  60  80 105 133 167 203 238
#     4   9  16  26  39  54  73  98 127 159 197 236
#     4   9  16  26  39  55  76 100 127 159 192 229
#     4  10  18  28  42  61  84 108 133 161 197 240
#
# _framework density 13.865869
#
# number of rings (size 3 to 8) (size 9 to 14) (size 15 to 20)
#    0.000    2.800    2.000    0.600    0.000    2.600 
#    0.000    4.000    0.000    0.000    0.000    2.800 
#    0.000    0.000    0.000    0.000    0.000    0.000 
#
# Total GULP energy -991777.669355 kJ/mol
# GULP energy per Si atom -12397.220867 kJ/mol
# Density = 1.383431 g / cm^3
# Si number density = 13.865869 Si / 1000 Ang^3
#
#
#
# Elastic Constant Matrix: (Units=GPa)
#
#
# Indices 1 2 3 4 5 6 
#
# 1 70.4160 42.9347 41.1549 0.0000 0.0000 0.0000
# 2 42.9347 70.4160 41.1549 0.0000 0.0000 0.0000
# 3 41.1549 41.1549 86.3491 0.0000 0.0000 0.0000
# 4 0.0000 0.0000 0.0000 16.5951 0.0000 0.0000
# 5 0.0000 0.0000 0.0000 0.0000 16.5951 0.0000
# 6 0.0000 0.0000 0.0000 0.0000 0.0000 13.6515
#
#
#
# Elastic Compliance Matrix: (Units=1/GPa)
#
#
# Indices 1 2 3 4 5 6 
#
# 1 0.024940 -0.011448 -0.006430 0.000000 0.000000 0.000000
# 2 -0.011448 0.024940 -0.006430 0.000000 0.000000 0.000000
# 3 -0.006430 -0.006430 0.017710 0.000000 0.000000 0.000000
# 4 0.000000 0.000000 0.000000 0.060259 0.000000 0.000000
# 5 0.000000 0.000000 0.000000 0.000000 0.060259 0.000000
# 6 0.000000 0.000000 0.000000 0.000000 0.000000 0.073252
#
#
# Mechanical properties :
#
#
# Convention : Reuss Voigt Hill
#
# Bulk Modulus (GPa) = 52.70784 53.07444 52.89114
# Shear Modulus (GPa) = 15.80771 16.16412 15.98591
#
# Velocity S-wave (km/s) = 3.38012 3.41801 3.39912
# Velocity P-wave (km/s) = 7.30265 7.34419 7.32345
#
# Compressibility (1/GPa) = 0.01897251
#
# Stress axis : x y z
#
# Youngs Moduli (GPa) = 40.09634 40.09634 56.46438
#
# Poissons Ratio (x) = 0.45904 0.36308
# Poissons Ratio (y) = 0.45904 0.36308
# Poissons Ratio (z) = 0.25783 0.25783
#
# Static dielectric constant tensor:
#      x y z
#    x 2.621950 0.000000 0.000000 
#    y 0.000000 2.621950 0.000000 
#    z 0.000000 0.000000 2.751020 
# 
# 
# High freq. dielectric constant tensor:
#      x y z
#    x 1.504300 0.000000 0.000000 
#    y 0.000000 1.504300 0.000000 
#    z 0.000000 0.000000 1.524840 
# 
# From -- ./inp_files/14035.got.cif
#   From: 2010.03.12/outbox.cif.g09.slc.cpg/sg139_8_cif.got.tgz:14035.got - 2010.04.08 09:46:31.
