data_PCOD8319128
_publ_section_title
;
Structure prediction by ZEFSAII (Michael W. Deem and Ramdas Pophale) SiO2 
 PCOD8319128
Probable space group: P 42/N C M
;
_chemical_formula_sum "Si O2"
_cell_formula_units_Z 68
_cell_length_a 12.575671
_cell_length_b 12.575671
_cell_length_c 22.895794
_cell_angle_alpha 90.000000
_cell_angle_beta 90.000000
_cell_angle_gamma 90.000000
_cell_volume 3620.912607
_symmetry_space_group_name_H-M "P 42/N C M"
_symmetry_group_IT_number 138
_space_group.IT_coordinate_system_code '2'
_symmetry_cell_setting 'tetragonal'
loop_
_space_group_symop_operation_xyz
x,y,z
1/2-y,x,1/2+z
1/2-x,1/2-y,z
y,1/2-x,1/2+z
1/2+x,-y,1/2-z
-x,1/2+y,1/2-z
1/2+y,1/2+x,-z
-y,-x,-z
-x,-y,-z
1/2+y,-x,1/2-z
1/2+x,1/2+y,-z
-y,1/2+x,1/2-z
1/2-x,y,1/2+z
x,1/2-y,1/2+z
1/2-y,1/2-x,z
y,x,z
loop_
_atom_site_type_symbol
_atom_site_label
_atom_site_fract_x
_atom_site_fract_y
_atom_site_fract_z
Si Si1 0.544076 0.248140 0.316795
Si Si2 0.663463 0.836538 0.623518
Si Si3 0.250000 0.750000 0.500000
Si Si4 0.863703 0.035345 0.305992
Si Si5 0.013701 0.486300 0.433351
Si Si6 0.304618 0.616008 0.106780
O O1 0.427809 0.220270 0.339568
O O2 0.546166 0.374920 0.311994
O O3 0.557413 0.194006 0.254597
O O4 0.646642 0.217429 0.357703
O O5 0.750000 0.750000 0.601847
O O6 0.604725 0.895275 0.570273
O O7 0.148742 0.746030 0.456218
O O8 0.779532 0.044922 0.358388
O O9 0.920141 0.920141 0.308472
O O10 0.042328 0.594263 0.401626
O O11 0.000000 0.500000 0.500000
#
# Coordination Sequence:
#
# PCOD8319128 Si02
#       6
#    16   8   4  16   8  16
#     4  11  21  37  62  86 120 161 202 247 308 379
#     4  10  22  40  56  92 124 157 197 254 313 366
#     4  12  20  38  68  88 116 162 214 250 296 350
#     4  12  23  38  60  93 122 158 203 259 313 368
#     4  10  22  42  68  86 120 168 211 246 297 365
#     4  11  23  39  64  91 119 161 209 252 300 366
#
# _framework density 18.779796000000001
#
# number of rings (size 3 to 8) (size 9 to 14) (size 15 to 20)
#    0.000    0.941    7.059    0.706    0.000    0.000 
#    2.118    2.353    0.000    0.000    0.000    0.000 
#    0.000    0.000    0.000    0.000    0.000    0.000 
#
# Total GULP energy -842895.580089 kJ/mol
# GULP energy per Si atom -12395.523237 kJ/mol
# Density = 1.873705 g / cm^3
# Si number density = 18.779796 Si / 1000 Ang^3
#
#
#
# Elastic Constant Matrix: (Units=GPa)
#
#
# Indices 1 2 3 4 5 6 
#
# 1 98.5967 47.8879 41.4486 0.0000 0.0000 0.0000
# 2 47.8879 98.5967 41.4486 0.0000 0.0000 0.0000
# 3 41.4486 41.4486 126.9679 0.0000 0.0000 0.0000
# 4 0.0000 0.0000 0.0000 -38.2136 0.0000 0.0000
# 5 0.0000 0.0000 0.0000 0.0000 -38.2136 0.0000
# 6 0.0000 0.0000 0.0000 0.0000 0.0000 25.7778
#
#
#
# Elastic Compliance Matrix: (Units=1/GPa)
#
#
# Indices 1 2 3 4 5 6 
#
# 1 0.014047 -0.005673 -0.002734 0.000000 0.000000 0.000000
# 2 -0.005673 0.014047 -0.002734 0.000000 0.000000 0.000000
# 3 -0.002734 -0.002734 0.009661 0.000000 0.000000 0.000000
# 4 0.000000 0.000000 0.000000 -0.026169 0.000000 0.000000
# 5 0.000000 0.000000 0.000000 0.000000 -0.026169 0.000000
# 6 0.000000 0.000000 0.000000 0.000000 0.000000 0.038793
#
#
# Mechanical properties :
#
#
# Convention : Reuss Voigt Hill
#
# Bulk Modulus (GPa) = 64.62569 65.08127 64.85348
# Shear Modulus (GPa) = 96.80612 2.76184 49.78398
#
# Velocity S-wave (km/s) = 7.18748 1.21402 5.15431
# Velocity P-wave (km/s) = 10.16695 6.05766 8.36846
#
# Compressibility (1/GPa) = 0.01547372
#
# Stress axis : x y z
#
# Youngs Moduli (GPa) = 71.18938 71.18938 103.51172
#
# Poissons Ratio (x) = 0.40389 0.28296
# Poissons Ratio (y) = 0.40389 0.28296
# Poissons Ratio (z) = 0.19460 0.19460
#
# Static dielectric constant tensor:
#      x y z
#    x 3.158230 0.000000 0.000000 
#    y 0.000000 3.158230 0.000000 
#    z 0.000000 0.000000 3.482580 
# 
# 
# High freq. dielectric constant tensor:
#      x y z
#    x 1.730360 0.000000 0.000000 
#    y 0.000000 1.730360 0.000000 
#    z 0.000000 0.000000 1.731130 
# 
# From -- ./inp_files/7440.got.cif
#   From: 2010.03.12/outbox.cif.g09.slc.cpg/sg138_4_cif.got.tgz:7440.got - 2010.04.08 09:41:05.
