data_PCOD8319544
_publ_section_title
;
Structure prediction by ZEFSAII (Michael W. Deem and Ramdas Pophale) SiO2 
 PCOD8319544
Probable space group: I 4/M M M
;
_chemical_formula_sum "Si O2"
_cell_formula_units_Z 192
_cell_length_a 31.110115
_cell_length_b 31.110115
_cell_length_c 10.926678
_cell_angle_alpha 90.000000
_cell_angle_beta 90.000000
_cell_angle_gamma 90.000000
_cell_volume 10575.267899
_symmetry_space_group_name_H-M "I 4/M M M"
_symmetry_group_IT_number 139
_symmetry_cell_setting 'tetragonal'
loop_
_space_group_symop_operation_xyz
x,y,z
-y,x,z
-x,-y,z
y,-x,z
x,-y,-z
-x,y,-z
y,x,-z
-y,-x,-z
-x,-y,-z
y,-x,-z
x,y,-z
-y,x,-z
-x,y,z
x,-y,z
-y,-x,z
y,x,z
1/2+x,1/2+y,1/2+z
1/2-y,1/2+x,1/2+z
1/2-x,1/2-y,1/2+z
1/2+y,1/2-x,1/2+z
1/2+x,1/2-y,1/2-z
1/2-x,1/2+y,1/2-z
1/2+y,1/2+x,1/2-z
1/2-y,1/2-x,1/2-z
1/2-x,1/2-y,1/2-z
1/2+y,1/2-x,1/2-z
1/2+x,1/2+y,1/2-z
1/2-y,1/2+x,1/2-z
1/2-x,1/2+y,1/2+z
1/2+x,1/2-y,1/2+z
1/2-y,1/2-x,1/2+z
1/2+y,1/2+x,1/2+z
loop_
_atom_site_type_symbol
_atom_site_label
_atom_site_fract_x
_atom_site_fract_y
_atom_site_fract_z
Si Si1 0.118951 0.950554 0.240630
Si Si2 0.832515 0.050960 0.000000
Si Si3 0.867616 0.322721 0.642866
Si Si4 0.201877 0.074461 0.359970
Si Si5 0.268791 0.334639 0.856028
Si Si6 0.787140 0.547986 0.239964
Si Si7 0.263280 0.949281 0.000000
O O1 0.076423 0.923578 0.270189
O O2 0.141268 0.933181 0.117622
O O3 0.154002 0.944066 0.347135
O O4 0.104615 0.000000 0.231627
O O5 0.784638 0.071660 0.000000
O O6 0.829426 0.000000 0.000000
O O7 0.859204 0.337363 0.500000
O O8 0.857456 0.357456 0.750000
O O9 0.838730 0.281284 0.679112
O O10 0.918334 0.311451 0.652470
O O11 0.215956 0.072689 0.500000
O O12 0.205208 0.123368 0.310327
O O13 0.236119 0.045222 0.287736
O O14 0.292121 0.292121 0.798485
O O15 0.272494 0.331842 0.000000
O O16 0.806732 0.500000 0.222138
O O17 0.790815 0.564288 0.380814
O O18 0.256831 0.000000 0.000000
#
# Coordination Sequence:
#
# PCOD8319544 Si02
#       7
#    32  16  32  32  32  32  16
#     4  11  22  34  48  64  86 118 156 203 259 321
#     4   9  17  33  50  69  91 112 146 195 258 316
#     4  10  22  36  52  77 109 149 186 221 261 300
#     4  10  19  31  50  75  99 123 156 206 264 314
#     4   8  15  30  50  71  97 130 170 213 256 305
#     4  10  19  33  56  83 109 136 170 210 259 316
#     4   9  16  29  53  82 105 129 157 202 267 317
#
# _framework density 18.155569
#
# number of rings (size 3 to 8) (size 9 to 14) (size 15 to 20)
#    0.000    2.333    1.667    2.750    1.167    3.833 
#    0.000    0.000    0.000    1.500    0.000    1.167 
#    0.000    0.333    0.000    1.500    0.000    0.000 
#
# Total GULP energy -1189645.989132 kJ/mol
# GULP energy per Si atom -12392.145720 kJ/mol
# Density = 1.811425 g / cm^3
# Si number density = 18.155569 Si / 1000 Ang^3
#
#
#
# Elastic Constant Matrix: (Units=GPa)
#
#
# Indices 1 2 3 4 5 6 
#
# 1 52.1209 30.2422 21.3029 0.0000 0.0000 0.0000
# 2 30.2422 52.1209 21.3029 0.0000 0.0000 0.0000
# 3 21.3029 21.3029 82.4984 0.0000 0.0000 0.0000
# 4 0.0000 0.0000 0.0000 21.7812 0.0000 0.0000
# 5 0.0000 0.0000 0.0000 0.0000 21.7812 0.0000
# 6 0.0000 0.0000 0.0000 0.0000 0.0000 19.9408
#
#
#
# Elastic Compliance Matrix: (Units=1/GPa)
#
#
# Indices 1 2 3 4 5 6 
#
# 1 0.029860 -0.015847 -0.003619 0.000000 0.000000 0.000000
# 2 -0.015847 0.029860 -0.003619 0.000000 0.000000 0.000000
# 3 -0.003619 -0.003619 0.013990 0.000000 0.000000 0.000000
# 4 0.000000 0.000000 0.000000 0.045911 0.000000 0.000000
# 5 0.000000 0.000000 0.000000 0.000000 0.045911 0.000000
# 6 0.000000 0.000000 0.000000 0.000000 0.000000 0.050148
#
#
# Mechanical properties :
#
#
# Convention : Reuss Voigt Hill
#
# Bulk Modulus (GPa) = 36.30751 36.93738 36.62244
# Shear Modulus (GPa) = 18.44821 20.29347 19.37084
#
# Velocity S-wave (km/s) = 3.19112 3.34691 3.26994
# Velocity P-wave (km/s) = 5.79820 5.94347 5.87128
#
# Compressibility (1/GPa) = 0.02754251
#
# Stress axis : x y z
#
# Youngs Moduli (GPa) = 33.48967 33.48967 71.47858
#
# Poissons Ratio (x) = 0.53070 0.25865
# Poissons Ratio (y) = 0.53070 0.25865
# Poissons Ratio (z) = 0.12118 0.12118
#
# Static dielectric constant tensor:
#      x y z
#    x 3.172720 0.000000 0.000000 
#    y 0.000000 3.172720 0.000000 
#    z 0.000000 0.000000 3.433720 
# 
# 
# High freq. dielectric constant tensor:
#      x y z
#    x 1.671890 0.000000 0.000000 
#    y 0.000000 1.671890 0.000000 
#    z 0.000000 0.000000 1.704530 
# 
# From -- ./inp_files/4300.got.cif
#   From: 2010.03.12/outbox.cif.g09.slc.cpg/sg139_3_cif.got.tgz:4300.got - 2010.04.08 09:46:31.
