data_PCOD8319831
_publ_section_title
;
Structure prediction by ZEFSAII (Michael W. Deem and Ramdas Pophale) SiO2 
 PCOD8319831
Probable space group: I 4/M M M
;
_chemical_formula_sum "Si O2"
_cell_formula_units_Z 160
_cell_length_a 20.215943
_cell_length_b 20.215943
_cell_length_c 20.543291
_cell_angle_alpha 90.000000
_cell_angle_beta 90.000000
_cell_angle_gamma 90.000000
_cell_volume 8395.721558
_symmetry_space_group_name_H-M "I 4/M M M"
_symmetry_group_IT_number 139
_symmetry_cell_setting 'tetragonal'
loop_
_space_group_symop_operation_xyz
x,y,z
-y,x,z
-x,-y,z
y,-x,z
x,-y,-z
-x,y,-z
y,x,-z
-y,-x,-z
-x,-y,-z
y,-x,-z
x,y,-z
-y,x,-z
-x,y,z
x,-y,z
-y,-x,z
y,x,z
1/2+x,1/2+y,1/2+z
1/2-y,1/2+x,1/2+z
1/2-x,1/2-y,1/2+z
1/2+y,1/2-x,1/2+z
1/2+x,1/2-y,1/2-z
1/2-x,1/2+y,1/2-z
1/2+y,1/2+x,1/2-z
1/2-y,1/2-x,1/2-z
1/2-x,1/2-y,1/2-z
1/2+y,1/2-x,1/2-z
1/2+x,1/2+y,1/2-z
1/2-y,1/2+x,1/2-z
1/2-x,1/2+y,1/2+z
1/2+x,1/2-y,1/2+z
1/2-y,1/2-x,1/2+z
1/2+y,1/2+x,1/2+z
loop_
_atom_site_type_symbol
_atom_site_label
_atom_site_fract_x
_atom_site_fract_y
_atom_site_fract_z
Si Si1 0.425095 0.317660 0.382385
Si Si2 0.364724 0.253777 0.500000
Si Si3 0.259835 0.851068 0.500000
Si Si4 0.923383 0.815006 0.264797
Si Si5 0.423054 0.927749 0.174494
Si Si6 0.921743 0.710431 0.371663
O O1 0.500000 0.340404 0.391439
O O2 0.382489 0.382489 0.396854
O O3 0.408145 0.260622 0.434494
O O4 0.412465 0.290414 0.309470
O O5 0.307502 0.307502 0.500000
O O6 0.331884 0.182129 0.500000
O O7 0.200585 0.799416 0.500000
O O8 0.254160 0.895711 0.436150
O O9 0.880208 0.880208 0.279626
O O10 0.899542 0.754868 0.310280
O O11 0.000000 0.833689 0.277626
O O12 0.500000 0.933330 0.158456
O O13 0.412457 0.912457 0.250000
O O14 0.392932 0.864727 0.135619
O O15 0.390409 0.000000 0.156239
O O16 0.000000 0.706961 0.375157
#
# Coordination Sequence:
#
# PCOD8319831 Si02
#       6
#    32  16  16  32  32  32
#     4   9  17  31  51  75 106 140 173 211 251 295
#     4   9  19  34  47  64  95 133 170 206 246 291
#     4  11  23  38  54  70  95 135 177 216 262 313
#     4   9  18  32  52  79 108 139 175 214 257 304
#     4   8  15  30  52  77 105 134 162 199 253 314
#     4  10  20  35  55  78 103 131 168 215 263 312
#
# _framework density 19.057327000000001
#
# number of rings (size 3 to 8) (size 9 to 14) (size 15 to 20)
#    0.000    2.800    0.000    1.800    0.000    2.000 
#    0.000    6.500    0.000   10.200    0.000    0.000 
#    0.000    7.200    0.000    0.000    0.000    0.000 
#
# Total GULP energy -991522.791056 kJ/mol
# GULP energy per Si atom -12394.034888 kJ/mol
# Density = 1.901395 g / cm^3
# Si number density = 19.057327 Si / 1000 Ang^3
#
#
#
# Elastic Constant Matrix: (Units=GPa)
#
#
# Indices 1 2 3 4 5 6 
#
# 1 51.9276 40.1610 44.0569 0.0000 0.0000 0.0000
# 2 40.1610 51.9277 44.0570 0.0000 0.0000 0.0000
# 3 44.0569 44.0570 120.5261 0.0000 0.0000 0.0000
# 4 0.0000 0.0000 0.0000 24.0634 0.0000 0.0000
# 5 0.0000 0.0000 0.0000 0.0000 24.0453 0.0000
# 6 0.0000 0.0000 0.0000 0.0000 0.0000 22.0438
#
#
#
# Elastic Compliance Matrix: (Units=1/GPa)
#
#
# Indices 1 2 3 4 5 6 
#
# 1 0.050843 -0.034143 -0.006105 0.000000 0.000000 0.000000
# 2 -0.034143 0.050843 -0.006105 0.000000 0.000000 0.000000
# 3 -0.006105 -0.006105 0.012760 0.000000 0.000000 0.000000
# 4 0.000000 0.000000 0.000000 0.041557 0.000000 0.000000
# 5 0.000000 0.000000 0.000000 0.000000 0.041588 0.000000
# 6 0.000000 0.000000 0.000000 0.000000 0.000000 0.045364
#
#
# Mechanical properties :
#
#
# Convention : Reuss Voigt Hill
#
# Bulk Modulus (GPa) = 45.99399 53.43681 49.71540
# Shear Modulus (GPa) = 14.58120 20.43759 17.50940
#
# Velocity S-wave (km/s) = 2.76909 3.27835 3.03442
# Velocity P-wave (km/s) = 5.86607 6.51391 6.19846
#
# Compressibility (1/GPa) = 0.02174197
#
# Stress axis : x y z
#
# Youngs Moduli (GPa) = 19.66831 19.66831 78.37077
#
# Poissons Ratio (x) = 0.67154 0.47842
# Poissons Ratio (y) = 0.67154 0.47842
# Poissons Ratio (z) = 0.12007 0.12007
#
# Static dielectric constant tensor:
#      x y z
#    x 3.473700 0.000000 0.000000 
#    y 0.000000 3.473700 0.000000 
#    z 0.000000 0.000000 3.629320 
# 
# 
# High freq. dielectric constant tensor:
#      x y z
#    x 1.729650 0.000000 0.000000 
#    y 0.000000 1.729650 0.000000 
#    z 0.000000 0.000000 1.739140 
# 
# From -- ./inp_files/8435.got.cif
#   From: 2010.03.12/outbox.cif.g09.slc.cpg/sg139_5_cif.got.tgz:8435.got - 2010.04.08 09:46:31.
