data_PCOD8319525
_publ_section_title
;
Structure prediction by ZEFSAII (Michael W. Deem and Ramdas Pophale) SiO2 
 PCOD8319525
Probable space group: I 4/M M M
;
_chemical_formula_sum "Si O2"
_cell_formula_units_Z 80
_cell_length_a 24.015756
_cell_length_b 24.015756
_cell_length_c 7.853292
_cell_angle_alpha 90.000000
_cell_angle_beta 90.000000
_cell_angle_gamma 90.000000
_cell_volume 4529.437492
_symmetry_space_group_name_H-M "I 4/M M M"
_symmetry_group_IT_number 139
_symmetry_cell_setting 'tetragonal'
loop_
_space_group_symop_operation_xyz
x,y,z
-y,x,z
-x,-y,z
y,-x,z
x,-y,-z
-x,y,-z
y,x,-z
-y,-x,-z
-x,-y,-z
y,-x,-z
x,y,-z
-y,x,-z
-x,y,z
x,-y,z
-y,-x,z
y,x,z
1/2+x,1/2+y,1/2+z
1/2-y,1/2+x,1/2+z
1/2-x,1/2-y,1/2+z
1/2+y,1/2-x,1/2+z
1/2+x,1/2-y,1/2-z
1/2-x,1/2+y,1/2-z
1/2+y,1/2+x,1/2-z
1/2-y,1/2-x,1/2-z
1/2-x,1/2-y,1/2-z
1/2+y,1/2-x,1/2-z
1/2+x,1/2+y,1/2-z
1/2-y,1/2+x,1/2-z
1/2-x,1/2+y,1/2+z
1/2+x,1/2-y,1/2+z
1/2-y,1/2-x,1/2+z
1/2+y,1/2+x,1/2+z
loop_
_atom_site_type_symbol
_atom_site_label
_atom_site_fract_x
_atom_site_fract_y
_atom_site_fract_z
Si Si1 0.729909 0.434138 0.811377
Si Si2 0.848263 0.437123 0.699410
Si Si3 0.433814 0.344933 0.500000
O O1 0.732976 0.500000 0.791812
O O2 0.792619 0.411421 0.784753
O O3 0.687946 0.412056 0.667192
O O4 0.708812 0.416334 0.000000
O O5 0.838010 0.436449 0.500000
O O6 0.859650 0.500000 0.763888
O O7 0.901214 0.401214 0.750000
O O8 0.500000 0.353976 0.500000
O O9 0.405448 0.405448 0.500000
#
# Coordination Sequence:
#
# PCOD8319525 Si02
#       3
#    32  32  16
#     4   9  17  32  53  75 100 135 179 215 248 299
#     4  10  19  31  48  73 104 138 179 223 265 308
#     4  10  20  35  56  82 109 135 167 207 253 311
#
# _framework density 17.662237000000001
#
# number of rings (size 3 to 8) (size 9 to 14) (size 15 to 20)
#    0.000    2.400    2.000    1.200    0.000    3.800 
#    0.000    2.000    0.000    1.200    0.000    5.600 
#    0.000    0.000    0.000    0.000    0.000    0.000 
#
# Total GULP energy -495868.507258 kJ/mol
# GULP energy per Si atom -12396.712681 kJ/mol
# Density = 1.762204 g / cm^3
# Si number density = 17.662237 Si / 1000 Ang^3
#
#
#
# Elastic Constant Matrix: (Units=GPa)
#
#
# Indices 1 2 3 4 5 6 
#
# 1 74.5520 45.7186 37.6826 0.0000 0.0000 0.0000
# 2 45.7186 74.5520 37.6826 0.0000 0.0000 0.0000
# 3 37.6826 37.6826 129.0148 0.0000 0.0000 0.0000
# 4 0.0000 0.0000 0.0000 16.8999 0.0000 0.0000
# 5 0.0000 0.0000 0.0000 0.0000 16.8999 0.0000
# 6 0.0000 0.0000 0.0000 0.0000 0.0000 8.6189
#
#
#
# Elastic Compliance Matrix: (Units=1/GPa)
#
#
# Indices 1 2 3 4 5 6 
#
# 1 0.022430 -0.012252 -0.002973 0.000000 0.000000 0.000000
# 2 -0.012252 0.022430 -0.002973 0.000000 0.000000 0.000000
# 3 -0.002973 -0.002973 0.009488 0.000000 0.000000 0.000000
# 4 0.000000 0.000000 0.000000 0.059172 0.000000 0.000000
# 5 0.000000 0.000000 0.000000 0.000000 0.059172 0.000000
# 6 0.000000 0.000000 0.000000 0.000000 0.000000 0.116024
#
#
# Mechanical properties :
#
#
# Convention : Reuss Voigt Hill
#
# Bulk Modulus (GPa) = 55.70480 57.80960 56.75720
# Shear Modulus (GPa) = 15.10149 18.95276 17.02712
#
# Velocity S-wave (km/s) = 2.92724 3.27932 3.10827
# Velocity P-wave (km/s) = 6.55990 6.86588 6.71463
#
# Compressibility (1/GPa) = 0.01795177
#
# Stress axis : x y z
#
# Youngs Moduli (GPa) = 44.58388 44.58388 105.40174
#
# Poissons Ratio (x) = 0.54626 0.31332
# Poissons Ratio (y) = 0.54626 0.31332
# Poissons Ratio (z) = 0.13253 0.13253
#
# Static dielectric constant tensor:
#      x y z
#    x 3.472070 0.000000 0.000000 
#    y 0.000000 3.472070 0.000000 
#    z 0.000000 0.000000 3.563050 
# 
# 
# High freq. dielectric constant tensor:
#      x y z
#    x 1.653990 0.000000 0.000000 
#    y 0.000000 1.653990 0.000000 
#    z 0.000000 0.000000 1.705450 
# 
# From -- ./inp_files/934.got.cif
#   From: 2010.03.12/outbox.cif.g09.slc.cpg/sg139_1_cif.got.tgz:934.got - 2010.04.08 09:46:31.
