data_PCOD8319321
_publ_section_title
;
Structure prediction by ZEFSAII (Michael W. Deem and Ramdas Pophale) SiO2 
 PCOD8319321
Probable space group: I 4/M M M
;
_chemical_formula_sum "Si O2"
_cell_formula_units_Z 144
_cell_length_a 23.465042
_cell_length_b 23.465042
_cell_length_c 16.437275
_cell_angle_alpha 90.000000
_cell_angle_beta 90.000000
_cell_angle_gamma 90.000000
_cell_volume 9050.498336
_symmetry_space_group_name_H-M "I 4/M M M"
_symmetry_group_IT_number 139
_symmetry_cell_setting 'tetragonal'
loop_
_space_group_symop_operation_xyz
x,y,z
-y,x,z
-x,-y,z
y,-x,z
x,-y,-z
-x,y,-z
y,x,-z
-y,-x,-z
-x,-y,-z
y,-x,-z
x,y,-z
-y,x,-z
-x,y,z
x,-y,z
-y,-x,z
y,x,z
1/2+x,1/2+y,1/2+z
1/2-y,1/2+x,1/2+z
1/2-x,1/2-y,1/2+z
1/2+y,1/2-x,1/2+z
1/2+x,1/2-y,1/2-z
1/2-x,1/2+y,1/2-z
1/2+y,1/2+x,1/2-z
1/2-y,1/2-x,1/2-z
1/2-x,1/2-y,1/2-z
1/2+y,1/2-x,1/2-z
1/2+x,1/2+y,1/2-z
1/2-y,1/2+x,1/2-z
1/2-x,1/2+y,1/2+z
1/2+x,1/2-y,1/2+z
1/2-y,1/2-x,1/2+z
1/2+y,1/2+x,1/2+z
loop_
_atom_site_type_symbol
_atom_site_label
_atom_site_fract_x
_atom_site_fract_y
_atom_site_fract_z
Si Si1 0.670836 0.881019 0.172930
Si Si2 0.685469 0.000000 0.901598
Si Si3 0.411745 0.500000 0.595794
Si Si4 0.710358 0.381993 0.240603
Si Si5 0.000000 0.197222 0.805952
Si Si6 0.172644 0.262793 0.591723
O O1 0.628500 0.871501 0.250000
O O2 0.654749 0.941561 0.129910
O O3 0.735708 0.875998 0.201009
O O4 0.666728 0.829985 0.108177
O O5 0.745407 0.000000 0.857215
O O6 0.689289 0.000000 0.000000
O O7 0.443958 0.443958 0.629061
O O8 0.412746 0.500000 0.500000
O O9 0.347770 0.500000 0.622937
O O10 0.661971 0.338030 0.270207
O O11 0.688326 0.446341 0.246957
O O12 0.728111 0.371137 0.147811
O O13 0.153135 0.251772 0.500000
O O14 0.236819 0.236819 0.606506
#
# Coordination Sequence:
#
# PCOD8319321 Si02
#       6
#    32  16  16  32  16  32
#     4   9  17  29  45  65  89 116 142 169 206 253
#     4  10  19  29  44  68  93 113 137 170 210 255
#     4   9  17  28  41  57  79 112 153 187 211 240
#     4   9  17  28  42  61  85 114 148 182 214 251
#     4  10  18  28  41  59  87 118 145 176 217 257
#     4   9  16  27  44  64  86 112 143 178 214 252
#
# _framework density 15.910727
#
# number of rings (size 3 to 8) (size 9 to 14) (size 15 to 20)
#    0.000    2.778    0.000    2.667    0.000    2.667 
#    0.000    0.556    0.000   11.000    0.000    3.111 
#    0.000    0.000    0.000   13.556    0.000    0.000 
#
# Total GULP energy -892111.595326 kJ/mol
# GULP energy per Si atom -12390.438824 kJ/mol
# Density = 1.587451 g / cm^3
# Si number density = 15.910727 Si / 1000 Ang^3
#
#
#
# Elastic Constant Matrix: (Units=GPa)
#
#
# Indices 1 2 3 4 5 6 
#
# 1 85.8510 26.4552 33.9269 0.0000 0.0000 0.0000
# 2 26.4552 85.8505 33.9273 0.0000 0.0000 0.0000
# 3 33.9269 33.9273 89.7279 0.0000 0.0000 0.0000
# 4 0.0000 0.0000 0.0000 20.6363 0.0000 0.0000
# 5 0.0000 0.0000 0.0000 0.0000 20.6362 0.0000
# 6 0.0000 0.0000 0.0000 0.0000 0.0000 -155.0819
#
#
#
# Elastic Compliance Matrix: (Units=1/GPa)
#
#
# Indices 1 2 3 4 5 6 
#
# 1 0.014188 -0.002648 -0.004364 0.000000 0.000000 0.000000
# 2 -0.002648 0.014189 -0.004364 0.000000 0.000000 0.000000
# 3 -0.004364 -0.004364 0.014445 0.000000 0.000000 0.000000
# 4 0.000000 0.000000 0.000000 0.048458 0.000000 0.000000
# 5 0.000000 0.000000 0.000000 0.000000 0.048458 0.000000
# 6 0.000000 0.000000 0.000000 0.000000 0.000000 -0.006448
#
#
# Mechanical properties :
#
#
# Convention : Reuss Voigt Hill
#
# Bulk Modulus (GPa) = 49.82195 50.00537 49.91366
# Shear Modulus (GPa) = 30.72557 -11.62053 9.55252
#
# Velocity S-wave (km/s) = 4.39922 -2.70545 2.45293
# Velocity P-wave (km/s) = 7.56212 4.66237 6.28185
#
# Compressibility (1/GPa) = 0.02007147
#
# Stress axis : x y z
#
# Youngs Moduli (GPa) = 70.48000 70.47921 69.22955
#
# Poissons Ratio (x) = 0.18661 0.30209
# Poissons Ratio (y) = 0.18662 0.30210
# Poissons Ratio (z) = 0.30755 0.30755
#
# Static dielectric constant tensor:
#      x y z
#    x 3.127610 0.000000 0.000000 
#    y 0.000000 3.127620 0.000000 
#    z 0.000000 0.000000 2.930790 
# 
# 
# High freq. dielectric constant tensor:
#      x y z
#    x 1.600590 0.000000 0.000000 
#    y 0.000000 1.600590 0.000000 
#    z 0.000000 0.000000 1.605750 
# 
# From -- ./inp_files/8292.got.cif
#   From: 2010.03.12/outbox.cif.g09.slc.cpg/sg139_5_cif.got.tgz:8292.got - 2010.04.08 09:46:31.
