data_PCOD8319973
_publ_section_title
;
Structure prediction by ZEFSAII (Michael W. Deem and Ramdas Pophale) SiO2 
 PCOD8319973
Probable space group: I 4/M M M
;
_chemical_formula_sum "Si O2"
_cell_formula_units_Z 104
_cell_length_a 17.832963
_cell_length_b 17.832963
_cell_length_c 17.088959
_cell_angle_alpha 90.000000
_cell_angle_beta 90.000000
_cell_angle_gamma 90.000000
_cell_volume 5434.537937
_symmetry_space_group_name_H-M "I 4/M M M"
_symmetry_group_IT_number 139
_symmetry_cell_setting 'tetragonal'
loop_
_space_group_symop_operation_xyz
x,y,z
-y,x,z
-x,-y,z
y,-x,z
x,-y,-z
-x,y,-z
y,x,-z
-y,-x,-z
-x,-y,-z
y,-x,-z
x,y,-z
-y,x,-z
-x,y,z
x,-y,z
-y,-x,z
y,x,z
1/2+x,1/2+y,1/2+z
1/2-y,1/2+x,1/2+z
1/2-x,1/2-y,1/2+z
1/2+y,1/2-x,1/2+z
1/2+x,1/2-y,1/2-z
1/2-x,1/2+y,1/2-z
1/2+y,1/2+x,1/2-z
1/2-y,1/2-x,1/2-z
1/2-x,1/2-y,1/2-z
1/2+y,1/2-x,1/2-z
1/2+x,1/2+y,1/2-z
1/2-y,1/2+x,1/2-z
1/2-x,1/2+y,1/2+z
1/2+x,1/2-y,1/2+z
1/2-y,1/2-x,1/2+z
1/2+y,1/2+x,1/2+z
loop_
_atom_site_type_symbol
_atom_site_label
_atom_site_fract_x
_atom_site_fract_y
_atom_site_fract_z
Si Si1 0.911757 0.500000 0.590812
Si Si2 0.345794 0.859003 0.341521
Si Si3 0.000000 0.267855 0.412384
Si Si4 0.500000 0.624014 0.000000
Si Si5 0.916099 0.916099 0.093122
Si Si6 0.202336 0.797665 0.908171
O O1 0.891101 0.500000 0.500000
O O2 0.875357 0.429335 0.631714
O O3 0.000000 0.500000 0.605611
O O4 0.344637 0.844637 0.250000
O O5 0.291552 0.927105 0.364372
O O6 0.316231 0.785855 0.383755
O O7 0.000000 0.306275 0.500000
O O8 0.000000 0.177386 0.422936
O O9 0.425685 0.574316 0.000000
O O10 0.856905 0.856905 0.129352
O O11 0.000000 0.894918 0.122177
O O12 0.914132 0.914132 0.000000
O O13 0.196252 0.803749 0.000000
#
# Coordination Sequence:
#
# PCOD8319973 Si02
#       6
#    16  32  16   8  16  16
#     4  11  23  40  65  91 125 168 221 257 308 399
#     4  12  25  41  61  95 133 174 211 268 336 395
#     4  10  22  40  69  93 129 172 218 272 336 397
#     4   9  22  42  74 105 122 164 232 287 334 400
#     4   8  16  34  57  82 113 153 203 262 315 362
#     4  11  24  39  64  90 125 163 225 263 321 391
#
# _framework density 19.136861
#
# number of rings (size 3 to 8) (size 9 to 14) (size 15 to 20)
#    0.462    1.000    1.538    4.615    4.308    0.000 
#    0.000    0.000    0.000    0.000    0.000    0.000 
#    0.000    0.000    0.000    0.000    0.000    0.000 
#
# Total GULP energy -644828.249514 kJ/mol
# GULP energy per Si atom -12400.543260 kJ/mol
# Density = 1.909330 g / cm^3
# Si number density = 19.136861 Si / 1000 Ang^3
#
#
#
# Elastic Constant Matrix: (Units=GPa)
#
#
# Indices 1 2 3 4 5 6 
#
# 1 237.4357 -24.7759 24.0679 0.0000 0.0000 0.0000
# 2 -24.7759 237.4431 24.0780 0.0000 0.0000 0.0000
# 3 24.0679 24.0780 74.2655 0.0000 0.0000 0.0000
# 4 0.0000 0.0000 0.0000 38.9903 0.0000 0.0000
# 5 0.0000 0.0000 0.0000 0.0000 38.9887 0.0000
# 6 0.0000 0.0000 0.0000 0.0000 0.0000 43.9584
#
#
#
# Elastic Compliance Matrix: (Units=1/GPa)
#
#
# Indices 1 2 3 4 5 6 
#
# 1 0.004444 0.000631 -0.001645 0.000000 0.000000 0.000000
# 2 0.000631 0.004444 -0.001645 0.000000 0.000000 0.000000
# 3 -0.001645 -0.001645 0.014532 0.000000 0.000000 0.000000
# 4 0.000000 0.000000 0.000000 0.025647 0.000000 0.000000
# 5 0.000000 0.000000 0.000000 0.000000 0.025648 0.000000
# 6 0.000000 0.000000 0.000000 0.000000 0.000000 0.022749
#
#
# Mechanical properties :
#
#
# Convention : Reuss Voigt Hill
#
# Bulk Modulus (GPa) = 55.24499 66.20937 60.72718
# Shear Modulus (GPa) = 45.94865 59.43907 52.69386
#
# Velocity S-wave (km/s) = 4.90537 5.57920 5.25310
# Velocity P-wave (km/s) = 7.81118 8.72790 8.28223
#
# Compressibility (1/GPa) = 0.01810119
#
# Stress axis : x y z
#
# Youngs Moduli (GPa) = 225.01371 225.01450 68.81550
#
# Poissons Ratio (x) = -0.14187 0.11318
# Poissons Ratio (y) = -0.14187 0.11322
# Poissons Ratio (z) = 0.37008 0.37019
#
# Static dielectric constant tensor:
#      x y z
#    x 3.647370 0.000000 0.000000 
#    y 0.000000 3.647380 0.000000 
#    z 0.000000 0.000000 3.340860 
# 
# 
# High freq. dielectric constant tensor:
#      x y z
#    x 1.758290 0.000000 0.000000 
#    y 0.000000 1.758290 0.000000 
#    z 0.000000 0.000000 1.725910 
# 
# From -- ./inp_files/7518.got.cif
#   From: 2010.03.12/outbox.cif.g09.slc.cpg/sg139_4_cif.got.tgz:7518.got - 2010.04.08 09:46:31.
