data_PCOD8319087
_publ_section_title
;
Structure prediction by ZEFSAII (Michael W. Deem and Ramdas Pophale) SiO2 
 PCOD8319087
Probable space group: P 42/N C M
;
_chemical_formula_sum "Si O2"
_cell_formula_units_Z 64
_cell_length_a 25.374957
_cell_length_b 25.374957
_cell_length_c 5.097395
_cell_angle_alpha 90.000000
_cell_angle_beta 90.000000
_cell_angle_gamma 90.000000
_cell_volume 3282.153729
_symmetry_space_group_name_H-M "P 42/N C M"
_symmetry_group_IT_number 138
_space_group.IT_coordinate_system_code '2'
_symmetry_cell_setting 'tetragonal'
loop_
_space_group_symop_operation_xyz
x,y,z
1/2-y,x,1/2+z
1/2-x,1/2-y,z
y,1/2-x,1/2+z
1/2+x,-y,1/2-z
-x,1/2+y,1/2-z
1/2+y,1/2+x,-z
-y,-x,-z
-x,-y,-z
1/2+y,-x,1/2-z
1/2+x,1/2+y,-z
-y,1/2+x,1/2-z
1/2-x,y,1/2+z
x,1/2-y,1/2+z
1/2-y,1/2-x,z
y,x,z
loop_
_atom_site_type_symbol
_atom_site_label
_atom_site_fract_x
_atom_site_fract_y
_atom_site_fract_z
Si Si1 0.107347 0.107347 0.569781
Si Si2 0.399358 0.946462 0.738381
Si Si3 0.440853 0.440853 0.077279
Si Si4 0.914491 0.724436 0.024369
Si Si5 0.963149 0.222107 0.380212
O O1 0.093797 0.093797 0.271773
O O2 0.095435 0.168339 0.606701
O O3 0.073549 0.073549 0.777115
O O4 0.404229 0.904229 0.500000
O O5 0.338694 0.954479 0.811282
O O6 0.427566 0.998580 0.628438
O O7 0.428990 0.928990 0.000000
O O8 0.889300 0.765433 0.811301
O O9 0.975750 0.734708 0.077622
O O10 0.937213 0.240654 0.654935
#
# Coordination Sequence:
#
# PCOD8319087 Si02
#       5
#     8  16   8  16  16
#     4  12  22  37  60  81 114 144 204 243 285 356
#     4  12  24  39  57  85 126 163 193 226 286 350
#     4  12  24  37  56  86 122 165 192 223 275 347
#     4  10  21  36  57  80 106 144 193 250 298 334
#     4  10  21  37  59  82 112 149 197 243 279 324
#
# _framework density 19.499392
#
# number of rings (size 3 to 8) (size 9 to 14) (size 15 to 20)
#    0.000    1.000    2.500    5.250    7.000    0.000 
#    0.000    0.000    0.000    2.250    0.000    0.000 
#    0.000   35.000    0.000    0.000    0.000    0.000 
#
# Total GULP energy -793092.482968 kJ/mol
# GULP energy per Si atom -12392.070046 kJ/mol
# Density = 1.945501 g / cm^3
# Si number density = 19.499392 Si / 1000 Ang^3
#
#
#
# Elastic Constant Matrix: (Units=GPa)
#
#
# Indices 1 2 3 4 5 6 
#
# 1 106.0433 -11.2243 52.2044 0.0000 0.0000 0.0000
# 2 -11.2243 106.0433 52.2044 0.0000 0.0000 0.0000
# 3 52.2044 52.2044 169.2981 0.0000 0.0000 0.0000
# 4 0.0000 0.0000 0.0000 35.9433 0.0000 0.0000
# 5 0.0000 0.0000 0.0000 0.0000 35.9433 0.0000
# 6 0.0000 0.0000 0.0000 0.0000 0.0000 15.2552
#
#
#
# Elastic Compliance Matrix: (Units=1/GPa)
#
#
# Indices 1 2 3 4 5 6 
#
# 1 0.012248 0.003720 -0.004924 0.000000 0.000000 0.000000
# 2 0.003720 0.012248 -0.004924 0.000000 0.000000 0.000000
# 3 -0.004924 -0.004924 0.008943 0.000000 0.000000 0.000000
# 4 0.000000 0.000000 0.000000 0.027822 0.000000 0.000000
# 5 0.000000 0.000000 0.000000 0.000000 0.027822 0.000000
# 6 0.000000 0.000000 0.000000 0.000000 0.000000 0.065551
#
#
# Mechanical properties :
#
#
# Convention : Reuss Voigt Hill
#
# Bulk Modulus (GPa) = 47.20482 63.08376 55.14429
# Shear Modulus (GPa) = 28.74386 36.64172 32.69279
#
# Velocity S-wave (km/s) = 3.84355 4.33959 4.09908
# Velocity P-wave (km/s) = 6.63009 7.58493 7.12353
#
# Compressibility (1/GPa) = 0.02118428
#
# Stress axis : x y z
#
# Youngs Moduli (GPa) = 81.64643 81.64643 111.81395
#
# Poissons Ratio (x) = -0.30376 0.55057
# Poissons Ratio (y) = -0.30376 0.55057
# Poissons Ratio (z) = 0.40202 0.40202
#
# Static dielectric constant tensor:
#      x y z
#    x 3.344160 0.000000 0.000000 
#    y 0.000000 3.344160 0.000000 
#    z 0.000000 0.000000 4.426780 
# 
# 
# High freq. dielectric constant tensor:
#      x y z
#    x 1.729570 0.000000 0.000000 
#    y 0.000000 1.729570 0.000000 
#    z 0.000000 0.000000 1.800070 
# 
# From -- ./inp_files/379.got.cif
#   From: 2010.03.12/outbox.cif.g09.slc.cpg/sg138_1_cif.got.tgz:379.got - 2010.04.08 09:41:05.
