data_PCOD8319909
_publ_section_title
;
Structure prediction by ZEFSAII (Michael W. Deem and Ramdas Pophale) SiO2 
 PCOD8319909
Probable space group: I 4/M M M
;
_chemical_formula_sum "Si O2"
_cell_formula_units_Z 176
_cell_length_a 24.677112
_cell_length_b 24.677112
_cell_length_c 14.335463
_cell_angle_alpha 90.000000
_cell_angle_beta 90.000000
_cell_angle_gamma 90.000000
_cell_volume 8729.721494
_symmetry_space_group_name_H-M "I 4/M M M"
_symmetry_group_IT_number 139
_symmetry_cell_setting 'tetragonal'
loop_
_space_group_symop_operation_xyz
x,y,z
-y,x,z
-x,-y,z
y,-x,z
x,-y,-z
-x,y,-z
y,x,-z
-y,-x,-z
-x,-y,-z
y,-x,-z
x,y,-z
-y,x,-z
-x,y,z
x,-y,z
-y,-x,z
y,x,z
1/2+x,1/2+y,1/2+z
1/2-y,1/2+x,1/2+z
1/2-x,1/2-y,1/2+z
1/2+y,1/2-x,1/2+z
1/2+x,1/2-y,1/2-z
1/2-x,1/2+y,1/2-z
1/2+y,1/2+x,1/2-z
1/2-y,1/2-x,1/2-z
1/2-x,1/2-y,1/2-z
1/2+y,1/2-x,1/2-z
1/2+x,1/2+y,1/2-z
1/2-y,1/2+x,1/2-z
1/2-x,1/2+y,1/2+z
1/2+x,1/2-y,1/2+z
1/2-y,1/2-x,1/2+z
1/2+y,1/2+x,1/2+z
loop_
_atom_site_type_symbol
_atom_site_label
_atom_site_fract_x
_atom_site_fract_y
_atom_site_fract_z
Si Si1 0.256186 0.063603 0.393268
Si Si2 0.939160 0.500000 0.888805
Si Si3 0.799068 0.561314 0.608805
Si Si4 0.595410 0.680304 0.604029
Si Si5 0.353122 0.439517 0.794066
Si Si6 0.399017 0.871250 0.888556
O O1 0.244409 0.079252 0.500000
O O2 0.204239 0.081619 0.333389
O O3 0.309044 0.095024 0.353363
O O4 0.267945 0.000000 0.383461
O O5 0.907605 0.552056 0.850823
O O6 0.000000 0.500000 0.848230
O O7 0.940705 0.500000 0.000000
O O8 0.810994 0.554947 0.500000
O O9 0.797445 0.500000 0.652465
O O10 0.743679 0.593514 0.627451
O O11 0.845535 0.599507 0.653113
O O12 0.571042 0.669892 0.500000
O O13 0.657288 0.657288 0.608927
O O14 0.559925 0.648989 0.681173
O O15 0.365764 0.500000 0.830191
O O16 0.400375 0.400375 0.831467
O O17 0.398889 0.869459 0.000000
#
# Coordination Sequence:
#
# PCOD8319909 Si02
#       6
#    32  16  32  32  32  32
#     4   9  17  32  52  72 100 140 183 220 254 300
#     4   9  14  20  36  66 104 138 172 220 270 313
#     4   9  16  26  44  72 105 138 173 213 257 309
#     4   9  18  34  55  77 103 134 167 207 256 313
#     4  10  21  36  56  81 105 131 168 212 266 328
#     4   9  15  25  42  68 101 139 179 219 263 305
#
# _framework density 20.161010000000001
#
# number of rings (size 3 to 8) (size 9 to 14) (size 15 to 20)
#    0.000    2.818    0.909    1.091    0.000    3.818 
#    0.000    1.818    0.000    5.455    0.000    5.091 
#    0.000    0.000    0.000    0.000    0.000    0.182 
#
# Total GULP energy -1090644.315199 kJ/mol
# GULP energy per Si atom -12393.685400 kJ/mol
# Density = 2.011512 g / cm^3
# Si number density = 20.161010 Si / 1000 Ang^3
#
#
#
# Elastic Constant Matrix: (Units=GPa)
#
#
# Indices 1 2 3 4 5 6 
#
# 1 141.7544 95.7339 20.8029 0.0000 0.0000 0.0000
# 2 95.7339 141.7544 20.8029 0.0000 0.0000 0.0000
# 3 20.8029 20.8029 43.4385 0.0000 0.0000 0.0000
# 4 0.0000 0.0000 0.0000 13.5263 0.0000 0.0000
# 5 0.0000 0.0000 0.0000 0.0000 13.5263 0.0000
# 6 0.0000 0.0000 0.0000 0.0000 0.0000 38.6077
#
#
#
# Elastic Compliance Matrix: (Units=1/GPa)
#
#
# Indices 1 2 3 4 5 6 
#
# 1 0.013163 -0.008567 -0.002201 0.000000 0.000000 0.000000
# 2 -0.008567 0.013163 -0.002201 0.000000 0.000000 0.000000
# 3 -0.002201 -0.002201 0.025129 0.000000 0.000000 0.000000
# 4 0.000000 0.000000 0.000000 0.073930 0.000000 0.000000
# 5 0.000000 0.000000 0.000000 0.000000 0.073930 0.000000
# 6 0.000000 0.000000 0.000000 0.000000 0.000000 0.025902
#
#
# Mechanical properties :
#
#
# Convention : Reuss Voigt Hill
#
# Bulk Modulus (GPa) = 39.18917 66.84742 53.01829
# Shear Modulus (GPa) = 19.25592 25.77258 22.51425
#
# Velocity S-wave (km/s) = 3.09383 3.57926 3.34536
# Velocity P-wave (km/s) = 5.67827 7.09297 6.42468
#
# Compressibility (1/GPa) = 0.02551725
#
# Stress axis : x y z
#
# Youngs Moduli (GPa) = 75.97110 75.97110 39.79404
#
# Poissons Ratio (x) = 0.65081 0.08760
# Poissons Ratio (y) = 0.65081 0.08760
# Poissons Ratio (z) = 0.16723 0.16723
#
# Static dielectric constant tensor:
#      x y z
#    x 3.658790 0.000000 0.000000 
#    y 0.000000 3.658790 0.000000 
#    z 0.000000 0.000000 3.495920 
# 
# 
# High freq. dielectric constant tensor:
#      x y z
#    x 1.773600 0.000000 0.000000 
#    y 0.000000 1.773600 0.000000 
#    z 0.000000 0.000000 1.778500 
# 
# From -- ./inp_files/6103.got.cif
#   From: 2010.03.12/outbox.cif.g09.slc.cpg/sg139_4_cif.got.tgz:6103.got - 2010.04.08 09:46:31.
