data_PCOD8319658
_publ_section_title
;
Structure prediction by ZEFSAII (Michael W. Deem and Ramdas Pophale) SiO2 
 PCOD8319658
Probable space group: I 4/M M M
;
_chemical_formula_sum "Si O2"
_cell_formula_units_Z 176
_cell_length_a 18.802576
_cell_length_b 18.802576
_cell_length_c 26.027830
_cell_angle_alpha 90.000000
_cell_angle_beta 90.000000
_cell_angle_gamma 90.000000
_cell_volume 9201.797401
_symmetry_space_group_name_H-M "I 4/M M M"
_symmetry_group_IT_number 139
_symmetry_cell_setting 'tetragonal'
loop_
_space_group_symop_operation_xyz
x,y,z
-y,x,z
-x,-y,z
y,-x,z
x,-y,-z
-x,y,-z
y,x,-z
-y,-x,-z
-x,-y,-z
y,-x,-z
x,y,-z
-y,x,-z
-x,y,z
x,-y,z
-y,-x,z
y,x,z
1/2+x,1/2+y,1/2+z
1/2-y,1/2+x,1/2+z
1/2-x,1/2-y,1/2+z
1/2+y,1/2-x,1/2+z
1/2+x,1/2-y,1/2-z
1/2-x,1/2+y,1/2-z
1/2+y,1/2+x,1/2-z
1/2-y,1/2-x,1/2-z
1/2-x,1/2-y,1/2-z
1/2+y,1/2-x,1/2-z
1/2+x,1/2+y,1/2-z
1/2-y,1/2+x,1/2-z
1/2-x,1/2+y,1/2+z
1/2+x,1/2-y,1/2+z
1/2-y,1/2-x,1/2+z
1/2+y,1/2+x,1/2+z
loop_
_atom_site_type_symbol
_atom_site_label
_atom_site_fract_x
_atom_site_fract_y
_atom_site_fract_z
Si Si1 0.351249 0.917233 0.800397
Si Si2 0.304928 0.580424 0.940886
Si Si3 0.418754 0.695888 0.554237
Si Si4 0.154672 0.416915 0.101706
Si Si5 0.415099 0.080365 0.000000
Si Si6 0.800151 0.918114 0.166547
O O1 0.389633 0.889633 0.750000
O O2 0.378974 0.871930 0.847753
O O3 0.266003 0.906064 0.794966
O O4 0.369665 0.000000 0.809014
O O5 0.331620 0.500000 0.933099
O O6 0.369031 0.630970 0.924207
O O7 0.238585 0.597015 0.904242
O O8 0.281599 0.592550 0.000000
O O9 0.399797 0.738398 0.500000
O O10 0.500000 0.674354 0.553008
O O11 0.378158 0.621843 0.554405
O O12 0.402216 0.733322 0.609092
O O13 0.137382 0.500000 0.106458
O O14 0.116136 0.384307 0.051508
O O15 0.500000 0.087362 0.000000
O O16 0.387925 0.000000 0.000000
O O17 0.864926 0.864926 0.180515
O O18 0.827460 0.000000 0.170541
#
# Coordination Sequence:
#
# PCOD8319658 Si02
#       6
#    32  32  32  32  16  32
#     4  11  24  40  58  82 110 144 187 234 280 334
#     4   9  17  31  52  80 116 154 192 234 279 335
#     4   8  13  23  41  66  99 137 173 211 255 303
#     4  10  19  34  55  80 110 144 182 228 280 335
#     4   9  16  28  49  76 105 137 173 216 269 328
#     4   9  19  36  56  81 112 145 185 230 275 327
#
# _framework density 19.126698000000001
#
# number of rings (size 3 to 8) (size 9 to 14) (size 15 to 20)
#    0.000    2.636    0.909    1.091    0.000    3.636 
#    1.636    3.636    0.000    0.000    0.000    0.000 
#    0.000    5.818    0.000    0.000    0.000    0.000 
#
# Total GULP energy -1090310.750673 kJ/mol
# GULP energy per Si atom -12389.894894 kJ/mol
# Density = 1.908317 g / cm^3
# Si number density = 19.126698 Si / 1000 Ang^3
#
#
#
# Elastic Constant Matrix: (Units=GPa)
#
#
# Indices 1 2 3 4 5 6 
#
# 1 81.5736 65.2566 45.0986 0.0000 0.0000 0.0000
# 2 65.2566 81.5736 45.0986 0.0000 0.0000 0.0000
# 3 45.0986 45.0986 82.4152 0.0000 0.0000 0.0000
# 4 0.0000 0.0000 0.0000 25.0131 0.0000 0.0000
# 5 0.0000 0.0000 0.0000 0.0000 25.0131 0.0000
# 6 0.0000 0.0000 0.0000 0.0000 0.0000 26.5368
#
#
#
# Elastic Compliance Matrix: (Units=1/GPa)
#
#
# Indices 1 2 3 4 5 6 
#
# 1 0.035773 -0.025513 -0.005614 0.000000 0.000000 0.000000
# 2 -0.025513 0.035773 -0.005614 0.000000 0.000000 0.000000
# 3 -0.005614 -0.005614 0.018278 0.000000 0.000000 0.000000
# 4 0.000000 0.000000 0.000000 0.039979 0.000000 0.000000
# 5 0.000000 0.000000 0.000000 0.000000 0.039979 0.000000
# 6 0.000000 0.000000 0.000000 0.000000 0.000000 0.037683
#
#
# Mechanical properties :
#
#
# Convention : Reuss Voigt Hill
#
# Bulk Modulus (GPa) = 61.19835 61.83001 61.51418
# Shear Modulus (GPa) = 17.45849 21.31986 19.38918
#
# Velocity S-wave (km/s) = 3.02450 3.34228 3.18736
# Velocity P-wave (km/s) = 6.65301 6.87686 6.76586
#
# Compressibility (1/GPa) = 0.01634031
#
# Stress axis : x y z
#
# Youngs Moduli (GPa) = 27.95442 27.95442 54.71131
#
# Poissons Ratio (x) = 0.71321 0.30715
# Poissons Ratio (y) = 0.71321 0.30715
# Poissons Ratio (z) = 0.15694 0.15694
#
# Static dielectric constant tensor:
#      x y z
#    x 3.373570 0.000000 0.000000 
#    y 0.000000 3.373570 0.000000 
#    z 0.000000 0.000000 3.703210 
# 
# 
# High freq. dielectric constant tensor:
#      x y z
#    x 1.736770 0.000000 0.000000 
#    y 0.000000 1.736770 0.000000 
#    z 0.000000 0.000000 1.730890 
# 
# From -- ./inp_files/13088.got.cif
#   From: 2010.03.12/outbox.cif.g09.slc.cpg/sg139_7_cif.got.tgz:13088.got - 2010.04.08 09:46:31.
