data_PCOD8319312
_publ_section_title
;
Structure prediction by ZEFSAII (Michael W. Deem and Ramdas Pophale) SiO2 
 PCOD8319312
Probable space group: I 4/M M M
;
_chemical_formula_sum "Si O2"
_cell_formula_units_Z 128
_cell_length_a 28.560806
_cell_length_b 28.560806
_cell_length_c 10.303125
_cell_angle_alpha 90.000000
_cell_angle_beta 90.000000
_cell_angle_gamma 90.000000
_cell_volume 8404.461409
_symmetry_space_group_name_H-M "I 4/M M M"
_symmetry_group_IT_number 139
_symmetry_cell_setting 'tetragonal'
loop_
_space_group_symop_operation_xyz
x,y,z
-y,x,z
-x,-y,z
y,-x,z
x,-y,-z
-x,y,-z
y,x,-z
-y,-x,-z
-x,-y,-z
y,-x,-z
x,y,-z
-y,x,-z
-x,y,z
x,-y,z
-y,-x,z
y,x,z
1/2+x,1/2+y,1/2+z
1/2-y,1/2+x,1/2+z
1/2-x,1/2-y,1/2+z
1/2+y,1/2-x,1/2+z
1/2+x,1/2-y,1/2-z
1/2-x,1/2+y,1/2-z
1/2+y,1/2+x,1/2-z
1/2-y,1/2-x,1/2-z
1/2-x,1/2-y,1/2-z
1/2+y,1/2-x,1/2-z
1/2+x,1/2+y,1/2-z
1/2-y,1/2+x,1/2-z
1/2-x,1/2+y,1/2+z
1/2+x,1/2-y,1/2+z
1/2-y,1/2-x,1/2+z
1/2+y,1/2+x,1/2+z
loop_
_atom_site_type_symbol
_atom_site_label
_atom_site_fract_x
_atom_site_fract_y
_atom_site_fract_z
Si Si1 0.944348 0.281841 0.144577
Si Si2 0.614018 0.944734 0.850118
Si Si3 0.944166 0.868526 0.500000
Si Si4 0.629467 0.444871 0.500000
Si Si5 0.444538 0.686659 0.749290
O O1 0.928246 0.333456 0.190033
O O2 0.925697 0.240456 0.239428
O O3 0.000000 0.280907 0.139701
O O4 0.925168 0.271753 0.000000
O O5 0.578733 0.921268 0.750000
O O6 0.608324 0.000000 0.834664
O O7 0.603445 0.930397 0.000000
O O8 0.919095 0.919095 0.500000
O O9 0.926074 0.838535 0.622119
O O10 0.000000 0.877511 0.500000
O O11 0.620930 0.500000 0.500000
O O12 0.578603 0.421398 0.500000
O O13 0.657886 0.427440 0.375048
O O14 0.500000 0.687659 0.752939
#
# Coordination Sequence:
#
# PCOD8319312 Si02
#       5
#    32  32  16  16  32
#     4   8  13  26  47  65  83 111 146 185 228 264
#     4   9  18  31  46  66  95 128 157 183 212 253
#     4  10  20  31  42  60  89 121 150 180 216 262
#     4  10  18  27  42  62  85 115 146 176 212 258
#     4   9  16  28  44  61  82 110 145 187 228 259
#
# _framework density 15.230005999999999
#
# number of rings (size 3 to 8) (size 9 to 14) (size 15 to 20)
#    0.000    3.000    1.250    2.250    0.000    1.000 
#    2.250    1.250    0.000    4.500    0.000    0.000 
#    0.000    6.000    0.000    0.000    0.000    0.000 
#
# Total GULP energy -792995.757620 kJ/mol
# GULP energy per Si atom -12390.558713 kJ/mol
# Density = 1.519534 g / cm^3
# Si number density = 15.230006 Si / 1000 Ang^3
#
#
#
# Elastic Constant Matrix: (Units=GPa)
#
#
# Indices 1 2 3 4 5 6 
#
# 1 64.5712 36.0679 45.1543 0.0000 0.0000 0.0000
# 2 36.0679 64.5593 45.1522 0.0000 0.0000 0.0000
# 3 45.1543 45.1522 116.5333 0.0000 0.0000 0.0000
# 4 0.0000 0.0000 0.0000 16.1413 0.0000 0.0000
# 5 0.0000 0.0000 0.0000 0.0000 16.1394 0.0000
# 6 0.0000 0.0000 0.0000 0.0000 0.0000 2.6505
#
#
#
# Elastic Compliance Matrix: (Units=1/GPa)
#
#
# Indices 1 2 3 4 5 6 
#
# 1 0.025160 -0.009928 -0.005902 0.000000 0.000000 0.000000
# 2 -0.009928 0.025165 -0.005904 0.000000 0.000000 0.000000
# 3 -0.005902 -0.005904 0.013156 0.000000 0.000000 0.000000
# 4 0.000000 0.000000 0.000000 0.061953 0.000000 0.000000
# 5 0.000000 0.000000 0.000000 0.000000 0.061960 0.000000
# 6 0.000000 0.000000 0.000000 0.000000 0.000000 0.377291
#
#
# Mechanical properties :
#
#
# Convention : Reuss Voigt Hill
#
# Bulk Modulus (GPa) = 49.96829 55.37918 52.67373
# Shear Modulus (GPa) = 8.13241 14.93886 11.53564
#
# Velocity S-wave (km/s) = 2.31329 3.13530 2.75513
# Velocity P-wave (km/s) = 6.32577 7.03901 6.69190
#
# Compressibility (1/GPa) = 0.02001269
#
# Stress axis : x y z
#
# Youngs Moduli (GPa) = 39.74597 39.73722 76.01353
#
# Poissons Ratio (x) = 0.39453 0.44863
# Poissons Ratio (y) = 0.39461 0.44875
# Poissons Ratio (z) = 0.23458 0.23459
#
# Static dielectric constant tensor:
#      x y z
#    x 2.824790 0.000000 0.000000 
#    y 0.000000 2.824790 0.000000 
#    z 0.000000 0.000000 3.178580 
# 
# 
# High freq. dielectric constant tensor:
#      x y z
#    x 1.556950 0.000000 0.000000 
#    y 0.000000 1.556950 0.000000 
#    z 0.000000 0.000000 1.587030 
# 
# From -- ./inp_files/1781.got.cif
#   From: 2010.03.12/outbox.cif.g09.slc.cpg/sg139_1_cif.got.tgz:1781.got - 2010.04.08 09:46:31.
