data_PCOD8319201
_publ_section_title
;
Structure prediction by ZEFSAII (Michael W. Deem and Ramdas Pophale) SiO2 
 PCOD8319201
Probable space group: P 42/N C M
;
_chemical_formula_sum "Si O2"
_cell_formula_units_Z 80
_cell_length_a 11.724009
_cell_length_b 11.724009
_cell_length_c 27.483164
_cell_angle_alpha 90.000000
_cell_angle_beta 90.000000
_cell_angle_gamma 90.000000
_cell_volume 3777.626495
_symmetry_space_group_name_H-M "P 42/N C M"
_symmetry_group_IT_number 138
_space_group.IT_coordinate_system_code '2'
_symmetry_cell_setting 'tetragonal'
loop_
_space_group_symop_operation_xyz
x,y,z
1/2-y,x,1/2+z
1/2-x,1/2-y,z
y,1/2-x,1/2+z
1/2+x,-y,1/2-z
-x,1/2+y,1/2-z
1/2+y,1/2+x,-z
-y,-x,-z
-x,-y,-z
1/2+y,-x,1/2-z
1/2+x,1/2+y,-z
-y,1/2+x,1/2-z
1/2-x,y,1/2+z
x,1/2-y,1/2+z
1/2-y,1/2-x,z
y,x,z
loop_
_atom_site_type_symbol
_atom_site_label
_atom_site_fract_x
_atom_site_fract_y
_atom_site_fract_z
Si Si1 0.855855 0.459081 0.637545
Si Si2 0.015503 0.824090 0.027774
Si Si3 0.655738 0.844263 0.985912
Si Si4 0.012457 0.828468 0.710797
Si Si5 0.844421 0.655580 0.872525
Si Si6 0.740138 0.445391 0.313235
O O1 0.803413 0.451373 0.583776
O O2 0.768854 0.525963 0.672837
O O3 0.873357 0.334230 0.658669
O O4 0.976255 0.523746 0.636644
O O5 0.129576 0.870425 0.000000
O O6 0.918312 0.918312 0.021588
O O7 0.965094 0.702816 0.007842
O O8 0.750000 0.750000 0.997420
O O9 0.636876 0.863125 0.929266
O O10 0.990317 0.788363 0.765814
O O11 0.144788 0.856893 0.703889
O O12 0.940164 0.940164 0.699724
O O13 0.750000 0.750000 0.861397
O O14 0.807529 0.536458 0.850548
#
# Coordination Sequence:
#
# PCOD8319201 Si02
#       6
#    16  16   8  16   8  16
#     4  11  24  40  67  98 128 169 219 269 327 392
#     4   9  18  35  60  93 131 164 210 272 335 400
#     4   9  18  34  61  95 131 168 211 272 342 388
#     4  12  26  43  63  91 130 175 215 267 330 396
#     4  11  22  38  69  99 128 168 222 282 321 384
#     4  12  24  44  62  91 130 175 222 264 331 397
#
# _framework density 21.177318
#
# number of rings (size 3 to 8) (size 9 to 14) (size 15 to 20)
#    0.000    1.200    3.000    3.600    2.800    3.600 
#    0.000    0.000    0.000    9.600    0.000    0.000 
#    0.000    0.000    0.000    0.000    0.000    0.000 
#
# Total GULP energy -992176.262054 kJ/mol
# GULP energy per Si atom -12402.203276 kJ/mol
# Density = 2.112912 g / cm^3
# Si number density = 21.177318 Si / 1000 Ang^3
#
#
#
# Elastic Constant Matrix: (Units=GPa)
#
#
# Indices 1 2 3 4 5 6 
#
# 1 86.8592 27.1714 43.3561 0.0000 0.0000 0.0000
# 2 27.1714 86.8598 43.3560 0.0000 0.0000 0.0000
# 3 43.3561 43.3560 134.2258 0.0000 0.0000 0.0000
# 4 0.0000 0.0000 0.0000 24.6485 0.0000 0.0000
# 5 0.0000 0.0000 0.0000 0.0000 24.6487 0.0000
# 6 0.0000 0.0000 0.0000 0.0000 0.0000 33.4482
#
#
#
# Elastic Compliance Matrix: (Units=1/GPa)
#
#
# Indices 1 2 3 4 5 6 
#
# 1 0.014189 -0.002564 -0.003755 0.000000 0.000000 0.000000
# 2 -0.002564 0.014189 -0.003755 0.000000 0.000000 0.000000
# 3 -0.003755 -0.003755 0.009876 0.000000 0.000000 0.000000
# 4 0.000000 0.000000 0.000000 0.040570 0.000000 0.000000
# 5 0.000000 0.000000 0.000000 0.000000 0.040570 0.000000
# 6 0.000000 0.000000 0.000000 0.000000 0.000000 0.029897
#
#
# Mechanical properties :
#
#
# Convention : Reuss Voigt Hill
#
# Bulk Modulus (GPa) = 55.23052 59.52356 57.37704
# Shear Modulus (GPa) = 28.49393 29.48650 28.99022
#
# Velocity S-wave (km/s) = 3.67208 3.73549 3.70392
# Velocity P-wave (km/s) = 6.64195 6.83911 6.74125
#
# Compressibility (1/GPa) = 0.01810593
#
# Stress axis : x y z
#
# Youngs Moduli (GPa) = 70.47517 70.47575 101.25669
#
# Poissons Ratio (x) = 0.18073 0.38022
# Poissons Ratio (y) = 0.18073 0.38021
# Poissons Ratio (z) = 0.26463 0.26463
#
# Static dielectric constant tensor:
#      x y z
#    x 3.815070 0.000000 0.000000 
#    y 0.000000 3.815060 0.000000 
#    z 0.000000 0.000000 3.994320 
# 
# 
# High freq. dielectric constant tensor:
#      x y z
#    x 1.822660 0.000000 0.000000 
#    y 0.000000 1.822660 0.000000 
#    z 0.000000 0.000000 1.844250 
# 
# From -- ./inp_files/7961.got.cif
#   From: 2010.03.12/outbox.cif.g09.slc.cpg/sg138_4_cif.got.tgz:7961.got - 2010.04.08 09:41:05.
