data_PCOD8319745
_publ_section_title
;
Structure prediction by ZEFSAII (Michael W. Deem and Ramdas Pophale) SiO2 
 PCOD8319745
Probable space group: I 4/M M M
;
_chemical_formula_sum "Si O2"
_cell_formula_units_Z 128
_cell_length_a 19.193943
_cell_length_b 19.193943
_cell_length_c 19.400242
_cell_angle_alpha 90.000000
_cell_angle_beta 90.000000
_cell_angle_gamma 90.000000
_cell_volume 7147.193644
_symmetry_space_group_name_H-M "I 4/M M M"
_symmetry_group_IT_number 139
_symmetry_cell_setting 'tetragonal'
loop_
_space_group_symop_operation_xyz
x,y,z
-y,x,z
-x,-y,z
y,-x,z
x,-y,-z
-x,y,-z
y,x,-z
-y,-x,-z
-x,-y,-z
y,-x,-z
x,y,-z
-y,x,-z
-x,y,z
x,-y,z
-y,-x,z
y,x,z
1/2+x,1/2+y,1/2+z
1/2-y,1/2+x,1/2+z
1/2-x,1/2-y,1/2+z
1/2+y,1/2-x,1/2+z
1/2+x,1/2-y,1/2-z
1/2-x,1/2+y,1/2-z
1/2+y,1/2+x,1/2-z
1/2-y,1/2-x,1/2-z
1/2-x,1/2-y,1/2-z
1/2+y,1/2-x,1/2-z
1/2+x,1/2+y,1/2-z
1/2-y,1/2+x,1/2-z
1/2-x,1/2+y,1/2+z
1/2+x,1/2-y,1/2+z
1/2-y,1/2-x,1/2+z
1/2+y,1/2+x,1/2+z
loop_
_atom_site_type_symbol
_atom_site_label
_atom_site_fract_x
_atom_site_fract_y
_atom_site_fract_z
Si Si1 0.500000 0.917333 0.919351
Si Si2 0.745679 0.920613 0.858848
Si Si3 0.079477 0.186694 0.000000
Si Si4 0.807669 0.078787 0.716933
Si Si5 0.388412 0.850759 0.821967
O O1 0.433523 0.885172 0.881816
O O2 0.500000 0.000000 0.911456
O O3 0.500000 0.896008 0.000000
O O4 0.804853 0.917232 0.800010
O O5 0.690869 0.860041 0.843843
O O6 0.714708 0.000000 0.860915
O O7 0.772813 0.897027 0.932466
O O8 0.111079 0.111079 0.000000
O O9 0.000000 0.170975 0.000000
O O10 0.865752 0.134249 0.690127
O O11 0.730918 0.094640 0.686235
O O12 0.829056 0.000000 0.694248
O O13 0.394598 0.894598 0.750000
#
# Coordination Sequence:
#
# PCOD8319745 Si02
#       5
#    16  32  16  32  32
#     4  11  24  36  56  88 121 155 187 227 275 328
#     4   9  19  33  51  77 111 146 185 230 281 339
#     4  10  20  33  50  73 107 149 188 230 276 328
#     4  10  20  36  56  81 109 141 188 240 288 339
#     4  10  21  36  58  82 113 149 190 229 277 341
#
# _framework density 17.909127999999999
#
# number of rings (size 3 to 8) (size 9 to 14) (size 15 to 20)
#    0.000    2.125    1.250    1.500    5.250    5.875 
#    0.000    0.000    0.000    4.500    0.000    0.000 
#    0.000    1.000    0.000    0.000    0.000    0.000 
#
# Total GULP energy -792991.884761 kJ/mol
# GULP energy per Si atom -12390.498199 kJ/mol
# Density = 1.786837 g / cm^3
# Si number density = 17.909128 Si / 1000 Ang^3
#
#
#
# Elastic Constant Matrix: (Units=GPa)
#
#
# Indices 1 2 3 4 5 6 
#
# 1 34.0678 113.3408 40.9883 0.0000 0.0000 0.0000
# 2 113.3408 34.0678 40.9883 0.0000 0.0000 0.0000
# 3 40.9883 40.9883 112.3240 0.0000 0.0000 0.0000
# 4 0.0000 0.0000 0.0000 1.1184 0.0000 0.0000
# 5 0.0000 0.0000 0.0000 0.0000 1.1184 0.0000
# 6 0.0000 0.0000 0.0000 0.0000 0.0000 37.2522
#
#
#
# Elastic Compliance Matrix: (Units=1/GPa)
#
#
# Indices 1 2 3 4 5 6 
#
# 1 -0.002052 0.010563 -0.003106 0.000000 0.000000 0.000000
# 2 0.010563 -0.002052 -0.003106 0.000000 0.000000 0.000000
# 3 -0.003106 -0.003106 0.011169 0.000000 0.000000 0.000000
# 4 0.000000 0.000000 0.000000 0.894168 0.000002 0.000000
# 5 0.000000 0.000000 0.000000 0.000002 0.894158 0.000000
# 6 0.000000 0.000000 0.000000 0.000000 0.000000 0.026844
#
#
# Mechanical properties :
#
#
# Convention : Reuss Voigt Hill
#
# Bulk Modulus (GPa) = 63.41771 63.45492 63.43631
# Shear Modulus (GPa) = 2.74908 6.90727 4.82817
#
# Velocity S-wave (km/s) = 1.24030 1.96601 1.64371
# Velocity P-wave (km/s) = 6.12689 6.37669 6.25304
#
# Compressibility (1/GPa) = 0.01576847
#
# Stress axis : x y z
#
# Youngs Moduli (GPa) = -487.37864 -487.37883 89.52967
#
# Poissons Ratio (x) = 5.14810 0.27806
# Poissons Ratio (y) = 5.14810 0.27806
# Poissons Ratio (z) = -1.51369 -1.51369
#
# Static dielectric constant tensor:
#      x y z
#    x 3.239280 0.000000 0.000000 
#    y 0.000000 3.239280 0.000000 
#    z 0.000000 0.000000 3.871170 
# 
# 
# High freq. dielectric constant tensor:
#      x y z
#    x 1.686710 0.000000 0.000000 
#    y 0.000000 1.686710 0.000000 
#    z 0.000000 0.000000 1.686630 
# 
# From -- ./inp_files/8056.got.cif
#   From: 2010.03.12/outbox.cif.g09.slc.cpg/sg139_5_cif.got.tgz:8056.got - 2010.04.08 09:46:31.
