data_PCOD8320532
_publ_section_title
;
Structure prediction by ZEFSAII (Michael W. Deem and Ramdas Pophale) SiO2 
 PCOD8320532
Probable space group: I 4/M C M
;
_chemical_formula_sum "Si O2"
_cell_formula_units_Z 160
_cell_length_a 27.220004
_cell_length_b 27.220004
_cell_length_c 10.721823
_cell_angle_alpha 90.000000
_cell_angle_beta 90.000000
_cell_angle_gamma 90.000000
_cell_volume 7944.105495
_symmetry_space_group_name_H-M "I 4/M C M"
_symmetry_group_IT_number 140
_symmetry_cell_setting 'tetragonal'
loop_
_space_group_symop_operation_xyz
x,y,z
-y,x,z
-x,-y,z
y,-x,z
x,-y,1/2-z
-x,y,1/2-z
y,x,1/2-z
-y,-x,1/2-z
-x,-y,-z
y,-x,-z
x,y,-z
-y,x,-z
-x,y,1/2+z
x,-y,1/2+z
-y,-x,1/2+z
y,x,1/2+z
1/2+x,1/2+y,1/2+z
1/2-y,1/2+x,1/2+z
1/2-x,1/2-y,1/2+z
1/2+y,1/2-x,1/2+z
1/2+x,1/2-y,-z
1/2-x,1/2+y,-z
1/2+y,1/2+x,-z
1/2-y,1/2-x,-z
1/2-x,1/2-y,1/2-z
1/2+y,1/2-x,1/2-z
1/2+x,1/2+y,1/2-z
1/2-y,1/2+x,1/2-z
1/2-x,1/2+y,z
1/2+x,1/2-y,z
1/2-y,1/2-x,z
1/2+y,1/2+x,z
loop_
_atom_site_type_symbol
_atom_site_label
_atom_site_fract_x
_atom_site_fract_y
_atom_site_fract_z
Si Si1 0.317882 0.500000 0.750000
Si Si2 0.571068 0.388034 0.366230
Si Si3 0.037851 0.616854 0.500000
Si Si4 0.421928 0.240811 0.266869
Si Si5 0.193995 0.150162 0.136165
Si Si6 0.658395 0.000000 0.250000
Si Si7 0.121114 0.698448 0.500000
O O1 0.352062 0.475635 0.645320
O O2 0.283093 0.540704 0.685673
O O3 0.573708 0.426293 0.250000
O O4 0.565864 0.415743 0.500000
O O5 0.621012 0.357061 0.368517
O O6 0.062628 0.562628 0.500000
O O7 0.005874 0.624258 0.373342
O O8 0.079203 0.657723 0.500000
O O9 0.388027 0.260779 0.154945
O O10 0.451860 0.192150 0.226164
O O11 0.384391 0.231621 0.378765
O O12 0.189729 0.189729 0.250000
O O13 0.202362 0.175657 0.000000
O O14 0.174799 0.674799 0.500000
#
# Coordination Sequence:
#
# PCOD8320532 Si02
#       7
#    16  32  16  32  32  16  16
#     4   9  18  30  48  79 102 132 174 229 266 310
#     4   9  18  31  45  68 103 140 171 214 264 321
#     4   9  18  34  55  81 113 146 178 217 271 329
#     4   9  18  30  51  80 105 138 177 229 273 313
#     4   9  18  30  46  72 106 139 176 220 271 322
#     4   9  18  32  54  81 110 140 182 229 272 320
#     4   9  18  32  52  78 110 143 176 214 269 331
#
# _framework density 20.140719000000001
#
# number of rings (size 3 to 8) (size 9 to 14) (size 15 to 20)
#    0.000    3.000    0.000    0.000    4.200    0.800 
#    3.600    0.500    0.000    2.400    0.000    1.400 
#    0.000    0.000    0.000    0.000    0.000    0.000 
#
# Total GULP energy -991148.942879 kJ/mol
# GULP energy per Si atom -12389.361786 kJ/mol
# Density = 2.009488 g / cm^3
# Si number density = 20.140719 Si / 1000 Ang^3
#
#
#
# Elastic Constant Matrix: (Units=GPa)
#
#
# Indices 1 2 3 4 5 6 
#
# 1 54.1781 38.7475 55.2603 0.0000 0.0000 0.0000
# 2 38.7475 54.1775 55.2598 0.0000 0.0000 0.0000
# 3 55.2603 55.2598 204.2816 0.0000 0.0000 0.0000
# 4 0.0000 0.0000 0.0000 19.9176 0.0000 0.0000
# 5 0.0000 0.0000 0.0000 0.0000 19.9177 0.0000
# 6 0.0000 0.0000 0.0000 0.0000 0.0000 30.5596
#
#
#
# Elastic Compliance Matrix: (Units=1/GPa)
#
#
# Indices 1 2 3 4 5 6 
#
# 1 0.040336 -0.024471 -0.004292 0.000000 0.000000 0.000000
# 2 -0.024471 0.040337 -0.004292 0.000000 0.000000 0.000000
# 3 -0.004292 -0.004292 0.007217 0.000000 0.000000 0.000000
# 4 0.000000 0.000000 0.000000 0.050207 0.000000 0.000000
# 5 0.000000 0.000000 0.000000 0.000000 0.050207 0.000000
# 6 0.000000 0.000000 0.000000 0.000000 0.000000 0.032723
#
#
# Mechanical properties :
#
#
# Convention : Reuss Voigt Hill
#
# Bulk Modulus (GPa) = 45.91071 67.90806 56.90938
# Shear Modulus (GPa) = 16.98394 24.97031 20.97712
#
# Velocity S-wave (km/s) = 2.90705 3.52489 3.23077
# Velocity P-wave (km/s) = 5.84058 7.09623 6.49880
#
# Compressibility (1/GPa) = 0.02178141
#
# Stress axis : x y z
#
# Youngs Moduli (GPa) = 24.79152 24.79129 138.55835
#
# Poissons Ratio (x) = 0.60666 0.59468
# Poissons Ratio (y) = 0.60667 0.59467
# Poissons Ratio (z) = 0.10640 0.10640
#
# Static dielectric constant tensor:
#      x y z
#    x 3.442110 0.000000 0.000000 
#    y 0.000000 3.442110 0.000000 
#    z 0.000000 0.000000 3.948150 
# 
# 
# High freq. dielectric constant tensor:
#      x y z
#    x 1.752140 0.000000 0.000000 
#    y 0.000000 1.752140 0.000000 
#    z 0.000000 0.000000 1.789090 
# 
# From -- ./inp_files/3219.got.cif
#   From: 2010.06.25/outbox.cif.g09.slc.cpg/sg140_2_cif.got.tgz:3219.got - 2010.06.28 10:53:23.
