data_PCOD8320397
_publ_section_title
;
Structure prediction by ZEFSAII (Michael W. Deem and Ramdas Pophale) SiO2 
 PCOD8320397
Probable space group: I 4/M C M
;
_chemical_formula_sum "Si O2"
_cell_formula_units_Z 160
_cell_length_a 22.401687
_cell_length_b 22.401687
_cell_length_c 17.731476
_cell_angle_alpha 90.000000
_cell_angle_beta 90.000000
_cell_angle_gamma 90.000000
_cell_volume 8898.285551
_symmetry_space_group_name_H-M "I 4/M C M"
_symmetry_group_IT_number 140
_symmetry_cell_setting 'tetragonal'
loop_
_space_group_symop_operation_xyz
x,y,z
-y,x,z
-x,-y,z
y,-x,z
x,-y,1/2-z
-x,y,1/2-z
y,x,1/2-z
-y,-x,1/2-z
-x,-y,-z
y,-x,-z
x,y,-z
-y,x,-z
-x,y,1/2+z
x,-y,1/2+z
-y,-x,1/2+z
y,x,1/2+z
1/2+x,1/2+y,1/2+z
1/2-y,1/2+x,1/2+z
1/2-x,1/2-y,1/2+z
1/2+y,1/2-x,1/2+z
1/2+x,1/2-y,-z
1/2-x,1/2+y,-z
1/2+y,1/2+x,-z
1/2-y,1/2-x,-z
1/2-x,1/2-y,1/2-z
1/2+y,1/2-x,1/2-z
1/2+x,1/2+y,1/2-z
1/2-y,1/2+x,1/2-z
1/2-x,1/2+y,z
1/2+x,1/2-y,z
1/2-y,1/2-x,z
1/2+y,1/2+x,z
loop_
_atom_site_type_symbol
_atom_site_label
_atom_site_fract_x
_atom_site_fract_y
_atom_site_fract_z
Si Si1 0.375345 0.381206 0.160417
Si Si2 0.208588 0.461989 0.084474
Si Si3 0.503263 0.660399 0.913649
Si Si4 0.758792 0.837813 0.588828
Si Si5 0.500577 0.093577 0.661031
O O1 0.379042 0.379042 0.250000
O O2 0.435965 0.357538 0.125509
O O3 0.367330 0.448727 0.132808
O O4 0.321483 0.338282 0.132773
O O5 0.268415 0.500363 0.088585
O O6 0.219781 0.394861 0.115204
O O7 0.160957 0.497592 0.133398
O O8 0.183659 0.457968 0.000000
O O9 0.500668 0.637295 0.000000
O O10 0.772702 0.843805 0.500000
O O11 0.722711 0.777290 0.607657
O O12 0.500000 0.093976 0.750000
O O13 0.443687 0.056313 0.630519
O O14 0.561475 0.061475 0.632536
#
# Coordination Sequence:
#
# PCOD8320397 Si02
#       5
#    32  32  32  32  32
#     4  11  22  36  56  84 111 134 171 221 265 305
#     4   9  18  32  52  75  97 128 173 217 251 293
#     4  10  21  39  58  76 104 141 174 207 258 321
#     4   9  18  34  55  77 103 139 180 215 253 309
#     4   9  18  31  46  68 101 138 172 208 255 308
#
# _framework density 17.980992000000001
#
# number of rings (size 3 to 8) (size 9 to 14) (size 15 to 20)
#    0.000    2.400    0.000    4.800    0.000    5.600 
#    0.000    4.000    0.000    1.200    0.000    0.000 
#    0.000    0.000    0.000    0.000    0.000    0.000 
#
# Total GULP energy -991921.262506 kJ/mol
# GULP energy per Si atom -12399.015781 kJ/mol
# Density = 1.794007 g / cm^3
# Si number density = 17.980992 Si / 1000 Ang^3
#
#
#
# Elastic Constant Matrix: (Units=GPa)
#
#
# Indices 1 2 3 4 5 6 
#
# 1 110.9751 62.8438 57.5827 0.0000 0.0000 0.0000
# 2 62.8438 110.9751 57.5827 0.0000 0.0000 0.0000
# 3 57.5827 57.5827 106.7943 0.0000 0.0000 0.0000
# 4 0.0000 0.0000 0.0000 28.7273 0.0000 0.0000
# 5 0.0000 0.0000 0.0000 0.0000 28.7273 0.0000
# 6 0.0000 0.0000 0.0000 0.0000 0.0000 26.1581
#
#
#
# Elastic Compliance Matrix: (Units=1/GPa)
#
#
# Indices 1 2 3 4 5 6 
#
# 1 0.014864 -0.005913 -0.004826 0.000000 0.000000 0.000000
# 2 -0.005913 0.014864 -0.004826 0.000000 0.000000 0.000000
# 3 -0.004826 -0.004826 0.014568 0.000000 0.000000 0.000000
# 4 0.000000 0.000000 0.000000 0.034810 0.000000 0.000000
# 5 0.000000 0.000000 0.000000 0.000000 0.034810 0.000000
# 6 0.000000 0.000000 0.000000 0.000000 0.000000 0.038229
#
#
# Mechanical properties :
#
#
# Convention : Reuss Voigt Hill
#
# Bulk Modulus (GPa) = 75.95861 76.08474 76.02168
# Shear Modulus (GPa) = 26.64342 26.77156 26.70749
#
# Velocity S-wave (km/s) = 3.85353 3.86279 3.85816
# Velocity P-wave (km/s) = 7.88259 7.89308 7.88783
#
# Compressibility (1/GPa) = 0.01316506
#
# Stress axis : x y z
#
# Youngs Moduli (GPa) = 67.27835 67.27835 68.64239
#
# Poissons Ratio (x) = 0.39781 0.33128
# Poissons Ratio (y) = 0.39781 0.33128
# Poissons Ratio (z) = 0.32470 0.32470
#
# Static dielectric constant tensor:
#      x y z
#    x 3.343760 0.000000 0.000000 
#    y 0.000000 3.343760 0.000000 
#    z 0.000000 0.000000 3.291990 
# 
# 
# High freq. dielectric constant tensor:
#      x y z
#    x 1.695190 0.000000 0.000000 
#    y 0.000000 1.695190 0.000000 
#    z 0.000000 0.000000 1.692430 
# 
# From -- ./inp_files/6842.got.cif
#   From: 2010.06.25/outbox.cif.g09.slc.cpg/sg140_4_cif.got.tgz:6842.got - 2010.06.28 10:53:23.
