data_PCOD8320920
_publ_section_title
;
Structure prediction by ZEFSAII (Michael W. Deem and Ramdas Pophale) SiO2 
 PCOD8320920
Probable space group: I 41/A M D
;
_chemical_formula_sum "Si O2"
_cell_formula_units_Z 112
_cell_length_a 17.910288
_cell_length_b 17.910288
_cell_length_c 17.127954
_cell_angle_alpha 90.000000
_cell_angle_beta 90.000000
_cell_angle_gamma 90.000000
_cell_volume 5494.277958
_symmetry_space_group_name_H-M "I 41/A M D"
_symmetry_group_IT_number 141
_space_group.IT_coordinate_system_code '2'
_symmetry_cell_setting 'tetragonal'
loop_
_space_group_symop_operation_xyz
x,y,z
1/4-y,3/4+x,1/4+z
-x,1/2-y,z
1/4+y,1/4-x,3/4+z
x,-y,-z
-x,1/2+y,-z
1/4+y,3/4+x,1/4-z
1/4-y,1/4-x,3/4-z
-x,-y,-z
3/4+y,1/4-x,3/4-z
x,1/2+y,-z
3/4-y,3/4+x,1/4-z
-x,y,z
x,1/2-y,z
3/4-y,1/4-x,3/4+z
3/4+y,3/4+x,1/4+z
1/2+x,1/2+y,1/2+z
3/4-y,1/4+x,3/4+z
1/2-x,-y,1/2+z
3/4+y,3/4-x,1/4+z
1/2+x,1/2-y,1/2-z
1/2-x,y,1/2-z
3/4+y,1/4+x,3/4-z
3/4-y,3/4-x,1/4-z
1/2-x,1/2-y,1/2-z
1/4+y,3/4-x,1/4-z
1/2+x,y,1/2-z
1/4-y,1/4+x,3/4-z
1/2-x,1/2+y,1/2+z
1/2+x,-y,1/2+z
1/4-y,3/4-x,1/4+z
1/4+y,1/4+x,3/4+z
loop_
_atom_site_type_symbol
_atom_site_label
_atom_site_fract_x
_atom_site_fract_y
_atom_site_fract_z
Si Si1 0.912956 0.163518 0.657064
Si Si2 0.914174 0.664174 0.625000
Si Si3 0.338812 0.084543 0.985089
Si Si4 0.670520 0.916044 0.282539
O O1 0.890983 0.250000 0.646195
O O2 0.865448 0.111600 0.599264
O O3 0.892990 0.136174 0.744278
O O4 0.000000 0.151525 0.640808
O O5 0.897858 0.750000 0.641490
O O6 0.870334 0.639995 0.548984
O O7 0.250635 0.090076 0.994035
O O8 0.366514 0.000000 0.000000
O O9 0.750000 0.886696 0.250000
O O10 0.661153 0.911153 0.375000
#
# Coordination Sequence:
#
# PCOD8320920 Si02
#       4
#    32  16  32  32
#     4  11  25  43  63  94 133 168 211 269 323 378
#     4  11  24  40  60  92 134 172 206 253 316 386
#     4  11  23  40  67  95 126 167 214 266 319 385
#     4  11  23  44  67  94 127 164 213 266 318 378
#
# _framework density 20.384844000000001
#
# number of rings (size 3 to 8) (size 9 to 14) (size 15 to 20)
#    0.000    1.000    2.857    3.429    4.000   10.857 
#    0.000    1.429    0.000    0.000    0.000    0.000 
#    0.000    0.000    0.000    0.000    0.000    0.000 
#
# Total GULP energy -694722.343343 kJ/mol
# GULP energy per Si atom -12405.756131 kJ/mol
# Density = 2.033845 g / cm^3
# Si number density = 20.384844 Si / 1000 Ang^3
#
#
#
# Elastic Constant Matrix: (Units=GPa)
#
#
# Indices 1 2 3 4 5 6 
#
# 1 72.8096 59.7407 25.8712 0.0000 0.0000 0.0000
# 2 59.7407 72.8096 25.8712 0.0000 0.0000 0.0000
# 3 25.8712 25.8712 118.7246 0.0000 0.0000 0.0000
# 4 0.0000 0.0000 0.0000 48.8632 0.0000 0.0000
# 5 0.0000 0.0000 0.0000 0.0000 48.8632 0.0000
# 6 0.0000 0.0000 0.0000 0.0000 0.0000 34.7523
#
#
#
# Elastic Compliance Matrix: (Units=1/GPa)
#
#
# Indices 1 2 3 4 5 6 
#
# 1 0.042382 -0.034136 -0.001797 0.000000 0.000000 0.000000
# 2 -0.034136 0.042382 -0.001797 0.000000 0.000000 0.000000
# 3 -0.001797 -0.001797 0.009206 0.000000 0.000000 0.000000
# 4 0.000000 0.000000 0.000000 0.020465 0.000000 0.000000
# 5 0.000000 0.000000 0.000000 0.000000 0.020465 0.000000
# 6 0.000000 0.000000 0.000000 0.000000 0.000000 0.028775
#
#
# Mechanical properties :
#
#
# Convention : Reuss Voigt Hill
#
# Bulk Modulus (GPa) = 54.02461 54.14559 54.08510
# Shear Modulus (GPa) = 20.38288 36.68646 28.53467
#
# Velocity S-wave (km/s) = 3.16556 4.24688 3.74545
# Velocity P-wave (km/s) = 6.31830 7.11810 6.73009
#
# Compressibility (1/GPa) = 0.01851008
#
# Stress axis : x y z
#
# Youngs Moduli (GPa) = 23.59515 23.59515 108.62549
#
# Poissons Ratio (x) = 0.80544 0.19518
# Poissons Ratio (y) = 0.80544 0.19518
# Poissons Ratio (z) = 0.04240 0.04240
#
# Static dielectric constant tensor:
#      x y z
#    x 3.769880 0.000000 0.000000 
#    y 0.000000 3.769880 0.000000 
#    z 0.000000 0.000000 4.319420 
# 
# 
# High freq. dielectric constant tensor:
#      x y z
#    x 1.801220 0.000000 0.000000 
#    y 0.000000 1.801220 0.000000 
#    z 0.000000 0.000000 1.810410 
# 
# From -- ./inp_files/7918.got.cif
#   From: 2010.03.12/outbox.cif.g09.slc.cpg/sg141_4_cif.got.tgz:7918.got - 2010.04.03 13:18:35.
