data_PCOD8320986
_publ_section_title
;
Structure prediction by ZEFSAII (Michael W. Deem and Ramdas Pophale) SiO2 
 PCOD8320986
Probable space group: I 41/A C D
;
_chemical_formula_sum "Si O2"
_cell_formula_units_Z 96
_cell_length_a 18.366130
_cell_length_b 18.366130
_cell_length_c 16.603656
_cell_angle_alpha 90.000000
_cell_angle_beta 90.000000
_cell_angle_gamma 90.000000
_cell_volume 5600.657760
_symmetry_space_group_name_H-M "I 41/A C D"
_symmetry_group_IT_number 142
_space_group.IT_coordinate_system_code '2'
_symmetry_cell_setting 'tetragonal'
loop_
_space_group_symop_operation_xyz
x,y,z
1/4-y,3/4+x,1/4+z
-x,1/2-y,z
1/4+y,1/4-x,3/4+z
x,-y,1/2-z
1/2-x,y,-z
3/4+y,1/4+x,1/4-z
1/4-y,1/4-x,1/4-z
-x,-y,-z
3/4+y,1/4-x,3/4-z
x,1/2+y,-z
3/4-y,3/4+x,1/4-z
-x,y,1/2+z
1/2+x,-y,z
1/4-y,3/4-x,3/4+z
3/4+y,3/4+x,3/4+z
1/2+x,1/2+y,1/2+z
3/4-y,1/4+x,3/4+z
1/2-x,-y,1/2+z
3/4+y,3/4-x,1/4+z
1/2+x,1/2-y,-z
-x,1/2+y,1/2-z
1/4+y,3/4+x,3/4-z
3/4-y,3/4-x,3/4-z
1/2-x,1/2-y,1/2-z
1/4+y,3/4-x,1/4-z
1/2+x,y,1/2-z
1/4-y,1/4+x,3/4-z
1/2-x,1/2+y,z
x,1/2-y,1/2+z
3/4-y,1/4-x,1/4+z
1/4+y,1/4+x,1/4+z
loop_
_atom_site_type_symbol
_atom_site_label
_atom_site_fract_x
_atom_site_fract_y
_atom_site_fract_z
Si Si1 0.367847 0.907348 0.908130
Si Si2 0.703963 0.762598 0.422057
Si Si3 0.371009 0.978300 0.075697
O O1 0.442933 0.911334 0.860284
O O2 0.355893 0.825289 0.943010
O O3 0.300891 0.925899 0.847800
O O4 0.367081 0.964829 0.980829
O O5 0.750000 0.740317 0.500000
O O6 0.758926 0.795151 0.353944
O O7 0.339836 0.910164 0.125000
#
# Coordination Sequence:
#
# PCOD8320986 Si02
#       3
#    32  32  32
#     4  10  21  35  60  85 113 158 191 245 296 353
#     4  10  21  37  58  86 118 150 194 245 295 357
#     4  10  18  38  60  83 117 151 195 245 294 349
#
# _framework density 17.140844000000001
#
# number of rings (size 3 to 8) (size 9 to 14) (size 15 to 20)
#    2.000    0.000    3.333    2.000    0.000    3.333 
#    0.000    0.000    0.000    0.000    0.000    0.000 
#    0.000    0.000    0.000    0.000    0.000    0.000 
#
# Total GULP energy -594651.555230 kJ/mol
# GULP energy per Si atom -12388.574067 kJ/mol
# Density = 1.710183 g / cm^3
# Si number density = 17.140844 Si / 1000 Ang^3
#
#
#
# Elastic Constant Matrix: (Units=GPa)
#
#
# Indices 1 2 3 4 5 6 
#
# 1 80.3314 19.7747 43.2169 0.0000 0.0000 0.0000
# 2 19.7747 80.3330 43.2160 0.0000 0.0000 0.0000
# 3 43.2169 43.2160 108.6097 0.0000 0.0000 0.0000
# 4 0.0000 0.0000 0.0000 31.9231 0.0000 0.0000
# 5 0.0000 0.0000 0.0000 0.0000 31.9228 0.0000
# 6 0.0000 0.0000 0.0000 0.0000 0.0000 13.0520
#
#
#
# Elastic Compliance Matrix: (Units=1/GPa)
#
#
# Indices 1 2 3 4 5 6 
#
# 1 0.015866 -0.000648 -0.006055 0.000000 0.000000 0.000000
# 2 -0.000648 0.015865 -0.006055 0.000000 0.000000 0.000000
# 3 -0.006055 -0.006055 0.014026 0.000000 0.000000 0.000000
# 4 0.000000 0.000000 0.000000 0.031325 0.000000 0.000000
# 5 0.000000 0.000000 0.000000 0.000000 0.031326 0.000000
# 6 0.000000 0.000000 0.000000 0.000000 0.000000 0.076616
#
#
# Mechanical properties :
#
#
# Convention : Reuss Voigt Hill
#
# Bulk Modulus (GPa) = 49.40628 53.52104 51.46366
# Shear Modulus (GPa) = 23.01107 26.25067 24.63087
#
# Velocity S-wave (km/s) = 3.66795 3.91764 3.79485
# Velocity P-wave (km/s) = 6.84286 7.19416 7.02071
#
# Compressibility (1/GPa) = 0.02024034
#
# Stress axis : x y z
#
# Youngs Moduli (GPa) = 63.02960 63.03194 71.29636
#
# Poissons Ratio (x) = 0.04084 0.43172
# Poissons Ratio (y) = 0.04084 0.43169
# Poissons Ratio (z) = 0.38166 0.38165
#
# Static dielectric constant tensor:
#      x y z
#    x 2.994830 0.000000 0.000000 
#    y 0.000000 2.994830 0.000000 
#    z 0.000000 0.000000 3.072220 
# 
# 
# High freq. dielectric constant tensor:
#      x y z
#    x 1.647010 0.000000 0.000000 
#    y 0.000000 1.647010 0.000000 
#    z 0.000000 0.000000 1.659710 
# 
# From -- ./inp_files/6536.got.cif
#   From: 2010.03.12/outbox.cif.g09.slc.cpg/sg142_4_cif.got.tgz:6536.got - 2010.04.03 13:27:16.
