data_PCOD8320764
_publ_section_title
;
Structure prediction by ZEFSAII (Michael W. Deem and Ramdas Pophale) SiO2 
 PCOD8320764
Probable space group: I 41/A M D
;
_chemical_formula_sum "Si O2"
_cell_formula_units_Z 160
_cell_length_a 25.570730
_cell_length_b 25.570730
_cell_length_c 13.013307
_cell_angle_alpha 90.000000
_cell_angle_beta 90.000000
_cell_angle_gamma 90.000000
_cell_volume 8508.909970
_symmetry_space_group_name_H-M "I 41/A M D"
_symmetry_group_IT_number 141
_space_group.IT_coordinate_system_code '2'
_symmetry_cell_setting 'tetragonal'
loop_
_space_group_symop_operation_xyz
x,y,z
1/4-y,3/4+x,1/4+z
-x,1/2-y,z
1/4+y,1/4-x,3/4+z
x,-y,-z
-x,1/2+y,-z
1/4+y,3/4+x,1/4-z
1/4-y,1/4-x,3/4-z
-x,-y,-z
3/4+y,1/4-x,3/4-z
x,1/2+y,-z
3/4-y,3/4+x,1/4-z
-x,y,z
x,1/2-y,z
3/4-y,1/4-x,3/4+z
3/4+y,3/4+x,1/4+z
1/2+x,1/2+y,1/2+z
3/4-y,1/4+x,3/4+z
1/2-x,-y,1/2+z
3/4+y,3/4-x,1/4+z
1/2+x,1/2-y,1/2-z
1/2-x,y,1/2-z
3/4+y,1/4+x,3/4-z
3/4-y,3/4-x,1/4-z
1/2-x,1/2-y,1/2-z
1/4+y,3/4-x,1/4-z
1/2+x,y,1/2-z
1/4-y,1/4+x,3/4-z
1/2-x,1/2+y,1/2+z
1/2+x,-y,1/2+z
1/4-y,3/4-x,1/4+z
1/4+y,1/4+x,3/4+z
loop_
_atom_site_type_symbol
_atom_site_label
_atom_site_fract_x
_atom_site_fract_y
_atom_site_fract_z
Si Si1 0.583225 0.750000 0.847679
Si Si2 0.801551 0.134018 0.872344
Si Si3 0.314331 0.848380 0.142216
Si Si4 0.000000 0.972524 0.392379
Si Si5 0.144582 0.330653 0.069035
Si Si6 0.500000 0.186391 0.864288
Si Si7 0.320589 0.750000 0.000091
O O1 0.552208 0.697793 0.875000
O O2 0.589836 0.750000 0.726308
O O3 0.637958 0.750000 0.907372
O O4 0.825575 0.075575 0.875000
O O5 0.740146 0.127328 0.898382
O O6 0.809217 0.164055 0.763937
O O7 0.832232 0.168960 0.954411
O O8 0.361923 0.889336 0.130698
O O9 0.329034 0.798728 0.074608
O O10 0.949204 0.935983 0.389349
O O11 0.000000 0.000000 0.500000
O O12 0.000000 0.013020 0.297944
O O13 0.087715 0.301871 0.060901
O O14 0.500000 0.250000 0.863530
#
# Coordination Sequence:
#
# PCOD8320764 Si02
#       7
#    16  32  32  16  32  16  16
#     4  11  22  38  57  84 123 156 207 259 302 356
#     4   9  19  39  62  91 122 161 191 259 316 368
#     4  10  21  35  65  91 118 157 213 242 307 384
#     4  11  23  40  59  83 125 165 201 259 337 356
#     4  10  21  39  61  88 127 159 202 264 306 372
#     4  11  22  38  61  85 121 170 208 247 320 371
#     4  12  22  34  61  95 114 159 215 260 293 382
#
# _framework density 18.803818
#
# number of rings (size 3 to 8) (size 9 to 14) (size 15 to 20)
#    0.000    1.700    3.000    2.400    1.400    3.200 
#    0.000    0.000   13.200    0.000    0.000    0.000 
#    0.000    0.000    0.000    0.000    0.000    0.000 
#
# Total GULP energy -991556.235366 kJ/mol
# GULP energy per Si atom -12394.452942 kJ/mol
# Density = 1.876102 g / cm^3
# Si number density = 18.803818 Si / 1000 Ang^3
#
#
#
# Elastic Constant Matrix: (Units=GPa)
#
#
# Indices 1 2 3 4 5 6 
#
# 1 138.9228 63.2970 57.7572 0.0000 0.0000 0.0000
# 2 63.2970 138.9228 57.7570 0.0000 0.0000 0.0000
# 3 57.7572 57.7570 97.7344 0.0000 0.0000 0.0000
# 4 0.0000 0.0000 0.0000 26.7813 0.0000 0.0000
# 5 0.0000 0.0000 0.0000 0.0000 26.7971 0.0000
# 6 0.0000 0.0000 0.0000 0.0000 0.0000 24.2974
#
#
#
# Elastic Compliance Matrix: (Units=1/GPa)
#
#
# Indices 1 2 3 4 5 6 
#
# 1 0.010344 -0.002879 -0.004412 0.000000 0.000000 0.000000
# 2 -0.002879 0.010344 -0.004412 0.000000 0.000000 0.000000
# 3 -0.004412 -0.004412 0.015446 0.000000 0.000000 0.000000
# 4 0.000000 0.000000 0.000000 0.037339 0.000000 0.000000
# 5 0.000000 0.000000 0.000000 0.000000 0.037317 0.000000
# 6 0.000000 0.000000 0.000000 0.000000 0.000000 0.041157
#
#
# Mechanical properties :
#
#
# Convention : Reuss Voigt Hill
#
# Bulk Modulus (GPa) = 78.55546 81.46695 80.01120
# Shear Modulus (GPa) = 27.84037 28.69308 28.26672
#
# Velocity S-wave (km/s) = 3.85199 3.91054 3.88138
# Velocity P-wave (km/s) = 7.85180 7.98802 7.92020
#
# Compressibility (1/GPa) = 0.01272986
#
# Stress axis : x y z
#
# Youngs Moduli (GPa) = 96.67350 96.67377 64.74178
#
# Poissons Ratio (x) = 0.27832 0.28562
# Poissons Ratio (y) = 0.27832 0.28561
# Poissons Ratio (z) = 0.42649 0.42648
#
# Static dielectric constant tensor:
#      x y z
#    x 3.612130 0.000000 0.000000 
#    y 0.000000 3.612180 0.000000 
#    z 0.000000 0.000000 3.524800 
# 
# 
# High freq. dielectric constant tensor:
#      x y z
#    x 1.730670 0.000000 0.000000 
#    y 0.000000 1.730670 0.000000 
#    z 0.000000 0.000000 1.731800 
# 
# From -- ./inp_files/4972.got.cif
#   From: 2010.03.12/outbox.cif.g09.slc.cpg/sg141_3_cif.got.tgz:4972.got - 2010.04.03 13:18:35.
