data_PCOD8320658
_publ_section_title
;
Structure prediction by ZEFSAII (Michael W. Deem and Ramdas Pophale) SiO2 
 PCOD8320658
Probable space group: I 41/A M D
;
_chemical_formula_sum "Si O2"
_cell_formula_units_Z 176
_cell_length_a 18.072338
_cell_length_b 18.072338
_cell_length_c 27.322894
_cell_angle_alpha 90.000000
_cell_angle_beta 90.000000
_cell_angle_gamma 90.000000
_cell_volume 8923.914037
_symmetry_space_group_name_H-M "I 41/A M D"
_symmetry_group_IT_number 141
_space_group.IT_coordinate_system_code '2'
_symmetry_cell_setting 'tetragonal'
loop_
_space_group_symop_operation_xyz
x,y,z
1/4-y,3/4+x,1/4+z
-x,1/2-y,z
1/4+y,1/4-x,3/4+z
x,-y,-z
-x,1/2+y,-z
1/4+y,3/4+x,1/4-z
1/4-y,1/4-x,3/4-z
-x,-y,-z
3/4+y,1/4-x,3/4-z
x,1/2+y,-z
3/4-y,3/4+x,1/4-z
-x,y,z
x,1/2-y,z
3/4-y,1/4-x,3/4+z
3/4+y,3/4+x,1/4+z
1/2+x,1/2+y,1/2+z
3/4-y,1/4+x,3/4+z
1/2-x,-y,1/2+z
3/4+y,3/4-x,1/4+z
1/2+x,1/2-y,1/2-z
1/2-x,y,1/2-z
3/4+y,1/4+x,3/4-z
3/4-y,3/4-x,1/4-z
1/2-x,1/2-y,1/2-z
1/4+y,3/4-x,1/4-z
1/2+x,y,1/2-z
1/4-y,1/4+x,3/4-z
1/2-x,1/2+y,1/2+z
1/2+x,-y,1/2+z
1/4-y,3/4-x,1/4+z
1/4+y,1/4+x,3/4+z
loop_
_atom_site_type_symbol
_atom_site_label
_atom_site_fract_x
_atom_site_fract_y
_atom_site_fract_z
Si Si1 0.171910 0.106903 0.822274
Si Si2 0.814929 0.936449 0.437788
Si Si3 0.148624 0.432305 0.294384
Si Si4 0.583202 0.923493 0.598811
Si Si5 0.916810 0.333191 0.375000
Si Si6 0.157063 0.336795 0.022292
O O1 0.132179 0.117822 0.875000
O O2 0.248472 0.152256 0.821240
O O3 0.115686 0.127639 0.778983
O O4 0.190843 0.022605 0.812733
O O5 0.845745 0.900452 0.488054
O O6 0.844091 0.887502 0.393578
O O7 0.837151 0.021825 0.431631
O O8 0.092660 0.387443 0.328467
O O9 0.127910 0.519047 0.291775
O O10 0.500000 0.923746 0.619083
O O11 0.593669 0.855826 0.561393
O O12 0.904741 0.250000 0.355543
O O13 0.172539 0.250000 0.017834
#
# Coordination Sequence:
#
# PCOD8320658 Si02
#       6
#    32  32  32  32  16  32
#     4   9  19  35  57  83 114 145 193 242 286 339
#     4   9  19  36  61  89 112 141 192 248 286 334
#     4  10  19  37  63  86 113 147 190 246 291 342
#     4  11  22  36  56  83 118 158 196 233 286 348
#     4  11  24  38  54  82 120 158 192 232 291 358
#     4  11  22  36  58  87 116 151 194 242 294 345
#
# _framework density 19.722287000000001
#
# number of rings (size 3 to 8) (size 9 to 14) (size 15 to 20)
#    0.000    1.909    1.818    2.182    1.273    9.091 
#    0.000    2.727    0.000    0.000    0.000    3.818 
#    0.000    0.000    0.000    0.000    0.000    0.000 
#
# Total GULP energy -1090668.793481 kJ/mol
# GULP energy per Si atom -12393.963562 kJ/mol
# Density = 1.967740 g / cm^3
# Si number density = 19.722287 Si / 1000 Ang^3
#
#
#
# Elastic Constant Matrix: (Units=GPa)
#
#
# Indices 1 2 3 4 5 6 
#
# 1 65.6898 14.8640 61.5511 0.0000 0.0000 0.0000
# 2 14.8640 65.6895 61.5516 0.0000 0.0000 0.0000
# 3 61.5511 61.5516 133.9472 0.0000 0.0000 0.0000
# 4 0.0000 0.0000 0.0000 12.9004 0.0000 0.0000
# 5 0.0000 0.0000 0.0000 0.0000 12.8988 0.0000
# 6 0.0000 0.0000 0.0000 0.0000 0.0000 17.5126
#
#
#
# Elastic Compliance Matrix: (Units=1/GPa)
#
#
# Indices 1 2 3 4 5 6 
#
# 1 0.030683 0.011008 -0.019158 0.000000 0.000000 0.000000
# 2 0.011008 0.030684 -0.019158 0.000000 0.000000 0.000000
# 3 -0.019158 -0.019158 0.025073 0.000000 0.000000 0.000000
# 4 0.000000 0.000000 0.000000 0.077517 0.000000 0.000000
# 5 0.000000 0.000000 0.000000 0.000000 0.077527 0.000000
# 6 0.000000 0.000000 0.000000 0.000000 0.000000 0.057102
#
#
# Mechanical properties :
#
#
# Convention : Reuss Voigt Hill
#
# Bulk Modulus (GPa) = 31.42325 60.13999 45.78162
# Shear Modulus (GPa) = 13.74347 17.15301 15.44824
#
# Velocity S-wave (km/s) = 2.64266 2.95231 2.80177
# Velocity P-wave (km/s) = 5.02782 6.49470 5.80776
#
# Compressibility (1/GPa) = 0.03182357
#
# Stress axis : x y z
#
# Youngs Moduli (GPa) = 32.59119 32.59055 39.88392
#
# Poissons Ratio (x) = -0.35877 0.76410
# Poissons Ratio (y) = -0.35878 0.76411
# Poissons Ratio (z) = 0.62438 0.62438
#
# Static dielectric constant tensor:
#      x y z
#    x 3.374730 0.000000 0.000000 
#    y 0.000000 3.374750 0.000000 
#    z 0.000000 0.000000 4.177670 
# 
# 
# High freq. dielectric constant tensor:
#      x y z
#    x 1.745250 0.000000 0.000000 
#    y 0.000000 1.745250 0.000000 
#    z 0.000000 0.000000 1.785870 
# 
# From -- ./inp_files/12865.got.cif
#   From: 2010.03.12/outbox.cif.g09.slc.cpg/sg141_7_cif.got.tgz:12865.got - 2010.04.03 13:18:35.
