data_PCOD8320725
_publ_section_title
;
Structure prediction by ZEFSAII (Michael W. Deem and Ramdas Pophale) SiO2 
 PCOD8320725
Probable space group: I 41/A M D
;
_chemical_formula_sum "Si O2"
_cell_formula_units_Z 176
_cell_length_a 17.212186
_cell_length_b 17.212186
_cell_length_c 27.979297
_cell_angle_alpha 90.000000
_cell_angle_beta 90.000000
_cell_angle_gamma 90.000000
_cell_volume 8289.128256
_symmetry_space_group_name_H-M "I 41/A M D"
_symmetry_group_IT_number 141
_space_group.IT_coordinate_system_code '2'
_symmetry_cell_setting 'tetragonal'
loop_
_space_group_symop_operation_xyz
x,y,z
1/4-y,3/4+x,1/4+z
-x,1/2-y,z
1/4+y,1/4-x,3/4+z
x,-y,-z
-x,1/2+y,-z
1/4+y,3/4+x,1/4-z
1/4-y,1/4-x,3/4-z
-x,-y,-z
3/4+y,1/4-x,3/4-z
x,1/2+y,-z
3/4-y,3/4+x,1/4-z
-x,y,z
x,1/2-y,z
3/4-y,1/4-x,3/4+z
3/4+y,3/4+x,1/4+z
1/2+x,1/2+y,1/2+z
3/4-y,1/4+x,3/4+z
1/2-x,-y,1/2+z
3/4+y,3/4-x,1/4+z
1/2+x,1/2-y,1/2-z
1/2-x,y,1/2-z
3/4+y,1/4+x,3/4-z
3/4-y,3/4-x,1/4-z
1/2-x,1/2-y,1/2-z
1/4+y,3/4-x,1/4-z
1/2+x,y,1/2-z
1/4-y,1/4+x,3/4-z
1/2-x,1/2+y,1/2+z
1/2+x,-y,1/2+z
1/4-y,3/4-x,1/4+z
1/4+y,1/4+x,3/4+z
loop_
_atom_site_type_symbol
_atom_site_label
_atom_site_fract_x
_atom_site_fract_y
_atom_site_fract_z
Si Si1 0.407946 0.836196 0.675932
Si Si2 0.913308 0.561506 0.042371
Si Si3 0.913002 0.886712 0.725168
Si Si4 0.177028 0.046522 0.108058
Si Si5 0.409661 0.340340 0.125000
Si Si6 0.688415 0.837187 0.520381
O O1 0.500000 0.853479 0.672241
O O2 0.389329 0.750000 0.654902
O O3 0.379285 0.835231 0.731478
O O4 0.362394 0.905264 0.650303
O O5 0.877019 0.524294 0.090087
O O6 0.000000 0.590504 0.054546
O O7 0.915430 0.500000 0.000000
O O8 0.862880 0.634396 0.024304
O O9 0.871335 0.878399 0.673152
O O10 0.000000 0.857212 0.714716
O O11 0.912022 0.973060 0.746408
O O12 0.185509 0.107463 0.065706
O O13 0.259232 0.009232 0.125000
O O14 0.390531 0.250000 0.129631
O O15 0.661362 0.750000 0.534452
#
# Coordination Sequence:
#
# PCOD8320725 Si02
#       6
#    32  32  32  32  16  32
#     4  10  20  36  60  90 123 160 208 264 318 373
#     4   9  19  37  59  83 111 148 197 251 308 371
#     4   9  18  32  53  80 114 154 195 244 299 353
#     4  11  22  36  58  87 125 165 203 249 314 387
#     4   9  16  28  50  78 108 150 202 244 282 337
#     4  10  21  37  58  84 116 157 208 259 309 363
#
# _framework density 21.23263
#
# number of rings (size 3 to 8) (size 9 to 14) (size 15 to 20)
#    0.000    2.273    0.000    2.727    1.273    3.273 
#    0.000    0.909    0.000    1.091    0.000    0.000 
#    0.000    3.273    0.000    0.000    0.000    0.000 
#
# Total GULP energy -1090387.665544 kJ/mol
# GULP energy per Si atom -12390.768927 kJ/mol
# Density = 2.118430 g / cm^3
# Si number density = 21.232630 Si / 1000 Ang^3
#
#
#
# Elastic Constant Matrix: (Units=GPa)
#
#
# Indices 1 2 3 4 5 6 
#
# 1 109.9440 56.8172 56.2257 0.0000 0.0000 0.0000
# 2 56.8172 109.9433 56.2257 0.0000 0.0000 0.0000
# 3 56.2257 56.2257 127.1152 0.0000 0.0000 0.0000
# 4 0.0000 0.0000 0.0000 29.3821 0.0000 0.0000
# 5 0.0000 0.0000 0.0000 0.0000 29.3823 0.0000
# 6 0.0000 0.0000 0.0000 0.0000 0.0000 33.8936
#
#
#
# Elastic Compliance Matrix: (Units=1/GPa)
#
#
# Indices 1 2 3 4 5 6 
#
# 1 0.013684 -0.005139 -0.003780 0.000000 0.000000 0.000000
# 2 -0.005139 0.013684 -0.003780 0.000000 0.000000 0.000000
# 3 -0.003780 -0.003780 0.011211 0.000000 0.000000 0.000000
# 4 0.000000 0.000000 0.000000 0.034034 0.000000 0.000000
# 5 0.000000 0.000000 0.000000 0.000000 0.034034 0.000000
# 6 0.000000 0.000000 0.000000 0.000000 0.000000 0.029504
#
#
# Mechanical properties :
#
#
# Convention : Reuss Voigt Hill
#
# Bulk Modulus (GPa) = 75.85952 76.17106 76.01529
# Shear Modulus (GPa) = 30.13091 30.38054 30.25573
#
# Velocity S-wave (km/s) = 3.77116 3.78675 3.77896
# Velocity P-wave (km/s) = 7.40051 7.42103 7.41078
#
# Compressibility (1/GPa) = 0.01318226
#
# Stress axis : x y z
#
# Youngs Moduli (GPa) = 73.07713 73.07650 89.20065
#
# Poissons Ratio (x) = 0.37552 0.33716
# Poissons Ratio (y) = 0.37553 0.33717
# Poissons Ratio (z) = 0.27622 0.27622
#
# Static dielectric constant tensor:
#      x y z
#    x 3.814570 0.000000 0.000000 
#    y 0.000000 3.814590 0.000000 
#    z 0.000000 0.000000 3.887570 
# 
# 
# High freq. dielectric constant tensor:
#      x y z
#    x 1.819630 0.000000 0.000000 
#    y 0.000000 1.819630 0.000000 
#    z 0.000000 0.000000 1.835390 
# 
# From -- ./inp_files/12888.got.cif
#   From: 2010.03.12/outbox.cif.g09.slc.cpg/sg141_7_cif.got.tgz:12888.got - 2010.04.03 13:18:35.
