data_PCOD8320308
_publ_section_title
;
Structure prediction by ZEFSAII (Michael W. Deem and Ramdas Pophale) SiO2 
 PCOD8320308
Probable space group: I 4/M C M
;
_chemical_formula_sum "Si O2"
_cell_formula_units_Z 144
_cell_length_a 20.114777
_cell_length_b 20.114777
_cell_length_c 18.330078
_cell_angle_alpha 90.000000
_cell_angle_beta 90.000000
_cell_angle_gamma 90.000000
_cell_volume 7416.427531
_symmetry_space_group_name_H-M "I 4/M C M"
_symmetry_group_IT_number 140
_symmetry_cell_setting 'tetragonal'
loop_
_space_group_symop_operation_xyz
x,y,z
-y,x,z
-x,-y,z
y,-x,z
x,-y,1/2-z
-x,y,1/2-z
y,x,1/2-z
-y,-x,1/2-z
-x,-y,-z
y,-x,-z
x,y,-z
-y,x,-z
-x,y,1/2+z
x,-y,1/2+z
-y,-x,1/2+z
y,x,1/2+z
1/2+x,1/2+y,1/2+z
1/2-y,1/2+x,1/2+z
1/2-x,1/2-y,1/2+z
1/2+y,1/2-x,1/2+z
1/2+x,1/2-y,-z
1/2-x,1/2+y,-z
1/2+y,1/2+x,-z
1/2-y,1/2-x,-z
1/2-x,1/2-y,1/2-z
1/2+y,1/2-x,1/2-z
1/2+x,1/2+y,1/2-z
1/2-y,1/2+x,1/2-z
1/2-x,1/2+y,z
1/2+x,1/2-y,z
1/2-y,1/2-x,z
1/2+y,1/2+x,z
loop_
_atom_site_type_symbol
_atom_site_label
_atom_site_fract_x
_atom_site_fract_y
_atom_site_fract_z
Si Si1 0.469119 0.665925 0.417230
Si Si2 0.804082 0.525359 0.359987
Si Si3 0.051655 0.551655 0.083982
Si Si4 0.607217 0.783122 0.280040
Si Si5 0.403808 0.635083 0.826065
O O1 0.478242 0.639309 0.500000
O O2 0.475459 0.745628 0.419708
O O3 0.523183 0.635513 0.361656
O O4 0.397495 0.644909 0.385684
O O5 0.873025 0.538528 0.397227
O O6 0.813621 0.453133 0.325307
O O7 0.783618 0.583334 0.303548
O O8 0.000000 0.500000 0.123653
O O9 0.041079 0.541079 0.000000
O O10 0.673051 0.826949 0.291170
O O11 0.623029 0.708777 0.307240
O O12 0.405977 0.594024 0.750000
#
# Coordination Sequence:
#
# PCOD8320308 Si02
#       5
#    32  32  16  32  32
#     4  11  23  41  63  88 123 161 202 250 312 374
#     4  10  20  37  59  87 123 162 204 252 307 357
#     4  11  22  36  56  87 126 168 210 251 300 359
#     4  10  20  37  61  89 122 159 203 253 304 359
#     4  11  22  40  64  91 121 156 203 253 309 368
#
# _framework density 19.416356
#
# number of rings (size 3 to 8) (size 9 to 14) (size 15 to 20)
#    0.000    1.444    3.333    2.667    0.000    0.889 
#    2.000    2.222    0.000   12.667    0.000    0.000 
#    0.000    0.000    0.000    0.000    0.000    0.000 
#
# Total GULP energy -892607.202207 kJ/mol
# GULP energy per Si atom -12397.322253 kJ/mol
# Density = 1.937216 g / cm^3
# Si number density = 19.416356 Si / 1000 Ang^3
#
#
#
# Elastic Constant Matrix: (Units=GPa)
#
#
# Indices 1 2 3 4 5 6 
#
# 1 103.2068 67.4526 53.0632 0.0000 0.0000 0.0000
# 2 67.4526 103.2068 53.0632 0.0000 0.0000 0.0000
# 3 53.0632 53.0632 122.1089 0.0000 0.0000 0.0000
# 4 0.0000 0.0000 0.0000 16.5960 0.0000 0.0000
# 5 0.0000 0.0000 0.0000 0.0000 16.5961 0.0000
# 6 0.0000 0.0000 0.0000 0.0000 0.0000 35.1784
#
#
#
# Elastic Compliance Matrix: (Units=1/GPa)
#
#
# Indices 1 2 3 4 5 6 
#
# 1 0.017999 -0.009970 -0.003489 0.000000 0.000000 0.000000
# 2 -0.009970 0.017999 -0.003489 0.000000 0.000000 0.000000
# 3 -0.003489 -0.003489 0.011222 0.000000 0.000000 0.000000
# 4 0.000000 0.000000 0.000000 0.060255 0.000000 0.000000
# 5 0.000000 0.000000 0.000000 0.000000 0.060255 0.000000
# 6 0.000000 0.000000 0.000000 0.000000 0.000000 0.028426
#
#
# Mechanical properties :
#
#
# Convention : Reuss Voigt Hill
#
# Bulk Modulus (GPa) = 75.05327 75.07561 75.06444
# Shear Modulus (GPa) = 21.32244 24.00369 22.66306
#
# Velocity S-wave (km/s) = 3.31746 3.51986 3.42016
# Velocity P-wave (km/s) = 7.30839 7.43434 7.37163
#
# Compressibility (1/GPa) = 0.01332387
#
# Stress axis : x y z
#
# Youngs Moduli (GPa) = 55.55836 55.55834 89.11104
#
# Poissons Ratio (x) = 0.55390 0.31093
# Poissons Ratio (y) = 0.55390 0.31093
# Poissons Ratio (z) = 0.19386 0.19386
#
# Static dielectric constant tensor:
#      x y z
#    x 3.555520 0.000000 0.000000 
#    y 0.000000 3.555520 0.000000 
#    z 0.000000 0.000000 3.499450 
# 
# 
# High freq. dielectric constant tensor:
#      x y z
#    x 1.758260 0.000000 0.000000 
#    y 0.000000 1.758260 0.000000 
#    z 0.000000 0.000000 1.752270 
# 
# From -- ./inp_files/6680.got.cif
#   From: 2010.06.25/outbox.cif.g09.slc.cpg/sg140_4_cif.got.tgz:6680.got - 2010.06.28 10:53:23.
