data_PCOD8320024
_publ_section_title
;
Structure prediction by ZEFSAII (Michael W. Deem and Ramdas Pophale) SiO2 
 PCOD8320024
Probable space group: I 4/M M M
;
_chemical_formula_sum "Si O2"
_cell_formula_units_Z 128
_cell_length_a 27.380901
_cell_length_b 27.380901
_cell_length_c 9.968243
_cell_angle_alpha 90.000000
_cell_angle_beta 90.000000
_cell_angle_gamma 90.000000
_cell_volume 7473.328736
_symmetry_space_group_name_H-M "I 4/M M M"
_symmetry_group_IT_number 139
_symmetry_cell_setting 'tetragonal'
loop_
_space_group_symop_operation_xyz
x,y,z
-y,x,z
-x,-y,z
y,-x,z
x,-y,-z
-x,y,-z
y,x,-z
-y,-x,-z
-x,-y,-z
y,-x,-z
x,y,-z
-y,x,-z
-x,y,z
x,-y,z
-y,-x,z
y,x,z
1/2+x,1/2+y,1/2+z
1/2-y,1/2+x,1/2+z
1/2-x,1/2-y,1/2+z
1/2+y,1/2-x,1/2+z
1/2+x,1/2-y,1/2-z
1/2-x,1/2+y,1/2-z
1/2+y,1/2+x,1/2-z
1/2-y,1/2-x,1/2-z
1/2-x,1/2-y,1/2-z
1/2+y,1/2-x,1/2-z
1/2+x,1/2+y,1/2-z
1/2-y,1/2+x,1/2-z
1/2-x,1/2+y,1/2+z
1/2+x,1/2-y,1/2+z
1/2-y,1/2-x,1/2+z
1/2+y,1/2+x,1/2+z
loop_
_atom_site_type_symbol
_atom_site_label
_atom_site_fract_x
_atom_site_fract_y
_atom_site_fract_z
Si Si1 0.053073 0.394592 0.145927
Si Si2 0.190147 0.630396 0.348031
Si Si3 0.774840 0.943926 0.843001
Si Si4 0.864927 0.055569 0.347130
O O1 0.062156 0.437845 0.250000
O O2 0.092673 0.353288 0.158541
O O3 0.000000 0.370862 0.171752
O O4 0.055662 0.419048 0.000000
O O5 0.197494 0.650472 0.500000
O O6 0.176421 0.676421 0.250000
O O7 0.236420 0.598245 0.300520
O O8 0.821798 0.931484 0.754718
O O9 0.756699 0.000000 0.813733
O O10 0.787592 0.938958 0.000000
O O11 0.846793 0.064299 0.500000
O O12 0.910858 0.089143 0.311578
O O13 0.882246 0.000000 0.327212
#
# Coordination Sequence:
#
# PCOD8320024 Si02
#       4
#    32  32  32  32
#     4   9  17  28  40  54  75 104 138 177 222 273
#     4   9  17  29  45  65  88 115 149 191 238 283
#     4   9  17  30  49  71  95 125 160 197 238 284
#     4   9  18  32  50  74 103 132 160 189 223 266
#
# _framework density 17.127575
#
# number of rings (size 3 to 8) (size 9 to 14) (size 15 to 20)
#    0.000    3.000    0.000    0.750    0.000    5.500 
#    0.000    2.500    0.000    5.250    0.000    3.500 
#    0.000    0.000    0.000    0.000    0.000    0.000 
#
# Total GULP energy -792881.992348 kJ/mol
# GULP energy per Si atom -12388.781130 kJ/mol
# Density = 1.708859 g / cm^3
# Si number density = 17.127575 Si / 1000 Ang^3
#
#
#
# Elastic Constant Matrix: (Units=GPa)
#
#
# Indices 1 2 3 4 5 6 
#
# 1 81.2180 49.6960 54.0043 0.0000 0.0000 0.0000
# 2 49.6960 81.2177 54.0043 0.0000 0.0000 0.0000
# 3 54.0043 54.0043 85.4846 0.0000 0.0000 0.0000
# 4 0.0000 0.0000 0.0000 24.9277 0.0000 0.0000
# 5 0.0000 0.0000 0.0000 0.0000 24.9268 0.0000
# 6 0.0000 0.0000 0.0000 0.0000 0.0000 33.3155
#
#
#
# Elastic Compliance Matrix: (Units=1/GPa)
#
#
# Indices 1 2 3 4 5 6 
#
# 1 0.023839 -0.007885 -0.010079 0.000000 0.000000 0.000000
# 2 -0.007885 0.023839 -0.010079 0.000000 0.000000 0.000000
# 3 -0.010079 -0.010079 0.024433 0.000000 0.000000 0.000000
# 4 0.000000 0.000000 0.000000 0.040116 0.000000 0.000000
# 5 0.000000 0.000000 0.000000 0.000000 0.040117 0.000000
# 6 0.000000 0.000000 0.000000 0.000000 0.000000 0.030016
#
#
# Mechanical properties :
#
#
# Convention : Reuss Voigt Hill
#
# Bulk Modulus (GPa) = 62.40188 62.59218 62.49703
# Shear Modulus (GPa) = 20.50968 22.64837 21.57902
#
# Velocity S-wave (km/s) = 3.46420 3.64034 3.55336
# Velocity P-wave (km/s) = 7.24662 7.36841 7.30777
#
# Compressibility (1/GPa) = 0.01602516
#
# Stress axis : x y z
#
# Youngs Moduli (GPa) = 41.94810 41.94783 40.92906
#
# Poissons Ratio (x) = 0.33076 0.41252
# Poissons Ratio (y) = 0.33076 0.41252
# Poissons Ratio (z) = 0.42279 0.42279
#
# Static dielectric constant tensor:
#      x y z
#    x 3.107230 0.000000 0.000000 
#    y 0.000000 3.107280 0.000000 
#    z 0.000000 0.000000 3.635840 
# 
# 
# High freq. dielectric constant tensor:
#      x y z
#    x 1.643390 0.000000 0.000000 
#    y 0.000000 1.643390 0.000000 
#    z 0.000000 0.000000 1.667500 
# 
# From -- ./inp_files/3392.got.cif
#   From: 2010.03.12/outbox.cif.g09.slc.cpg/sg139_2_cif.got.tgz:3392.got - 2010.04.08 09:46:31.
