data_PCOD8320075
_publ_section_title
;
Structure prediction by ZEFSAII (Michael W. Deem and Ramdas Pophale) SiO2 
 PCOD8320075
Probable space group: I 4/M C M
;
_chemical_formula_sum "Si O2"
_cell_formula_units_Z 208
_cell_length_a 29.333225
_cell_length_b 29.333225
_cell_length_c 18.629443
_cell_angle_alpha 90.000000
_cell_angle_beta 90.000000
_cell_angle_gamma 90.000000
_cell_volume 16029.482332
_symmetry_space_group_name_H-M "I 4/M C M"
_symmetry_group_IT_number 140
_symmetry_cell_setting 'tetragonal'
loop_
_space_group_symop_operation_xyz
x,y,z
-y,x,z
-x,-y,z
y,-x,z
x,-y,1/2-z
-x,y,1/2-z
y,x,1/2-z
-y,-x,1/2-z
-x,-y,-z
y,-x,-z
x,y,-z
-y,x,-z
-x,y,1/2+z
x,-y,1/2+z
-y,-x,1/2+z
y,x,1/2+z
1/2+x,1/2+y,1/2+z
1/2-y,1/2+x,1/2+z
1/2-x,1/2-y,1/2+z
1/2+y,1/2-x,1/2+z
1/2+x,1/2-y,-z
1/2-x,1/2+y,-z
1/2+y,1/2+x,-z
1/2-y,1/2-x,-z
1/2-x,1/2-y,1/2-z
1/2+y,1/2-x,1/2-z
1/2+x,1/2+y,1/2-z
1/2-y,1/2+x,1/2-z
1/2-x,1/2+y,z
1/2+x,1/2-y,z
1/2-y,1/2-x,z
1/2+y,1/2+x,z
loop_
_atom_site_type_symbol
_atom_site_label
_atom_site_fract_x
_atom_site_fract_y
_atom_site_fract_z
Si Si1 0.134686 0.290797 0.332399
Si Si2 0.396859 0.820334 0.185693
Si Si3 0.763915 0.659487 0.919785
Si Si4 0.280980 0.704341 0.830010
Si Si5 0.351458 0.925945 0.581791
Si Si6 0.127057 0.511486 0.330469
Si Si7 0.961973 0.538028 0.083930
O O1 0.177726 0.322275 0.314425
O O2 0.103752 0.292696 0.260750
O O3 0.155024 0.240770 0.350384
O O4 0.106745 0.308610 0.401039
O O5 0.364589 0.864589 0.188287
O O6 0.382711 0.785145 0.123587
O O7 0.447705 0.836893 0.169387
O O8 0.800120 0.699881 0.921058
O O9 0.717182 0.677463 0.883055
O O10 0.752321 0.642803 0.000000
O O11 0.300123 0.699878 0.750000
O O12 0.243954 0.743954 0.835243
O O13 0.347911 0.942535 0.500000
O O14 0.398588 0.898588 0.594907
O O15 0.348180 0.968000 0.635549
O O16 0.110508 0.500000 0.250000
O O17 0.084200 0.521985 0.379849
O O18 0.000000 0.500000 0.095788
O O19 0.953076 0.546925 0.000000
#
# Coordination Sequence:
#
# PCOD8320075 Si02
#       7
#    32  32  32  32  32  32  16
#     4   9  16  27  45  60  77  99 126 149 184 231
#     4  10  18  31  43  60  78  98 126 158 194 243
#     4   9  17  26  39  60  84 102 119 147 183 226
#     4   9  14  23  40  60  80 103 123 142 173 219
#     4  10  21  35  47  59  78  99 124 166 212 246
#     4  12  23  33  51  64  74  98 134 166 204 260
#     4  11  26  40  48  62  80  93 118 170 228 269
#
# _framework density 12.976089999999999
#
# number of rings (size 3 to 8) (size 9 to 14) (size 15 to 20)
#    0.000    2.077    3.846    0.923    2.154    3.077 
#    0.000    3.077    0.000    0.000    0.000    0.000 
#    0.000    0.000    0.000    0.000    0.000    0.000 
#
# Total GULP energy -1289295.810830 kJ/mol
# GULP energy per Si atom -12397.075104 kJ/mol
# Density = 1.294656 g / cm^3
# Si number density = 12.976090 Si / 1000 Ang^3
#
#
#
# Elastic Constant Matrix: (Units=GPa)
#
#
# Indices 1 2 3 4 5 6 
#
# 1 43.2847 43.1339 30.9324 0.0000 0.0000 0.0000
# 2 43.1339 43.2854 30.9330 0.0000 0.0000 0.0000
# 3 30.9324 30.9330 96.0057 0.0000 0.0000 0.0000
# 4 0.0000 0.0000 0.0000 17.3282 0.0000 0.0000
# 5 0.0000 0.0000 0.0000 0.0000 17.3282 0.0000
# 6 0.0000 0.0000 0.0000 0.0000 0.0000 18.7675
#
#
#
# Elastic Compliance Matrix: (Units=1/GPa)
#
#
# Indices 1 2 3 4 5 6 
#
# 1 3.316333 -3.301273 -0.004832 0.000000 0.000000 0.000000
# 2 -3.301273 3.316294 -0.004860 0.000000 0.000000 0.000000
# 3 -0.004832 -0.004860 0.013539 0.000000 0.000000 0.000000
# 4 0.000000 0.000000 0.000000 0.057710 0.000000 0.000000
# 5 0.000000 0.000000 0.000000 0.000000 0.057709 0.000000
# 6 0.000000 0.000000 0.000000 0.000000 0.000000 0.053284
#
#
# Mechanical properties :
#
#
# Convention : Reuss Voigt Hill
#
# Bulk Modulus (GPa) = 41.26096 43.61941 42.44018
# Shear Modulus (GPa) = 0.37189 15.85653 8.11421
#
# Velocity S-wave (km/s) = 0.53593 3.49948 2.50335
# Velocity P-wave (km/s) = 5.67888 7.07224 6.41351
#
# Compressibility (1/GPa) = 0.02423598
#
# Stress axis : x y z
#
# Youngs Moduli (GPa) = 0.30154 0.30154 73.86167
#
# Poissons Ratio (x) = 0.99547 0.35691
# Poissons Ratio (y) = 0.99546 0.35897
# Poissons Ratio (z) = 0.00146 0.00147
#
# Static dielectric constant tensor:
#      x y z
#    x 2.436460 0.000000 0.000000 
#    y 0.000000 2.436460 0.000000 
#    z 0.000000 0.000000 2.809170 
# 
# 
# High freq. dielectric constant tensor:
#      x y z
#    x 1.458700 0.000000 0.000000 
#    y 0.000000 1.458700 0.000000 
#    z 0.000000 0.000000 1.510700 
# 
# From -- ./inp_files/7255.got.cif
#   From: 2010.06.25/outbox.cif.g09.slc.cpg/sg140_4_cif.got.tgz:7255.got - 2010.06.28 10:53:23.
