data_PCOD8320283
_publ_section_title
;
Structure prediction by ZEFSAII (Michael W. Deem and Ramdas Pophale) SiO2 
 PCOD8320283
Probable space group: I 4/M C M
;
_chemical_formula_sum "Si O2"
_cell_formula_units_Z 176
_cell_length_a 23.668902
_cell_length_b 23.668902
_cell_length_c 14.791737
_cell_angle_alpha 90.000000
_cell_angle_beta 90.000000
_cell_angle_gamma 90.000000
_cell_volume 8286.581371
_symmetry_space_group_name_H-M "I 4/M C M"
_symmetry_group_IT_number 140
_symmetry_cell_setting 'tetragonal'
loop_
_space_group_symop_operation_xyz
x,y,z
-y,x,z
-x,-y,z
y,-x,z
x,-y,1/2-z
-x,y,1/2-z
y,x,1/2-z
-y,-x,1/2-z
-x,-y,-z
y,-x,-z
x,y,-z
-y,x,-z
-x,y,1/2+z
x,-y,1/2+z
-y,-x,1/2+z
y,x,1/2+z
1/2+x,1/2+y,1/2+z
1/2-y,1/2+x,1/2+z
1/2-x,1/2-y,1/2+z
1/2+y,1/2-x,1/2+z
1/2+x,1/2-y,-z
1/2-x,1/2+y,-z
1/2+y,1/2+x,-z
1/2-y,1/2-x,-z
1/2-x,1/2-y,1/2-z
1/2+y,1/2-x,1/2-z
1/2+x,1/2+y,1/2-z
1/2-y,1/2+x,1/2-z
1/2-x,1/2+y,z
1/2+x,1/2-y,z
1/2-y,1/2-x,z
1/2+y,1/2+x,z
loop_
_atom_site_type_symbol
_atom_site_label
_atom_site_fract_x
_atom_site_fract_y
_atom_site_fract_z
Si Si1 0.199147 0.212666 0.896520
Si Si2 0.933753 0.932528 0.500000
Si Si3 0.786616 0.589046 0.899449
Si Si4 0.644184 0.601901 0.340383
Si Si5 0.437804 0.150391 0.227153
Si Si6 0.533150 0.744877 0.104739
O O1 0.252694 0.247307 0.854991
O O2 0.143257 0.248872 0.885852
O O3 0.188392 0.153871 0.847120
O O4 0.212211 0.199275 0.000000
O O5 0.902895 0.904014 0.584487
O O6 0.000815 0.920846 0.500000
O O7 0.833499 0.590322 0.822631
O O8 0.747198 0.534236 0.887843
O O9 0.814574 0.589148 0.000000
O O10 0.607590 0.607590 0.250000
O O11 0.686145 0.548449 0.345432
O O12 0.500000 0.127410 0.250000
O O13 0.400237 0.099764 0.185122
O O14 0.438933 0.201918 0.156106
O O15 0.553612 0.744657 0.000000
#
# Coordination Sequence:
#
# PCOD8320283 Si02
#       6
#    32  16  32  32  32  32
#     4  10  20  35  57  89 129 166 203 251 321 391
#     4  11  28  52  71  94 134 180 227 281 341 400
#     4   9  19  35  60  86 117 162 208 256 309 375
#     4  12  25  41  68 102 128 171 217 272 336 400
#     4  10  21  37  57  88 124 164 215 265 318 385
#     4  10  21  39  60  87 123 166 217 262 320 384
#
# _framework density 21.239156000000001
#
# number of rings (size 3 to 8) (size 9 to 14) (size 15 to 20)
#    0.000    1.727    1.818    1.636    2.545    3.455 
#    0.000    0.909    0.000    0.000    0.000    5.091 
#    0.000    0.000    0.000    0.000    0.000    0.000 
#
# Total GULP energy -1090874.896874 kJ/mol
# GULP energy per Si atom -12396.305646 kJ/mol
# Density = 2.119081 g / cm^3
# Si number density = 21.239156 Si / 1000 Ang^3
#
#
#
# Elastic Constant Matrix: (Units=GPa)
#
#
# Indices 1 2 3 4 5 6 
#
# 1 56.9399 36.7671 35.0113 0.0000 0.0000 0.0000
# 2 36.7671 56.9399 35.0113 0.0000 0.0000 0.0000
# 3 35.0113 35.0113 102.9637 0.0000 0.0000 0.0000
# 4 0.0000 0.0000 0.0000 20.1221 0.0000 0.0000
# 5 0.0000 0.0000 0.0000 0.0000 20.1221 0.0000
# 6 0.0000 0.0000 0.0000 0.0000 0.0000 29.3799
#
#
#
# Elastic Compliance Matrix: (Units=1/GPa)
#
#
# Indices 1 2 3 4 5 6 
#
# 1 0.031939 -0.017633 -0.004865 0.000000 0.000000 0.000000
# 2 -0.017633 0.031939 -0.004865 0.000000 0.000000 0.000000
# 3 -0.004865 -0.004865 0.013021 0.000000 0.000000 0.000000
# 4 0.000000 0.000000 0.000000 0.049697 0.000000 0.000000
# 5 0.000000 0.000000 0.000000 0.000000 0.049697 0.000000
# 6 0.000000 0.000000 0.000000 0.000000 0.000000 0.034037
#
#
# Mechanical properties :
#
#
# Convention : Reuss Voigt Hill
#
# Bulk Modulus (GPa) = 45.09602 47.82477 46.46039
# Shear Modulus (GPa) = 18.35231 21.26174 19.80702
#
# Velocity S-wave (km/s) = 2.94271 3.16739 3.05712
# Velocity P-wave (km/s) = 5.72928 5.99522 5.86376
#
# Compressibility (1/GPa) = 0.02217491
#
# Stress axis : x y z
#
# Youngs Moduli (GPa) = 31.30934 31.30934 76.80147
#
# Poissons Ratio (x) = 0.55206 0.37363
# Poissons Ratio (y) = 0.55206 0.37363
# Poissons Ratio (z) = 0.15231 0.15231
#
# Static dielectric constant tensor:
#      x y z
#    x 3.913930 0.000000 0.000000 
#    y 0.000000 3.913930 0.000000 
#    z 0.000000 0.000000 4.060650 
# 
# 
# High freq. dielectric constant tensor:
#      x y z
#    x 1.830480 0.000000 0.000000 
#    y 0.000000 1.830480 0.000000 
#    z 0.000000 0.000000 1.837580 
# 
# From -- ./inp_files/4966.got.cif
#   From: 2010.06.25/outbox.cif.g09.slc.cpg/sg140_3_cif.got.tgz:4966.got - 2010.06.28 10:53:23.
