data_PCOD8320771
_publ_section_title
;
Structure prediction by ZEFSAII (Michael W. Deem and Ramdas Pophale) SiO2 
 PCOD8320771
Probable space group: I 41/A M D
;
_chemical_formula_sum "Si O2"
_cell_formula_units_Z 176
_cell_length_a 18.336965
_cell_length_b 18.336965
_cell_length_c 26.640957
_cell_angle_alpha 90.000000
_cell_angle_beta 90.000000
_cell_angle_gamma 90.000000
_cell_volume 8957.869549
_symmetry_space_group_name_H-M "I 41/A M D"
_symmetry_group_IT_number 141
_space_group.IT_coordinate_system_code '2'
_symmetry_cell_setting 'tetragonal'
loop_
_space_group_symop_operation_xyz
x,y,z
1/4-y,3/4+x,1/4+z
-x,1/2-y,z
1/4+y,1/4-x,3/4+z
x,-y,-z
-x,1/2+y,-z
1/4+y,3/4+x,1/4-z
1/4-y,1/4-x,3/4-z
-x,-y,-z
3/4+y,1/4-x,3/4-z
x,1/2+y,-z
3/4-y,3/4+x,1/4-z
-x,y,z
x,1/2-y,z
3/4-y,1/4-x,3/4+z
3/4+y,3/4+x,1/4+z
1/2+x,1/2+y,1/2+z
3/4-y,1/4+x,3/4+z
1/2-x,-y,1/2+z
3/4+y,3/4-x,1/4+z
1/2+x,1/2-y,1/2-z
1/2-x,y,1/2-z
3/4+y,1/4+x,3/4-z
3/4-y,3/4-x,1/4-z
1/2-x,1/2-y,1/2-z
1/4+y,3/4-x,1/4-z
1/2+x,y,1/2-z
1/4-y,1/4+x,3/4-z
1/2-x,1/2+y,1/2+z
1/2+x,-y,1/2+z
1/4-y,3/4-x,1/4+z
1/4+y,1/4+x,3/4+z
loop_
_atom_site_type_symbol
_atom_site_label
_atom_site_fract_x
_atom_site_fract_y
_atom_site_fract_z
Si Si1 0.325394 0.564983 0.183375
Si Si2 0.335481 0.667378 0.028695
Si Si3 0.086218 0.922303 0.665670
Si Si4 0.309072 0.409894 0.550000
Si Si5 0.584947 0.834947 0.375000
Si Si6 0.583740 0.670988 0.627383
O O1 0.369097 0.497009 0.159804
O O2 0.339521 0.578948 0.241696
O O3 0.239150 0.559037 0.173769
O O4 0.355537 0.635033 0.155201
O O5 0.306142 0.750000 0.029400
O O6 0.273088 0.618563 0.054010
O O7 0.406427 0.656644 0.063062
O O8 0.357048 0.645985 0.971787
O O9 0.113758 0.863758 0.625000
O O10 0.000000 0.935382 0.657526
O O11 0.367634 0.358240 0.576883
O O12 0.599274 0.750000 0.363170
O O13 0.500000 0.674014 0.612682
O O14 0.620130 0.750000 0.615957
#
# Coordination Sequence:
#
# PCOD8320771 Si02
#       6
#    32  32  32  32  16  32
#     4  10  22  38  58  86 115 148 196 246 289 342
#     4   9  19  37  59  84 115 152 194 236 283 340
#     4  10  22  38  58  86 118 152 191 237 293 352
#     4  10  21  38  60  82 113 156 195 239 287 342
#     4  11  24  38  56  88 124 156 193 238 292 350
#     4  10  21  36  56  82 112 150 193 239 292 345
#
# _framework density 19.647528999999999
#
# number of rings (size 3 to 8) (size 9 to 14) (size 15 to 20)
#    0.000    2.091    0.000    2.182    3.818    6.000 
#    0.000    5.455    0.000    2.182    0.000    0.000 
#    0.000    0.000    0.000    0.000    0.000    0.000 
#
# Total GULP energy -1091060.673811 kJ/mol
# GULP energy per Si atom -12398.416748 kJ/mol
# Density = 1.960281 g / cm^3
# Si number density = 19.647529 Si / 1000 Ang^3
#
#
#
# Elastic Constant Matrix: (Units=GPa)
#
#
# Indices 1 2 3 4 5 6 
#
# 1 106.1195 57.4277 50.2302 0.0000 0.0000 0.0000
# 2 57.4277 106.1195 50.2302 0.0000 0.0000 0.0000
# 3 50.2302 50.2302 71.0891 0.0000 0.0000 0.0000
# 4 0.0000 0.0000 0.0000 31.3015 0.0000 0.0000
# 5 0.0000 0.0000 0.0000 0.0000 31.3015 0.0000
# 6 0.0000 0.0000 0.0000 0.0000 0.0000 32.0476
#
#
#
# Elastic Compliance Matrix: (Units=1/GPa)
#
#
# Indices 1 2 3 4 5 6 
#
# 1 0.015670 -0.004867 -0.007633 0.000000 0.000000 0.000000
# 2 -0.004867 0.015670 -0.007633 0.000000 0.000000 0.000000
# 3 -0.007633 -0.007633 0.024854 0.000000 0.000000 0.000000
# 4 0.000000 0.000000 0.000000 0.031947 0.000000 0.000000
# 5 0.000000 0.000000 0.000000 0.000000 0.031947 0.000000
# 6 0.000000 0.000000 0.000000 0.000000 0.000000 0.031204
#
#
# Mechanical properties :
#
#
# Convention : Reuss Voigt Hill
#
# Bulk Modulus (GPa) = 62.78616 66.56715 64.67665
# Shear Modulus (GPa) = 25.39748 27.29278 26.34513
#
# Velocity S-wave (km/s) = 3.59925 3.73113 3.66579
# Velocity P-wave (km/s) = 7.02129 7.24679 7.13493
#
# Compressibility (1/GPa) = 0.01592708
#
# Stress axis : x y z
#
# Youngs Moduli (GPa) = 63.81475 63.81475 40.23476
#
# Poissons Ratio (x) = 0.31059 0.30713
# Poissons Ratio (y) = 0.31059 0.30713
# Poissons Ratio (z) = 0.48713 0.48713
#
# Static dielectric constant tensor:
#      x y z
#    x 3.589460 0.000000 0.000000 
#    y 0.000000 3.589460 0.000000 
#    z 0.000000 0.000000 3.646650 
# 
# 
# High freq. dielectric constant tensor:
#      x y z
#    x 1.764070 0.000000 0.000000 
#    y 0.000000 1.764070 0.000000 
#    z 0.000000 0.000000 1.775930 
# 
# From -- ./inp_files/12898.got.cif
#   From: 2010.03.12/outbox.cif.g09.slc.cpg/sg141_7_cif.got.tgz:12898.got - 2010.04.03 13:18:35.
