data_PCOD8320318
_publ_section_title
;
Structure prediction by ZEFSAII (Michael W. Deem and Ramdas Pophale) SiO2 
 PCOD8320318
Probable space group: I 4/M C M
;
_chemical_formula_sum "Si O2"
_cell_formula_units_Z 112
_cell_length_a 18.481083
_cell_length_b 18.481083
_cell_length_c 18.222871
_cell_angle_alpha 90.000000
_cell_angle_beta 90.000000
_cell_angle_gamma 90.000000
_cell_volume 6224.029405
_symmetry_space_group_name_H-M "I 4/M C M"
_symmetry_group_IT_number 140
_symmetry_cell_setting 'tetragonal'
loop_
_space_group_symop_operation_xyz
x,y,z
-y,x,z
-x,-y,z
y,-x,z
x,-y,1/2-z
-x,y,1/2-z
y,x,1/2-z
-y,-x,1/2-z
-x,-y,-z
y,-x,-z
x,y,-z
-y,x,-z
-x,y,1/2+z
x,-y,1/2+z
-y,-x,1/2+z
y,x,1/2+z
1/2+x,1/2+y,1/2+z
1/2-y,1/2+x,1/2+z
1/2-x,1/2-y,1/2+z
1/2+y,1/2-x,1/2+z
1/2+x,1/2-y,-z
1/2-x,1/2+y,-z
1/2+y,1/2+x,-z
1/2-y,1/2-x,-z
1/2-x,1/2-y,1/2-z
1/2+y,1/2-x,1/2-z
1/2+x,1/2+y,1/2-z
1/2-y,1/2+x,1/2-z
1/2-x,1/2+y,z
1/2+x,1/2-y,z
1/2-y,1/2-x,z
1/2+y,1/2+x,z
loop_
_atom_site_type_symbol
_atom_site_label
_atom_site_fract_x
_atom_site_fract_y
_atom_site_fract_z
Si Si1 0.440703 0.059298 0.913454
Si Si2 0.796312 0.515077 0.332737
Si Si3 0.757481 0.375059 0.583674
Si Si4 0.338068 0.279455 0.822216
O O1 0.464892 0.135423 0.881543
O O2 0.500000 0.000000 0.892292
O O3 0.432172 0.067829 0.000000
O O4 0.822355 0.500000 0.250000
O O5 0.757563 0.444764 0.365017
O O6 0.736627 0.578058 0.335252
O O7 0.744352 0.398242 0.500000
O O8 0.833929 0.333929 0.592710
O O9 0.692451 0.322373 0.607694
O O10 0.328380 0.328380 0.750000
O O11 0.296628 0.203373 0.810910
#
# Coordination Sequence:
#
# PCOD8320318 Si02
#       4
#    16  32  32  32
#     4  11  26  40  53  84 130 164 195 239 292 360
#     4  12  23  36  62  89 117 157 202 245 295 353
#     4  10  22  39  60  86 122 157 190 241 304 356
#     4  10  20  38  59  85 116 151 202 250 289 344
#
# _framework density 17.994772999999999
#
# number of rings (size 3 to 8) (size 9 to 14) (size 15 to 20)
#    0.000    1.286    4.286    1.714    4.000    4.571 
#    0.000    0.000    0.000    0.857    0.000    2.000 
#    0.000    0.000    0.000    0.000    0.000    0.000 
#
# Total GULP energy -694722.207927 kJ/mol
# GULP energy per Si atom -12405.753713 kJ/mol
# Density = 1.795382 g / cm^3
# Si number density = 17.994773 Si / 1000 Ang^3
#
#
#
# Elastic Constant Matrix: (Units=GPa)
#
#
# Indices 1 2 3 4 5 6 
#
# 1 71.2070 67.8018 38.3569 0.0000 0.0000 0.0000
# 2 67.8018 71.2080 38.3588 0.0000 0.0000 0.0000
# 3 38.3569 38.3588 111.9693 0.0000 0.0000 0.0000
# 4 0.0000 0.0000 0.0000 29.2453 0.0000 0.0000
# 5 0.0000 0.0000 0.0000 0.0000 29.2453 0.0000
# 6 0.0000 0.0000 0.0000 0.0000 0.0000 24.3153
#
#
#
# Elastic Compliance Matrix: (Units=1/GPa)
#
#
# Indices 1 2 3 4 5 6 
#
# 1 0.151250 -0.142380 -0.003036 0.000000 0.000000 0.000000
# 2 -0.142380 0.151251 -0.003041 0.000000 0.000000 0.000000
# 3 -0.003036 -0.003041 0.011013 0.000000 0.000000 0.000000
# 4 0.000000 0.000000 0.000000 0.034193 0.000000 0.000000
# 5 0.000000 0.000000 0.000000 0.000000 0.034193 0.000000
# 6 0.000000 0.000000 0.000000 0.000000 0.000000 0.041126
#
#
# Mechanical properties :
#
#
# Convention : Reuss Voigt Hill
#
# Bulk Modulus (GPa) = 60.24407 60.37993 60.31200
# Shear Modulus (GPa) = 6.89202 23.88565 15.38884
#
# Velocity S-wave (km/s) = 1.95916 3.64726 2.92752
# Velocity P-wave (km/s) = 6.21845 7.16684 6.70942
#
# Compressibility (1/GPa) = 0.01659914
#
# Stress axis : x y z
#
# Youngs Moduli (GPa) = 6.61155 6.61152 90.80058
#
# Poissons Ratio (x) = 0.94135 0.27571
# Poissons Ratio (y) = 0.94135 0.27617
# Poissons Ratio (z) = 0.02008 0.02011
#
# Static dielectric constant tensor:
#      x y z
#    x 3.285310 0.000000 0.000000 
#    y 0.000000 3.285320 0.000000 
#    z 0.000000 0.000000 3.496360 
# 
# 
# High freq. dielectric constant tensor:
#      x y z
#    x 1.686140 0.000000 0.000000 
#    y 0.000000 1.686140 0.000000 
#    z 0.000000 0.000000 1.715170 
# 
# From -- ./inp_files/6069.got.cif
#   From: 2010.06.25/outbox.cif.g09.slc.cpg/sg140_4_cif.got.tgz:6069.got - 2010.06.28 10:53:23.
