data_PCOD8320421
_publ_section_title
;
Structure prediction by ZEFSAII (Michael W. Deem and Ramdas Pophale) SiO2 
 PCOD8320421
Probable space group: I 4/M C M
;
_chemical_formula_sum "Si O2"
_cell_formula_units_Z 160
_cell_length_a 20.926653
_cell_length_b 20.926653
_cell_length_c 19.043889
_cell_angle_alpha 90.000000
_cell_angle_beta 90.000000
_cell_angle_gamma 90.000000
_cell_volume 8339.791392
_symmetry_space_group_name_H-M "I 4/M C M"
_symmetry_group_IT_number 140
_symmetry_cell_setting 'tetragonal'
loop_
_space_group_symop_operation_xyz
x,y,z
-y,x,z
-x,-y,z
y,-x,z
x,-y,1/2-z
-x,y,1/2-z
y,x,1/2-z
-y,-x,1/2-z
-x,-y,-z
y,-x,-z
x,y,-z
-y,x,-z
-x,y,1/2+z
x,-y,1/2+z
-y,-x,1/2+z
y,x,1/2+z
1/2+x,1/2+y,1/2+z
1/2-y,1/2+x,1/2+z
1/2-x,1/2-y,1/2+z
1/2+y,1/2-x,1/2+z
1/2+x,1/2-y,-z
1/2-x,1/2+y,-z
1/2+y,1/2+x,-z
1/2-y,1/2-x,-z
1/2-x,1/2-y,1/2-z
1/2+y,1/2-x,1/2-z
1/2+x,1/2+y,1/2-z
1/2-y,1/2+x,1/2-z
1/2-x,1/2+y,z
1/2+x,1/2-y,z
1/2-y,1/2-x,z
1/2+y,1/2+x,z
loop_
_atom_site_type_symbol
_atom_site_label
_atom_site_fract_x
_atom_site_fract_y
_atom_site_fract_z
Si Si1 0.883037 0.804369 0.417784
Si Si2 0.679410 0.074873 0.664186
Si Si3 0.567574 0.420126 0.670752
Si Si4 0.750657 0.146806 0.076011
Si Si5 0.570048 0.826250 0.326058
O O1 0.901593 0.801557 0.500000
O O2 0.913173 0.743704 0.379261
O O3 0.902474 0.872051 0.384850
O O4 0.806986 0.803873 0.404760
O O5 0.623490 0.123490 0.639785
O O6 0.694540 0.081869 0.746134
O O7 0.656002 0.002277 0.652818
O O8 0.588381 0.492516 0.657516
O O9 0.592749 0.407252 0.750000
O O10 0.686054 0.186054 0.072500
O O11 0.737674 0.090581 0.131636
O O12 0.765485 0.115196 0.000000
O O13 0.610806 0.889195 0.344348
#
# Coordination Sequence:
#
# PCOD8320421 Si02
#       5
#    32  32  32  32  32
#     4  11  24  36  56  86 119 157 193 236 293 352
#     4  10  22  38  58  86 119 154 195 247 302 358
#     4   9  21  40  60  83 113 151 193 241 292 344
#     4   9  19  36  55  78 111 146 183 229 283 345
#     4   9  20  38  61  87 113 150 198 246 298 358
#
# _framework density 19.185131999999999
#
# number of rings (size 3 to 8) (size 9 to 14) (size 15 to 20)
#    0.000    2.400    0.000    1.200    5.600    4.800 
#    0.000    6.000    0.000    0.000    0.000    4.200 
#    0.000    0.000    0.000    0.000    0.000    0.000 
#
# Total GULP energy -991353.426003 kJ/mol
# GULP energy per Si atom -12391.917825 kJ/mol
# Density = 1.914147 g / cm^3
# Si number density = 19.185132 Si / 1000 Ang^3
#
#
#
# Elastic Constant Matrix: (Units=GPa)
#
#
# Indices 1 2 3 4 5 6 
#
# 1 96.3699 37.9649 62.1352 0.0000 0.0000 0.0000
# 2 37.9649 96.3704 62.1351 0.0000 0.0000 0.0000
# 3 62.1352 62.1351 97.2890 0.0000 0.0000 0.0000
# 4 0.0000 0.0000 0.0000 23.4264 0.0000 0.0000
# 5 0.0000 0.0000 0.0000 0.0000 23.4265 0.0000
# 6 0.0000 0.0000 0.0000 0.0000 0.0000 29.7062
#
#
#
# Elastic Compliance Matrix: (Units=1/GPa)
#
#
# Indices 1 2 3 4 5 6 
#
# 1 0.017657 0.000535 -0.011619 0.000000 0.000000 0.000000
# 2 0.000535 0.017657 -0.011619 0.000000 0.000000 0.000000
# 3 -0.011619 -0.011619 0.025120 0.000000 0.000000 0.000000
# 4 0.000000 0.000000 0.000000 0.042687 0.000000 0.000000
# 5 0.000000 0.000000 0.000000 0.000000 0.042687 0.000000
# 6 0.000000 0.000000 0.000000 0.000000 0.000000 0.033663
#
#
# Mechanical properties :
#
#
# Convention : Reuss Voigt Hill
#
# Bulk Modulus (GPa) = 66.53735 68.27774 67.40755
# Shear Modulus (GPa) = 21.75000 23.83144 22.79072
#
# Velocity S-wave (km/s) = 3.37068 3.52829 3.45038
# Velocity P-wave (km/s) = 7.06440 7.22942 7.14739
#
# Compressibility (1/GPa) = 0.01502915
#
# Stress axis : x y z
#
# Youngs Moduli (GPa) = 56.63411 56.63482 39.80917
#
# Poissons Ratio (x) = -0.03032 0.46254
# Poissons Ratio (y) = -0.03032 0.46254
# Poissons Ratio (z) = 0.65803 0.65803
#
# Static dielectric constant tensor:
#      x y z
#    x 3.490090 0.000000 0.000000 
#    y 0.000000 3.490090 0.000000 
#    z 0.000000 0.000000 3.732800 
# 
# 
# High freq. dielectric constant tensor:
#      x y z
#    x 1.745760 0.000000 0.000000 
#    y 0.000000 1.745760 0.000000 
#    z 0.000000 0.000000 1.747280 
# 
# From -- ./inp_files/6823.got.cif
#   From: 2010.06.25/outbox.cif.g09.slc.cpg/sg140_4_cif.got.tgz:6823.got - 2010.06.28 10:53:23.
