data_PCOD8320775
_publ_section_title
;
Structure prediction by ZEFSAII (Michael W. Deem and Ramdas Pophale) SiO2 
 PCOD8320775
Probable space group: I 41/A M D
;
_chemical_formula_sum "Si O2"
_cell_formula_units_Z 176
_cell_length_a 17.388407
_cell_length_b 17.388407
_cell_length_c 28.642352
_cell_angle_alpha 90.000000
_cell_angle_beta 90.000000
_cell_angle_gamma 90.000000
_cell_volume 8660.206974
_symmetry_space_group_name_H-M "I 41/A M D"
_symmetry_group_IT_number 141
_space_group.IT_coordinate_system_code '2'
_symmetry_cell_setting 'tetragonal'
loop_
_space_group_symop_operation_xyz
x,y,z
1/4-y,3/4+x,1/4+z
-x,1/2-y,z
1/4+y,1/4-x,3/4+z
x,-y,-z
-x,1/2+y,-z
1/4+y,3/4+x,1/4-z
1/4-y,1/4-x,3/4-z
-x,-y,-z
3/4+y,1/4-x,3/4-z
x,1/2+y,-z
3/4-y,3/4+x,1/4-z
-x,y,z
x,1/2-y,z
3/4-y,1/4-x,3/4+z
3/4+y,3/4+x,1/4+z
1/2+x,1/2+y,1/2+z
3/4-y,1/4+x,3/4+z
1/2-x,-y,1/2+z
3/4+y,3/4-x,1/4+z
1/2+x,1/2-y,1/2-z
1/2-x,y,1/2-z
3/4+y,1/4+x,3/4-z
3/4-y,3/4-x,1/4-z
1/2-x,1/2-y,1/2-z
1/4+y,3/4-x,1/4-z
1/2+x,y,1/2-z
1/4-y,1/4+x,3/4-z
1/2-x,1/2+y,1/2+z
1/2+x,-y,1/2+z
1/4-y,3/4-x,1/4+z
1/4+y,1/4+x,3/4+z
loop_
_atom_site_type_symbol
_atom_site_label
_atom_site_fract_x
_atom_site_fract_y
_atom_site_fract_z
Si Si1 0.584958 0.376220 0.710856
Si Si2 0.590250 0.546780 0.854438
Si Si3 0.349607 0.594873 0.656057
Si Si4 0.163164 0.750000 0.267645
Si Si5 0.204235 0.663880 0.498445
Si Si6 0.671865 0.578135 0.375000
Si Si7 0.910378 0.750000 0.363148
O O1 0.500000 0.347395 0.695571
O O2 0.618672 0.325223 0.751653
O O3 0.577670 0.460576 0.730311
O O4 0.644391 0.370782 0.668347
O O5 0.626158 0.623843 0.875000
O O6 0.500000 0.556052 0.854840
O O7 0.611981 0.475472 0.887522
O O8 0.620356 0.540672 0.800895
O O9 0.354935 0.589374 0.712973
O O10 0.347058 0.510990 0.632632
O O11 0.424016 0.643999 0.642741
O O12 0.250000 0.750000 0.250000
O O13 0.153846 0.750000 0.322922
O O14 0.166569 0.750000 0.498104
O O15 0.000000 0.750000 0.346632
#
# Coordination Sequence:
#
# PCOD8320775 Si02
#       7
#    32  32  32  16  32  16  16
#     4  10  21  36  57  85 123 172 217 265 323 379
#     4  11  24  44  68  96 129 170 218 275 336 402
#     4  11  21  42  65  97 130 172 220 267 337 401
#     4  12  24  38  54  86 130 176 230 278 331 387
#     4   9  20  41  66  90 129 171 210 265 335 402
#     4  10  22  36  59  90 125 172 220 264 316 406
#     4  12  24  38  66  96 132 166 220 293 337 397
#
# _framework density 20.322839999999999
#
# number of rings (size 3 to 8) (size 9 to 14) (size 15 to 20)
#    0.000    1.455    1.818    3.545    2.545    2.364 
#    0.000    2.727    0.000    0.000    0.000    0.000 
#    0.000    0.000    0.000    0.000    0.000    0.000 
#
# Total GULP energy -1090779.312817 kJ/mol
# GULP energy per Si atom -12395.219464 kJ/mol
# Density = 2.027658 g / cm^3
# Si number density = 20.322840 Si / 1000 Ang^3
#
#
#
# Elastic Constant Matrix: (Units=GPa)
#
#
# Indices 1 2 3 4 5 6 
#
# 1 80.3102 45.0490 40.7029 0.0000 0.0000 0.0000
# 2 45.0490 80.3073 40.7079 0.0000 0.0000 0.0000
# 3 40.7029 40.7079 127.1649 0.0000 0.0000 0.0000
# 4 0.0000 0.0000 0.0000 29.2795 0.0000 0.0000
# 5 0.0000 0.0000 0.0000 0.0000 29.2800 0.0000
# 6 0.0000 0.0000 0.0000 0.0000 0.0000 30.2154
#
#
#
# Elastic Compliance Matrix: (Units=1/GPa)
#
#
# Indices 1 2 3 4 5 6 
#
# 1 0.019215 -0.009145 -0.003223 0.000000 0.000000 0.000000
# 2 -0.009145 0.019217 -0.003224 0.000000 0.000000 0.000000
# 3 -0.003223 -0.003224 0.009928 0.000000 0.000000 0.000000
# 4 0.000000 0.000000 0.000000 0.034154 0.000000 0.000000
# 5 0.000000 0.000000 0.000000 0.000000 0.034153 0.000000
# 6 0.000000 0.000000 0.000000 0.000000 0.000000 0.033096
#
#
# Mechanical properties :
#
#
# Convention : Reuss Voigt Hill
#
# Bulk Modulus (GPa) = 58.22605 60.07800 59.15203
# Shear Modulus (GPa) = 26.78508 28.50981 27.64745
#
# Velocity S-wave (km/s) = 3.63434 3.74952 3.69238
# Velocity P-wave (km/s) = 6.80617 6.95494 6.88096
#
# Compressibility (1/GPa) = 0.01717444
#
# Stress axis : x y z
#
# Youngs Moduli (GPa) = 52.04286 52.03811 100.72964
#
# Poissons Ratio (x) = 0.47590 0.32463
# Poissons Ratio (y) = 0.47594 0.32480
# Poissons Ratio (z) = 0.16772 0.16779
#
# Static dielectric constant tensor:
#      x y z
#    x 3.744260 0.000000 0.000000 
#    y 0.000000 3.744270 0.000000 
#    z 0.000000 0.000000 4.166190 
# 
# 
# High freq. dielectric constant tensor:
#      x y z
#    x 1.790310 0.000000 0.000000 
#    y 0.000000 1.790310 0.000000 
#    z 0.000000 0.000000 1.799890 
# 
# From -- ./inp_files/12939.got.cif
#   From: 2010.03.12/outbox.cif.g09.slc.cpg/sg141_7_cif.got.tgz:12939.got - 2010.04.03 13:18:35.
