data_PCOD8320125
_publ_section_title
;
Structure prediction by ZEFSAII (Michael W. Deem and Ramdas Pophale) SiO2 
 PCOD8320125
Probable space group: I 4/M C M
;
_chemical_formula_sum "Si O2"
_cell_formula_units_Z 192
_cell_length_a 21.256228
_cell_length_b 21.256228
_cell_length_c 22.831505
_cell_angle_alpha 90.000000
_cell_angle_beta 90.000000
_cell_angle_gamma 90.000000
_cell_volume 10315.895633
_symmetry_space_group_name_H-M "I 4/M C M"
_symmetry_group_IT_number 140
_symmetry_cell_setting 'tetragonal'
loop_
_space_group_symop_operation_xyz
x,y,z
-y,x,z
-x,-y,z
y,-x,z
x,-y,1/2-z
-x,y,1/2-z
y,x,1/2-z
-y,-x,1/2-z
-x,-y,-z
y,-x,-z
x,y,-z
-y,x,-z
-x,y,1/2+z
x,-y,1/2+z
-y,-x,1/2+z
y,x,1/2+z
1/2+x,1/2+y,1/2+z
1/2-y,1/2+x,1/2+z
1/2-x,1/2-y,1/2+z
1/2+y,1/2-x,1/2+z
1/2+x,1/2-y,-z
1/2-x,1/2+y,-z
1/2+y,1/2+x,-z
1/2-y,1/2-x,-z
1/2-x,1/2-y,1/2-z
1/2+y,1/2-x,1/2-z
1/2+x,1/2+y,1/2-z
1/2-y,1/2+x,1/2-z
1/2-x,1/2+y,z
1/2+x,1/2-y,z
1/2-y,1/2-x,z
1/2+y,1/2+x,z
loop_
_atom_site_type_symbol
_atom_site_label
_atom_site_fract_x
_atom_site_fract_y
_atom_site_fract_z
Si Si1 0.188415 0.410090 0.621901
Si Si2 0.051031 0.180377 0.568215
Si Si3 0.927963 0.327465 0.746876
Si Si4 0.838792 0.909373 0.431173
Si Si5 0.280064 0.880149 0.131758
Si Si6 0.528732 0.870919 0.431781
O O1 0.155153 0.344848 0.601224
O O2 0.256105 0.419640 0.593804
O O3 0.200341 0.406083 0.691331
O O4 0.139238 0.465934 0.606096
O O5 0.047897 0.192398 0.500000
O O6 0.093328 0.119874 0.583650
O O7 0.981302 0.164751 0.591519
O O8 0.890912 0.390912 0.730001
O O9 0.914771 0.277217 0.695071
O O10 0.000000 0.346230 0.750000
O O11 0.824098 0.903642 0.500000
O O12 0.789270 0.869120 0.393474
O O13 0.312090 0.812090 0.138260
O O14 0.316100 0.922732 0.084371
O O15 0.511558 0.864903 0.500000
O O16 0.561069 0.938931 0.418472
#
# Coordination Sequence:
#
# PCOD8320125 Si02
#       6
#    32  32  32  32  32  32
#     4  11  22  35  53  78 112 147 184 227 271 320
#     4  10  21  37  57  82 109 140 177 219 274 329
#     4  10  19  32  51  74 103 144 188 231 272 310
#     4  10  20  36  59  83 110 140 174 221 273 329
#     4  10  19  33  54  79 106 140 184 224 260 314
#     4  10  19  31  50  75 106 145 183 219 263 314
#
# _framework density 18.612051999999998
#
# number of rings (size 3 to 8) (size 9 to 14) (size 15 to 20)
#    0.000    1.833    3.333    1.000    0.000    3.833 
#    0.000    6.667    0.000    3.000    0.000    0.000 
#    0.000    4.000    0.000    0.000    0.000    0.000 
#
# Total GULP energy -1190200.104367 kJ/mol
# GULP energy per Si atom -12397.917754 kJ/mol
# Density = 1.856969 g / cm^3
# Si number density = 18.612052 Si / 1000 Ang^3
#
#
#
# Elastic Constant Matrix: (Units=GPa)
#
#
# Indices 1 2 3 4 5 6 
#
# 1 86.1880 63.3460 31.9244 0.0000 0.0000 0.0000
# 2 63.3460 86.1880 31.9244 0.0000 0.0000 0.0000
# 3 31.9244 31.9244 70.4509 0.0000 0.0000 0.0000
# 4 0.0000 0.0000 0.0000 20.3139 0.0000 0.0000
# 5 0.0000 0.0000 0.0000 0.0000 20.3139 0.0000
# 6 0.0000 0.0000 0.0000 0.0000 0.0000 23.8436
#
#
#
# Elastic Compliance Matrix: (Units=1/GPa)
#
#
# Indices 1 2 3 4 5 6 
#
# 1 0.026035 -0.017744 -0.003757 0.000000 0.000000 0.000000
# 2 -0.017744 0.026035 -0.003757 0.000000 0.000000 0.000000
# 3 -0.003757 -0.003757 0.017600 0.000000 0.000000 0.000000
# 4 0.000000 0.000000 0.000000 0.049227 0.000000 0.000000
# 5 0.000000 0.000000 0.000000 0.000000 0.049227 0.000000
# 6 0.000000 0.000000 0.000000 0.000000 0.000000 0.041940
#
#
# Mechanical properties :
#
#
# Convention : Reuss Voigt Hill
#
# Bulk Modulus (GPa) = 52.20942 55.24627 53.72784
# Shear Modulus (GPa) = 18.72898 20.60310 19.66604
#
# Velocity S-wave (km/s) = 3.17564 3.33073 3.25411
# Velocity P-wave (km/s) = 6.44659 6.67377 6.56116
#
# Compressibility (1/GPa) = 0.01915363
#
# Stress axis : x y z
#
# Youngs Moduli (GPa) = 38.40934 38.40934 56.81965
#
# Poissons Ratio (x) = 0.68152 0.21349
# Poissons Ratio (y) = 0.68152 0.21349
# Poissons Ratio (z) = 0.14432 0.14432
#
# Static dielectric constant tensor:
#      x y z
#    x 3.387810 0.000000 0.000000 
#    y 0.000000 3.387810 0.000000 
#    z 0.000000 0.000000 3.531380 
# 
# 
# High freq. dielectric constant tensor:
#      x y z
#    x 1.709400 0.000000 0.000000 
#    y 0.000000 1.709400 0.000000 
#    z 0.000000 0.000000 1.722080 
# 
# From -- ./inp_files/9761.got.cif
#   From: 2010.06.25/outbox.cif.g09.slc.cpg/sg140_5_cif.got.tgz:9761.got - 2010.06.28 10:53:23.
