data_PCOD8320533
_publ_section_title
;
Structure prediction by ZEFSAII (Michael W. Deem and Ramdas Pophale) SiO2 
 PCOD8320533
Probable space group: I 4/M C M
;
_chemical_formula_sum "Si O2"
_cell_formula_units_Z 80
_cell_length_a 30.000000
_cell_length_b 30.000000
_cell_length_c 9.000000
_cell_angle_alpha 90.000000
_cell_angle_beta 90.000000
_cell_angle_gamma 90.000000
_cell_volume 8100.000000
_symmetry_space_group_name_H-M "I 4/M C M"
_symmetry_group_IT_number 140
_symmetry_cell_setting 'tetragonal'
loop_
_space_group_symop_operation_xyz
x,y,z
-y,x,z
-x,-y,z
y,-x,z
x,-y,1/2-z
-x,y,1/2-z
y,x,1/2-z
-y,-x,1/2-z
-x,-y,-z
y,-x,-z
x,y,-z
-y,x,-z
-x,y,1/2+z
x,-y,1/2+z
-y,-x,1/2+z
y,x,1/2+z
1/2+x,1/2+y,1/2+z
1/2-y,1/2+x,1/2+z
1/2-x,1/2-y,1/2+z
1/2+y,1/2-x,1/2+z
1/2+x,1/2-y,-z
1/2-x,1/2+y,-z
1/2+y,1/2+x,-z
1/2-y,1/2-x,-z
1/2-x,1/2-y,1/2-z
1/2+y,1/2-x,1/2-z
1/2+x,1/2+y,1/2-z
1/2-y,1/2+x,1/2-z
1/2-x,1/2+y,z
1/2+x,1/2-y,z
1/2-y,1/2-x,z
1/2+y,1/2+x,z
loop_
_atom_site_type_symbol
_atom_site_label
_atom_site_fract_x
_atom_site_fract_y
_atom_site_fract_z
Si Si1 0.312413 0.117704 0.172935
Si Si2 0.867919 0.966865 0.000000
Si Si3 0.916276 0.822291 0.251570
Si Si4 0.929084 0.113408 0.500000
Si Si5 0.667456 0.272672 0.335517
Si Si6 0.955600 0.731794 0.164133
O O1 0.360606 0.139395 0.202462
O O2 0.273752 0.150449 0.234235
O O3 0.308532 0.071450 0.259298
O O4 0.303876 0.108220 0.000000
O O5 0.836788 0.956374 0.859705
O O6 0.913305 0.937755 0.000000
O O7 0.883269 0.017700 0.000000
O O8 0.871137 0.810431 0.338598
O O9 0.929692 0.778505 0.159677
O O10 0.907160 0.863248 0.141854
O O11 0.710741 0.289260 0.250000
O O12 0.684136 0.263353 0.500000
O O13 0.000000 0.740522 0.250000
O O14 0.966563 0.715561 0.000000
#
# Coordination Sequence:
#
# PCOD8320533 Si02
#       6
#    32  16  32  16  32  32
#     4   9  20  38  55  77 114 155 186 219 268 319
#     4  12  24  39  56  72  97 127 165 219 278 348
#     4  11  23  37  55  78 103 130 167 222 281 336
#     4  12  24  39  54  74  95 127 167 215 280 344
#     4  10  20  33  53  77 104 137 178 223 266 319
#     4  11  22  36  59  87 113 141 182 229 272 321
#
# _framework density 9.8765429999999999
#
# number of rings (size 3 to 8) (size 9 to 14) (size 15 to 20)
#    0.000    1.400    2.000    4.200    4.200    1.800 
#    0.000    0.000    0.000    2.400    0.000    0.000 
#    0.000    0.400    0.000    4.200    0.000    1.800 
#
# Total GULP energy -991779.624297 kJ/mol
# GULP energy per Si atom -12397.245304 kJ/mol
# Density = 0.985406 g / cm^3
# Si number density = 9.876543 Si / 1000 Ang^3
#
#
#
# Elastic Constant Matrix: (Units=GPa)
#
#
# Indices 1 2 3 4 5 6 
#
# 1 31.3655 14.6431 13.4411 0.0000 0.0000 0.0000
# 2 14.6431 31.3673 13.4423 0.0000 0.0000 0.0000
# 3 13.4411 13.4423 74.3165 0.0000 0.0000 0.0000
# 4 0.0000 0.0000 0.0000 24.6798 0.0000 0.0000
# 5 0.0000 0.0000 0.0000 0.0000 24.6845 0.0000
# 6 0.0000 0.0000 0.0000 0.0000 0.0000 18.4515
#
#
#
# Elastic Compliance Matrix: (Units=1/GPa)
#
#
# Indices 1 2 3 4 5 6 
#
# 1 0.042051 -0.017747 -0.004395 0.000000 0.000000 0.000000
# 2 -0.017747 0.042049 -0.004396 0.000000 0.000000 0.000000
# 3 -0.004395 -0.004396 0.015046 0.000000 0.000000 0.000000
# 4 0.000000 0.000000 0.000000 0.040519 0.000000 0.000000
# 5 0.000000 0.000000 0.000000 0.000000 0.040511 0.000000
# 6 0.000000 0.000000 0.000000 0.000000 0.000000 0.054196
#
#
# Mechanical properties :
#
#
# Convention : Reuss Voigt Hill
#
# Bulk Modulus (GPa) = 21.70640 24.45580 23.08110
# Shear Modulus (GPa) = 16.51226 19.93134 18.22180
#
# Velocity S-wave (km/s) = 2.89439 3.17996 3.04053
# Velocity P-wave (km/s) = 4.70985 5.08827 4.90271
#
# Compressibility (1/GPa) = 0.04606936
#
# Stress axis : x y z
#
# Youngs Moduli (GPa) = 23.78071 23.78183 66.46248
#
# Poissons Ratio (x) = 0.42205 0.29213
# Poissons Ratio (y) = 0.42203 0.29217
# Poissons Ratio (z) = 0.10453 0.10455
#
# Static dielectric constant tensor:
#      x y z
#    x 3.669440 0.000000 0.000000 
#    y 0.000000 3.669510 0.000000 
#    z 0.000000 0.000000 4.964840 
# 
# 
# High freq. dielectric constant tensor:
#      x y z
#    x 1.739580 0.000000 0.000000 
#    y 0.000000 1.739580 0.000000 
#    z 0.000000 0.000000 1.763540 
# 
# From -- ./inp_files/1804.got.cif
#   From: 2010.06.25/outbox.ucp.g09.slc.cvg/sg140_1_cif.got.tgz:1804.got - 2010.06.28 16:51:58.
