data_PCOD8320103
_publ_section_title
;
Structure prediction by ZEFSAII (Michael W. Deem and Ramdas Pophale) SiO2 
 PCOD8320103
Probable space group: I 4/M C M
;
_chemical_formula_sum "Si O2"
_cell_formula_units_Z 96
_cell_length_a 33.895829
_cell_length_b 33.895829
_cell_length_c 7.617067
_cell_angle_alpha 90.000000
_cell_angle_beta 90.000000
_cell_angle_gamma 90.000000
_cell_volume 8751.455640
_symmetry_space_group_name_H-M "I 4/M C M"
_symmetry_group_IT_number 140
_symmetry_cell_setting 'tetragonal'
loop_
_space_group_symop_operation_xyz
x,y,z
-y,x,z
-x,-y,z
y,-x,z
x,-y,1/2-z
-x,y,1/2-z
y,x,1/2-z
-y,-x,1/2-z
-x,-y,-z
y,-x,-z
x,y,-z
-y,x,-z
-x,y,1/2+z
x,-y,1/2+z
-y,-x,1/2+z
y,x,1/2+z
1/2+x,1/2+y,1/2+z
1/2-y,1/2+x,1/2+z
1/2-x,1/2-y,1/2+z
1/2+y,1/2-x,1/2+z
1/2+x,1/2-y,-z
1/2-x,1/2+y,-z
1/2+y,1/2+x,-z
1/2-y,1/2-x,-z
1/2-x,1/2-y,1/2-z
1/2+y,1/2-x,1/2-z
1/2+x,1/2+y,1/2-z
1/2-y,1/2+x,1/2-z
1/2-x,1/2+y,z
1/2+x,1/2-y,z
1/2-y,1/2-x,z
1/2+y,1/2+x,z
loop_
_atom_site_type_symbol
_atom_site_label
_atom_site_fract_x
_atom_site_fract_y
_atom_site_fract_z
Si Si1 0.353243 0.213392 0.000000
Si Si2 0.391047 0.955853 0.200598
Si Si3 0.747076 0.313452 0.304519
Si Si4 0.915185 0.650806 0.500000
O O1 0.348341 0.240702 0.827867
O O2 0.397119 0.194834 0.000000
O O3 0.320603 0.179398 0.000000
O O4 0.429861 0.929861 0.234230
O O5 0.355363 0.941411 0.325256
O O6 0.403194 0.000000 0.250000
O O7 0.376465 0.952506 0.000000
O O8 0.704950 0.295051 0.250000
O O9 0.744262 0.331408 0.500000
O O10 0.779270 0.279270 0.296483
O O11 0.879605 0.620396 0.500000
#
# Coordination Sequence:
#
# PCOD8320103 Si02
#       4
#    16  32  32  16
#     4   9  16  24  34  47  65  85 100 124 149 168
#     4  10  19  30  44  57  68  82  99 123 157 198
#     4   9  14  20  31  46  63  83 106 125 142 164
#     4   9  18  30  39  52  70  82 100 124 151 186
#
# _framework density 10.969602999999999
#
# number of rings (size 3 to 8) (size 9 to 14) (size 15 to 20)
#    0.000    2.667    3.333    0.000    0.000    1.667 
#    0.000    8.333    0.000    0.000    0.000    0.000 
#    0.000    0.000    0.000    0.000    0.000    0.000 
#
# Total GULP energy -594999.329917 kJ/mol
# GULP energy per Si atom -12395.819373 kJ/mol
# Density = 1.094464 g / cm^3
# Si number density = 10.969603 Si / 1000 Ang^3
#
#
#
# Elastic Constant Matrix: (Units=GPa)
#
#
# Indices 1 2 3 4 5 6 
#
# 1 36.3289 35.4371 36.1619 0.0000 0.0000 0.0000
# 2 35.4371 36.3279 36.1609 0.0000 0.0000 0.0000
# 3 36.1619 36.1609 118.4828 0.0000 0.0000 0.0000
# 4 0.0000 0.0000 0.0000 12.1875 0.0000 0.0000
# 5 0.0000 0.0000 0.0000 0.0000 12.1877 0.0000
# 6 0.0000 0.0000 0.0000 0.0000 0.0000 13.6247
#
#
#
# Elastic Compliance Matrix: (Units=1/GPa)
#
#
# Indices 1 2 3 4 5 6 
#
# 1 0.571012 -0.550893 -0.006145 0.000000 0.000000 0.000000
# 2 -0.550893 0.571022 -0.006139 0.000000 0.000000 0.000000
# 3 -0.006145 -0.006139 0.012189 0.000000 0.000000 0.000000
# 4 0.000000 0.000000 0.000000 0.082051 0.000000 0.000000
# 5 0.000000 0.000000 0.000000 0.000000 0.082050 0.000000
# 6 0.000000 0.000000 0.000000 0.000000 0.000000 0.073396
#
#
# Mechanical properties :
#
#
# Convention : Reuss Voigt Hill
#
# Bulk Modulus (GPa) = 35.88180 45.18438 40.53309
# Shear Modulus (GPa) = 1.97835 13.15865 7.56850
#
# Velocity S-wave (km/s) = 1.34439 3.46722 2.62954
# Velocity P-wave (km/s) = 5.93221 7.57025 6.80073
#
# Compressibility (1/GPa) = 0.02786928
#
# Stress axis : x y z
#
# Youngs Moduli (GPa) = 1.75128 1.75125 82.04061
#
# Poissons Ratio (x) = 0.96475 0.50411
# Poissons Ratio (y) = 0.96477 0.50365
# Poissons Ratio (z) = 0.01076 0.01075
#
# Static dielectric constant tensor:
#      x y z
#    x 2.159900 0.000000 0.000000 
#    y 0.000000 2.159900 0.000000 
#    z 0.000000 0.000000 2.657210 
# 
# 
# High freq. dielectric constant tensor:
#      x y z
#    x 1.371160 0.000000 0.000000 
#    y 0.000000 1.371160 0.000000 
#    z 0.000000 0.000000 1.438770 
# 
# From -- ./inp_files/1301.got.cif
#   From: 2010.06.25/outbox.cif.g09.slc.cpg/sg140_1_cif.got.tgz:1301.got - 2010.06.28 10:53:23.
