data_PCOD8320668
_publ_section_title
;
Structure prediction by ZEFSAII (Michael W. Deem and Ramdas Pophale) SiO2 
 PCOD8320668
Probable space group: I 41/A M D
;
_chemical_formula_sum "Si O2"
_cell_formula_units_Z 144
_cell_length_a 27.225749
_cell_length_b 27.225749
_cell_length_c 10.836963
_cell_angle_alpha 90.000000
_cell_angle_beta 90.000000
_cell_angle_gamma 90.000000
_cell_volume 8032.805719
_symmetry_space_group_name_H-M "I 41/A M D"
_symmetry_group_IT_number 141
_space_group.IT_coordinate_system_code '2'
_symmetry_cell_setting 'tetragonal'
loop_
_space_group_symop_operation_xyz
x,y,z
1/4-y,3/4+x,1/4+z
-x,1/2-y,z
1/4+y,1/4-x,3/4+z
x,-y,-z
-x,1/2+y,-z
1/4+y,3/4+x,1/4-z
1/4-y,1/4-x,3/4-z
-x,-y,-z
3/4+y,1/4-x,3/4-z
x,1/2+y,-z
3/4-y,3/4+x,1/4-z
-x,y,z
x,1/2-y,z
3/4-y,1/4-x,3/4+z
3/4+y,3/4+x,1/4+z
1/2+x,1/2+y,1/2+z
3/4-y,1/4+x,3/4+z
1/2-x,-y,1/2+z
3/4+y,3/4-x,1/4+z
1/2+x,1/2-y,1/2-z
1/2-x,y,1/2-z
3/4+y,1/4+x,3/4-z
3/4-y,3/4-x,1/4-z
1/2-x,1/2-y,1/2-z
1/4+y,3/4-x,1/4-z
1/2+x,y,1/2-z
1/4-y,1/4+x,3/4-z
1/2-x,1/2+y,1/2+z
1/2+x,-y,1/2+z
1/4-y,3/4-x,1/4+z
1/4+y,1/4+x,3/4+z
loop_
_atom_site_type_symbol
_atom_site_label
_atom_site_fract_x
_atom_site_fract_y
_atom_site_fract_z
Si Si1 0.806863 0.692857 0.509015
Si Si2 0.397598 0.647598 0.875000
Si Si3 0.644594 0.306362 0.748295
Si Si4 0.556122 0.051306 0.738680
Si Si5 0.944422 0.853340 0.370452
O O1 0.812534 0.750000 0.550772
O O2 0.840691 0.658186 0.594597
O O3 0.821494 0.686411 0.367102
O O4 0.751664 0.671252 0.523489
O O5 0.413760 0.680159 0.757836
O O6 0.634332 0.250000 0.717473
O O7 0.673068 0.330808 0.631848
O O8 0.591096 0.329915 0.768394
O O9 0.500000 0.039682 0.703450
O O10 0.560479 0.087471 0.856374
O O11 0.000000 0.836258 0.342702
#
# Coordination Sequence:
#
# PCOD8320668 Si02
#       5
#    32  16  32  32  32
#     4   9  17  30  49  70  96 128 158 199 251 296
#     4  10  20  32  44  65  98 126 168 202 240 296
#     4   9  17  30  48  72 102 129 162 202 242 299
#     4   9  17  30  49  71  94 122 159 206 255 293
#     4  10  20  32  47  69 100 134 168 205 244 293
#
# _framework density 17.926487999999999
#
# number of rings (size 3 to 8) (size 9 to 14) (size 15 to 20)
#    0.000    2.667    0.000    2.000    0.000    4.889 
#    0.000    3.333    0.000    8.333    0.000    0.000 
#   86.667    0.000    0.000    0.000    0.000    0.000 
#
# Total GULP energy -892420.513183 kJ/mol
# GULP energy per Si atom -12394.729350 kJ/mol
# Density = 1.788569 g / cm^3
# Si number density = 17.926488 Si / 1000 Ang^3
#
#
#
# Elastic Constant Matrix: (Units=GPa)
#
#
# Indices 1 2 3 4 5 6 
#
# 1 96.0294 46.0709 27.1728 0.0000 0.0000 0.0000
# 2 46.0709 96.0294 27.1728 0.0000 0.0000 0.0000
# 3 27.1728 27.1728 68.7108 0.0000 0.0000 0.0000
# 4 0.0000 0.0000 0.0000 22.5902 0.0000 0.0000
# 5 0.0000 0.0000 0.0000 0.0000 22.5902 0.0000
# 6 0.0000 0.0000 0.0000 0.0000 0.0000 11.1948
#
#
#
# Elastic Compliance Matrix: (Units=1/GPa)
#
#
# Indices 1 2 3 4 5 6 
#
# 1 0.014154 -0.005863 -0.003279 0.000000 0.000000 0.000000
# 2 -0.005863 0.014154 -0.003279 0.000000 0.000000 0.000000
# 3 -0.003279 -0.003279 0.017147 0.000000 0.000000 0.000000
# 4 0.000000 0.000000 0.000000 0.044267 0.000000 0.000000
# 5 0.000000 0.000000 0.000000 0.000000 0.044267 0.000000
# 6 0.000000 0.000000 0.000000 0.000000 0.000000 0.089327
#
#
# Mechanical properties :
#
#
# Convention : Reuss Voigt Hill
#
# Bulk Modulus (GPa) = 48.51063 51.28918 49.89991
# Shear Modulus (GPa) = 19.60564 21.96524 20.78544
#
# Velocity S-wave (km/s) = 3.31065 3.50422 3.40881
# Velocity P-wave (km/s) = 6.46015 6.71161 6.58708
#
# Compressibility (1/GPa) = 0.02061404
#
# Stress axis : x y z
#
# Youngs Moduli (GPa) = 70.65160 70.65160 58.31873
#
# Poissons Ratio (x) = 0.41421 0.19122
# Poissons Ratio (y) = 0.41421 0.19122
# Poissons Ratio (z) = 0.23166 0.23166
#
# Static dielectric constant tensor:
#      x y z
#    x 3.257030 0.000000 0.000000 
#    y 0.000000 3.257030 0.000000 
#    z 0.000000 0.000000 3.333390 
# 
# 
# High freq. dielectric constant tensor:
#      x y z
#    x 1.669710 0.000000 0.000000 
#    y 0.000000 1.669710 0.000000 
#    z 0.000000 0.000000 1.702880 
# 
# From -- ./inp_files/4800.got.cif
#   From: 2010.03.12/outbox.cif.g09.slc.cpg/sg141_3_cif.got.tgz:4800.got - 2010.04.03 13:18:35.
