data_PCOD8320252
_publ_section_title
;
Structure prediction by ZEFSAII (Michael W. Deem and Ramdas Pophale) SiO2 
 PCOD8320252
Probable space group: I 4/M C M
;
_chemical_formula_sum "Si O2"
_cell_formula_units_Z 160
_cell_length_a 20.961404
_cell_length_b 20.961404
_cell_length_c 19.303505
_cell_angle_alpha 90.000000
_cell_angle_beta 90.000000
_cell_angle_gamma 90.000000
_cell_volume 8481.582861
_symmetry_space_group_name_H-M "I 4/M C M"
_symmetry_group_IT_number 140
_symmetry_cell_setting 'tetragonal'
loop_
_space_group_symop_operation_xyz
x,y,z
-y,x,z
-x,-y,z
y,-x,z
x,-y,1/2-z
-x,y,1/2-z
y,x,1/2-z
-y,-x,1/2-z
-x,-y,-z
y,-x,-z
x,y,-z
-y,x,-z
-x,y,1/2+z
x,-y,1/2+z
-y,-x,1/2+z
y,x,1/2+z
1/2+x,1/2+y,1/2+z
1/2-y,1/2+x,1/2+z
1/2-x,1/2-y,1/2+z
1/2+y,1/2-x,1/2+z
1/2+x,1/2-y,-z
1/2-x,1/2+y,-z
1/2+y,1/2+x,-z
1/2-y,1/2-x,-z
1/2-x,1/2-y,1/2-z
1/2+y,1/2-x,1/2-z
1/2+x,1/2+y,1/2-z
1/2-y,1/2+x,1/2-z
1/2-x,1/2+y,z
1/2+x,1/2-y,z
1/2-y,1/2-x,z
1/2+y,1/2+x,z
loop_
_atom_site_type_symbol
_atom_site_label
_atom_site_fract_x
_atom_site_fract_y
_atom_site_fract_z
Si Si1 0.976088 0.378725 0.419138
Si Si2 0.373199 0.772495 0.077430
Si Si3 0.169501 0.077344 0.672875
Si Si4 0.802270 0.596216 0.419120
Si Si5 0.067037 0.178763 0.668277
O O1 0.984840 0.390418 0.500000
O O2 0.945665 0.445665 0.388259
O O3 0.926241 0.323648 0.402856
O O4 0.043778 0.353598 0.389446
O O5 0.303328 0.803328 0.082843
O O6 0.376634 0.715881 0.131086
O O7 0.384914 0.746255 0.000000
O O8 0.101222 0.110254 0.660280
O O9 0.195844 0.074559 0.751021
O O10 0.167520 0.005562 0.643814
O O11 0.787050 0.582154 0.500000
O O12 0.834529 0.665472 0.410043
O O13 0.736299 0.596227 0.376858
#
# Coordination Sequence:
#
# PCOD8320252 Si02
#       5
#    32  32  32  32  32
#     4   8  14  27  49  77 107 139 175 212 253 302
#     4   9  17  31  55  83 107 137 175 212 255 311
#     4  10  21  38  58  78 105 136 176 225 270 322
#     4  10  20  34  54  82 115 145 177 221 267 312
#     4  10  22  38  56  79 104 138 178 221 275 323
#
# _framework density 18.864401999999998
#
# number of rings (size 3 to 8) (size 9 to 14) (size 15 to 20)
#    0.000    2.600    2.000    1.200    0.000    3.200 
#    0.000    8.000    0.000    0.000    0.000    2.800 
#    0.000    0.000    0.000    0.000    0.000    0.000 
#
# Total GULP energy -991160.528095 kJ/mol
# GULP energy per Si atom -12389.506601 kJ/mol
# Density = 1.882147 g / cm^3
# Si number density = 18.864402 Si / 1000 Ang^3
#
#
#
# Elastic Constant Matrix: (Units=GPa)
#
#
# Indices 1 2 3 4 5 6 
#
# 1 79.9318 59.3757 40.5248 0.0000 0.0000 0.0000
# 2 59.3757 79.9318 40.5248 0.0000 0.0000 0.0000
# 3 40.5248 40.5248 49.7303 0.0000 0.0000 0.0000
# 4 0.0000 0.0000 0.0000 26.8991 0.0000 0.0000
# 5 0.0000 0.0000 0.0000 0.0000 26.8991 0.0000
# 6 0.0000 0.0000 0.0000 0.0000 0.0000 19.8539
#
#
#
# Elastic Compliance Matrix: (Units=1/GPa)
#
#
# Indices 1 2 3 4 5 6 
#
# 1 0.031149 -0.017499 -0.011123 0.000000 0.000000 0.000000
# 2 -0.017499 0.031149 -0.011123 0.000000 0.000000 0.000000
# 3 -0.011123 -0.011123 0.038237 0.000000 0.000000 0.000000
# 4 0.000000 0.000000 0.000000 0.037176 0.000000 0.000000
# 5 0.000000 0.000000 0.000000 0.000000 0.037176 0.000000
# 6 0.000000 0.000000 0.000000 0.000000 0.000000 0.050368
#
#
# Mechanical properties :
#
#
# Convention : Reuss Voigt Hill
#
# Bulk Modulus (GPa) = 47.51974 54.49383 51.00678
# Shear Modulus (GPa) = 16.03806 19.34165 17.68985
#
# Velocity S-wave (km/s) = 2.91894 3.20550 3.06557
# Velocity P-wave (km/s) = 6.05022 6.53071 6.29505
#
# Compressibility (1/GPa) = 0.02104389
#
# Stress axis : x y z
#
# Youngs Moduli (GPa) = 32.10421 32.10421 26.15288
#
# Poissons Ratio (x) = 0.56178 0.29090
# Poissons Ratio (y) = 0.56178 0.29090
# Poissons Ratio (z) = 0.35710 0.35710
#
# Static dielectric constant tensor:
#      x y z
#    x 4.073580 0.000000 0.000000 
#    y 0.000000 4.073580 0.000000 
#    z 0.000000 0.000000 3.180080 
# 
# 
# High freq. dielectric constant tensor:
#      x y z
#    x 1.733910 0.000000 0.000000 
#    y 0.000000 1.733910 0.000000 
#    z 0.000000 0.000000 1.696830 
# 
# From -- ./inp_files/6864.got.cif
#   From: 2010.06.25/outbox.cif.g09.slc.cpg/sg140_4_cif.got.tgz:6864.got - 2010.06.28 10:53:23.
