data_PCOD8320317
_publ_section_title
;
Structure prediction by ZEFSAII (Michael W. Deem and Ramdas Pophale) SiO2 
 PCOD8320317
Probable space group: I 4/M C M
;
_chemical_formula_sum "Si O2"
_cell_formula_units_Z 192
_cell_length_a 21.654640
_cell_length_b 21.654640
_cell_length_c 22.260871
_cell_angle_alpha 90.000000
_cell_angle_beta 90.000000
_cell_angle_gamma 90.000000
_cell_volume 10438.644063
_symmetry_space_group_name_H-M "I 4/M C M"
_symmetry_group_IT_number 140
_symmetry_cell_setting 'tetragonal'
loop_
_space_group_symop_operation_xyz
x,y,z
-y,x,z
-x,-y,z
y,-x,z
x,-y,1/2-z
-x,y,1/2-z
y,x,1/2-z
-y,-x,1/2-z
-x,-y,-z
y,-x,-z
x,y,-z
-y,x,-z
-x,y,1/2+z
x,-y,1/2+z
-y,-x,1/2+z
y,x,1/2+z
1/2+x,1/2+y,1/2+z
1/2-y,1/2+x,1/2+z
1/2-x,1/2-y,1/2+z
1/2+y,1/2-x,1/2+z
1/2+x,1/2-y,-z
1/2-x,1/2+y,-z
1/2+y,1/2+x,-z
1/2-y,1/2-x,-z
1/2-x,1/2-y,1/2-z
1/2+y,1/2-x,1/2-z
1/2+x,1/2+y,1/2-z
1/2-y,1/2+x,1/2-z
1/2-x,1/2+y,z
1/2+x,1/2-y,z
1/2-y,1/2-x,z
1/2+y,1/2+x,z
loop_
_atom_site_type_symbol
_atom_site_label
_atom_site_fract_x
_atom_site_fract_y
_atom_site_fract_z
Si Si1 0.290409 0.890512 0.864874
Si Si2 0.760582 0.994915 0.566994
Si Si3 0.613735 0.787306 0.112732
Si Si4 0.193587 0.793596 0.433286
Si Si5 0.671718 0.072196 0.739381
Si Si6 0.901235 0.001808 0.928685
O O1 0.350427 0.850427 0.883940
O O2 0.290398 0.957870 0.894294
O O3 0.226520 0.863952 0.892315
O O4 0.288091 0.897560 0.793025
O O5 0.764136 0.967473 0.500000
O O6 0.830300 0.997265 0.595615
O O7 0.728607 0.061794 0.564253
O O8 0.649254 0.850747 0.095508
O O9 0.659498 0.729726 0.109009
O O10 0.585217 0.789812 0.179303
O O11 0.174293 0.820130 0.500000
O O12 0.233808 0.733808 0.446014
O O13 0.604549 0.104549 0.736364
O O14 0.660543 0.000000 0.750000
O O15 0.939606 0.062515 0.906676
O O16 0.899083 0.000030 0.000000
#
# Coordination Sequence:
#
# PCOD8320317 Si02
#       6
#    32  32  32  32  32  32
#     4  10  21  36  55  79 109 144 186 233 280 336
#     4  11  21  31  52  80 109 147 184 225 280 338
#     4  10  21  36  55  79 109 144 186 233 280 336
#     4   9  18  33  53  79 112 145 175 216 276 343
#     4  10  20  38  59  79 105 139 187 241 288 335
#     4   8  16  31  49  73 107 143 180 219 256 309
#
# _framework density 18.393193
#
# number of rings (size 3 to 8) (size 9 to 14) (size 15 to 20)
#    0.000    2.333    1.667    1.500    2.333    2.833 
#    0.000    3.333    0.000    0.500    0.000    1.167 
#    0.000    2.667    0.000    0.000    0.000    0.000 
#
# Total GULP energy -1189350.665318 kJ/mol
# GULP energy per Si atom -12389.069430 kJ/mol
# Density = 1.835133 g / cm^3
# Si number density = 18.393193 Si / 1000 Ang^3
#
#
#
# Elastic Constant Matrix: (Units=GPa)
#
#
# Indices 1 2 3 4 5 6 
#
# 1 84.7467 37.3718 31.2724 0.0000 0.0000 0.0000
# 2 37.3718 84.7467 31.2724 0.0000 0.0000 0.0000
# 3 31.2724 31.2724 79.5298 0.0000 0.0000 0.0000
# 4 0.0000 0.0000 0.0000 24.8623 0.0000 0.0000
# 5 0.0000 0.0000 0.0000 0.0000 24.8623 0.0000
# 6 0.0000 0.0000 0.0000 0.0000 0.0000 25.1209
#
#
#
# Elastic Compliance Matrix: (Units=1/GPa)
#
#
# Indices 1 2 3 4 5 6 
#
# 1 0.015681 -0.005427 -0.004032 0.000000 0.000000 0.000000
# 2 -0.005427 0.015681 -0.004032 0.000000 0.000000 0.000000
# 3 -0.004032 -0.004032 0.015745 0.000000 0.000000 0.000000
# 4 0.000000 0.000000 0.000000 0.040222 0.000000 0.000000
# 5 0.000000 0.000000 0.000000 0.000000 0.040222 0.000000
# 6 0.000000 0.000000 0.000000 0.000000 0.000000 0.039807
#
#
# Mechanical properties :
#
#
# Convention : Reuss Voigt Hill
#
# Bulk Modulus (GPa) = 49.69061 49.87293 49.78177
# Shear Modulus (GPa) = 24.86970 24.90953 24.88962
#
# Velocity S-wave (km/s) = 3.68110 3.68405 3.68257
# Velocity P-wave (km/s) = 6.71876 6.72830 6.72353
#
# Compressibility (1/GPa) = 0.02012453
#
# Stress axis : x y z
#
# Youngs Moduli (GPa) = 63.77137 63.77137 63.51322
#
# Poissons Ratio (x) = 0.34610 0.25608
# Poissons Ratio (y) = 0.34610 0.25608
# Poissons Ratio (z) = 0.25712 0.25712
#
# Static dielectric constant tensor:
#      x y z
#    x 3.474580 0.000000 0.000000 
#    y 0.000000 3.474580 0.000000 
#    z 0.000000 0.000000 3.263100 
# 
# 
# High freq. dielectric constant tensor:
#      x y z
#    x 1.712580 0.000000 0.000000 
#    y 0.000000 1.712580 0.000000 
#    z 0.000000 0.000000 1.689180 
# 
# From -- ./inp_files/9751.got.cif
#   From: 2010.06.25/outbox.cif.g09.slc.cpg/sg140_5_cif.got.tgz:9751.got - 2010.06.28 10:53:23.
