data_PCOD8321229
_publ_section_title
;
Structure prediction by ZEFSAII (Michael W. Deem and Ramdas Pophale) SiO2 
 PCOD8321229
Probable space group: I 41/A C D
;
_chemical_formula_sum "Si O2"
_cell_formula_units_Z 192
_cell_length_a 18.192751
_cell_length_b 18.192751
_cell_length_c 28.826996
_cell_angle_alpha 90.000000
_cell_angle_beta 90.000000
_cell_angle_gamma 90.000000
_cell_volume 9541.049275
_symmetry_space_group_name_H-M "I 41/A C D"
_symmetry_group_IT_number 142
_space_group.IT_coordinate_system_code '2'
_symmetry_cell_setting 'tetragonal'
loop_
_space_group_symop_operation_xyz
x,y,z
1/4-y,3/4+x,1/4+z
-x,1/2-y,z
1/4+y,1/4-x,3/4+z
x,-y,1/2-z
1/2-x,y,-z
3/4+y,1/4+x,1/4-z
1/4-y,1/4-x,1/4-z
-x,-y,-z
3/4+y,1/4-x,3/4-z
x,1/2+y,-z
3/4-y,3/4+x,1/4-z
-x,y,1/2+z
1/2+x,-y,z
1/4-y,3/4-x,3/4+z
3/4+y,3/4+x,3/4+z
1/2+x,1/2+y,1/2+z
3/4-y,1/4+x,3/4+z
1/2-x,-y,1/2+z
3/4+y,3/4-x,1/4+z
1/2+x,1/2-y,-z
-x,1/2+y,1/2-z
1/4+y,3/4+x,3/4-z
3/4-y,3/4-x,3/4-z
1/2-x,1/2-y,1/2-z
1/4+y,3/4-x,1/4-z
1/2+x,y,1/2-z
1/4-y,1/4+x,3/4-z
1/2-x,1/2+y,z
x,1/2-y,1/2+z
3/4-y,1/4-x,1/4+z
1/4+y,1/4+x,1/4+z
loop_
_atom_site_type_symbol
_atom_site_label
_atom_site_fract_x
_atom_site_fract_y
_atom_site_fract_z
Si Si1 0.116562 0.893303 0.280981
Si Si2 0.004296 0.603044 0.431508
Si Si3 0.991987 0.461296 0.662474
Si Si4 0.149370 0.621666 0.478713
Si Si5 0.499933 0.116742 0.198826
Si Si6 0.500000 0.750000 0.875000
Si Si7 0.500000 0.750000 0.625000
Si Si8 0.750000 0.512437 0.500000
O O1 0.163041 0.820997 0.292112
O O2 0.068732 0.877770 0.234331
O O3 0.058951 0.909082 0.322007
O O4 0.179025 0.956301 0.281854
O O5 0.020194 0.543032 0.392316
O O6 0.066406 0.599523 0.469885
O O7 0.002697 0.682539 0.409176
O O8 0.917683 0.437451 0.687985
O O9 0.016022 0.543656 0.670952
O O10 0.146476 0.671424 0.525325
O O11 0.191599 0.543792 0.478013
O O12 0.497202 0.181323 0.160619
#
# Coordination Sequence:
#
# PCOD8321229 Si02
#       8
#    32  32  32  32  32   8   8  16
#     4  11  22  42  67  94 127 175 220 260 337 399
#     4  12  22  36  68 103 128 158 229 282 310 389
#     4  11  20  42  65  94 132 171 200 275 340 391
#     4  11  22  42  67  94 127 175 220 260 337 399
#     4  11  23  45  66  88 131 177 205 270 337 415
#     4  12  28  42  68 100 122 160 232 272 346 380
#     4  12  16  34  64  92 128 154 204 276 334 352
#     4  12  24  40  66  88 128 184 218 260 316 422
#
# _framework density 20.123574000000001
#
# number of rings (size 3 to 8) (size 9 to 14) (size 15 to 20)
#    0.000    0.667    6.667    3.000    0.000    3.333 
#    0.000    1.667    0.000    0.000    0.000    0.000 
#    0.000    0.000    0.000    0.000    0.000    0.000 
#
# Total GULP energy -1189333.942448 kJ/mol
# GULP energy per Si atom -12388.895234 kJ/mol
# Density = 2.007777 g / cm^3
# Si number density = 20.123574 Si / 1000 Ang^3
#
#
#
# Elastic Constant Matrix: (Units=GPa)
#
#
# Indices 1 2 3 4 5 6 
#
# 1 105.0225 5.2442 31.0130 0.0000 0.0000 0.0000
# 2 5.2442 105.0225 31.0130 0.0000 0.0000 0.0000
# 3 31.0130 31.0130 70.0947 0.0000 0.0000 0.0000
# 4 0.0000 0.0000 0.0000 17.8188 0.0000 0.0000
# 5 0.0000 0.0000 0.0000 0.0000 17.8188 0.0000
# 6 0.0000 0.0000 0.0000 0.0000 0.0000 33.6448
#
#
#
# Elastic Compliance Matrix: (Units=1/GPa)
#
#
# Indices 1 2 3 4 5 6 
#
# 1 0.011048 0.001026 -0.005342 0.000000 0.000000 0.000000
# 2 0.001026 0.011048 -0.005342 0.000000 0.000000 0.000000
# 3 -0.005342 -0.005342 0.018994 0.000000 0.000000 0.000000
# 4 0.000000 0.000000 0.000000 0.056121 0.000000 0.000000
# 5 0.000000 0.000000 0.000000 0.000000 0.056121 0.000000
# 6 0.000000 0.000000 0.000000 0.000000 0.000000 0.029722
#
#
# Mechanical properties :
#
#
# Convention : Reuss Voigt Hill
#
# Bulk Modulus (GPa) = 45.92809 46.07556 46.00182
# Shear Modulus (GPa) = 23.85189 28.04778 25.94983
#
# Velocity S-wave (km/s) = 3.44651 3.73738 3.59489
# Velocity P-wave (km/s) = 6.22178 6.44748 6.33564
#
# Compressibility (1/GPa) = 0.02177317
#
# Stress axis : x y z
#
# Youngs Moduli (GPa) = 90.51386 90.51386 52.64958
#
# Poissons Ratio (x) = -0.09285 0.28125
# Poissons Ratio (y) = -0.09285 0.28125
# Poissons Ratio (z) = 0.48353 0.48353
#
# Static dielectric constant tensor:
#      x y z
#    x 3.796980 0.000000 0.000000 
#    y 0.000000 3.796980 0.000000 
#    z 0.000000 0.000000 3.628040 
# 
# 
# High freq. dielectric constant tensor:
#      x y z
#    x 1.796360 0.000000 0.000000 
#    y 0.000000 1.796360 0.000000 
#    z 0.000000 0.000000 1.768730 
# 
# From -- ./inp_files/12634.got.cif
#   From: 2010.03.12/outbox.cif.g09.slc.cpg/sg142_7_cif.got.tgz:12634.got - 2010.04.03 13:27:16.
