data_PCOD8321534
_publ_section_title
;
Structure prediction by ZEFSAII (Michael W. Deem and Ramdas Pophale) SiO2 
 PCOD8321534
Probable space group: R 3
;
_chemical_formula_sum "Si O2"
_cell_formula_units_Z 63
_cell_length_a 15.554224
_cell_length_b 15.554224
_cell_length_c 12.757805
_cell_angle_alpha 90.000000
_cell_angle_beta 90.000000
_cell_angle_gamma 120.000000
_cell_volume 2673.026655
_symmetry_space_group_name_H-M "R 3"
_symmetry_group_IT_number 146
_symmetry_cell_setting 'hexagonal'
loop_
_space_group_symop_operation_xyz
x,y,z
-y,x-y,z
-x+y,-x,z
2/3+x,1/3+y,1/3+z
2/3-y,1/3+x-y,1/3+z
2/3-x+y,1/3-x,1/3+z
1/3+x,2/3+y,2/3+z
1/3-y,2/3+x-y,2/3+z
1/3-x+y,2/3-x,2/3+z
loop_
_atom_site_type_symbol
_atom_site_label
_atom_site_fract_x
_atom_site_fract_y
_atom_site_fract_z
Si Si1 0.649680 0.170958 0.784850
Si Si2 0.340284 0.361082 0.823541
Si Si3 0.766974 0.235493 0.589164
Si Si4 0.174712 0.968168 0.552092
Si Si5 0.334079 0.038748 0.709289
Si Si6 0.545914 0.854610 0.637133
Si Si7 0.158861 0.976737 0.035537
O O1 0.696902 0.241074 0.681272
O O2 0.725630 0.217045 0.884920
O O3 0.544285 0.153838 0.817628
O O4 0.637158 0.065450 0.756328
O O5 0.390359 0.451360 0.905656
O O6 0.276788 0.384502 0.740710
O O7 0.276979 0.251037 0.871735
O O8 0.880519 0.287032 0.625960
O O9 0.771389 0.295770 0.483297
O O10 0.219965 0.998023 0.669383
O O11 0.241934 0.930068 0.490203
O O12 0.356836 0.950180 0.717403
O O13 0.507039 0.737508 0.635353
O O14 0.453265 0.872867 0.636027
#
# Coordination Sequence:
#
# PCOD8321534 Si02
#       7
#     9   9   9   9   9   9   9
#     4  11  22  40  63  97 135 175 230 290 356 415
#     4  11  21  41  65  97 131 189 229 287 347 430
#     4  10  22  39  67  93 131 175 230 288 341 412
#     4  11  23  39  67  98 137 174 231 291 354 416
#     4  11  21  40  63  96 130 180 226 285 336 423
#     4  11  25  41  70  98 145 182 238 294 357 424
#     4  11  24  42  63 101 135 183 234 293 351 420
#
# _framework density 23.568788000000001
#
# number of rings (size 3 to 8) (size 9 to 14) (size 15 to 20)
#    0.000    1.143    4.286    2.286    2.000    3.429 
#    0.000    0.000    0.000    0.000    0.000    6.000 
#    0.000    0.000    0.000    0.000    0.000    0.000 
#
# Total GULP energy -260222.455317 kJ/mol
# GULP energy per Si atom -12391.545491 kJ/mol
# Density = 2.351514 g / cm^3
# Si number density = 23.568788 Si / 1000 Ang^3
#
#
#
# Elastic Constant Matrix: (Units=GPa)
#
#
# Indices 1 2 3 4 5 6 
#
# 1 78.2689 9.2047 23.7960 0.9809 -3.1950 0.0000
# 2 9.2047 78.2689 23.7960 -0.9809 3.1950 0.0000
# 3 23.7960 23.7960 57.8751 0.0000 0.0000 0.0000
# 4 0.9809 -0.9809 0.0000 24.4535 0.0000 3.1950
# 5 -3.1950 3.1950 0.0000 0.0000 24.4535 0.9809
# 6 0.0000 0.0000 0.0000 3.1950 0.9809 34.5321
#
#
#
# Elastic Compliance Matrix: (Units=1/GPa)
#
#
# Indices 1 2 3 4 5 6 
#
# 1 0.014700 0.000026 -0.006055 -0.000589 0.001917 0.000000
# 2 0.000026 0.014700 -0.006055 0.000589 -0.001917 0.000000
# 3 -0.006055 -0.006055 0.022258 0.000000 0.000000 0.000000
# 4 -0.000589 0.000589 0.000000 0.041442 0.000000 -0.003834
# 5 0.001917 -0.001917 0.000000 0.000000 0.041442 -0.001177
# 6 0.000000 0.000000 0.000000 -0.003834 -0.001177 0.029347
#
#
# Mechanical properties :
#
#
# Convention : Reuss Voigt Hill
#
# Bulk Modulus (GPa) = 36.37587 36.44512 36.41050
# Shear Modulus (GPa) = 25.35256 27.19555 26.27406
#
# Velocity S-wave (km/s) = 3.28332 3.40057 3.34246
# Velocity P-wave (km/s) = 5.46269 5.56016 5.51164
#
# Compressibility (1/GPa) = 0.02749075
#
# Stress axis : x y z
#
# Youngs Moduli (GPa) = 68.02787 68.02787 44.92838
#
# Poissons Ratio (x) = -0.00180 0.27204
# Poissons Ratio (y) = -0.00180 0.27204
# Poissons Ratio (z) = 0.41190 0.41190
#
# Static dielectric constant tensor:
#      x y z
#    x 4.328530 0.000000 0.000000 
#    y 0.000000 4.328530 0.000000 
#    z 0.000000 0.000000 4.178860 
# 
# 
# High freq. dielectric constant tensor:
#      x y z
#    x 1.933870 0.000000 0.000000 
#    y 0.000000 1.933870 0.000000 
#    z 0.000000 0.000000 1.909550 
# 
# From -- ./inp_files/1235.got.cif
#   From: 2010.06.25/outbox.cif.g09.slc.cpg/sg146_cif.got.tgz:1235.got - 2010.06.28 11:17:22.
