data_PCOD8321279
_publ_section_title
;
Structure prediction by ZEFSAII (Michael W. Deem and Ramdas Pophale) SiO2 
 PCOD8321279
Probable space group: I 41/A C D
;
_chemical_formula_sum "Si O2"
_cell_formula_units_Z 176
_cell_length_a 25.309017
_cell_length_b 25.309017
_cell_length_c 12.862825
_cell_angle_alpha 90.000000
_cell_angle_beta 90.000000
_cell_angle_gamma 90.000000
_cell_volume 8239.235495
_symmetry_space_group_name_H-M "I 41/A C D"
_symmetry_group_IT_number 142
_space_group.IT_coordinate_system_code '2'
_symmetry_cell_setting 'tetragonal'
loop_
_space_group_symop_operation_xyz
x,y,z
1/4-y,3/4+x,1/4+z
-x,1/2-y,z
1/4+y,1/4-x,3/4+z
x,-y,1/2-z
1/2-x,y,-z
3/4+y,1/4+x,1/4-z
1/4-y,1/4-x,1/4-z
-x,-y,-z
3/4+y,1/4-x,3/4-z
x,1/2+y,-z
3/4-y,3/4+x,1/4-z
-x,y,1/2+z
1/2+x,-y,z
1/4-y,3/4-x,3/4+z
3/4+y,3/4+x,3/4+z
1/2+x,1/2+y,1/2+z
3/4-y,1/4+x,3/4+z
1/2-x,-y,1/2+z
3/4+y,3/4-x,1/4+z
1/2+x,1/2-y,-z
-x,1/2+y,1/2-z
1/4+y,3/4+x,3/4-z
3/4-y,3/4-x,3/4-z
1/2-x,1/2-y,1/2-z
1/4+y,3/4-x,1/4-z
1/2+x,y,1/2-z
1/4-y,1/4+x,3/4-z
1/2-x,1/2+y,z
x,1/2-y,1/2+z
3/4-y,1/4-x,1/4+z
1/4+y,1/4+x,1/4+z
loop_
_atom_site_type_symbol
_atom_site_label
_atom_site_fract_x
_atom_site_fract_y
_atom_site_fract_z
Si Si1 0.559765 0.809765 0.625000
Si Si2 0.743493 0.590334 0.666248
Si Si3 0.786482 0.399661 0.400810
Si Si4 0.456990 0.385969 0.191351
Si Si5 0.075465 0.000000 0.250000
Si Si6 0.444233 0.805768 0.625000
Si Si7 0.573324 0.875389 0.816665
O O1 0.501913 0.811599 0.569145
O O2 0.564959 0.860303 0.697617
O O3 0.708042 0.541959 0.625000
O O4 0.803915 0.578613 0.640315
O O5 0.741789 0.603246 0.788986
O O6 0.728305 0.640955 0.597812
O O7 0.750000 0.412778 0.500000
O O8 0.815038 0.344060 0.422208
O O9 0.458346 0.448907 0.214721
O O10 0.440291 0.352598 0.292475
O O11 0.413295 0.368173 0.109699
O O12 0.513630 0.371683 0.138682
#
# Coordination Sequence:
#
# PCOD8321279 Si02
#       7
#    16  32  32  32  16  16  32
#     4   9  20  40  68  98 127 170 230 280 331 396
#     4  12  22  45  69  95 129 177 236 279 331 409
#     4  12  26  40  66  98 135 181 225 287 342 401
#     4  11  24  43  68  99 134 176 229 281 345 414
#     4  12  26  42  68 102 136 174 230 284 348 412
#     4   9  20  40  70  96 125 174 224 286 329 388
#     4  11  24  43  66  96 136 176 223 282 344 406
#
# _framework density 21.361205999999999
#
# number of rings (size 3 to 8) (size 9 to 14) (size 15 to 20)
#    0.000    0.909    3.636    2.727    7.636    1.818 
#    0.000    0.909    0.000    0.000    0.000    0.000 
#    0.000    0.000    0.000    0.000    0.000    0.000 
#
# Total GULP energy -1090364.808847 kJ/mol
# GULP energy per Si atom -12390.509191 kJ/mol
# Density = 2.131259 g / cm^3
# Si number density = 21.361206 Si / 1000 Ang^3
#
#
#
# Elastic Constant Matrix: (Units=GPa)
#
#
# Indices 1 2 3 4 5 6 
#
# 1 95.8615 23.9875 18.8907 0.0000 0.0000 0.0000
# 2 23.9875 95.8590 18.8906 0.0000 0.0000 0.0000
# 3 18.8907 18.8906 97.9124 0.0000 0.0000 0.0000
# 4 0.0000 0.0000 0.0000 27.4153 0.0000 0.0000
# 5 0.0000 0.0000 0.0000 0.0000 27.4151 0.0000
# 6 0.0000 0.0000 0.0000 0.0000 0.0000 34.6729
#
#
#
# Elastic Compliance Matrix: (Units=1/GPa)
#
#
# Indices 1 2 3 4 5 6 
#
# 1 0.011399 -0.002515 -0.001714 0.000000 0.000000 0.000000
# 2 -0.002515 0.011399 -0.001714 0.000000 0.000000 0.000000
# 3 -0.001714 -0.001714 0.010875 0.000000 0.000000 0.000000
# 4 0.000000 0.000000 0.000000 0.036476 0.000000 0.000000
# 5 0.000000 0.000000 0.000000 0.000000 0.036476 0.000000
# 6 0.000000 0.000000 0.000000 0.000000 0.000000 0.028841
#
#
# Mechanical properties :
#
#
# Convention : Reuss Voigt Hill
#
# Bulk Modulus (GPa) = 45.89926 45.90784 45.90355
# Shear Modulus (GPa) = 32.33874 33.09161 32.71518
#
# Velocity S-wave (km/s) = 3.89511 3.94019 3.91771
# Velocity P-wave (km/s) = 6.46243 6.49908 6.48078
#
# Compressibility (1/GPa) = 0.02178684
#
# Stress axis : x y z
#
# Youngs Moduli (GPa) = 87.72916 87.72677 91.95729
#
# Poissons Ratio (x) = 0.22060 0.15762
# Poissons Ratio (y) = 0.22060 0.15762
# Poissons Ratio (z) = 0.15037 0.15037
#
# Static dielectric constant tensor:
#      x y z
#    x 3.932570 0.000000 0.000000 
#    y 0.000000 3.932580 0.000000 
#    z 0.000000 0.000000 3.745660 
# 
# 
# High freq. dielectric constant tensor:
#      x y z
#    x 1.840400 0.000000 0.000000 
#    y 0.000000 1.840400 0.000000 
#    z 0.000000 0.000000 1.829400 
# 
# From -- ./inp_files/5608.got.cif
#   From: 2010.03.12/outbox.cif.g09.slc.cpg/sg142_3_cif.got.tgz:5608.got - 2010.04.03 13:27:16.
