data_PCOD8321335
_publ_section_title
;
Structure prediction by ZEFSAII (Michael W. Deem and Ramdas Pophale) SiO2 
 PCOD8321335
Probable space group: P 3
;
_chemical_formula_sum "Si O2"
_cell_formula_units_Z 13
_cell_length_a 9.849478
_cell_length_b 9.849478
_cell_length_c 7.347238
_cell_angle_alpha 90.000000
_cell_angle_beta 90.000000
_cell_angle_gamma 120.000000
_cell_volume 617.278526
_symmetry_space_group_name_H-M "P 3"
_symmetry_group_IT_number 143
_symmetry_cell_setting 'hexagonal'
loop_
_space_group_symop_operation_xyz
x,y,z
-y,x-y,z
-x+y,-x,z
loop_
_atom_site_type_symbol
_atom_site_label
_atom_site_fract_x
_atom_site_fract_y
_atom_site_fract_z
Si Si1 0.931935 0.265268 0.400750
Si Si2 0.666667 0.333332 0.830641
Si Si3 0.666668 0.333335 0.402779
Si Si4 0.000000 0.000000 0.830638
Si Si5 0.000000 0.000000 0.402777
Si Si6 0.931932 0.265265 0.832667
Si Si7 0.505805 0.666666 0.116708
O O1 0.926973 0.105968 0.334717
O O2 0.075747 0.409079 0.301893
O O3 0.772638 0.260312 0.334717
O O4 0.958520 0.291852 0.616709
O O5 0.666668 0.333334 0.616710
O O6 0.772631 0.260302 0.898700
O O7 0.894034 0.821006 0.898699
O O8 0.000000 0.000000 0.616707
O O9 0.075742 0.409076 0.931526
O O10 0.488552 0.821885 0.116706
#
# Coordination Sequence:
#
# PCOD8321335 Si02
#       7
#     3   1   1   1   1   3   3
#     4  10  22  41  65  93 131 165 205 262 315 372
#     4   9  21  40  68  97 124 167 211 250 320 382
#     4   9  21  40  68  97 124 167 211 250 320 382
#     4   9  21  40  68  97 124 167 211 250 320 382
#     4   9  21  40  68  97 124 167 211 250 320 382
#     4  10  22  41  65  93 131 165 205 262 315 372
#     4  10  26  40  58  94 124 164 222 250 308 382
#
# _framework density 21.060184
#
# number of rings (size 3 to 8) (size 9 to 14) (size 15 to 20)
#    0.462    1.846    0.000    0.000    6.462    5.538 
#    0.000    0.000    0.000    0.000    0.000    0.000 
#    0.000    0.000    0.000    0.000    0.000    0.000 
#
# Total GULP energy -161128.234287 kJ/mol
# GULP energy per Si atom -12394.479561 kJ/mol
# Density = 2.101225 g / cm^3
# Si number density = 21.060184 Si / 1000 Ang^3
#
#
#
# Elastic Constant Matrix: (Units=GPa)
#
#
# Indices 1 2 3 4 5 6 
#
# 1 190.7758 98.6530 28.9205 -0.0005 -0.0001 -0.0007
# 2 98.6530 190.7762 28.9213 0.0003 0.0005 -0.0004
# 3 28.9205 28.9213 75.2762 -0.0001 0.0000 -0.0002
# 4 -0.0005 0.0003 -0.0001 26.9006 -0.0001 0.0002
# 5 -0.0001 0.0005 0.0000 -0.0001 26.9000 -0.0004
# 6 -0.0007 -0.0004 -0.0002 0.0002 -0.0004 46.0605
#
#
#
# Elastic Compliance Matrix: (Units=1/GPa)
#
#
# Indices 1 2 3 4 5 6 
#
# 1 0.007299 -0.003556 -0.001438 0.000000 0.000000 0.000000
# 2 -0.003556 0.007299 -0.001438 0.000000 0.000000 0.000000
# 3 -0.001438 -0.001438 0.014389 0.000000 0.000000 0.000000
# 4 0.000000 0.000000 0.000000 0.037174 0.000000 0.000000
# 5 0.000000 0.000000 0.000000 0.000000 0.037175 0.000000
# 6 0.000000 0.000000 0.000000 0.000000 0.000000 0.021711
#
#
# Mechanical properties :
#
#
# Convention : Reuss Voigt Hill
#
# Bulk Modulus (GPa) = 62.02409 85.53530 73.77970
# Shear Modulus (GPa) = 34.89572 39.99446 37.44509
#
# Velocity S-wave (km/s) = 4.07498 4.36254 4.22121
# Velocity P-wave (km/s) = 7.18717 8.12887 7.67249
#
# Compressibility (1/GPa) = 0.01612277
#
# Stress axis : x y z
#
# Youngs Moduli (GPa) = 137.01007 137.00995 69.49643
#
# Poissons Ratio (x) = 0.48725 0.09992
# Poissons Ratio (y) = 0.48725 0.09993
# Poissons Ratio (z) = 0.19699 0.19700
#
# Static dielectric constant tensor:
#      x y z
#    x 4.089280 0.000010 0.000000 
#    y 0.000010 4.089280 0.000000 
#    z 0.000000 0.000000 3.567350 
# 
# 
# High freq. dielectric constant tensor:
#      x y z
#    x 1.827370 0.000000 0.000000 
#    y 0.000000 1.827370 0.000000 
#    z 0.000000 0.000000 1.823740 
# 
# From -- ./inp_files/115.got.cif
#   From: 2010.03.12/outbox.cif.g09.slc.cpg/sg143_cif.got.tgz:115.got - 2010.04.03 13:34:35.
