data_PCOD8321378
_publ_section_title
;
Structure prediction by ZEFSAII (Michael W. Deem and Ramdas Pophale) SiO2 
 PCOD8321378
Probable space group: P 31
;
_chemical_formula_sum "Si O2"
_cell_formula_units_Z 24
_cell_length_a 9.195148
_cell_length_b 9.195148
_cell_length_c 16.141926
_cell_angle_alpha 90.000000
_cell_angle_beta 90.000000
_cell_angle_gamma 120.000000
_cell_volume 1181.961774
_symmetry_space_group_name_H-M "P 31"
_symmetry_group_IT_number 144
_symmetry_cell_setting 'hexagonal'
loop_
_space_group_symop_operation_xyz
x,y,z
-y,x-y,1/3+z
-x+y,-x,2/3+z
loop_
_atom_site_type_symbol
_atom_site_label
_atom_site_fract_x
_atom_site_fract_y
_atom_site_fract_z
Si Si1 0.776344 0.950774 0.133940
Si Si2 0.469894 0.491649 0.336933
Si Si3 0.716374 0.614126 0.198512
Si Si4 0.946186 0.579547 0.331196
Si Si5 0.316869 0.248163 0.977660
Si Si6 0.630862 0.739391 0.623428
Si Si7 0.719264 0.335933 0.717531
Si Si8 0.703210 0.800694 0.440462
O O1 0.785831 0.781627 0.143384
O O2 0.651020 0.923519 0.058063
O O3 0.714818 0.991114 0.219653
O O4 0.952537 0.104227 0.104632
O O5 0.554753 0.587469 0.250953
O O6 0.274331 0.435986 0.346506
O O7 0.484658 0.324117 0.341433
O O8 0.575000 0.610089 0.413350
O O9 0.865367 0.640325 0.260180
O O10 0.655877 0.450438 0.141517
O O11 0.799191 0.447441 0.392030
O O12 0.051345 0.507329 0.286003
O O13 0.244311 0.048310 0.990502
O O14 0.516469 0.360393 0.989475
O O15 0.242180 0.316752 0.046385
O O16 0.655502 0.821832 0.533188
#
# Coordination Sequence:
#
# PCOD8321378 Si02
#       8
#     3   3   3   3   3   3   3   3
#     4  11  21  39  66  91 130 169 214 269 319 388
#     4  11  22  41  63  94 123 167 208 257 325 380
#     4  11  22  40  67  91 123 173 217 258 320 391
#     4  10  22  41  64  97 126 169 212 267 333 378
#     4  10  22  41  63  95 124 170 211 267 325 378
#     4  10  24  39  66  93 132 162 216 267 322 386
#     4  10  22  38  67  89 124 161 218 254 315 388
#     4  11  21  43  64  86 132 167 206 267 327 375
#
# _framework density 20.305225
#
# number of rings (size 3 to 8) (size 9 to 14) (size 15 to 20)
#    0.000    1.500    3.750    1.500    7.000    2.000 
#    0.000    0.000    0.000    0.000    0.000    0.000 
#    0.000    0.000    0.000    0.000    0.000    0.000 
#
# Total GULP energy -297584.416108 kJ/mol
# GULP energy per Si atom -12399.350671 kJ/mol
# Density = 2.025901 g / cm^3
# Si number density = 20.305225 Si / 1000 Ang^3
#
#
#
# Elastic Constant Matrix: (Units=GPa)
#
#
# Indices 1 2 3 4 5 6 
#
# 1 94.4094 38.5859 30.0237 2.4664 -1.6836 0.0000
# 2 38.5859 94.4094 30.0237 -2.4664 1.6836 0.0000
# 3 30.0237 30.0237 78.1551 0.0000 0.0000 0.0000
# 4 2.4664 -2.4664 0.0000 33.7297 0.0000 1.6836
# 5 -1.6836 1.6836 0.0000 0.0000 33.7297 2.4664
# 6 0.0000 0.0000 0.0000 1.6836 2.4664 27.9118
#
#
#
# Elastic Compliance Matrix: (Units=1/GPa)
#
#
# Indices 1 2 3 4 5 6 
#
# 1 0.013591 -0.004494 -0.003495 -0.001322 0.000903 0.000000
# 2 -0.004494 0.013591 -0.003495 0.001322 -0.000903 0.000000
# 3 -0.003495 -0.003495 0.015480 0.000000 0.000000 0.000000
# 4 -0.001322 0.001322 0.000000 0.029931 0.000000 -0.001805
# 5 0.000903 -0.000903 0.000000 0.000000 0.029931 -0.002645
# 6 0.000000 0.000000 0.000000 -0.001805 -0.002645 0.036170
#
#
# Mechanical properties :
#
#
# Convention : Reuss Voigt Hill
#
# Bulk Modulus (GPa) = 50.77348 51.58229 51.17788
# Shear Modulus (GPa) = 29.72210 30.29696 30.00953
#
# Velocity S-wave (km/s) = 3.83007 3.86693 3.84855
# Velocity P-wave (km/s) = 6.67972 6.73767 6.70876
#
# Compressibility (1/GPa) = 0.01969532
#
# Stress axis : x y z
#
# Youngs Moduli (GPa) = 73.57872 73.57872 64.59946
#
# Poissons Ratio (x) = 0.33066 0.22575
# Poissons Ratio (y) = 0.33066 0.22575
# Poissons Ratio (z) = 0.25713 0.25713
#
# Static dielectric constant tensor:
#      x y z
#    x 3.658240 0.000000 0.000000 
#    y 0.000000 3.658240 0.000000 
#    z 0.000000 0.000000 3.633840 
# 
# 
# High freq. dielectric constant tensor:
#      x y z
#    x 1.787510 0.000000 0.000000 
#    y 0.000000 1.787510 0.000000 
#    z 0.000000 0.000000 1.792280 
# 
# From -- ./inp_files/832.got.cif
#   From: 2010.03.12/outbox.cif.g09.slc.cpg/sg144_cif.got.tgz:832.got - 2010.04.03 13:34:42.
