data_PCOD8321247
_publ_section_title
;
Structure prediction by ZEFSAII (Michael W. Deem and Ramdas Pophale) SiO2 
 PCOD8321247
Probable space group: I 41/A C D
;
_chemical_formula_sum "Si O2"
_cell_formula_units_Z 144
_cell_length_a 20.816766
_cell_length_b 20.816766
_cell_length_c 15.648980
_cell_angle_alpha 90.000000
_cell_angle_beta 90.000000
_cell_angle_gamma 90.000000
_cell_volume 6781.293731
_symmetry_space_group_name_H-M "I 41/A C D"
_symmetry_group_IT_number 142
_space_group.IT_coordinate_system_code '2'
_symmetry_cell_setting 'tetragonal'
loop_
_space_group_symop_operation_xyz
x,y,z
1/4-y,3/4+x,1/4+z
-x,1/2-y,z
1/4+y,1/4-x,3/4+z
x,-y,1/2-z
1/2-x,y,-z
3/4+y,1/4+x,1/4-z
1/4-y,1/4-x,1/4-z
-x,-y,-z
3/4+y,1/4-x,3/4-z
x,1/2+y,-z
3/4-y,3/4+x,1/4-z
-x,y,1/2+z
1/2+x,-y,z
1/4-y,3/4-x,3/4+z
3/4+y,3/4+x,3/4+z
1/2+x,1/2+y,1/2+z
3/4-y,1/4+x,3/4+z
1/2-x,-y,1/2+z
3/4+y,3/4-x,1/4+z
1/2+x,1/2-y,-z
-x,1/2+y,1/2-z
1/4+y,3/4+x,3/4-z
3/4-y,3/4-x,3/4-z
1/2-x,1/2-y,1/2-z
1/4+y,3/4-x,1/4-z
1/2+x,y,1/2-z
1/4-y,1/4+x,3/4-z
1/2-x,1/2+y,z
x,1/2-y,1/2+z
3/4-y,1/4-x,1/4+z
1/4+y,1/4+x,1/4+z
loop_
_atom_site_type_symbol
_atom_site_label
_atom_site_fract_x
_atom_site_fract_y
_atom_site_fract_z
Si Si1 0.250000 0.334215 0.000000
Si Si2 0.552745 0.573076 0.921530
Si Si3 0.337471 0.155374 0.641009
Si Si4 0.352804 0.289633 0.864683
Si Si5 0.095657 0.565924 0.918311
O O1 0.210479 0.375633 0.930440
O O2 0.303880 0.295922 0.944327
O O3 0.591520 0.631599 0.880399
O O4 0.482165 0.584155 0.884459
O O5 0.578178 0.505228 0.886232
O O6 0.558561 0.569660 0.024499
O O7 0.315002 0.134313 0.733221
O O8 0.418509 0.331492 0.875000
O O9 0.365367 0.213043 0.854313
O O10 0.160564 0.589437 0.875000
#
# Coordination Sequence:
#
# PCOD8321247 Si02
#       5
#    16  32  32  32  32
#     4  12  20  40  68  96 124 176 206 262 334 378
#     4  11  23  44  64  97 131 164 222 262 322 384
#     4  11  24  39  71  94 127 173 214 267 321 386
#     4  11  22  40  69  95 126 170 216 265 320 389
#     4  11  25  43  63  95 134 169 217 267 321 382
#
# _framework density 21.234887000000001
#
# number of rings (size 3 to 8) (size 9 to 14) (size 15 to 20)
#    0.000    0.889    6.667    1.333    3.111    1.778 
#    0.000    7.778    0.000    0.000    0.000    0.000 
#    0.000    0.000    0.000    0.000    0.000    0.000 
#
# Total GULP energy -892013.173357 kJ/mol
# GULP energy per Si atom -12389.071852 kJ/mol
# Density = 2.118656 g / cm^3
# Si number density = 21.234887 Si / 1000 Ang^3
#
#
#
# Elastic Constant Matrix: (Units=GPa)
#
#
# Indices 1 2 3 4 5 6 
#
# 1 93.0992 75.3163 56.3070 0.0000 0.0000 0.0000
# 2 75.3163 93.1036 56.3090 0.0000 0.0000 0.0000
# 3 56.3070 56.3090 94.7272 0.0000 0.0000 0.0000
# 4 0.0000 0.0000 0.0000 20.4048 0.0000 0.0000
# 5 0.0000 0.0000 0.0000 0.0000 20.4034 0.0000
# 6 0.0000 0.0000 0.0000 0.0000 0.0000 22.2204
#
#
#
# Elastic Compliance Matrix: (Units=1/GPa)
#
#
# Indices 1 2 3 4 5 6 
#
# 1 0.033041 -0.023186 -0.005857 0.000000 0.000000 0.000000
# 2 -0.023186 0.033040 -0.005858 0.000000 0.000000 0.000000
# 3 -0.005857 -0.005858 0.017521 0.000000 0.000000 0.000000
# 4 0.000000 0.000000 0.000000 0.049008 0.000000 0.000000
# 5 0.000000 0.000000 0.000000 0.000000 0.049012 0.000000
# 6 0.000000 0.000000 0.000000 0.000000 0.000000 0.045004
#
#
# Mechanical properties :
#
#
# Convention : Reuss Voigt Hill
#
# Bulk Modulus (GPa) = 72.47095 72.97717 72.72406
# Shear Modulus (GPa) = 16.60976 18.80556 17.70766
#
# Velocity S-wave (km/s) = 2.79980 2.97913 2.89086
# Velocity P-wave (km/s) = 6.68238 6.80256 6.74274
#
# Compressibility (1/GPa) = 0.01379863
#
# Stress axis : x y z
#
# Youngs Moduli (GPa) = 30.26530 30.26630 57.07567
#
# Poissons Ratio (x) = 0.70176 0.33432
# Poissons Ratio (y) = 0.70173 0.33435
# Poissons Ratio (z) = 0.17728 0.17730
#
# Static dielectric constant tensor:
#      x y z
#    x 3.758770 0.000000 0.000000 
#    y 0.000000 3.758760 0.000000 
#    z 0.000000 0.000000 4.175570 
# 
# 
# High freq. dielectric constant tensor:
#      x y z
#    x 1.813880 0.000000 0.000000 
#    y 0.000000 1.813880 0.000000 
#    z 0.000000 0.000000 1.857190 
# 
# From -- ./inp_files/7281.got.cif
#   From: 2010.03.12/outbox.cif.g09.slc.cpg/sg142_4_cif.got.tgz:7281.got - 2010.04.03 13:27:16.
