data_PCOD8321744
_publ_section_title
;
Structure prediction by ZEFSAII (Michael W. Deem and Ramdas Pophale) SiO2 
 PCOD8321744
Probable space group: R -3
;
_chemical_formula_sum "Si O2"
_cell_formula_units_Z 126
_cell_length_a 17.104986
_cell_length_b 17.104986
_cell_length_c 24.131591
_cell_angle_alpha 90.000000
_cell_angle_beta 90.000000
_cell_angle_gamma 120.000000
_cell_volume 6114.515268
_symmetry_space_group_name_H-M "R -3"
_symmetry_group_IT_number 148
_symmetry_cell_setting 'hexagonal'
loop_
_space_group_symop_operation_xyz
x,y,z
-y,x-y,z
-x+y,-x,z
-x,-y,-z
y,-x+y,-z
x-y,x,-z
2/3+x,1/3+y,1/3+z
2/3-y,1/3+x-y,1/3+z
2/3-x+y,1/3-x,1/3+z
2/3-x,1/3-y,1/3-z
2/3+y,1/3-x+y,1/3-z
2/3+x-y,1/3+x,1/3-z
1/3+x,2/3+y,2/3+z
1/3-y,2/3+x-y,2/3+z
1/3-x+y,2/3-x,2/3+z
1/3-x,2/3-y,2/3-z
1/3+y,2/3-x+y,2/3-z
1/3+x-y,2/3+x,2/3-z
loop_
_atom_site_type_symbol
_atom_site_label
_atom_site_fract_x
_atom_site_fract_y
_atom_site_fract_z
Si Si1 0.508447 0.788064 0.194210
Si Si2 0.553153 0.911676 0.488431
Si Si3 0.772114 0.812804 0.808141
Si Si4 0.265889 0.241015 0.697872
Si Si5 0.124950 0.218856 0.618895
Si Si6 0.294719 0.843034 0.353925
Si Si7 0.863176 0.172826 0.860465
O O1 0.475440 0.680991 0.192129
O O2 0.480472 0.819074 0.249515
O O3 0.617592 0.842819 0.189234
O O4 0.443573 0.856634 0.483095
O O5 0.600974 0.934314 0.428457
O O6 0.593088 0.860908 0.523245
O O7 0.573488 0.997810 0.524843
O O8 0.806760 0.799274 0.750096
O O9 0.803827 0.770352 0.857231
O O10 0.202020 0.269222 0.665141
O O11 0.365278 0.293551 0.672726
O O12 0.221621 0.134480 0.687903
O O13 0.127773 0.299905 0.583343
O O14 0.028912 0.159712 0.648964
#
# Coordination Sequence:
#
# PCOD8321744 Si02
#       7
#    18  18  18  18  18  18  18
#     4  10  22  37  57  89 134 177 220 246 299 395
#     4  11  23  40  66  88 123 171 220 274 322 382
#     4  11  22  42  62  90 124 165 226 272 323 384
#     4  11  23  40  63  94 130 169 211 272 332 392
#     4  11  24  39  65  96 129 176 218 266 328 399
#     4  11  23  40  63  93 135 169 212 270 333 385
#     4  11  22  42  63  91 125 177 219 264 323 402
#
# _framework density 20.606704000000001
#
# number of rings (size 3 to 8) (size 9 to 14) (size 15 to 20)
#    0.000    1.143    2.857    4.429    6.000    1.143 
#    1.714    1.429    0.000    0.000    0.000    0.000 
#    0.000    3.429    0.000    0.000    0.000    0.000 
#
# Total GULP energy -520685.250948 kJ/mol
# GULP energy per Si atom -12397.267880 kJ/mol
# Density = 2.055980 g / cm^3
# Si number density = 20.606704 Si / 1000 Ang^3
#
#
#
# Elastic Constant Matrix: (Units=GPa)
#
#
# Indices 1 2 3 4 5 6 
#
# 1 78.6053 7.4229 3.3808 -2.9516 -0.2986 0.0000
# 2 7.4229 78.6053 3.3808 2.9516 0.2986 0.0000
# 3 3.3808 3.3808 55.1707 0.0000 0.0000 0.0000
# 4 -2.9516 2.9516 0.0000 32.5112 0.0000 0.2986
# 5 -0.2986 0.2986 0.0000 0.0000 32.5112 -2.9516
# 6 0.0000 0.0000 0.0000 0.2986 -2.9516 35.5912
#
#
#
# Elastic Compliance Matrix: (Units=1/GPa)
#
#
# Indices 1 2 3 4 5 6 
#
# 1 0.012918 -0.001238 -0.000716 0.001285 0.000130 0.000000
# 2 -0.001238 0.012918 -0.000716 -0.001285 -0.000130 0.000000
# 3 -0.000716 -0.000716 0.018213 0.000000 0.000000 0.000000
# 4 0.001285 -0.001285 0.000000 0.030994 0.000000 -0.000260
# 5 0.000130 -0.000130 0.000000 0.000000 0.030994 0.002570
# 6 0.000000 0.000000 0.000000 -0.000260 0.002570 0.028312
#
#
# Mechanical properties :
#
#
# Convention : Reuss Voigt Hill
#
# Bulk Modulus (GPa) = 25.83250 26.75005 26.29127
# Shear Modulus (GPa) = 32.76687 33.33582 33.05134
#
# Velocity S-wave (km/s) = 3.99194 4.02645 4.00923
# Velocity P-wave (km/s) = 5.81469 5.88437 5.84963
#
# Compressibility (1/GPa) = 0.03871093
#
# Stress axis : x y z
#
# Youngs Moduli (GPa) = 77.41003 77.41003 54.90502
#
# Poissons Ratio (x) = 0.09582 0.03930
# Poissons Ratio (y) = 0.09582 0.03930
# Poissons Ratio (z) = 0.05541 0.05541
#
# Static dielectric constant tensor:
#      x y z
#    x 3.862590 0.000000 0.000000 
#    y 0.000000 3.862590 0.000000 
#    z 0.000000 0.000000 3.709350 
# 
# 
# High freq. dielectric constant tensor:
#      x y z
#    x 1.804710 0.000000 0.000000 
#    y 0.000000 1.804710 0.000000 
#    z 0.000000 0.000000 1.800280 
# 
# From -- ./inp_files/3453.got.cif
#   From: 2010.03.12/outbox.cif.g09.slc.cpg/sg148_2_cif.got.tgz:3453.got - 2010.04.03 13:38:46.
