data_PCOD8321417
_publ_section_title
;
Structure prediction by ZEFSAII (Michael W. Deem and Ramdas Pophale) SiO2 
 PCOD8321417
Probable space group: P 31
;
_chemical_formula_sum "Si O2"
_cell_formula_units_Z 21
_cell_length_a 11.610914
_cell_length_b 11.610914
_cell_length_c 8.930965
_cell_angle_alpha 90.000000
_cell_angle_beta 90.000000
_cell_angle_gamma 120.000000
_cell_volume 1042.705912
_symmetry_space_group_name_H-M "P 31"
_symmetry_group_IT_number 144
_symmetry_cell_setting 'hexagonal'
loop_
_space_group_symop_operation_xyz
x,y,z
-y,x-y,1/3+z
-x+y,-x,2/3+z
loop_
_atom_site_type_symbol
_atom_site_label
_atom_site_fract_x
_atom_site_fract_y
_atom_site_fract_z
Si Si1 0.872707 0.810162 0.644240
Si Si2 0.214678 0.529815 0.370266
Si Si3 0.536804 0.965360 0.615095
Si Si4 0.950844 0.781147 0.963831
Si Si5 0.513429 0.672803 0.026279
Si Si6 0.005979 0.353080 0.132266
Si Si7 0.165598 0.944832 0.522260
O O1 0.880366 0.795327 0.818788
O O2 0.764477 0.665696 0.574586
O O3 0.006996 0.871487 0.546527
O O4 0.801868 0.899266 0.631420
O O5 0.335561 0.500663 0.377799
O O6 0.281486 0.687341 0.372431
O O7 0.120567 0.471436 0.517461
O O8 0.132116 0.464353 0.221678
O O9 0.464301 0.928322 0.452445
O O10 0.484429 0.052168 0.706329
O O11 0.695270 0.054197 0.608248
O O12 0.872956 0.783930 0.112713
O O13 0.653330 0.793781 0.082892
O O14 0.048262 0.274256 0.017237
#
# Coordination Sequence:
#
# PCOD8321417 Si02
#       7
#     3   3   3   3   3   3   3
#     4  12  22  38  65  96 131 163 210 269 326 390
#     4  12  20  36  60  93 127 167 203 262 320 380
#     4  11  23  40  62  94 131 173 206 267 321 390
#     4  12  24  40  64  92 136 170 213 263 330 383
#     4  11  24  36  63  94 134 163 216 258 330 377
#     4  11  23  41  61  93 129 165 219 260 321 390
#     4  11  24  41  61  98 130 171 209 269 326 388
#
# _framework density 20.139907999999998
#
# number of rings (size 3 to 8) (size 9 to 14) (size 15 to 20)
#    0.000    0.571    7.143    0.857    4.000    0.000 
#    0.000    0.000    0.000    6.857    0.000    0.000 
#    0.000    0.000    0.000    0.000    0.000    0.000 
#
# Total GULP energy -260264.782085 kJ/mol
# GULP energy per Si atom -12393.561052 kJ/mol
# Density = 2.009407 g / cm^3
# Si number density = 20.139908 Si / 1000 Ang^3
#
#
#
# Elastic Constant Matrix: (Units=GPa)
#
#
# Indices 1 2 3 4 5 6 
#
# 1 68.2426 15.2218 28.2280 5.7475 -4.0039 0.0000
# 2 15.2218 68.2426 28.2280 -5.7475 4.0039 0.0000
# 3 28.2280 28.2280 128.2056 0.0000 0.0000 0.0000
# 4 5.7475 -5.7475 0.0000 19.6743 0.0000 4.0039
# 5 -4.0039 4.0039 0.0000 0.0000 19.6743 5.7475
# 6 0.0000 0.0000 0.0000 4.0039 5.7475 26.5104
#
#
#
# Elastic Compliance Matrix: (Units=1/GPa)
#
#
# Indices 1 2 3 4 5 6 
#
# 1 0.017448 -0.003371 -0.003100 -0.006082 0.004237 0.000000
# 2 -0.003371 0.017448 -0.003100 0.006082 -0.004237 0.000000
# 3 -0.003100 -0.003100 0.009165 0.000000 0.000000 0.000000
# 4 -0.006082 0.006082 0.000000 0.056106 0.000000 -0.008474
# 5 0.004237 -0.004237 0.000000 0.000000 0.056106 -0.012164
# 6 0.000000 0.000000 0.000000 -0.008474 -0.012164 0.041638
#
#
# Mechanical properties :
#
#
# Convention : Reuss Voigt Hill
#
# Bulk Modulus (GPa) = 40.12520 45.33848 42.73184
# Shear Modulus (GPa) = 22.18693 26.03935 24.11314
#
# Velocity S-wave (km/s) = 3.32270 3.59962 3.46393
# Velocity P-wave (km/s) = 5.88956 6.31166 6.10426
#
# Compressibility (1/GPa) = 0.02492199
#
# Stress axis : x y z
#
# Youngs Moduli (GPa) = 57.31193 57.31193 109.11199
#
# Poissons Ratio (x) = 0.19318 0.33820
# Poissons Ratio (y) = 0.19318 0.33820
# Poissons Ratio (z) = 0.17764 0.17764
#
# Static dielectric constant tensor:
#      x y z
#    x 3.594770 0.000000 0.000000 
#    y 0.000000 3.594770 0.000000 
#    z 0.000000 0.000000 4.208360 
# 
# 
# High freq. dielectric constant tensor:
#      x y z
#    x 1.765260 0.000000 0.000000 
#    y 0.000000 1.765260 0.000000 
#    z 0.000000 0.000000 1.814660 
# 
# From -- ./inp_files/326.got.cif
#   From: 2010.03.12/outbox.cif.g09.slc.cpg/sg144_cif.got.tgz:326.got - 2010.04.03 13:34:42.
