data_PCOD8321731
_publ_section_title
;
Structure prediction by ZEFSAII (Michael W. Deem and Ramdas Pophale) SiO2 
 PCOD8321731
Probable space group: R -3
;
_chemical_formula_sum "Si O2"
_cell_formula_units_Z 72
_cell_length_a 22.216018
_cell_length_b 22.216018
_cell_length_c 9.769219
_cell_angle_alpha 90.000000
_cell_angle_beta 90.000000
_cell_angle_gamma 120.000000
_cell_volume 4175.638704
_symmetry_space_group_name_H-M "R -3"
_symmetry_group_IT_number 148
_symmetry_cell_setting 'hexagonal'
loop_
_space_group_symop_operation_xyz
x,y,z
-y,x-y,z
-x+y,-x,z
-x,-y,-z
y,-x+y,-z
x-y,x,-z
2/3+x,1/3+y,1/3+z
2/3-y,1/3+x-y,1/3+z
2/3-x+y,1/3-x,1/3+z
2/3-x,1/3-y,1/3-z
2/3+y,1/3-x+y,1/3-z
2/3+x-y,1/3+x,1/3-z
1/3+x,2/3+y,2/3+z
1/3-y,2/3+x-y,2/3+z
1/3-x+y,2/3-x,2/3+z
1/3-x,2/3-y,2/3-z
1/3+y,2/3-x+y,2/3-z
1/3+x-y,2/3+x,2/3-z
loop_
_atom_site_type_symbol
_atom_site_label
_atom_site_fract_x
_atom_site_fract_y
_atom_site_fract_z
Si Si1 0.557477 0.078894 0.963240
Si Si2 0.960534 0.714654 0.847781
Si Si3 0.229092 0.228707 0.394197
Si Si4 0.776237 0.088928 0.151296
O O1 0.603156 0.089568 0.828323
O O2 0.518755 0.123953 0.944647
O O3 0.608667 0.098725 0.093184
O O4 0.500000 0.000000 0.000000
O O5 0.941655 0.642497 0.771142
O O6 0.041889 0.756360 0.868797
O O7 0.924982 0.701948 0.992460
O O8 0.248413 0.214702 0.243053
O O9 0.833334 0.166667 0.166667
#
# Coordination Sequence:
#
# PCOD8321731 Si02
#       4
#    18  18  18  18
#     4  10  21  36  58  81 115 153 187 237 288 340
#     4  11  21  36  53  83 117 148 186 237 285 345
#     4  11  21  38  57  83 115 151 191 233 287 349
#     4  12  23  34  56  82 116 151 188 231 291 341
#
# _framework density 17.242871999999998
#
# number of rings (size 3 to 8) (size 9 to 14) (size 15 to 20)
#    0.000    1.000    5.000    4.500    3.500    0.000 
#    0.000    0.000    0.000    0.500    0.000    0.000 
#    0.000    4.000    0.000    0.000    0.000    0.000 
#
# Total GULP energy -297383.805624 kJ/mol
# GULP energy per Si atom -12390.991901 kJ/mol
# Density = 1.720363 g / cm^3
# Si number density = 17.242872 Si / 1000 Ang^3
#
#
#
# Elastic Constant Matrix: (Units=GPa)
#
#
# Indices 1 2 3 4 5 6 
#
# 1 80.3308 43.2862 13.5844 -9.4519 -8.0236 0.0006
# 2 43.2862 80.3315 13.5864 9.4518 8.0267 0.0005
# 3 13.5844 13.5864 73.8062 -0.0008 0.0062 0.0019
# 4 -9.4519 9.4518 -0.0008 28.8340 -0.0005 8.0249
# 5 -8.0236 8.0267 0.0062 -0.0005 28.8361 -9.4509
# 6 0.0006 0.0005 0.0019 8.0249 -9.4509 18.5224
#
#
#
# Elastic Compliance Matrix: (Units=1/GPa)
#
#
# Indices 1 2 3 4 5 6 
#
# 1 0.023168 -0.014738 -0.001552 0.012426 0.010549 -0.000001
# 2 -0.014738 0.023168 -0.001552 -0.012426 -0.010549 0.000001
# 3 -0.001552 -0.001552 0.014120 0.000001 -0.000004 -0.000004
# 4 0.012426 -0.012426 0.000001 0.048700 0.000002 -0.021098
# 5 0.010549 -0.010549 -0.000004 0.000002 0.048693 0.024844
# 6 -0.000001 0.000001 -0.000004 -0.021098 0.024844 0.075806
#
#
# Mechanical properties :
#
#
# Convention : Reuss Voigt Hill
#
# Bulk Modulus (GPa) = 40.36459 41.70917 41.03688
# Shear Modulus (GPa) = 18.01179 26.17260 22.09219
#
# Velocity S-wave (km/s) = 3.23552 3.90022 3.58332
# Velocity P-wave (km/s) = 6.11706 6.67264 6.40088
#
# Compressibility (1/GPa) = 0.02477419
#
# Stress axis : x y z
#
# Youngs Moduli (GPa) = 43.16293 43.16259 70.82020
#
# Poissons Ratio (x) = 0.63611 0.10992
# Poissons Ratio (y) = 0.63612 0.10988
# Poissons Ratio (z) = 0.06699 0.06697
#
# Static dielectric constant tensor:
#      x y z
#    x 3.539460 0.000020 -0.000020 
#    y 0.000020 3.539470 0.000020 
#    z -0.000020 0.000020 3.081810 
# 
# 
# High freq. dielectric constant tensor:
#      x y z
#    x 1.647650 0.000000 0.000000 
#    y 0.000000 1.647650 0.000000 
#    z 0.000000 0.000000 1.688750 
# 
# From -- ./inp_files/792.got.cif
#   From: 2010.03.12/outbox.cif.g09.slc.cpg/sg148_1_cif.got.tgz:792.got - 2010.04.03 13:38:46.
