data_PCOD8321549
_publ_section_title
;
Structure prediction by ZEFSAII (Michael W. Deem and Ramdas Pophale) SiO2 
 PCOD8321549
Probable space group: R 3
;
_chemical_formula_sum "Si O2"
_cell_formula_units_Z 33
_cell_length_a 10.563644
_cell_length_b 10.563644
_cell_length_c 13.826620
_cell_angle_alpha 90.000000
_cell_angle_beta 90.000000
_cell_angle_gamma 120.000000
_cell_volume 1336.208323
_symmetry_space_group_name_H-M "R 3"
_symmetry_group_IT_number 146
_symmetry_cell_setting 'hexagonal'
loop_
_space_group_symop_operation_xyz
x,y,z
-y,x-y,z
-x+y,-x,z
2/3+x,1/3+y,1/3+z
2/3-y,1/3+x-y,1/3+z
2/3-x+y,1/3-x,1/3+z
1/3+x,2/3+y,2/3+z
1/3-y,2/3+x-y,2/3+z
1/3-x+y,2/3-x,2/3+z
loop_
_atom_site_type_symbol
_atom_site_label
_atom_site_fract_x
_atom_site_fract_y
_atom_site_fract_z
Si Si1 0.000000 0.000000 0.681896
Si Si2 0.666667 0.333334 0.243901
Si Si3 0.996699 0.729587 0.144393
Si Si4 0.570867 0.670972 0.703941
Si Si5 0.480510 0.474581 0.004543
O O1 0.944978 0.840629 0.639526
O O2 0.000000 0.000000 0.796951
O O3 0.826355 0.363592 0.278083
O O4 0.014879 0.755247 0.259762
O O5 0.834614 0.685205 0.105277
O O6 0.112495 0.883117 0.101523
O O7 0.024205 0.598885 0.108897
O O8 0.686953 0.621191 0.672440
#
# Coordination Sequence:
#
# PCOD8321549 Si02
#       5
#     3   3   9   9   9
#     4  12  27  42  78 106 152 190 255 312 381 448
#     4   9  24  48  78 103 134 214 243 309 387 436
#     4  11  28  48  75 111 146 202 249 315 388 439
#     4  10  25  50  77 101 151 193 262 309 374 463
#     4  12  28  46  76 111 149 199 255 313 382 454
#
# _framework density 24.696747999999999
#
# number of rings (size 3 to 8) (size 9 to 14) (size 15 to 20)
#    0.000    1.091    2.727    0.545   19.091    0.000 
#    1.636    0.000    0.000    0.000    0.000    0.000 
#    0.000    0.000    0.000    0.000    0.000    0.000 
#
# Total GULP energy -136387.859656 kJ/mol
# GULP energy per Si atom -12398.896332 kJ/mol
# Density = 2.464054 g / cm^3
# Si number density = 24.696748 Si / 1000 Ang^3
#
#
#
# Elastic Constant Matrix: (Units=GPa)
#
#
# Indices 1 2 3 4 5 6 
#
# 1 72.6631 -5.5351 2.0620 -1.4881 1.1492 0.0000
# 2 -5.5351 72.6634 2.0625 1.4880 -1.1489 -0.0001
# 3 2.0620 2.0625 36.7731 0.0001 0.0004 -0.0001
# 4 -1.4881 1.4880 0.0001 28.5734 0.0000 -1.1491
# 5 1.1492 -1.1489 0.0004 0.0000 28.5735 -1.4882
# 6 0.0000 -0.0001 -0.0001 -1.1491 -1.4882 39.0990
#
#
#
# Elastic Compliance Matrix: (Units=1/GPa)
#
#
# Indices 1 2 3 4 5 6 
#
# 1 0.013889 0.001060 -0.000838 0.000668 -0.000516 0.000000
# 2 0.001060 0.013888 -0.000838 -0.000668 0.000516 0.000000
# 3 -0.000838 -0.000838 0.027288 0.000000 0.000000 0.000000
# 4 0.000668 -0.000668 0.000000 0.035109 0.000000 0.001032
# 5 -0.000516 0.000516 0.000000 0.000000 0.035109 0.001336
# 6 0.000000 0.000000 0.000000 0.001032 0.001336 0.025657
#
#
# Mechanical properties :
#
#
# Convention : Reuss Voigt Hill
#
# Bulk Modulus (GPa) = 18.57652 19.91981 19.24816
# Shear Modulus (GPa) = 29.39163 31.48321 30.43742
#
# Velocity S-wave (km/s) = 3.45353 3.57430 3.51443
# Velocity P-wave (km/s) = 4.84155 5.01173 4.92737
#
# Compressibility (1/GPa) = 0.05383141
#
# Stress axis : x y z
#
# Youngs Moduli (GPa) = 72.00198 72.00228 36.64637
#
# Poissons Ratio (x) = -0.07632 0.03072
# Poissons Ratio (y) = -0.07632 0.03072
# Poissons Ratio (z) = 0.06035 0.06037
#
# Static dielectric constant tensor:
#      x y z
#    x 4.747990 0.000000 0.000000 
#    y 0.000000 4.748000 0.000000 
#    z 0.000000 0.000000 4.385280 
# 
# 
# High freq. dielectric constant tensor:
#      x y z
#    x 1.988340 0.000000 0.000000 
#    y 0.000000 1.988340 0.000000 
#    z 0.000000 0.000000 1.971280 
# 
# From -- ./inp_files/1339.got.cif
#   From: 2010.06.25/outbox.cif.g09.slc.cpg/sg146_cif.got.tgz:1339.got - 2010.06.28 11:17:22.
