data_PCOD8321685
_publ_section_title
;
Structure prediction by ZEFSAII (Michael W. Deem and Ramdas Pophale) SiO2 
 PCOD8321685
Probable space group: R -3
;
_chemical_formula_sum "Si O2"
_cell_formula_units_Z 108
_cell_length_a 17.675187
_cell_length_b 17.675187
_cell_length_c 26.638647
_cell_angle_alpha 90.000000
_cell_angle_beta 90.000000
_cell_angle_gamma 120.000000
_cell_volume 7207.270615
_symmetry_space_group_name_H-M "R -3"
_symmetry_group_IT_number 148
_symmetry_cell_setting 'hexagonal'
loop_
_space_group_symop_operation_xyz
x,y,z
-y,x-y,z
-x+y,-x,z
-x,-y,-z
y,-x+y,-z
x-y,x,-z
2/3+x,1/3+y,1/3+z
2/3-y,1/3+x-y,1/3+z
2/3-x+y,1/3-x,1/3+z
2/3-x,1/3-y,1/3-z
2/3+y,1/3-x+y,1/3-z
2/3+x-y,1/3+x,1/3-z
1/3+x,2/3+y,2/3+z
1/3-y,2/3+x-y,2/3+z
1/3-x+y,2/3-x,2/3+z
1/3-x,2/3-y,2/3-z
1/3+y,2/3-x+y,2/3-z
1/3+x-y,2/3+x,2/3-z
loop_
_atom_site_type_symbol
_atom_site_label
_atom_site_fract_x
_atom_site_fract_y
_atom_site_fract_z
Si Si1 0.000439 0.173049 0.628403
Si Si2 0.932737 0.242955 0.545085
Si Si3 0.173049 0.000439 0.371597
Si Si4 0.643551 0.909621 0.211752
Si Si5 0.506407 0.666058 0.410463
Si Si6 0.999391 0.173074 0.256203
O O1 0.979343 0.235454 0.595059
O O2 0.091956 0.183912 0.610700
O O3 0.004060 0.201534 0.685971
O O4 0.927745 0.072255 0.620968
O O5 0.850274 0.149726 0.530681
O O6 0.902818 0.313639 0.555500
O O7 0.000000 0.275973 0.500000
O O8 0.235454 0.979343 0.404942
O O9 0.201534 0.004060 0.314029
O O10 0.744154 0.980306 0.222167
O O11 0.425734 0.574266 0.428210
O O12 0.479557 0.739779 0.417673
#
# Coordination Sequence:
#
# PCOD8321685 Si02
#       6
#    18  18  18  18  18  18
#     4   9  16  27  43  62  83 107 135 164 194 231
#     4  10  19  29  41  59  84 111 135 161 196 238
#     4   9  16  27  43  62  83 107 135 164 194 231
#     4  10  19  29  41  59  84 111 135 161 196 238
#     4   9  17  29  45  62  79 102 134 171 205 235
#     4   9  17  29  45  62  79 102 134 171 205 235
#
# _framework density 14.984868000000001
#
# number of rings (size 3 to 8) (size 9 to 14) (size 15 to 20)
#    0.000    2.667    0.000    2.667    0.000    7.333 
#    0.000    0.000    0.000    5.333    0.000    0.000 
#    0.000    0.000    0.000    0.000    0.000  101.000 
#
# Total GULP energy -446399.115936 kJ/mol
# GULP energy per Si atom -12399.975443 kJ/mol
# Density = 1.495076 g / cm^3
# Si number density = 14.984868 Si / 1000 Ang^3
#
#
#
# Elastic Constant Matrix: (Units=GPa)
#
#
# Indices 1 2 3 4 5 6 
#
# 1 93.3991 54.4771 43.6675 -0.9586 0.0000 0.0000
# 2 54.4771 93.3991 43.6675 0.9586 0.0000 0.0000
# 3 43.6675 43.6675 59.9224 0.0000 0.0000 0.0000
# 4 -0.9586 0.9586 0.0000 23.0563 0.0000 0.0000
# 5 0.0000 0.0000 0.0000 0.0000 23.0563 -0.9586
# 6 0.0000 0.0000 0.0000 0.0000 -0.9586 19.4610
#
#
#
# Elastic Compliance Matrix: (Units=1/GPa)
#
#
# Indices 1 2 3 4 5 6 
#
# 1 0.018809 -0.006937 -0.008651 0.001070 0.000000 0.000000
# 2 -0.006937 0.018809 -0.008651 -0.001070 0.000000 0.000000
# 3 -0.008651 -0.008651 0.029297 0.000000 0.000000 0.000000
# 4 0.001070 -0.001070 0.000000 0.043461 0.000000 0.000000
# 5 0.000000 0.000000 0.000000 0.000000 0.043461 0.002141
# 6 0.000000 0.000000 0.000000 0.000000 0.002141 0.051490
#
#
# Mechanical properties :
#
#
# Convention : Reuss Voigt Hill
#
# Bulk Modulus (GPa) = 54.24331 58.92718 56.58524
# Shear Modulus (GPa) = 19.23438 20.10863 19.67151
#
# Velocity S-wave (km/s) = 3.58660 3.66721 3.62713
# Velocity P-wave (km/s) = 7.30951 7.57239 7.44211
#
# Compressibility (1/GPa) = 0.01843545
#
# Stress axis : x y z
#
# Youngs Moduli (GPa) = 53.16743 53.16743 34.13261
#
# Poissons Ratio (x) = 0.36880 0.29530
# Poissons Ratio (y) = 0.36880 0.29530
# Poissons Ratio (z) = 0.45998 0.45998
#
# Static dielectric constant tensor:
#      x y z
#    x 2.853890 0.000000 0.000000 
#    y 0.000000 2.853890 0.000000 
#    z 0.000000 0.000000 2.785650 
# 
# 
# High freq. dielectric constant tensor:
#      x y z
#    x 1.568790 0.000000 0.000000 
#    y 0.000000 1.568790 0.000000 
#    z 0.000000 0.000000 1.560310 
# 
# From -- ./inp_files/3084.got.cif
#   From: 2010.03.12/outbox.cif.g09.slc.cpg/sg148_2_cif.got.tgz:3084.got - 2010.04.03 13:38:46.
