data_PCOD8321067
_publ_section_title
;
Structure prediction by ZEFSAII (Michael W. Deem and Ramdas Pophale) SiO2 
 PCOD8321067
Probable space group: I 41/A C D
;
_chemical_formula_sum "Si O2"
_cell_formula_units_Z 176
_cell_length_a 17.739251
_cell_length_b 17.739251
_cell_length_c 27.652417
_cell_angle_alpha 90.000000
_cell_angle_beta 90.000000
_cell_angle_gamma 90.000000
_cell_volume 8701.690954
_symmetry_space_group_name_H-M "I 41/A C D"
_symmetry_group_IT_number 142
_space_group.IT_coordinate_system_code '2'
_symmetry_cell_setting 'tetragonal'
loop_
_space_group_symop_operation_xyz
x,y,z
1/4-y,3/4+x,1/4+z
-x,1/2-y,z
1/4+y,1/4-x,3/4+z
x,-y,1/2-z
1/2-x,y,-z
3/4+y,1/4+x,1/4-z
1/4-y,1/4-x,1/4-z
-x,-y,-z
3/4+y,1/4-x,3/4-z
x,1/2+y,-z
3/4-y,3/4+x,1/4-z
-x,y,1/2+z
1/2+x,-y,z
1/4-y,3/4-x,3/4+z
3/4+y,3/4+x,3/4+z
1/2+x,1/2+y,1/2+z
3/4-y,1/4+x,3/4+z
1/2-x,-y,1/2+z
3/4+y,3/4-x,1/4+z
1/2+x,1/2-y,-z
-x,1/2+y,1/2-z
1/4+y,3/4+x,3/4-z
3/4-y,3/4-x,3/4-z
1/2-x,1/2-y,1/2-z
1/4+y,3/4-x,1/4-z
1/2+x,y,1/2-z
1/4-y,1/4+x,3/4-z
1/2-x,1/2+y,z
x,1/2-y,1/2+z
3/4-y,1/4-x,1/4+z
1/4+y,1/4+x,1/4+z
loop_
_atom_site_type_symbol
_atom_site_label
_atom_site_fract_x
_atom_site_fract_y
_atom_site_fract_z
Si Si1 0.872623 0.530418 0.676550
Si Si2 0.910949 0.170178 0.860826
Si Si3 0.081215 0.272127 0.674371
Si Si4 0.502936 0.500000 0.250000
Si Si5 0.744057 0.000000 0.250000
Si Si6 0.368368 0.867322 0.496082
Si Si7 0.876013 0.126013 0.125000
O O1 0.870125 0.598508 0.638393
O O2 0.794461 0.528488 0.705526
O O3 0.883491 0.451564 0.651661
O O4 0.945541 0.540177 0.710163
O O5 0.895495 0.258491 0.868309
O O6 0.908785 0.154534 0.803983
O O7 0.070158 0.320158 0.625000
O O8 0.130694 0.317015 0.713733
O O9 0.123391 0.194204 0.663268
O O10 0.000000 0.250000 0.696771
O O11 0.448139 0.434045 0.269525
O O12 0.693171 0.928433 0.264345
#
# Coordination Sequence:
#
# PCOD8321067 Si02
#       7
#    32  32  32  16  16  32  16
#     4  11  22  43  61  89 131 171 215 273 329 399
#     4  11  25  42  66 100 129 173 216 278 339 391
#     4   9  20  38  63  99 128 171 225 277 325 385
#     4  10  20  38  64  84 124 180 210 256 336 392
#     4  10  26  42  64  98 128 180 224 268 336 384
#     4  11  22  42  65  97 131 170 225 272 324 404
#     4  10  21  38  64  90 126 170 215 268 340 386
#
# _framework density 20.225953000000001
#
# number of rings (size 3 to 8) (size 9 to 14) (size 15 to 20)
#    0.000    1.818    1.818    3.273    2.545    4.364 
#    8.182    2.727    0.000    0.000    0.000    0.000 
#    0.000    0.000    0.000    0.000    0.000    0.000 
#
# Total GULP energy -1091232.535460 kJ/mol
# GULP energy per Si atom -12400.369721 kJ/mol
# Density = 2.017992 g / cm^3
# Si number density = 20.225953 Si / 1000 Ang^3
#
#
#
# Elastic Constant Matrix: (Units=GPa)
#
#
# Indices 1 2 3 4 5 6 
#
# 1 103.5244 38.7057 49.5530 0.0000 0.0000 0.0000
# 2 38.7057 103.5244 49.5530 0.0000 0.0000 0.0000
# 3 49.5530 49.5530 93.2068 0.0000 0.0000 0.0000
# 4 0.0000 0.0000 0.0000 25.7819 0.0000 0.0000
# 5 0.0000 0.0000 0.0000 0.0000 25.7819 0.0000
# 6 0.0000 0.0000 0.0000 0.0000 0.0000 21.0440
#
#
#
# Elastic Compliance Matrix: (Units=1/GPa)
#
#
# Indices 1 2 3 4 5 6 
#
# 1 0.013298 -0.002130 -0.005937 0.000000 0.000000 0.000000
# 2 -0.002130 0.013298 -0.005937 0.000000 0.000000 0.000000
# 3 -0.005937 -0.005937 0.017042 0.000000 0.000000 0.000000
# 4 0.000000 0.000000 0.000000 0.038787 0.000000 0.000000
# 5 0.000000 0.000000 0.000000 0.000000 0.038787 0.000000
# 6 0.000000 0.000000 0.000000 0.000000 0.000000 0.047520
#
#
# Mechanical properties :
#
#
# Convention : Reuss Voigt Hill
#
# Bulk Modulus (GPa) = 63.98607 63.98655 63.98631
# Shear Modulus (GPa) = 24.75860 25.35115 25.05487
#
# Velocity S-wave (km/s) = 3.50251 3.54418 3.52340
# Velocity P-wave (km/s) = 6.93261 6.96080 6.94672
#
# Compressibility (1/GPa) = 0.01562840
#
# Stress axis : x y z
#
# Youngs Moduli (GPa) = 75.20002 75.20002 58.67831
#
# Poissons Ratio (x) = 0.16016 0.34840
# Poissons Ratio (y) = 0.16016 0.34840
# Poissons Ratio (z) = 0.44650 0.44650
#
# Static dielectric constant tensor:
#      x y z
#    x 3.670920 0.000000 0.000000 
#    y 0.000000 3.670920 0.000000 
#    z 0.000000 0.000000 3.533580 
# 
# 
# High freq. dielectric constant tensor:
#      x y z
#    x 1.793420 0.000000 0.000000 
#    y 0.000000 1.793420 0.000000 
#    z 0.000000 0.000000 1.785690 
# 
# From -- ./inp_files/11522.got.cif
#   From: 2010.03.12/outbox.cif.g09.slc.cpg/sg142_6_cif.got.tgz:11522.got - 2010.04.03 13:27:16.
