data_PCOD8321051
_publ_section_title
;
Structure prediction by ZEFSAII (Michael W. Deem and Ramdas Pophale) SiO2 
 PCOD8321051
Probable space group: I 41/A C D
;
_chemical_formula_sum "Si O2"
_cell_formula_units_Z 144
_cell_length_a 28.151826
_cell_length_b 28.151826
_cell_length_c 9.378288
_cell_angle_alpha 90.000000
_cell_angle_beta 90.000000
_cell_angle_gamma 90.000000
_cell_volume 7432.530578
_symmetry_space_group_name_H-M "I 41/A C D"
_symmetry_group_IT_number 142
_space_group.IT_coordinate_system_code '2'
_symmetry_cell_setting 'tetragonal'
loop_
_space_group_symop_operation_xyz
x,y,z
1/4-y,3/4+x,1/4+z
-x,1/2-y,z
1/4+y,1/4-x,3/4+z
x,-y,1/2-z
1/2-x,y,-z
3/4+y,1/4+x,1/4-z
1/4-y,1/4-x,1/4-z
-x,-y,-z
3/4+y,1/4-x,3/4-z
x,1/2+y,-z
3/4-y,3/4+x,1/4-z
-x,y,1/2+z
1/2+x,-y,z
1/4-y,3/4-x,3/4+z
3/4+y,3/4+x,3/4+z
1/2+x,1/2+y,1/2+z
3/4-y,1/4+x,3/4+z
1/2-x,-y,1/2+z
3/4+y,3/4-x,1/4+z
1/2+x,1/2-y,-z
-x,1/2+y,1/2-z
1/4+y,3/4+x,3/4-z
3/4-y,3/4-x,3/4-z
1/2-x,1/2-y,1/2-z
1/4+y,3/4-x,1/4-z
1/2+x,y,1/2-z
1/4-y,1/4+x,3/4-z
1/2-x,1/2+y,z
x,1/2-y,1/2+z
3/4-y,1/4-x,1/4+z
1/4+y,1/4+x,1/4+z
loop_
_atom_site_type_symbol
_atom_site_label
_atom_site_fract_x
_atom_site_fract_y
_atom_site_fract_z
Si Si1 0.202124 0.000000 0.250000
Si Si2 0.798069 0.723627 0.427205
Si Si3 0.361234 0.739758 0.337624
Si Si4 0.087542 0.350402 0.961270
Si Si5 0.374917 0.576086 0.250431
O O1 0.170195 0.044825 0.293630
O O2 0.237415 0.987415 0.375000
O O3 0.750000 0.745890 0.500000
O O4 0.843027 0.744160 0.509302
O O5 0.813722 0.735533 0.263860
O O6 0.793095 0.666972 0.440297
O O7 0.398690 0.780046 0.287929
O O8 0.391299 0.691973 0.363850
O O9 0.107925 0.398523 0.893776
O O10 0.102413 0.352413 0.125000
O O11 0.362963 0.612963 0.125000
#
# Coordination Sequence:
#
# PCOD8321051 Si02
#       5
#    16  32  32  32  32
#     4  10  22  40  62  92 120 160 210 258 308 384
#     4  11  21  38  61  90 122 156 206 257 309 373
#     4  11  23  39  62  90 125 163 209 258 312 383
#     4  11  23  41  61  91 128 164 208 260 319 379
#     4  10  20  37  64  84 119 164 199 249 315 375
#
# _framework density 19.374289999999998
#
# number of rings (size 3 to 8) (size 9 to 14) (size 15 to 20)
#    0.000    1.333    5.556    0.667    0.000    1.333 
#    0.000    1.111    2.444    0.000    0.000    0.000 
#    0.000    0.000    0.000    0.000    0.000    0.000 
#
# Total GULP energy -892138.814627 kJ/mol
# GULP energy per Si atom -12390.816870 kJ/mol
# Density = 1.933019 g / cm^3
# Si number density = 19.374290 Si / 1000 Ang^3
#
#
#
# Elastic Constant Matrix: (Units=GPa)
#
#
# Indices 1 2 3 4 5 6 
#
# 1 70.6266 30.5928 32.5623 0.0000 0.0000 0.0000
# 2 30.5928 70.6266 32.5623 0.0000 0.0000 0.0000
# 3 32.5623 32.5623 104.5717 0.0000 0.0000 0.0000
# 4 0.0000 0.0000 0.0000 26.2182 0.0000 0.0000
# 5 0.0000 0.0000 0.0000 0.0000 26.2182 0.0000
# 6 0.0000 0.0000 0.0000 0.0000 0.0000 29.7585
#
#
#
# Elastic Compliance Matrix: (Units=1/GPa)
#
#
# Indices 1 2 3 4 5 6 
#
# 1 0.018667 -0.006312 -0.003847 0.000000 0.000000 0.000000
# 2 -0.006312 0.018667 -0.003847 0.000000 0.000000 0.000000
# 3 -0.003847 -0.003847 0.011959 0.000000 0.000000 0.000000
# 4 0.000000 0.000000 0.000000 0.038141 0.000000 0.000000
# 5 0.000000 0.000000 0.000000 0.000000 0.038141 0.000000
# 6 0.000000 0.000000 0.000000 0.000000 0.000000 0.033604
#
#
# Mechanical properties :
#
#
# Convention : Reuss Voigt Hill
#
# Bulk Modulus (GPa) = 46.99299 48.58441 47.78870
# Shear Modulus (GPa) = 25.73541 26.44616 26.09078
#
# Velocity S-wave (km/s) = 3.64858 3.69862 3.67368
# Velocity P-wave (km/s) = 6.48517 6.58566 6.53561
#
# Compressibility (1/GPa) = 0.02127977
#
# Stress axis : x y z
#
# Youngs Moduli (GPa) = 53.57098 53.57098 83.62112
#
# Poissons Ratio (x) = 0.33814 0.32170
# Poissons Ratio (y) = 0.33814 0.32170
# Poissons Ratio (z) = 0.20609 0.20609
#
# Static dielectric constant tensor:
#      x y z
#    x 3.526220 0.000000 0.000000 
#    y 0.000000 3.526220 0.000000 
#    z 0.000000 0.000000 3.496260 
# 
# 
# High freq. dielectric constant tensor:
#      x y z
#    x 1.751570 0.000000 0.000000 
#    y 0.000000 1.751570 0.000000 
#    z 0.000000 0.000000 1.759530 
# 
# From -- ./inp_files/2104.got.cif
#   From: 2010.03.12/outbox.cif.g09.slc.cpg/sg142_2_cif.got.tgz:2104.got - 2010.04.03 13:27:16.
