data_PCOD8321124
_publ_section_title
;
Structure prediction by ZEFSAII (Michael W. Deem and Ramdas Pophale) SiO2 
 PCOD8321124
Probable space group: I 41/A C D
;
_chemical_formula_sum "Si O2"
_cell_formula_units_Z 136
_cell_length_a 23.299690
_cell_length_b 23.299690
_cell_length_c 12.563022
_cell_angle_alpha 90.000000
_cell_angle_beta 90.000000
_cell_angle_gamma 90.000000
_cell_volume 6820.157529
_symmetry_space_group_name_H-M "I 41/A C D"
_symmetry_group_IT_number 142
_space_group.IT_coordinate_system_code '2'
_symmetry_cell_setting 'tetragonal'
loop_
_space_group_symop_operation_xyz
x,y,z
1/4-y,3/4+x,1/4+z
-x,1/2-y,z
1/4+y,1/4-x,3/4+z
x,-y,1/2-z
1/2-x,y,-z
3/4+y,1/4+x,1/4-z
1/4-y,1/4-x,1/4-z
-x,-y,-z
3/4+y,1/4-x,3/4-z
x,1/2+y,-z
3/4-y,3/4+x,1/4-z
-x,y,1/2+z
1/2+x,-y,z
1/4-y,3/4-x,3/4+z
3/4+y,3/4+x,3/4+z
1/2+x,1/2+y,1/2+z
3/4-y,1/4+x,3/4+z
1/2-x,-y,1/2+z
3/4+y,3/4-x,1/4+z
1/2+x,1/2-y,-z
-x,1/2+y,1/2-z
1/4+y,3/4+x,3/4-z
3/4-y,3/4-x,3/4-z
1/2-x,1/2-y,1/2-z
1/4+y,3/4-x,1/4-z
1/2+x,y,1/2-z
1/4-y,1/4+x,3/4-z
1/2-x,1/2+y,z
x,1/2-y,1/2+z
3/4-y,1/4-x,1/4+z
1/4+y,1/4+x,1/4+z
loop_
_atom_site_type_symbol
_atom_site_label
_atom_site_fract_x
_atom_site_fract_y
_atom_site_fract_z
Si Si1 0.000000 0.250000 0.875000
Si Si2 0.401810 0.299203 0.980003
Si Si3 0.811924 0.204053 0.537369
Si Si4 0.363159 0.594228 0.384699
Si Si5 0.358865 0.466635 0.446893
O O1 0.984984 0.305736 0.806663
O O2 0.436134 0.313867 0.875000
O O3 0.350243 0.259061 0.941319
O O4 0.374256 0.354991 0.033410
O O5 0.750000 0.225711 0.500000
O O6 0.841031 0.165574 0.446961
O O7 0.806394 0.168134 0.646171
O O8 0.356585 0.535357 0.449985
O O9 0.305077 0.605531 0.317946
O O10 0.305849 0.444152 0.375000
#
# Coordination Sequence:
#
# PCOD8321124 Si02
#       5
#     8  32  32  32  32
#     4  12  26  44  64  86 132 176 206 272 320 378
#     4  12  26  40  62  95 128 164 218 263 318 372
#     4   9  20  39  63  90 120 164 214 257 315 383
#     4  10  21  40  63  93 126 166 209 261 317 378
#     4   9  19  38  68  92 121 168 214 252 316 387
#
# _framework density 19.940888000000001
#
# number of rings (size 3 to 8) (size 9 to 14) (size 15 to 20)
#    0.000    1.882    2.353    2.471    3.294    3.765 
#    0.000   10.588    0.000    0.000    0.000    0.000 
#    0.000    0.000    0.000    0.000    0.000    0.000 
#
# Total GULP energy -843442.662121 kJ/mol
# GULP energy per Si atom -12403.568561 kJ/mol
# Density = 1.989550 g / cm^3
# Si number density = 19.940888 Si / 1000 Ang^3
#
#
#
# Elastic Constant Matrix: (Units=GPa)
#
#
# Indices 1 2 3 4 5 6 
#
# 1 122.1930 67.3261 34.6125 0.0000 0.0000 0.0000
# 2 67.3261 122.1908 34.6122 0.0000 0.0000 0.0000
# 3 34.6125 34.6122 74.6084 0.0000 0.0000 0.0000
# 4 0.0000 0.0000 0.0000 16.2935 0.0000 0.0000
# 5 0.0000 0.0000 0.0000 0.0000 16.2960 0.0000
# 6 0.0000 0.0000 0.0000 0.0000 0.0000 31.2069
#
#
#
# Elastic Compliance Matrix: (Units=1/GPa)
#
#
# Indices 1 2 3 4 5 6 
#
# 1 0.012290 -0.005937 -0.002947 0.000000 0.000000 0.000000
# 2 -0.005937 0.012290 -0.002947 0.000000 0.000000 0.000000
# 3 -0.002947 -0.002947 0.016138 0.000000 0.000000 0.000000
# 4 0.000000 0.000000 0.000000 0.061374 0.000000 0.000000
# 5 0.000000 0.000000 0.000000 0.000000 0.061365 0.000000
# 6 0.000000 0.000000 0.000000 0.000000 0.000000 0.032044
#
#
# Mechanical properties :
#
#
# Convention : Reuss Voigt Hill
#
# Bulk Modulus (GPa) = 58.63435 65.78820 62.21127
# Shear Modulus (GPa) = 22.23724 24.92204 23.57964
#
# Velocity S-wave (km/s) = 3.34302 3.53908 3.44245
# Velocity P-wave (km/s) = 6.66100 7.05431 6.86048
#
# Compressibility (1/GPa) = 0.01705485
#
# Stress axis : x y z
#
# Youngs Moduli (GPa) = 81.36967 81.36817 61.96561
#
# Poissons Ratio (x) = 0.48305 0.18263
# Poissons Ratio (y) = 0.48306 0.18264
# Poissons Ratio (z) = 0.23982 0.23982
#
# Static dielectric constant tensor:
#      x y z
#    x 3.646470 0.000000 0.000000 
#    y 0.000000 3.646480 0.000000 
#    z 0.000000 0.000000 3.477990 
# 
# 
# High freq. dielectric constant tensor:
#      x y z
#    x 1.783540 0.000000 0.000000 
#    y 0.000000 1.783540 0.000000 
#    z 0.000000 0.000000 1.765920 
# 
# From -- ./inp_files/3568.got.cif
#   From: 2010.03.12/outbox.cif.g09.slc.cpg/sg142_2_cif.got.tgz:3568.got - 2010.04.03 13:27:16.
