data_PCOD8321577
_publ_section_title
;
Structure prediction by ZEFSAII (Michael W. Deem and Ramdas Pophale) SiO2 
 PCOD8321577
Probable space group: R 3
;
_chemical_formula_sum "Si O2"
_cell_formula_units_Z 42
_cell_length_a 15.399441
_cell_length_b 15.399441
_cell_length_c 9.424450
_cell_angle_alpha 90.000000
_cell_angle_beta 90.000000
_cell_angle_gamma 120.000000
_cell_volume 1935.515078
_symmetry_space_group_name_H-M "R 3"
_symmetry_group_IT_number 146
_symmetry_cell_setting 'hexagonal'
loop_
_space_group_symop_operation_xyz
x,y,z
-y,x-y,z
-x+y,-x,z
2/3+x,1/3+y,1/3+z
2/3-y,1/3+x-y,1/3+z
2/3-x+y,1/3-x,1/3+z
1/3+x,2/3+y,2/3+z
1/3-y,2/3+x-y,2/3+z
1/3-x+y,2/3-x,2/3+z
loop_
_atom_site_type_symbol
_atom_site_label
_atom_site_fract_x
_atom_site_fract_y
_atom_site_fract_z
Si Si1 0.000000 0.000000 0.739655
Si Si2 0.820275 0.152956 0.362377
Si Si3 0.052710 0.432938 0.145610
Si Si4 0.165574 0.948659 0.785755
Si Si5 0.487089 0.879828 0.961147
Si Si6 0.000000 0.000000 0.395750
O O1 0.900430 0.909204 0.807942
O O2 0.000000 0.000000 0.567267
O O3 0.797849 0.179471 0.205505
O O4 0.742464 0.165921 0.463103
O O5 0.935178 0.219262 0.414366
O O6 0.789049 0.036999 0.361017
O O7 0.102748 0.497885 0.284488
O O8 0.037919 0.504677 0.035766
O O9 0.940816 0.351562 0.187575
O O10 0.385843 0.776993 0.996177
#
# Coordination Sequence:
#
# PCOD8321577 Si02
#       6
#     3   9   9   9   9   3
#     4  12  27  46  71 115 138 196 236 292 369 409
#     4  12  27  46  71 115 138 196 236 292 369 409
#     4  12  24  46  77 103 147 196 233 289 363 433
#     4  12  26  46  74 104 148 184 242 290 356 430
#     4  12  26  46  74 104 148 184 242 290 356 430
#     4  12  24  46  77 103 147 196 233 289 363 433
#
# _framework density 21.699649999999998
#
# number of rings (size 3 to 8) (size 9 to 14) (size 15 to 20)
#    0.000    0.000    8.571    0.000    0.000    6.857 
#    0.000    0.000    0.000    0.000    0.000    0.000 
#    0.000    0.000    0.000    0.000    0.000    0.000 
#
# Total GULP energy -173553.107076 kJ/mol
# GULP energy per Si atom -12396.650505 kJ/mol
# Density = 2.165026 g / cm^3
# Si number density = 21.699650 Si / 1000 Ang^3
#
#
#
# Elastic Constant Matrix: (Units=GPa)
#
#
# Indices 1 2 3 4 5 6 
#
# 1 101.3682 32.3632 31.0085 2.1704 -4.1437 0.0000
# 2 32.3632 101.3682 31.0085 -2.1704 4.1437 0.0000
# 3 31.0085 31.0085 107.8655 0.0000 0.0000 0.0000
# 4 2.1704 -2.1704 0.0000 37.1081 0.0000 4.1437
# 5 -4.1437 4.1437 0.0000 0.0000 37.1081 2.1704
# 6 0.0000 0.0000 0.0000 4.1437 2.1704 34.5025
#
#
#
# Elastic Compliance Matrix: (Units=1/GPa)
#
#
# Indices 1 2 3 4 5 6 
#
# 1 0.011686 -0.003058 -0.002480 -0.000862 0.001646 0.000000
# 2 -0.003058 0.011686 -0.002480 0.000862 -0.001646 0.000000
# 3 -0.002480 -0.002480 0.010697 0.000000 0.000000 0.000000
# 4 -0.000862 0.000862 0.000000 0.027417 0.000000 -0.003293
# 5 0.001646 -0.001646 0.000000 0.000000 0.027417 -0.001725
# 6 0.000000 0.000000 0.000000 -0.003293 -0.001725 0.029487
#
#
# Mechanical properties :
#
#
# Convention : Reuss Voigt Hill
#
# Bulk Modulus (GPa) = 55.45861 55.48468 55.47165
# Shear Modulus (GPa) = 35.60317 36.15852 35.88084
#
# Velocity S-wave (km/s) = 4.05498 4.08648 4.07076
# Velocity P-wave (km/s) = 6.89469 6.92031 6.90751
#
# Compressibility (1/GPa) = 0.01803146
#
# Stress axis : x y z
#
# Youngs Moduli (GPa) = 85.57404 85.57404 93.48553
#
# Poissons Ratio (x) = 0.26168 0.23187
# Poissons Ratio (y) = 0.26168 0.23187
# Poissons Ratio (z) = 0.21225 0.21225
#
# Static dielectric constant tensor:
#      x y z
#    x 3.938000 0.000000 0.000000 
#    y 0.000000 3.938000 0.000000 
#    z 0.000000 0.000000 3.869870 
# 
# 
# High freq. dielectric constant tensor:
#      x y z
#    x 1.857600 0.000000 0.000000 
#    y 0.000000 1.857600 0.000000 
#    z 0.000000 0.000000 1.856590 
# 
# From -- ./inp_files/1103.got.cif
#   From: 2010.06.25/outbox.cif.g09.slc.cpg/sg146_cif.got.tgz:1103.got - 2010.06.28 11:17:22.
