data_PCOD8321720
_publ_section_title
;
Structure prediction by ZEFSAII (Michael W. Deem and Ramdas Pophale) SiO2 
 PCOD8321720
Probable space group: R -3
;
_chemical_formula_sum "Si O2"
_cell_formula_units_Z 108
_cell_length_a 21.996258
_cell_length_b 21.996258
_cell_length_c 14.105887
_cell_angle_alpha 90.000000
_cell_angle_beta 90.000000
_cell_angle_gamma 120.000000
_cell_volume 5910.560160
_symmetry_space_group_name_H-M "R -3"
_symmetry_group_IT_number 148
_symmetry_cell_setting 'hexagonal'
loop_
_space_group_symop_operation_xyz
x,y,z
-y,x-y,z
-x+y,-x,z
-x,-y,-z
y,-x+y,-z
x-y,x,-z
2/3+x,1/3+y,1/3+z
2/3-y,1/3+x-y,1/3+z
2/3-x+y,1/3-x,1/3+z
2/3-x,1/3-y,1/3-z
2/3+y,1/3-x+y,1/3-z
2/3+x-y,1/3+x,1/3-z
1/3+x,2/3+y,2/3+z
1/3-y,2/3+x-y,2/3+z
1/3-x+y,2/3-x,2/3+z
1/3-x,2/3-y,2/3-z
1/3+y,2/3-x+y,2/3-z
1/3+x-y,2/3+x,2/3-z
loop_
_atom_site_type_symbol
_atom_site_label
_atom_site_fract_x
_atom_site_fract_y
_atom_site_fract_z
Si Si1 0.901232 0.158410 0.176151
Si Si2 0.728235 0.491800 0.308270
Si Si3 0.901232 0.742822 0.676151
Si Si4 0.872051 0.282729 0.450122
Si Si5 0.127949 0.410678 0.049878
Si Si6 0.236435 0.508200 0.191730
O O1 0.833334 0.166667 0.166667
O O2 0.895786 0.087397 0.130832
O O3 0.918191 0.162618 0.286621
O O4 0.966558 0.221653 0.121332
O O5 0.768509 0.455319 0.355206
O O6 0.745334 0.558042 0.371541
O O7 0.833334 0.666667 0.666667
O O8 0.918191 0.755573 0.786621
O O9 0.895786 0.808389 0.630833
O O10 0.966558 0.744905 0.621332
O O11 0.924399 0.257732 0.416666
O O12 0.187292 0.441958 0.128459
O O13 0.211347 0.564824 0.188539
#
# Coordination Sequence:
#
# PCOD8321720 Si02
#       6
#    18  18  18  18  18  18
#     4  10  20  37  57  82 117 149 189 237 290 345
#     4  10  21  38  59  84 115 153 192 238 290 349
#     4  10  20  37  57  82 117 149 189 237 290 345
#     4  10  20  37  57  85 117 147 192 243 287 345
#     4  10  20  37  57  85 117 147 192 243 287 345
#     4  10  21  38  59  84 115 153 192 238 290 349
#
# _framework density 18.272379000000001
#
# number of rings (size 3 to 8) (size 9 to 14) (size 15 to 20)
#    0.000    2.000    3.333    0.333    0.000    1.333 
#    6.000    0.000    0.000    4.000    0.000    0.000 
#    0.000    0.000    0.000    0.000    0.000    0.000 
#
# Total GULP energy -446124.354227 kJ/mol
# GULP energy per Si atom -12392.343173 kJ/mol
# Density = 1.823079 g / cm^3
# Si number density = 18.272379 Si / 1000 Ang^3
#
#
#
# Elastic Constant Matrix: (Units=GPa)
#
#
# Indices 1 2 3 4 5 6 
#
# 1 113.0239 61.2010 34.8484 -1.5244 -0.0001 0.0000
# 2 61.2010 113.0239 34.8484 1.5244 0.0001 0.0000
# 3 34.8484 34.8484 89.3814 0.0000 0.0000 0.0000
# 4 -1.5244 1.5244 0.0000 26.0013 0.0000 0.0001
# 5 -0.0001 0.0001 0.0000 0.0000 26.0013 -1.5244
# 6 0.0000 0.0000 0.0000 0.0001 -1.5244 25.9114
#
#
#
# Elastic Compliance Matrix: (Units=1/GPa)
#
#
# Indices 1 2 3 4 5 6 
#
# 1 0.013082 -0.006281 -0.002651 0.001135 0.000000 0.000000
# 2 -0.006281 0.013082 -0.002651 -0.001135 0.000000 0.000000
# 3 -0.002651 -0.002651 0.013255 0.000000 0.000000 0.000000
# 4 0.001135 -0.001135 0.000000 0.038593 0.000000 0.000000
# 5 0.000000 0.000000 0.000000 0.000000 0.038593 0.002270
# 6 0.000000 0.000000 0.000000 0.000000 0.002270 0.038727
#
#
# Mechanical properties :
#
#
# Convention : Reuss Voigt Hill
#
# Bulk Modulus (GPa) = 61.53561 64.13608 62.83584
# Shear Modulus (GPa) = 27.18627 27.88490 27.53558
#
# Velocity S-wave (km/s) = 3.86143 3.91073 3.88616
# Velocity P-wave (km/s) = 7.32331 7.45439 7.38914
#
# Compressibility (1/GPa) = 0.01625075
#
# Stress axis : x y z
#
# Youngs Moduli (GPa) = 76.44198 76.44198 75.44075
#
# Poissons Ratio (x) = 0.48017 0.20002
# Poissons Ratio (y) = 0.48017 0.20002
# Poissons Ratio (z) = 0.20267 0.20267
#
# Static dielectric constant tensor:
#      x y z
#    x 3.438530 0.000000 0.000000 
#    y 0.000000 3.438530 0.000000 
#    z 0.000000 0.000000 3.495810 
# 
# 
# High freq. dielectric constant tensor:
#      x y z
#    x 1.713800 0.000000 0.000000 
#    y 0.000000 1.713800 0.000000 
#    z 0.000000 0.000000 1.712570 
# 
# From -- ./inp_files/2031.got.cif
#   From: 2010.03.12/outbox.cif.g09.slc.cpg/sg148_2_cif.got.tgz:2031.got - 2010.04.03 13:38:46.
