data_PCOD8321899
_publ_section_title
;
Structure prediction by ZEFSAII (Michael W. Deem and Ramdas Pophale) SiO2 
 PCOD8321899
Probable space group: P 3 2 1
;
_chemical_formula_sum "Si O2"
_cell_formula_units_Z 24
_cell_length_a 8.402701
_cell_length_b 8.402701
_cell_length_c 18.625423
_cell_angle_alpha 90.000000
_cell_angle_beta 90.000000
_cell_angle_gamma 120.000000
_cell_volume 1138.871163
_symmetry_space_group_name_H-M "P 3 2 1"
_symmetry_group_IT_number 150
_symmetry_cell_setting 'hexagonal'
loop_
_space_group_symop_operation_xyz
x,y,z
-y,x-y,z
-x+y,-x,z
x-y,-y,-z
-x,-x+y,-z
y,x,-z
loop_
_atom_site_type_symbol
_atom_site_label
_atom_site_fract_x
_atom_site_fract_y
_atom_site_fract_z
Si Si1 0.323823 0.323870 0.143144
Si Si2 0.333513 0.461391 0.565605
Si Si3 0.802719 0.014118 0.301604
Si Si4 0.654187 0.656218 0.916082
O O1 0.307630 0.290906 0.227734
O O2 0.128817 0.263855 0.106539
O O3 0.466771 0.535916 0.127054
O O4 0.405797 0.207830 0.106548
O O5 0.513896 0.666705 0.563370
O O6 0.340985 0.340985 0.500000
O O7 0.324896 0.349979 0.636860
O O8 0.813270 0.826039 0.306922
O O9 0.619842 0.619842 0.000000
#
# Coordination Sequence:
#
# PCOD8321899 Si02
#       4
#     6   6   6   6
#     4  12  25  45  66 101 136 179 235 288 353 418
#     4  10  26  42  70 103 139 174 225 270 337 397
#     4  10  23  44  71  96 133 180 223 272 341 406
#     4  12  24  42  67  95 136 183 233 290 350 417
#
# _framework density 21.073499999999999
#
# number of rings (size 3 to 8) (size 9 to 14) (size 15 to 20)
#    1.000    0.000    2.500    3.750    7.000    0.000 
#    0.000    0.000    0.000    0.000    0.000    0.000 
#    0.000    0.000    0.000    0.000    0.000    0.000 
#
# Total GULP energy -297577.723590 kJ/mol
# GULP energy per Si atom -12399.071816 kJ/mol
# Density = 2.102554 g / cm^3
# Si number density = 21.073500 Si / 1000 Ang^3
#
#
#
# Elastic Constant Matrix: (Units=GPa)
#
#
# Indices 1 2 3 4 5 6 
#
# 1 89.4020 26.6834 69.1507 9.7543 0.0000 0.0000
# 2 26.6834 89.4020 69.1507 -9.7543 0.0000 0.0000
# 3 69.1507 69.1507 212.2606 0.0000 0.0000 0.0000
# 4 9.7543 -9.7543 0.0000 34.1704 0.0000 0.0000
# 5 0.0000 0.0000 0.0000 0.0000 34.1704 9.7543
# 6 0.0000 0.0000 0.0000 0.0000 9.7543 31.3593
#
#
#
# Elastic Compliance Matrix: (Units=1/GPa)
#
#
# Indices 1 2 3 4 5 6 
#
# 1 0.015788 -0.001710 -0.004587 -0.004995 0.000000 0.000000
# 2 -0.001710 0.015788 -0.004587 0.004995 0.000000 0.000000
# 3 -0.004587 -0.004587 0.007700 0.000000 0.000000 0.000000
# 4 -0.004995 0.004995 0.000000 0.032117 0.000000 0.000000
# 5 0.000000 0.000000 0.000000 0.000000 0.032117 -0.009990
# 6 0.000000 0.000000 0.000000 0.000000 -0.009990 0.034996
#
#
# Mechanical properties :
#
#
# Convention : Reuss Voigt Hill
#
# Bulk Modulus (GPa) = 57.10796 80.11491 68.61143
# Shear Modulus (GPa) = 30.10084 35.01201 32.55643
#
# Velocity S-wave (km/s) = 3.78348 4.08048 3.93478
# Velocity P-wave (km/s) = 6.80034 7.76530 7.29878
#
# Compressibility (1/GPa) = 0.01751069
#
# Stress axis : x y z
#
# Youngs Moduli (GPa) = 63.33796 63.33796 129.87609
#
# Poissons Ratio (x) = 0.10828 0.59569
# Poissons Ratio (y) = 0.10828 0.59569
# Poissons Ratio (z) = 0.29051 0.29051
#
# Static dielectric constant tensor:
#      x y z
#    x 3.622370 0.000000 0.000000 
#    y 0.000000 3.622370 0.000000 
#    z 0.000000 0.000000 3.676740 
# 
# 
# High freq. dielectric constant tensor:
#      x y z
#    x 1.819480 0.000000 0.000000 
#    y 0.000000 1.819480 0.000000 
#    z 0.000000 0.000000 1.832460 
# 
# From -- ./inp_files/1135.got.cif
#   From: 2010.03.12/outbox.cif.g09.slc.cpg/sg150_cif.got.tgz:1135.got - 2010.04.03 13:41:37.
