data_PCOD8321978
_publ_section_title
;
Structure prediction by ZEFSAII (Michael W. Deem and Ramdas Pophale) SiO2 
 PCOD8321978
Probable space group: P 31 1 2
;
_chemical_formula_sum "Si O2"
_cell_formula_units_Z 24
_cell_length_a 16.453838
_cell_length_b 16.453838
_cell_length_c 4.977361
_cell_angle_alpha 90.000000
_cell_angle_beta 90.000000
_cell_angle_gamma 120.000000
_cell_volume 1166.982132
_symmetry_space_group_name_H-M "P 31 1 2"
_symmetry_group_IT_number 151
_symmetry_cell_setting 'hexagonal'
loop_
_space_group_symop_operation_xyz
x,y,z
-y,x-y,1/3+z
-x+y,-x,2/3+z
-y,-x,2/3-z
-x+y,y,1/3-z
x,x-y,-z
loop_
_atom_site_type_symbol
_atom_site_label
_atom_site_fract_x
_atom_site_fract_y
_atom_site_fract_z
Si Si1 0.691111 0.487930 0.406027
Si Si2 0.443270 0.448059 0.098771
Si Si3 0.702535 0.755964 0.526508
Si Si4 0.995165 0.814011 0.300663
O O1 0.619369 0.380632 0.333334
O O2 0.746418 0.492835 0.666667
O O3 0.635826 0.543002 0.455658
O O4 0.767498 0.534995 0.166667
O O5 0.474115 0.525886 0.333334
O O6 0.331822 0.397987 0.051527
O O7 0.503917 0.496084 0.833334
O O8 0.687040 0.843520 0.500000
O O9 0.734430 0.745479 0.230064
O O10 0.784489 0.768821 0.736673
O O11 0.080883 0.919118 0.333334
O O12 0.910472 0.820944 0.166667
#
# Coordination Sequence:
#
# PCOD8321978 Si02
#       4
#     6   6   6   6
#     4  11  21  33  50  74 108 148 186 222 262 311
#     4  11  23  39  59  84 112 147 192 242 297 350
#     4  10  22  40  60  84 114 151 192 239 299 355
#     4  10  21  36  57  86 122 160 196 233 275 332
#
# _framework density 20.56587
#
# number of rings (size 3 to 8) (size 9 to 14) (size 15 to 20)
#    0.000    1.500    0.000    6.750    0.000    6.000 
#    0.000    0.000    0.000    1.500    0.000    0.000 
#    0.000    0.000    0.000    0.000    0.000    0.000 
#
# Total GULP energy -297387.371487 kJ/mol
# GULP energy per Si atom -12391.140479 kJ/mol
# Density = 2.051906 g / cm^3
# Si number density = 20.565870 Si / 1000 Ang^3
#
#
#
# Elastic Constant Matrix: (Units=GPa)
#
#
# Indices 1 2 3 4 5 6 
#
# 1 71.0169 48.1863 43.5930 0.0000 -1.1856 0.0000
# 2 48.1863 71.0169 43.5930 0.0000 1.1856 0.0000
# 3 43.5930 43.5930 148.7583 0.0000 0.0000 0.0000
# 4 0.0000 0.0000 0.0000 24.2697 0.0000 1.1856
# 5 -1.1856 1.1856 0.0000 0.0000 24.2697 0.0000
# 6 0.0000 0.0000 0.0000 1.1856 0.0000 11.4153
#
#
#
# Elastic Compliance Matrix: (Units=1/GPa)
#
#
# Indices 1 2 3 4 5 6 
#
# 1 0.027351 -0.016673 -0.003129 0.000000 0.002151 0.000000
# 2 -0.016673 0.027351 -0.003129 0.000000 -0.002151 0.000000
# 3 -0.003129 -0.003129 0.008556 0.000000 0.000000 0.000000
# 4 0.000000 0.000000 0.000000 0.041414 0.000000 -0.004301
# 5 0.002151 -0.002151 0.000000 0.000000 0.041414 0.000000
# 6 0.000000 0.000000 0.000000 -0.004301 0.000000 0.088049
#
#
# Mechanical properties :
#
#
# Convention : Reuss Voigt Hill
#
# Bulk Modulus (GPa) = 57.48666 62.39297 59.93981
# Shear Modulus (GPa) = 17.49501 22.35226 19.92363
#
# Velocity S-wave (km/s) = 2.91981 3.30034 3.11589
# Velocity P-wave (km/s) = 6.27536 6.70275 6.49258
#
# Compressibility (1/GPa) = 0.01739534
#
# Stress axis : x y z
#
# Youngs Moduli (GPa) = 36.56173 36.56173 116.87418
#
# Poissons Ratio (x) = 0.60961 0.36570
# Poissons Ratio (y) = 0.60961 0.36570
# Poissons Ratio (z) = 0.11440 0.11440
#
# Static dielectric constant tensor:
#      x y z
#    x 3.697460 0.000000 0.000000 
#    y 0.000000 3.697460 0.000000 
#    z 0.000000 0.000000 4.184710 
# 
# 
# High freq. dielectric constant tensor:
#      x y z
#    x 1.784770 0.000000 0.000000 
#    y 0.000000 1.784770 0.000000 
#    z 0.000000 0.000000 1.831400 
# 
# From -- ./inp_files/170.got.cif
#   From: 2010.03.12/outbox.cif.g09.slc.cpg/sg151_1_cif.got.tgz:170.got - 2010.04.03 13:42:29.
