data_PCOD8321748
_publ_section_title
;
Structure prediction by ZEFSAII (Michael W. Deem and Ramdas Pophale) SiO2 
 PCOD8321748
Probable space group: R -3
;
_chemical_formula_sum "Si O2"
_cell_formula_units_Z 108
_cell_length_a 16.945770
_cell_length_b 16.945770
_cell_length_c 21.610277
_cell_angle_alpha 90.000000
_cell_angle_beta 90.000000
_cell_angle_gamma 120.000000
_cell_volume 5374.196979
_symmetry_space_group_name_H-M "R -3"
_symmetry_group_IT_number 148
_symmetry_cell_setting 'hexagonal'
loop_
_space_group_symop_operation_xyz
x,y,z
-y,x-y,z
-x+y,-x,z
-x,-y,-z
y,-x+y,-z
x-y,x,-z
2/3+x,1/3+y,1/3+z
2/3-y,1/3+x-y,1/3+z
2/3-x+y,1/3-x,1/3+z
2/3-x,1/3-y,1/3-z
2/3+y,1/3-x+y,1/3-z
2/3+x-y,1/3+x,1/3-z
1/3+x,2/3+y,2/3+z
1/3-y,2/3+x-y,2/3+z
1/3-x+y,2/3-x,2/3+z
1/3-x,2/3-y,2/3-z
1/3+y,2/3-x+y,2/3-z
1/3+x-y,2/3+x,2/3-z
loop_
_atom_site_type_symbol
_atom_site_label
_atom_site_fract_x
_atom_site_fract_y
_atom_site_fract_z
Si Si1 0.339703 0.011303 0.867535
Si Si2 0.946207 0.428513 0.685840
Si Si3 0.465099 0.306892 0.549525
Si Si4 0.693900 0.171913 0.104947
Si Si5 0.020083 0.386742 0.342006
Si Si6 0.855158 0.377486 0.811131
O O1 0.271523 0.043167 0.840128
O O2 0.369896 0.038990 0.938020
O O3 0.434455 0.053946 0.832545
O O4 0.290707 0.902636 0.858775
O O5 0.873214 0.364832 0.634973
O O6 0.004256 0.531931 0.659072
O O7 0.881334 0.421710 0.742922
O O8 0.017934 0.394092 0.701931
O O9 0.561169 0.397662 0.537909
O O10 0.488038 0.227064 0.547840
O O11 0.419039 0.309922 0.614739
O O12 0.771091 0.274559 0.811133
#
# Coordination Sequence:
#
# PCOD8321748 Si02
#       6
#    18  18  18  18  18  18
#     4  11  22  39  61  88 122 165 212 252 310 378
#     4  10  22  40  61  90 124 165 211 256 307 381
#     4  11  22  42  62  93 125 162 213 263 316 375
#     4  10  24  37  64  89 122 165 206 266 314 369
#     4  10  22  39  61  92 121 164 211 257 312 370
#     4  12  24  38  60  92 128 165 201 253 315 374
#
# _framework density 20.096025999999998
#
# number of rings (size 3 to 8) (size 9 to 14) (size 15 to 20)
#    0.000    1.333    3.333    2.000    2.333    1.333 
#    0.000    0.000    0.000    0.333    0.000    0.000 
#    0.000    0.000    0.000    0.000    0.000    0.000 
#
# Total GULP energy -446191.743460 kJ/mol
# GULP energy per Si atom -12394.215096 kJ/mol
# Density = 2.005029 g / cm^3
# Si number density = 20.096026 Si / 1000 Ang^3
#
#
#
# Elastic Constant Matrix: (Units=GPa)
#
#
# Indices 1 2 3 4 5 6 
#
# 1 98.0715 28.4882 16.3953 -0.7366 0.0903 0.0000
# 2 28.4882 98.0715 16.3953 0.7366 -0.0903 0.0000
# 3 16.3953 16.3953 63.7797 0.0000 0.0000 0.0000
# 4 -0.7366 0.7366 0.0000 22.8545 0.0000 -0.0903
# 5 0.0903 -0.0903 0.0000 0.0000 22.8545 -0.7366
# 6 0.0000 0.0000 0.0000 -0.0903 -0.7366 34.7917
#
#
#
# Elastic Compliance Matrix: (Units=1/GPa)
#
#
# Indices 1 2 3 4 5 6 
#
# 1 0.011423 -0.002958 -0.002176 0.000463 -0.000057 0.000000
# 2 -0.002958 0.011423 -0.002176 -0.000463 0.000057 0.000000
# 3 -0.002176 -0.002176 0.016798 0.000000 0.000000 0.000000
# 4 0.000463 -0.000463 0.000000 0.043785 0.000000 0.000114
# 5 -0.000057 0.000057 0.000000 0.000000 0.043785 0.000927
# 6 0.000000 0.000000 0.000000 0.000114 0.000927 0.028762
#
#
# Mechanical properties :
#
#
# Convention : Reuss Voigt Hill
#
# Bulk Modulus (GPa) = 39.96187 42.49781 41.22984
# Shear Modulus (GPa) = 27.94250 29.34308 28.64279
#
# Velocity S-wave (km/s) = 3.73292 3.82533 3.77941
# Velocity P-wave (km/s) = 6.20550 6.37998 6.29334
#
# Compressibility (1/GPa) = 0.02502385
#
# Stress axis : x y z
#
# Youngs Moduli (GPa) = 87.54107 87.54107 59.53185
#
# Poissons Ratio (x) = 0.25895 0.12955
# Poissons Ratio (y) = 0.25895 0.12955
# Poissons Ratio (z) = 0.19050 0.19050
#
# Static dielectric constant tensor:
#      x y z
#    x 3.766580 0.000000 0.000000 
#    y 0.000000 3.766580 0.000000 
#    z 0.000000 0.000000 3.805300 
# 
# 
# High freq. dielectric constant tensor:
#      x y z
#    x 1.785310 0.000000 0.000000 
#    y 0.000000 1.785310 0.000000 
#    z 0.000000 0.000000 1.783520 
# 
# From -- ./inp_files/3113.got.cif
#   From: 2010.03.12/outbox.cif.g09.slc.cpg/sg148_2_cif.got.tgz:3113.got - 2010.04.03 13:38:46.
