data_PCOD8321214
_publ_section_title
;
Structure prediction by ZEFSAII (Michael W. Deem and Ramdas Pophale) SiO2 
 PCOD8321214
Probable space group: I 41/A C D
;
_chemical_formula_sum "Si O2"
_cell_formula_units_Z 160
_cell_length_a 22.540045
_cell_length_b 22.540045
_cell_length_c 14.226485
_cell_angle_alpha 90.000000
_cell_angle_beta 90.000000
_cell_angle_gamma 90.000000
_cell_volume 7227.817327
_symmetry_space_group_name_H-M "I 41/A C D"
_symmetry_group_IT_number 142
_space_group.IT_coordinate_system_code '2'
_symmetry_cell_setting 'tetragonal'
loop_
_space_group_symop_operation_xyz
x,y,z
1/4-y,3/4+x,1/4+z
-x,1/2-y,z
1/4+y,1/4-x,3/4+z
x,-y,1/2-z
1/2-x,y,-z
3/4+y,1/4+x,1/4-z
1/4-y,1/4-x,1/4-z
-x,-y,-z
3/4+y,1/4-x,3/4-z
x,1/2+y,-z
3/4-y,3/4+x,1/4-z
-x,y,1/2+z
1/2+x,-y,z
1/4-y,3/4-x,3/4+z
3/4+y,3/4+x,3/4+z
1/2+x,1/2+y,1/2+z
3/4-y,1/4+x,3/4+z
1/2-x,-y,1/2+z
3/4+y,3/4-x,1/4+z
1/2+x,1/2-y,-z
-x,1/2+y,1/2-z
1/4+y,3/4+x,3/4-z
3/4-y,3/4-x,3/4-z
1/2-x,1/2-y,1/2-z
1/4+y,3/4-x,1/4-z
1/2+x,y,1/2-z
1/4-y,1/4+x,3/4-z
1/2-x,1/2+y,z
x,1/2-y,1/2+z
3/4-y,1/4-x,1/4+z
1/4+y,1/4+x,1/4+z
loop_
_atom_site_type_symbol
_atom_site_label
_atom_site_fract_x
_atom_site_fract_y
_atom_site_fract_z
Si Si1 0.937061 0.469140 0.483353
Si Si2 0.944471 0.292640 0.019429
Si Si3 0.862933 0.761951 0.624020
Si Si4 0.115972 0.976727 0.649023
Si Si5 0.665599 0.012355 0.146721
O O1 0.899770 0.466681 0.581296
O O2 0.891366 0.504569 0.416300
O O3 0.000000 0.500000 0.500000
O O4 0.952703 0.407145 0.432322
O O5 0.931898 0.318103 0.125000
O O6 0.000000 0.250000 0.023955
O O7 0.889656 0.255544 0.977382
O O8 0.954329 0.343509 0.943734
O O9 0.810154 0.805479 0.596651
O O10 0.169477 0.936214 0.612050
O O11 0.135220 0.000000 0.750000
O O12 0.642076 0.000000 0.250000
O O13 0.721765 0.971765 0.125000
#
# Coordination Sequence:
#
# PCOD8321214 Si02
#       5
#    32  32  32  32  32
#     4  10  25  45  66 105 141 181 238 302 365 442
#     4  11  23  42  70 103 140 188 246 297 367 449
#     4  11  22  47  68 104 150 185 244 313 367 445
#     4  11  26  44  71 105 141 190 244 305 368 433
#     4  12  24  47  75 102 142 191 247 300 361 446
#
# _framework density 22.136696000000001
#
# number of rings (size 3 to 8) (size 9 to 14) (size 15 to 20)
#    0.000    1.000    4.000    1.800    2.800    3.200 
#   10.800    0.000    0.000    0.000    0.000    0.000 
#    0.000    0.000    0.000    0.000    0.000    0.000 
#
# Total GULP energy -991330.244255 kJ/mol
# GULP energy per Si atom -12391.628053 kJ/mol
# Density = 2.208631 g / cm^3
# Si number density = 22.136696 Si / 1000 Ang^3
#
#
#
# Elastic Constant Matrix: (Units=GPa)
#
#
# Indices 1 2 3 4 5 6 
#
# 1 92.1175 30.0324 43.9699 0.0000 0.0000 0.0000
# 2 30.0324 92.1173 43.9699 0.0000 0.0000 0.0000
# 3 43.9699 43.9699 177.8687 0.0000 0.0000 0.0000
# 4 0.0000 0.0000 0.0000 46.6922 0.0000 0.0000
# 5 0.0000 0.0000 0.0000 0.0000 46.6945 0.0000
# 6 0.0000 0.0000 0.0000 0.0000 0.0000 25.1893
#
#
#
# Elastic Compliance Matrix: (Units=1/GPa)
#
#
# Indices 1 2 3 4 5 6 
#
# 1 0.013033 -0.003074 -0.002462 0.000000 0.000000 0.000000
# 2 -0.003074 0.013033 -0.002462 0.000000 0.000000 0.000000
# 3 -0.002462 -0.002462 0.006839 0.000000 0.000000 0.000000
# 4 0.000000 0.000000 0.000000 0.021417 0.000000 0.000000
# 5 0.000000 0.000000 0.000000 0.000000 0.021416 0.000000
# 6 0.000000 0.000000 0.000000 0.000000 0.000000 0.039699
#
#
# Mechanical properties :
#
#
# Convention : Reuss Voigt Hill
#
# Bulk Modulus (GPa) = 59.13734 66.44979 62.79357
# Shear Modulus (GPa) = 36.47784 39.99063 38.23424
#
# Velocity S-wave (km/s) = 4.06377 4.25494 4.16045
# Velocity P-wave (km/s) = 6.98510 7.36359 7.17684
#
# Compressibility (1/GPa) = 0.01690979
#
# Stress axis : x y z
#
# Youngs Moduli (GPa) = 76.72823 76.72811 146.21327
#
# Poissons Ratio (x) = 0.23586 0.35997
# Poissons Ratio (y) = 0.23586 0.35997
# Poissons Ratio (z) = 0.18890 0.18890
#
# Static dielectric constant tensor:
#      x y z
#    x 4.005770 0.000000 0.000000 
#    y 0.000000 4.005760 0.000000 
#    z 0.000000 0.000000 4.669380 
# 
# 
# High freq. dielectric constant tensor:
#      x y z
#    x 1.868930 0.000000 0.000000 
#    y 0.000000 1.868930 0.000000 
#    z 0.000000 0.000000 1.887710 
# 
# From -- ./inp_files/5446.got.cif
#   From: 2010.03.12/outbox.cif.g09.slc.cpg/sg142_3_cif.got.tgz:5446.got - 2010.04.03 13:27:16.
