data_PCOD8321516
_publ_section_title
;
Structure prediction by ZEFSAII (Michael W. Deem and Ramdas Pophale) SiO2 
 PCOD8321516
Probable space group: R 3
;
_chemical_formula_sum "Si O2"
_cell_formula_units_Z 60
_cell_length_a 13.838593
_cell_length_b 13.838593
_cell_length_c 16.589030
_cell_angle_alpha 90.000000
_cell_angle_beta 90.000000
_cell_angle_gamma 120.000000
_cell_volume 2751.284476
_symmetry_space_group_name_H-M "R 3"
_symmetry_group_IT_number 146
_symmetry_cell_setting 'hexagonal'
loop_
_space_group_symop_operation_xyz
x,y,z
-y,x-y,z
-x+y,-x,z
2/3+x,1/3+y,1/3+z
2/3-y,1/3+x-y,1/3+z
2/3-x+y,1/3-x,1/3+z
1/3+x,2/3+y,2/3+z
1/3-y,2/3+x-y,2/3+z
1/3-x+y,2/3-x,2/3+z
loop_
_atom_site_type_symbol
_atom_site_label
_atom_site_fract_x
_atom_site_fract_y
_atom_site_fract_z
Si Si1 0.409275 0.500022 0.754240
Si Si2 0.941552 0.143662 0.998935
Si Si3 0.866931 0.449772 0.941271
Si Si4 0.540295 0.941833 0.056271
Si Si5 0.333334 0.666668 0.562841
Si Si6 0.716395 0.245318 0.582630
Si Si7 0.000000 0.000000 0.708881
Si Si8 0.098416 0.257222 0.550407
O O1 0.291337 0.483835 0.723305
O O2 0.511186 0.612435 0.713901
O O3 0.417561 0.389796 0.742370
O O4 0.416451 0.513823 0.851216
O O5 0.875440 0.198894 0.958171
O O6 0.983777 0.100681 0.925160
O O7 0.788330 0.363888 0.010413
O O8 0.966559 0.551594 0.986467
O O9 0.803176 0.498484 0.890598
O O10 0.895240 0.371390 0.882976
O O11 0.489587 0.978744 0.131094
O O12 0.442169 0.837384 0.009902
O O13 0.333334 0.666667 0.469224
O O14 0.792306 0.378262 0.567890
#
# Coordination Sequence:
#
# PCOD8321516 Si02
#       8
#     9   9   9   9   3   9   3   9
#     4  11  21  43  72 104 143 178 233 298 358 427
#     4  10  20  40  67 104 138 179 224 299 359 418
#     4  10  23  42  62  96 134 180 234 285 348 412
#     4  12  25  41  72 102 138 186 239 292 352 430
#     4   9  18  33  69  99 133 167 223 276 375 417
#     4  10  23  44  67  96 137 184 226 277 361 425
#     4   9  18  39  63  84 133 182 211 285 342 420
#     4  11  24  44  68  95 142 188 236 292 355 421
#
# _framework density 21.807995999999999
#
# number of rings (size 3 to 8) (size 9 to 14) (size 15 to 20)
#    0.300    1.200    3.000    2.400    2.100    1.200 
#    2.700    1.500    0.000    0.000    0.000    0.000 
#    0.000    0.000    0.000    0.000    0.000    0.000 
#
# Total GULP energy -247774.917883 kJ/mol
# GULP energy per Si atom -12388.745894 kJ/mol
# Density = 2.175836 g / cm^3
# Si number density = 21.807996 Si / 1000 Ang^3
#
#
#
# Elastic Constant Matrix: (Units=GPa)
#
#
# Indices 1 2 3 4 5 6 
#
# 1 79.9356 14.9752 21.2406 -4.1530 -0.2213 -0.0002
# 2 14.9752 79.9355 21.2402 4.1533 0.2212 0.0001
# 3 21.2406 21.2402 107.6797 0.0002 0.0001 -0.0001
# 4 -4.1530 4.1533 0.0002 31.4203 -0.0001 0.2214
# 5 -0.2213 0.2212 0.0001 -0.0001 31.4203 -4.1531
# 6 -0.0002 0.0001 -0.0001 0.2214 -4.1531 32.4801
#
#
#
# Elastic Compliance Matrix: (Units=1/GPa)
#
#
# Indices 1 2 3 4 5 6 
#
# 1 0.013608 -0.002051 -0.002280 0.002070 0.000110 0.000000
# 2 -0.002051 0.013608 -0.002280 -0.002070 -0.000110 0.000000
# 3 -0.002280 -0.002280 0.010186 0.000000 0.000000 0.000000
# 4 0.002070 -0.002070 0.000000 0.032375 0.000000 -0.000221
# 5 0.000110 -0.000110 0.000000 0.000000 0.032375 0.004140
# 6 0.000000 0.000000 0.000000 -0.000221 0.004140 0.031319
#
#
# Mechanical properties :
#
#
# Convention : Reuss Voigt Hill
#
# Bulk Modulus (GPa) = 41.35508 42.49588 41.92548
# Shear Modulus (GPa) = 32.30952 33.07045 32.68998
#
# Velocity S-wave (km/s) = 3.85326 3.89837 3.87588
# Velocity P-wave (km/s) = 6.22906 6.30807 6.26869
#
# Compressibility (1/GPa) = 0.02418082
#
# Stress axis : x y z
#
# Youngs Moduli (GPa) = 73.48625 73.48631 98.17273
#
# Poissons Ratio (x) = 0.15075 0.22380
# Poissons Ratio (y) = 0.15075 0.22379
# Poissons Ratio (z) = 0.16752 0.16752
#
# Static dielectric constant tensor:
#      x y z
#    x 3.946650 0.000000 0.000010 
#    y 0.000000 3.946660 0.000000 
#    z 0.000010 0.000000 3.947390 
# 
# 
# High freq. dielectric constant tensor:
#      x y z
#    x 1.851290 0.000000 0.000000 
#    y 0.000000 1.851290 0.000000 
#    z 0.000000 0.000000 1.864150 
# 
# From -- ./inp_files/1547.got.cif
#   From: 2010.06.25/outbox.cif.g09.slc.cpg/sg146_cif.got.tgz:1547.got - 2010.06.28 11:17:22.
