data_PCOD8322154
_publ_section_title
;
Structure prediction by ZEFSAII (Michael W. Deem and Ramdas Pophale) SiO2 
 PCOD8322154
Probable space group: P 31 2 1
;
_chemical_formula_sum "Si O2"
_cell_formula_units_Z 24
_cell_length_a 7.653294
_cell_length_b 7.653294
_cell_length_c 19.195273
_cell_angle_alpha 90.000000
_cell_angle_beta 90.000000
_cell_angle_gamma 120.000000
_cell_volume 973.692262
_symmetry_space_group_name_H-M "P 31 2 1"
_symmetry_group_IT_number 152
_symmetry_cell_setting 'hexagonal'
loop_
_space_group_symop_operation_xyz
x,y,z
-y,x-y,1/3+z
-x+y,-x,2/3+z
x-y,-y,2/3-z
-x,-x+y,1/3-z
y,x,-z
loop_
_atom_site_type_symbol
_atom_site_label
_atom_site_fract_x
_atom_site_fract_y
_atom_site_fract_z
Si Si1 0.766392 0.406236 0.787451
Si Si2 0.332146 0.332146 0.000000
Si Si3 0.719837 0.829148 0.691274
Si Si4 0.743942 0.000000 0.833334
Si Si5 0.052151 0.607049 0.406816
O O1 0.951550 0.518020 0.732160
O O2 0.571812 0.403201 0.758831
O O3 0.829291 0.546560 0.856776
O O4 0.713796 0.179596 0.803138
O O5 0.105758 0.289771 0.013588
O O6 0.815234 0.913007 0.768703
O O7 0.482242 0.661648 0.700779
O O8 0.754765 0.019176 0.644329
#
# Coordination Sequence:
#
# PCOD8322154 Si02
#       5
#     6   3   6   3   6
#     4  10  23  40  61  91 122 161 209 258 312 376
#     4  10  24  40  60  92 126 158 204 256 318 382
#     4  10  22  40  62  89 123 162 207 259 313 376
#     4  10  22  40  64  88 120 164 212 258 310 374
#     4  10  22  40  61  89 122 160 208 254 311 376
#
# _framework density 24.648444999999999
#
# number of rings (size 3 to 8) (size 9 to 14) (size 15 to 20)
#    0.000    2.000    0.000    1.500    0.000   20.000 
#    0.000    0.000    0.000    0.000    0.000    0.000 
#    0.000    0.000    0.000    0.000    0.000    0.000 
#
# Total GULP energy -297416.657482 kJ/mol
# GULP energy per Si atom -12392.360728 kJ/mol
# Density = 2.459234 g / cm^3
# Si number density = 24.648445 Si / 1000 Ang^3
#
#
#
# Elastic Constant Matrix: (Units=GPa)
#
#
# Indices 1 2 3 4 5 6 
#
# 1 71.4856 9.5112 43.3738 -1.5712 0.0000 0.0000
# 2 9.5112 71.4856 43.3738 1.5712 0.0000 0.0000
# 3 43.3738 43.3738 126.1486 0.0000 0.0000 0.0000
# 4 -1.5712 1.5712 0.0000 40.0504 0.0000 0.0000
# 5 0.0000 0.0000 0.0000 0.0000 40.0504 -1.5712
# 6 0.0000 0.0000 0.0000 0.0000 -1.5712 30.9872
#
#
#
# Elastic Compliance Matrix: (Units=1/GPa)
#
#
# Indices 1 2 3 4 5 6 
#
# 1 0.017855 0.001687 -0.006719 0.000634 0.000000 0.000000
# 2 0.001687 0.017855 -0.006719 -0.000634 0.000000 0.000000
# 3 -0.006719 -0.006719 0.012548 0.000000 0.000000 0.000000
# 4 0.000634 -0.000634 0.000000 0.025018 0.000000 0.000000
# 5 0.000000 0.000000 0.000000 0.000000 0.025018 0.001269
# 6 0.000000 0.000000 0.000000 0.000000 0.001269 0.032336
#
#
# Mechanical properties :
#
#
# Convention : Reuss Voigt Hill
#
# Bulk Modulus (GPa) = 40.39490 51.29304 45.84397
# Shear Modulus (GPa) = 30.79100 33.74166 32.26633
#
# Velocity S-wave (km/s) = 3.53825 3.70390 3.62202
# Velocity P-wave (km/s) = 5.75467 6.25675 6.01095
#
# Compressibility (1/GPa) = 0.02475560
#
# Stress axis : x y z
#
# Youngs Moduli (GPa) = 56.00598 56.00598 79.69525
#
# Poissons Ratio (x) = -0.09450 0.53550
# Poissons Ratio (y) = -0.09450 0.53550
# Poissons Ratio (z) = 0.37632 0.37632
#
# Static dielectric constant tensor:
#      x y z
#    x 4.344080 0.000000 0.000000 
#    y 0.000000 4.344080 0.000000 
#    z 0.000000 0.000000 5.036310 
# 
# 
# High freq. dielectric constant tensor:
#      x y z
#    x 1.970250 0.000000 0.000000 
#    y 0.000000 1.970250 0.000000 
#    z 0.000000 0.000000 1.993800 
# 
# From -- ./inp_files/2338.got.cif
#   From: 2010.03.12/outbox.cif.g09.slc.cpg/sg152_2_cif.got.tgz:2338.got - 2010.04.03 13:45:27.
