data_PCOD8322256
_publ_section_title
;
Structure prediction by ZEFSAII (Michael W. Deem and Ramdas Pophale) SiO2 
 PCOD8322256
Probable space group: P 32 1 2
;
_chemical_formula_sum "Si O2"
_cell_formula_units_Z 30
_cell_length_a 15.203660
_cell_length_b 15.203660
_cell_length_c 7.773033
_cell_angle_alpha 90.000000
_cell_angle_beta 90.000000
_cell_angle_gamma 120.000000
_cell_volume 1556.028119
_symmetry_space_group_name_H-M "P 32 1 2"
_symmetry_group_IT_number 153
_symmetry_cell_setting 'hexagonal'
loop_
_space_group_symop_operation_xyz
x,y,z
-y,x-y,2/3+z
-x+y,-x,1/3+z
-y,-x,1/3-z
-x+y,y,2/3-z
x,x-y,-z
loop_
_atom_site_type_symbol
_atom_site_label
_atom_site_fract_x
_atom_site_fract_y
_atom_site_fract_z
Si Si1 0.259757 0.837586 0.929071
Si Si2 0.224941 0.112471 0.000000
Si Si3 0.364937 0.729874 0.833334
Si Si4 0.793725 0.901135 0.812146
Si Si5 0.783701 0.083142 0.317412
Si Si6 0.364798 0.435100 0.734502
O O1 0.318027 0.802264 0.799175
O O2 0.206082 0.888285 0.824287
O O3 0.169113 0.736601 0.010318
O O4 0.347210 0.918594 0.059055
O O5 0.147574 0.153771 0.016643
O O6 0.295262 0.134119 0.168847
O O7 0.341923 0.658078 0.666667
O O8 0.801590 0.811289 0.724026
O O9 0.846124 0.923062 0.000000
O O10 0.661929 0.035412 0.335019
O O11 0.831397 0.168604 0.166667
O O12 0.464301 0.535700 0.666667
#
# Coordination Sequence:
#
# PCOD8322256 Si02
#       6
#     6   3   3   6   6   6
#     4  10  20  35  55  86 122 156 193 234 285 348
#     4  12  22  40  58  82 120 158 198 240 292 344
#     4  12  22  34  54  82 118 162 198 234 278 340
#     4  11  22  37  58  83 119 157 193 241 288 347
#     4  11  23  40  60  86 116 155 196 244 297 352
#     4  10  20  37  60  86 119 155 196 242 292 348
#
# _framework density 19.279858999999998
#
# number of rings (size 3 to 8) (size 9 to 14) (size 15 to 20)
#    0.000    1.200    4.000    4.200    0.000    3.200 
#    1.800    0.000    0.000    0.000    2.600    0.000 
#    0.000    0.000    0.000    0.000    0.000    0.000 
#
# Total GULP energy -371728.590526 kJ/mol
# GULP energy per Si atom -12390.953018 kJ/mol
# Density = 1.923598 g / cm^3
# Si number density = 19.279859 Si / 1000 Ang^3
#
#
#
# Elastic Constant Matrix: (Units=GPa)
#
#
# Indices 1 2 3 4 5 6 
#
# 1 78.0146 28.3107 19.6583 0.0002 3.3488 0.0000
# 2 28.3107 78.0146 19.6583 -0.0002 -3.3488 0.0000
# 3 19.6583 19.6583 110.8466 0.0000 0.0000 0.0000
# 4 0.0002 -0.0002 0.0000 24.7298 0.0000 -3.3488
# 5 3.3488 -3.3488 0.0000 0.0000 24.7298 0.0002
# 6 0.0000 0.0000 0.0000 -3.3488 0.0002 24.8519
#
#
#
# Elastic Compliance Matrix: (Units=1/GPa)
#
#
# Indices 1 2 3 4 5 6 
#
# 1 0.015279 -0.005214 -0.001785 0.000000 -0.002775 0.000000
# 2 -0.005214 0.015279 -0.001785 0.000000 0.002775 0.000000
# 3 -0.001785 -0.001785 0.009655 0.000000 0.000000 0.000000
# 4 0.000000 0.000000 0.000000 0.041189 0.000000 0.005550
# 5 -0.002775 0.002775 0.000000 0.000000 0.041189 0.000000
# 6 0.000000 0.000000 0.000000 0.005550 0.000000 0.040986
#
#
# Mechanical properties :
#
#
# Convention : Reuss Voigt Hill
#
# Bulk Modulus (GPa) = 44.16019 44.68116 44.42067
# Shear Modulus (GPa) = 26.49812 28.14555 27.32183
#
# Velocity S-wave (km/s) = 3.71130 3.82493 3.76855
# Velocity P-wave (km/s) = 6.42803 6.53698 6.48274
#
# Compressibility (1/GPa) = 0.02264483
#
# Stress axis : x y z
#
# Youngs Moduli (GPa) = 65.44871 65.44871 103.57740
#
# Poissons Ratio (x) = 0.34125 0.18489
# Poissons Ratio (y) = 0.34125 0.18489
# Poissons Ratio (z) = 0.11683 0.11683
#
# Static dielectric constant tensor:
#      x y z
#    x 3.580190 0.000000 0.000000 
#    y 0.000000 3.580190 0.000000 
#    z 0.000000 0.000000 3.582940 
# 
# 
# High freq. dielectric constant tensor:
#      x y z
#    x 1.727090 0.000000 0.000000 
#    y 0.000000 1.727090 0.000000 
#    z 0.000000 0.000000 1.761330 
# 
# From -- ./inp_files/1611.got.cif
#   From: 2010.03.12/outbox.cif.g09.slc.cpg/sg153_1_cif.got.tgz:1611.got - 2010.04.03 13:48:33.
