data_PCOD8322771
_publ_section_title
;
Structure prediction by ZEFSAII (Michael W. Deem and Ramdas Pophale) SiO2 
 PCOD8322771
Probable space group: P 3 C 1
;
_chemical_formula_sum "Si O2"
_cell_formula_units_Z 30
_cell_length_a 8.402283
_cell_length_b 8.402283
_cell_length_c 23.811671
_cell_angle_alpha 90.000000
_cell_angle_beta 90.000000
_cell_angle_gamma 120.000000
_cell_volume 1455.844919
_symmetry_space_group_name_H-M "P 3 C 1"
_symmetry_group_IT_number 158
_symmetry_cell_setting 'hexagonal'
loop_
_space_group_symop_operation_xyz
x,y,z
-y,x-y,z
-x+y,-x,z
-x+y,y,1/2+z
x,x-y,1/2+z
-y,-x,1/2+z
loop_
_atom_site_type_symbol
_atom_site_label
_atom_site_fract_x
_atom_site_fract_y
_atom_site_fract_z
Si Si1 0.331911 0.461346 0.180860
Si Si2 0.652718 0.530756 0.577643
Si Si3 0.195267 0.213166 0.285080
Si Si4 0.321651 0.326980 0.407921
Si Si5 0.996767 0.655577 0.954229
O O1 0.513582 0.665444 0.180610
O O2 0.341873 0.351802 0.127053
O O3 0.320721 0.343720 0.235199
O O4 0.479940 0.320704 0.580861
O O5 0.645358 0.625298 0.520534
O O6 0.289749 0.320886 0.341640
O O7 0.983882 0.172205 0.282175
O O8 0.534004 0.465014 0.421648
O O9 0.261290 0.126448 0.431770
O O10 0.206235 0.405070 0.439785
#
# Coordination Sequence:
#
# PCOD8322771 Si02
#       5
#     6   6   6   6   6
#     4  10  26  40  66  94 130 172 232 274 326 386
#     4  10  23  44  67  92 133 173 221 271 339 400
#     4  10  23  44  67  92 133 173 221 271 339 400
#     4  12  24  44  69 103 137 178 225 284 346 414
#     4  12  24  44  69 103 137 178 225 284 346 414
#
# _framework density 20.606591999999999
#
# number of rings (size 3 to 8) (size 9 to 14) (size 15 to 20)
#    1.200    0.000    4.000    1.200    8.400    0.000 
#    0.000    0.000    0.000    0.000    0.000    0.000 
#    0.000    0.000    0.000    0.000    0.000    0.000 
#
# Total GULP energy -371927.741447 kJ/mol
# GULP energy per Si atom -12397.591382 kJ/mol
# Density = 2.055969 g / cm^3
# Si number density = 20.606592 Si / 1000 Ang^3
#
#
#
# Elastic Constant Matrix: (Units=GPa)
#
#
# Indices 1 2 3 4 5 6 
#
# 1 71.0730 15.7238 60.1299 11.2138 0.0000 0.0000
# 2 15.7238 71.0730 60.1299 -11.2138 0.0000 0.0000
# 3 60.1299 60.1299 225.2750 0.0000 0.0000 0.0000
# 4 11.2138 -11.2138 0.0000 35.1123 0.0000 0.0000
# 5 0.0000 0.0000 0.0000 0.0000 35.1123 11.2138
# 6 0.0000 0.0000 0.0000 0.0000 11.2138 27.6746
#
#
#
# Elastic Compliance Matrix: (Units=1/GPa)
#
#
# Indices 1 2 3 4 5 6 
#
# 1 0.019518 -0.001235 -0.004880 -0.006628 0.000000 0.000000
# 2 -0.001235 0.019518 -0.004880 0.006628 0.000000 0.000000
# 3 -0.004880 -0.004880 0.007044 0.000000 0.000000 0.000000
# 4 -0.006628 0.006628 0.000000 0.032713 0.000000 0.000000
# 5 0.000000 0.000000 0.000000 0.000000 0.032713 -0.013256
# 6 0.000000 0.000000 0.000000 0.000000 -0.013256 0.041505
#
#
# Mechanical properties :
#
#
# Convention : Reuss Voigt Hill
#
# Bulk Modulus (GPa) = 41.51216 71.04316 56.27766
# Shear Modulus (GPa) = 27.31774 35.00900 31.16337
#
# Velocity S-wave (km/s) = 3.64494 4.12627 3.89305
# Velocity P-wave (km/s) = 6.15654 7.56652 6.89765
#
# Compressibility (1/GPa) = 0.02408933
#
# Stress axis : x y z
#
# Youngs Moduli (GPa) = 51.23588 51.23588 141.96296
#
# Poissons Ratio (x) = 0.06328 0.69277
# Poissons Ratio (y) = 0.06328 0.69277
# Poissons Ratio (z) = 0.25003 0.25003
#
# Static dielectric constant tensor:
#      x y z
#    x 3.502370 0.000000 0.000000 
#    y 0.000000 3.502370 0.000000 
#    z 0.000000 0.000000 3.566330 
# 
# 
# High freq. dielectric constant tensor:
#      x y z
#    x 1.794970 0.000000 0.000000 
#    y 0.000000 1.794970 0.000000 
#    z 0.000000 0.000000 1.813440 
# 
# From -- ./inp_files/730.got.cif
#   From: 2010.03.12/outbox.cif.g09.slc.cpg/sg158_cif.got.tgz:730.got - 2010.04.03 13:59:47.
