data_PCOD8322547
_publ_section_title
;
Structure prediction by ZEFSAII (Michael W. Deem and Ramdas Pophale) SiO2 
 PCOD8322547
Probable space group: R 3 2
;
_chemical_formula_sum "Si O2"
_cell_formula_units_Z 114
_cell_length_a 20.911997
_cell_length_b 20.911997
_cell_length_c 14.751814
_cell_angle_alpha 90.000000
_cell_angle_beta 90.000000
_cell_angle_gamma 120.000000
_cell_volume 5586.850826
_symmetry_space_group_name_H-M "R 3 2"
_symmetry_group_IT_number 155
_symmetry_cell_setting 'hexagonal'
loop_
_space_group_symop_operation_xyz
x,y,z
-y,x-y,z
-x+y,-x,z
x-y,-y,-z
-x,-x+y,-z
y,x,-z
2/3+x,1/3+y,1/3+z
2/3-y,1/3+x-y,1/3+z
2/3-x+y,1/3-x,1/3+z
2/3+x-y,1/3-y,1/3-z
2/3-x,1/3-x+y,1/3-z
2/3+y,1/3+x,1/3-z
1/3+x,2/3+y,2/3+z
1/3-y,2/3+x-y,2/3+z
1/3-x+y,2/3-x,2/3+z
1/3+x-y,2/3-y,2/3-z
1/3-x,2/3-x+y,2/3-z
1/3+y,2/3+x,2/3-z
loop_
_atom_site_type_symbol
_atom_site_label
_atom_site_fract_x
_atom_site_fract_y
_atom_site_fract_z
Si Si1 0.241177 0.417587 0.322977
Si Si2 0.666668 0.333334 0.221937
Si Si3 0.486456 0.404874 0.657222
Si Si4 0.908491 0.160024 0.157958
Si Si5 0.750446 0.498344 0.849410
Si Si6 0.834314 0.891179 0.181678
Si Si7 0.914457 0.751981 0.978439
O O1 0.175568 0.333334 0.333334
O O2 0.319455 0.423756 0.344384
O O3 0.237933 0.436539 0.218915
O O4 0.237229 0.479521 0.384716
O O5 0.666668 0.333334 0.333334
O O6 0.636466 0.384902 0.181892
O O7 0.514051 0.429591 0.555099
O O8 0.557861 0.420583 0.716116
O O9 0.448001 0.447367 0.699287
O O10 0.898585 0.231919 0.166667
O O11 0.990628 0.182961 0.184956
O O12 0.896602 0.129117 0.056658
O O13 0.666667 0.476004 0.833334
O O14 0.761422 0.428088 0.833334
O O15 0.778478 0.897996 0.114916
O O16 0.000000 0.795558 0.000000
#
# Coordination Sequence:
#
# PCOD8322547 Si02
#       7
#    18   6  18  18  18  18  18
#     4  11  23  39  59  85 116 153 202 249 294 357
#     4  12  24  39  66  99 133 164 205 264 327 399
#     4  10  21  39  60  83 113 152 194 246 300 349
#     4  10  22  39  59  85 119 156 197 240 297 376
#     4  10  21  37  58  82 112 148 192 242 292 348
#     4  12  23  39  61  90 124 159 198 250 313 370
#     4  11  21  36  60  88 118 150 189 241 302 371
#
# _framework density 20.405055999999998
#
# number of rings (size 3 to 8) (size 9 to 14) (size 15 to 20)
#    0.000    1.263    0.000    7.263    0.000    1.263 
#    0.000   12.632    0.000    0.000    0.000    0.000 
#    0.000    0.000    0.000    0.000    0.000    0.000 
#
# Total GULP energy -471308.812519 kJ/mol
# GULP energy per Si atom -12402.863487 kJ/mol
# Density = 2.035861 g / cm^3
# Si number density = 20.405056 Si / 1000 Ang^3
#
#
#
# Elastic Constant Matrix: (Units=GPa)
#
#
# Indices 1 2 3 4 5 6 
#
# 1 79.7392 58.7021 7.5024 -4.9746 -0.0003 -0.0006
# 2 58.7021 79.7387 7.5025 4.9742 0.0002 0.0002
# 3 7.5024 7.5025 57.2663 0.0000 0.0000 0.0000
# 4 -4.9746 4.9742 0.0000 22.1353 0.0000 0.0001
# 5 -0.0003 0.0002 0.0000 0.0000 22.1352 -4.9747
# 6 -0.0006 0.0002 0.0000 0.0001 -4.9747 10.5180
#
#
#
# Elastic Compliance Matrix: (Units=1/GPa)
#
#
# Indices 1 2 3 4 5 6 
#
# 1 0.030258 -0.022931 -0.000960 0.011953 0.000001 0.000003
# 2 -0.022931 0.030258 -0.000960 -0.011953 -0.000001 -0.000002
# 3 -0.000960 -0.000960 0.017714 0.000000 0.000000 0.000000
# 4 0.011953 -0.011953 0.000000 0.050549 0.000001 0.000001
# 5 0.000001 -0.000001 0.000000 0.000001 0.050550 0.023909
# 6 0.000003 -0.000002 0.000000 0.000001 0.023909 0.106383
#
#
# Mechanical properties :
#
#
# Convention : Reuss Voigt Hill
#
# Bulk Modulus (GPa) = 35.05249 40.46203 37.75726
# Shear Modulus (GPa) = 14.49599 20.49351 17.49475
#
# Velocity S-wave (km/s) = 2.66825 3.17256 2.93127
# Velocity P-wave (km/s) = 5.16801 5.76998 5.47727
#
# Compressibility (1/GPa) = 0.02852865
#
# Stress axis : x y z
#
# Youngs Moduli (GPa) = 33.04922 33.04910 56.45319
#
# Poissons Ratio (x) = 0.75784 0.05419
# Poissons Ratio (y) = 0.75784 0.05420
# Poissons Ratio (z) = 0.03172 0.03173
#
# Static dielectric constant tensor:
#      x y z
#    x 3.697370 0.000000 0.000000 
#    y 0.000000 3.697390 0.000000 
#    z 0.000000 0.000000 4.085090 
# 
# 
# High freq. dielectric constant tensor:
#      x y z
#    x 1.797560 0.000000 0.000000 
#    y 0.000000 1.797560 0.000000 
#    z 0.000000 0.000000 1.812760 
# 
# From -- ./inp_files/5200.got.cif
#   From: 2010.03.12/outbox.cif.g09.slc.cpg/sg155_3_cif.got.tgz:5200.got - 2010.04.03 13:54:13.
