data_PCOD8322009
_publ_section_title
;
Structure prediction by ZEFSAII (Michael W. Deem and Ramdas Pophale) SiO2 
 PCOD8322009
Probable space group: P 31 1 2
;
_chemical_formula_sum "Si O2"
_cell_formula_units_Z 42
_cell_length_a 8.700622
_cell_length_b 8.700622
_cell_length_c 28.638583
_cell_angle_alpha 90.000000
_cell_angle_beta 90.000000
_cell_angle_gamma 120.000000
_cell_volume 1877.512165
_symmetry_space_group_name_H-M "P 31 1 2"
_symmetry_group_IT_number 151
_symmetry_cell_setting 'hexagonal'
loop_
_space_group_symop_operation_xyz
x,y,z
-y,x-y,1/3+z
-x+y,-x,2/3+z
-y,-x,2/3-z
-x+y,y,1/3-z
x,x-y,-z
loop_
_atom_site_type_symbol
_atom_site_label
_atom_site_fract_x
_atom_site_fract_y
_atom_site_fract_z
Si Si1 0.723099 0.925140 0.773702
Si Si2 0.925143 0.202042 0.607036
Si Si3 0.999999 0.708138 0.250000
Si Si4 0.749641 0.886640 0.332921
Si Si5 0.886640 0.136999 0.166254
Si Si6 0.912253 0.468844 0.672366
Si Si7 0.443410 0.912254 0.839032
O O1 0.704700 0.902226 0.718236
O O2 0.756933 0.774758 0.797597
O O3 0.548538 0.923375 0.791979
O O4 0.883576 0.124398 0.783608
O O5 0.902229 0.197527 0.551570
O O6 0.923378 0.374838 0.625313
O O7 0.124400 0.240822 0.616941
O O8 0.774759 0.017826 0.630930
O O9 0.885690 0.543924 0.284115
O O10 0.114307 0.658233 0.215884
O O11 0.586213 0.918421 0.347150
O O12 0.929389 0.070612 0.333334
O O13 0.070613 0.141225 0.166667
O O14 0.918420 0.332207 0.180483
O O15 0.746097 0.492194 0.666667
O O16 0.253904 0.746097 0.833334
#
# Coordination Sequence:
#
# PCOD8322009 Si02
#       7
#     6   6   6   6   6   6   6
#     4  12  23  48  73 102 136 198 240 296 364 451
#     4  12  23  48  73 102 136 198 240 296 364 451
#     4  12  24  46  72  96 142 190 244 286 362 440
#     4  11  23  42  73 100 141 187 243 290 366 434
#     4  11  23  42  73 100 141 187 243 290 366 434
#     4  11  28  43  68 108 143 179 243 308 364 434
#     4  11  28  43  68 108 143 179 243 308 364 434
#
# _framework density 22.370028999999999
#
# number of rings (size 3 to 8) (size 9 to 14) (size 15 to 20)
#    0.000    0.571    5.714    0.857   12.000    0.000 
#    0.000    2.857    0.000    0.000    0.000    0.000 
#    0.000    0.000    0.000    0.000    0.000    0.000 
#
# Total GULP energy -520683.044657 kJ/mol
# GULP energy per Si atom -12397.215349 kJ/mol
# Density = 2.231911 g / cm^3
# Si number density = 22.370029 Si / 1000 Ang^3
#
#
#
# Elastic Constant Matrix: (Units=GPa)
#
#
# Indices 1 2 3 4 5 6 
#
# 1 183.8365 -43.5697 26.9508 0.0009 0.0076 0.0000
# 2 -43.5697 183.8365 26.9508 -0.0009 -0.0076 0.0000
# 3 26.9508 26.9508 117.0701 0.0000 0.0000 0.0000
# 4 0.0009 -0.0009 0.0000 24.4504 0.0000 -0.0076
# 5 0.0076 -0.0076 0.0000 0.0000 24.4504 0.0009
# 6 0.0000 0.0000 0.0000 -0.0076 0.0009 113.7031
#
#
#
# Elastic Compliance Matrix: (Units=1/GPa)
#
#
# Indices 1 2 3 4 5 6 
#
# 1 0.006109 0.001712 -0.001801 0.000000 -0.000001 0.000000
# 2 0.001712 0.006109 -0.001801 0.000000 0.000001 0.000000
# 3 -0.001801 -0.001801 0.009371 0.000000 0.000000 0.000000
# 4 0.000000 0.000000 0.000000 0.040899 0.000000 0.000003
# 5 -0.000001 0.000001 0.000000 0.000000 0.040899 0.000000
# 6 0.000000 0.000000 0.000000 0.000003 0.000000 0.008795
#
#
# Mechanical properties :
#
#
# Convention : Reuss Voigt Hill
#
# Bulk Modulus (GPa) = 56.14459 56.15634 56.15047
# Shear Modulus (GPa) = 41.01787 64.14819 52.58303
#
# Velocity S-wave (km/s) = 4.28671 5.36080 4.85356
# Velocity P-wave (km/s) = 7.04655 7.96715 7.52095
#
# Compressibility (1/GPa) = 0.01781115
#
# Stress axis : x y z
#
# Youngs Moduli (GPa) = 163.68505 163.68505 106.71349
#
# Poissons Ratio (x) = -0.28021 0.19214
# Poissons Ratio (y) = -0.28021 0.19214
# Poissons Ratio (z) = 0.29472 0.29472
#
# Static dielectric constant tensor:
#      x y z
#    x 4.279140 0.000000 0.000000 
#    y 0.000000 4.279140 0.000000 
#    z 0.000000 0.000000 4.116820 
# 
# 
# High freq. dielectric constant tensor:
#      x y z
#    x 1.876690 0.000000 0.000000 
#    y 0.000000 1.876690 0.000000 
#    z 0.000000 0.000000 1.888990 
# 
# From -- ./inp_files/5027.got.cif
#   From: 2010.03.12/outbox.cif.g09.slc.cpg/sg151_3_cif.got.tgz:5027.got - 2010.04.03 13:42:29.
