data_PCOD8322401
_publ_section_title
;
Structure prediction by ZEFSAII (Michael W. Deem and Ramdas Pophale) SiO2 
 PCOD8322401
Probable space group: P 32 2 1
;
_chemical_formula_sum "Si O2"
_cell_formula_units_Z 18
_cell_length_a 7.672028
_cell_length_b 7.672028
_cell_length_c 12.148805
_cell_angle_alpha 90.000000
_cell_angle_beta 90.000000
_cell_angle_gamma 120.000000
_cell_volume 619.276431
_symmetry_space_group_name_H-M "P 32 2 1"
_symmetry_group_IT_number 154
_symmetry_cell_setting 'hexagonal'
loop_
_space_group_symop_operation_xyz
x,y,z
-y,x-y,2/3+z
-x+y,-x,1/3+z
x-y,-y,1/3-z
-x,-x+y,2/3-z
y,x,-z
loop_
_atom_site_type_symbol
_atom_site_label
_atom_site_fract_x
_atom_site_fract_y
_atom_site_fract_z
Si Si1 0.161629 0.852355 0.002878
Si Si2 0.675812 0.240177 0.186832
Si Si3 0.328041 0.094762 0.797590
O O1 0.328869 0.861667 0.084311
O O2 0.974884 0.827630 0.072682
O O3 0.094645 0.662875 0.917069
O O4 0.263631 0.053274 0.927407
O O5 0.717204 0.444156 0.125100
O O6 0.881449 0.293607 0.256466
#
# Coordination Sequence:
#
# PCOD8322401 Si02
#       3
#     6   6   6
#     4  10  22  47  90 139 192 239 322 400 475 589
#     4  10  22  45  91 133 189 246 319 394 486 577
#     4  10  22  46  90 140 186 245 325 386 496 574
#
# _framework density 29.066177
#
# number of rings (size 3 to 8) (size 9 to 14) (size 15 to 20)
#    2.000    0.000    3.333    0.000    0.000    1.333 
#    0.000    6.667   22.000    0.000    8.667    0.000 
#    0.000    0.000    0.000    0.000    0.000    0.000 
#
# Total GULP energy -223112.199435 kJ/mol
# GULP energy per Si atom -12395.122191 kJ/mol
# Density = 2.900002 g / cm^3
# Si number density = 29.066177 Si / 1000 Ang^3
#
#
#
# Elastic Constant Matrix: (Units=GPa)
#
#
# Indices 1 2 3 4 5 6 
#
# 1 173.9337 59.8145 50.1387 -13.0196 0.0000 0.0000
# 2 59.8145 173.9337 50.1387 13.0196 0.0000 0.0000
# 3 50.1387 50.1387 115.5039 0.0000 0.0000 0.0000
# 4 -13.0196 13.0196 0.0000 72.1252 0.0000 0.0000
# 5 0.0000 0.0000 0.0000 0.0000 72.1252 -13.0196
# 6 0.0000 0.0000 0.0000 0.0000 -13.0196 57.0596
#
#
#
# Elastic Compliance Matrix: (Units=1/GPa)
#
#
# Indices 1 2 3 4 5 6 
#
# 1 0.007198 -0.001941 -0.002282 0.001650 0.000000 0.000000
# 2 -0.001941 0.007198 -0.002282 -0.001650 0.000000 0.000000
# 3 -0.002282 -0.002282 0.010639 0.000000 0.000000 0.000000
# 4 0.001650 -0.001650 0.000000 0.014460 0.000000 0.000000
# 5 0.000000 0.000000 0.000000 0.000000 0.014460 0.003299
# 6 0.000000 0.000000 0.000000 0.000000 0.003299 0.018278
#
#
# Mechanical properties :
#
#
# Convention : Reuss Voigt Hill
#
# Bulk Modulus (GPa) = 83.16032 87.06169 85.11100
# Shear Modulus (GPa) = 56.02058 60.48064 58.25061
#
# Velocity S-wave (km/s) = 4.39492 4.56652 4.48154
# Velocity P-wave (km/s) = 7.37743 7.60408 7.49161
#
# Compressibility (1/GPa) = 0.01202497
#
# Stress axis : x y z
#
# Youngs Moduli (GPa) = 138.92466 138.92466 93.99452
#
# Poissons Ratio (x) = 0.26966 0.21450
# Poissons Ratio (y) = 0.26966 0.21450
# Poissons Ratio (z) = 0.31703 0.31703
#
# Static dielectric constant tensor:
#      x y z
#    x 5.372600 0.000000 0.000000 
#    y 0.000000 5.372600 0.000000 
#    z 0.000000 0.000000 5.630830 
# 
# 
# High freq. dielectric constant tensor:
#      x y z
#    x 2.195290 0.000000 0.000000 
#    y 0.000000 2.195290 0.000000 
#    z 0.000000 0.000000 2.206970 
# 
# From -- ./inp_files/1470.got.cif
#   From: 2010.03.12/outbox.cif.g09.slc.cpg/sg154_1_cif.got.tgz:1470.got - 2010.04.03 13:51:21.
