data_PCOD8322078
_publ_section_title
;
Structure prediction by ZEFSAII (Michael W. Deem and Ramdas Pophale) SiO2 
 PCOD8322078
Probable space group: P 31 2 1
;
_chemical_formula_sum "Si O2"
_cell_formula_units_Z 42
_cell_length_a 8.658431
_cell_length_b 8.658431
_cell_length_c 31.331315
_cell_angle_alpha 90.000000
_cell_angle_beta 90.000000
_cell_angle_gamma 120.000000
_cell_volume 2034.171922
_symmetry_space_group_name_H-M "P 31 2 1"
_symmetry_group_IT_number 152
_symmetry_cell_setting 'hexagonal'
loop_
_space_group_symop_operation_xyz
x,y,z
-y,x-y,1/3+z
-x+y,-x,2/3+z
x-y,-y,2/3-z
-x,-x+y,1/3-z
y,x,-z
loop_
_atom_site_type_symbol
_atom_site_label
_atom_site_fract_x
_atom_site_fract_y
_atom_site_fract_z
Si Si1 0.811403 0.800948 0.551243
Si Si2 0.247244 0.682007 0.754781
Si Si3 0.337850 0.885397 0.238062
Si Si4 0.842141 0.970424 0.748349
Si Si5 0.460390 0.345976 0.642929
Si Si6 0.442168 0.254082 0.515705
Si Si7 0.524312 0.220819 0.726835
O O1 0.837206 0.837206 0.500000
O O2 0.831936 0.635138 0.563368
O O3 0.618495 0.765438 0.567633
O O4 0.965586 0.954027 0.580758
O O5 0.354788 0.731725 0.710574
O O6 0.379224 0.691050 0.791706
O O7 0.076981 0.491366 0.747726
O O8 0.164476 0.870730 0.258653
O O9 0.317102 0.873970 0.187208
O O10 0.359765 0.718635 0.253753
O O11 0.710162 0.870415 0.708029
O O12 0.736287 0.872559 0.790921
O O13 0.468099 0.326197 0.693724
O O14 0.457251 0.524639 0.630933
O O15 0.428921 0.428921 0.500000
#
# Coordination Sequence:
#
# PCOD8322078 Si02
#       7
#     6   6   6   6   6   6   6
#     4  11  21  37  60  87 113 146 186 229 284 341
#     4  10  21  35  55  80 112 145 184 234 279 333
#     4  10  20  35  55  83 111 147 188 234 287 330
#     4   9  20  37  58  81 113 149 186 230 279 343
#     4   9  21  41  57  78 108 150 190 226 281 331
#     4   9  17  36  57  76 112 153 184 226 287 343
#     4  10  22  39  60  79 112 152 189 233 277 337
#
# _framework density 20.647224000000001
#
# number of rings (size 3 to 8) (size 9 to 14) (size 15 to 20)
#    0.000    2.286    0.000    5.143    0.000    5.714 
#    0.000   10.000    0.000    0.000    0.000    0.000 
#    0.000    0.000    0.000    0.000    0.000    0.000 
#
# Total GULP energy -520382.514063 kJ/mol
# GULP energy per Si atom -12390.059859 kJ/mol
# Density = 2.060023 g / cm^3
# Si number density = 20.647224 Si / 1000 Ang^3
#
#
#
# Elastic Constant Matrix: (Units=GPa)
#
#
# Indices 1 2 3 4 5 6 
#
# 1 70.4046 13.7288 11.3832 4.2109 0.0000 0.0000
# 2 13.7288 70.4046 11.3832 -4.2109 0.0000 0.0000
# 3 11.3832 11.3832 59.0663 0.0000 0.0000 0.0000
# 4 4.2109 -4.2109 0.0000 22.6311 0.0000 0.0000
# 5 0.0000 0.0000 0.0000 0.0000 22.6311 4.2109
# 6 0.0000 0.0000 0.0000 0.0000 4.2109 28.3379
#
#
#
# Elastic Compliance Matrix: (Units=1/GPa)
#
#
# Indices 1 2 3 4 5 6 
#
# 1 0.015343 -0.002803 -0.002417 -0.003376 0.000000 0.000000
# 2 -0.002803 0.015343 -0.002417 0.003376 0.000000 0.000000
# 3 -0.002417 -0.002417 0.017862 0.000000 0.000000 0.000000
# 4 -0.003376 0.003376 0.000000 0.045443 0.000000 0.000000
# 5 0.000000 0.000000 0.000000 0.000000 0.045443 -0.006753
# 6 0.000000 0.000000 0.000000 0.000000 -0.006753 0.036292
#
#
# Mechanical properties :
#
#
# Convention : Reuss Voigt Hill
#
# Bulk Modulus (GPa) = 30.05297 30.31846 30.18571
# Shear Modulus (GPa) = 24.74139 25.61203 25.17671
#
# Velocity S-wave (km/s) = 3.46539 3.52584 3.49574
# Velocity P-wave (km/s) = 5.53163 5.59386 5.56283
#
# Compressibility (1/GPa) = 0.03327458
#
# Stress axis : x y z
#
# Youngs Moduli (GPa) = 65.17677 65.17677 55.98596
#
# Poissons Ratio (x) = 0.18269 0.13530
# Poissons Ratio (y) = 0.18269 0.13530
# Poissons Ratio (z) = 0.15751 0.15751
#
# Static dielectric constant tensor:
#      x y z
#    x 3.742900 0.000000 0.000000 
#    y 0.000000 3.742900 0.000000 
#    z 0.000000 0.000000 3.775230 
# 
# 
# High freq. dielectric constant tensor:
#      x y z
#    x 1.800400 0.000000 0.000000 
#    y 0.000000 1.800400 0.000000 
#    z 0.000000 0.000000 1.802690 
# 
# From -- ./inp_files/3713.got.cif
#   From: 2010.03.12/outbox.cif.g09.slc.cpg/sg152_2_cif.got.tgz:3713.got - 2010.04.03 13:45:27.
