data_PCOD8322991
_publ_section_title
;
Structure prediction by ZEFSAII (Michael W. Deem and Ramdas Pophale) SiO2 
 PCOD8322991
Probable space group: P -3 1 M 
;
_chemical_formula_sum "Si O2"
_cell_formula_units_Z 72
_cell_length_a 23.786536
_cell_length_b 23.786536
_cell_length_c 8.971827
_cell_angle_alpha 90.000000
_cell_angle_beta 90.000000
_cell_angle_gamma 120.000000
_cell_volume 4396.164392
_symmetry_space_group_name_H-M "P -3 1 M "
_symmetry_group_IT_number 162
_symmetry_cell_setting 'hexagonal'
loop_
_space_group_symop_operation_xyz
x,y,z
-y,x-y,z
-x+y,-x,z
-y,-x,-z
-x+y,y,-z
x,x-y,-z
-x,-y,-z
y,-x+y,-z
x-y,x,-z
y,x,z
x-y,-y,z
-x,-x+y,z
loop_
_atom_site_type_symbol
_atom_site_label
_atom_site_fract_x
_atom_site_fract_y
_atom_site_fract_z
Si Si1 0.264109 0.859772 0.444198
Si Si2 0.618127 0.694171 0.130804
Si Si3 0.076413 0.596168 0.416283
Si Si4 0.516475 0.593279 0.923056
Si Si5 0.741754 0.814433 0.433681
Si Si6 0.185720 0.257109 0.918087
O O1 0.214350 0.785651 0.500000
O O2 0.278473 0.872571 0.266992
O O3 0.333110 0.882607 0.515915
O O4 0.233143 0.903086 0.498967
O O5 0.647786 0.647786 0.185527
O O6 0.673123 0.754095 0.035736
O O7 0.558660 0.658605 0.016840
O O8 0.093601 0.546801 0.500000
O O9 0.100566 0.605402 0.246467
O O10 0.000000 0.570863 0.430787
O O11 0.551843 0.551843 0.925956
O O12 0.446344 0.553657 0.000000
O O13 0.771993 0.885996 0.500000
O O14 0.787168 0.787168 0.488468
O O15 0.740437 0.820722 0.257857
O O16 0.200228 0.200228 0.964362
O O17 0.120750 0.241500 0.000000
#
# Coordination Sequence:
#
# PCOD8322991 Si02
#       6
#    12  12  12  12  12  12
#     4  10  19  31  47  69  97 127 156 190 232 278
#     4   9  17  30  46  64  94 129 157 190 231 277
#     4  10  19  31  50  73  96 123 157 195 232 276
#     4   9  17  28  44  69  97 125 155 188 231 276
#     4   9  18  31  47  68  95 125 156 193 236 281
#     4   9  18  31  46  66  91 121 156 193 236 283
#
# _framework density 16.377912999999999
#
# number of rings (size 3 to 8) (size 9 to 14) (size 15 to 20)
#    0.000    2.667    0.000    3.500    0.000    7.333 
#    0.000    1.667    0.000    0.667    0.000    0.000 
#    0.000    0.000    0.000    0.500    0.000    0.333 
#
# Total GULP energy -892317.496336 kJ/mol
# GULP energy per Si atom -12393.298560 kJ/mol
# Density = 1.634064 g / cm^3
# Si number density = 16.377913 Si / 1000 Ang^3
#
#
#
# Elastic Constant Matrix: (Units=GPa)
#
#
# Indices 1 2 3 4 5 6 
#
# 1 109.9570 65.2926 50.8866 0.0000 -0.3266 0.0000
# 2 65.2926 109.9570 50.8866 0.0000 0.3266 0.0000
# 3 50.8866 50.8866 79.0312 0.0000 0.0000 0.0000
# 4 0.0000 0.0000 0.0000 28.5589 0.0000 0.3266
# 5 -0.3266 0.3266 0.0000 0.0000 28.5589 0.0000
# 6 0.0000 0.0000 0.0000 0.3266 0.0000 22.3322
#
#
#
# Elastic Compliance Matrix: (Units=1/GPa)
#
#
# Indices 1 2 3 4 5 6 
#
# 1 0.015754 -0.006639 -0.005868 0.000000 0.000256 0.000000
# 2 -0.006639 0.015754 -0.005868 0.000000 -0.000256 0.000000
# 3 -0.005868 -0.005868 0.020210 0.000000 0.000000 0.000000
# 4 0.000000 0.000000 0.000000 0.035021 0.000000 -0.000512
# 5 0.000256 -0.000256 0.000000 0.000000 0.035021 0.000000
# 6 0.000000 0.000000 0.000000 -0.000512 0.000000 0.044786
#
#
# Mechanical properties :
#
#
# Convention : Reuss Voigt Hill
#
# Bulk Modulus (GPa) = 66.82277 70.34189 68.58233
# Shear Modulus (GPa) = 24.00543 24.68198 24.34371
#
# Velocity S-wave (km/s) = 3.83263 3.88626 3.85953
# Velocity P-wave (km/s) = 7.77653 7.94857 7.86302
#
# Compressibility (1/GPa) = 0.01496496
#
# Stress axis : x y z
#
# Youngs Moduli (GPa) = 63.47787 63.47787 49.47967
#
# Poissons Ratio (x) = 0.42145 0.29037
# Poissons Ratio (y) = 0.42145 0.29037
# Poissons Ratio (z) = 0.37251 0.37251
#
# Static dielectric constant tensor:
#      x y z
#    x 3.053500 0.000000 0.000000 
#    y 0.000000 3.053500 0.000000 
#    z 0.000000 0.000000 3.167950 
# 
# 
# High freq. dielectric constant tensor:
#      x y z
#    x 1.611910 0.000000 0.000000 
#    y 0.000000 1.611910 0.000000 
#    z 0.000000 0.000000 1.631810 
# 
# From -- ./inp_files/1760.got.cif
#   From: 2010.03.12/outbox.cif.g09.slc.cpg/sg162_1_cif.got.tgz:1760.got - 2010.04.02 06:27:41.
