data_PCOD8322332
_publ_section_title
;
Structure prediction by ZEFSAII (Michael W. Deem and Ramdas Pophale) SiO2 
 PCOD8322332
Probable space group: P 32 2 1
;
_chemical_formula_sum "Si O2"
_cell_formula_units_Z 42
_cell_length_a 12.806225
_cell_length_b 12.806225
_cell_length_c 15.382437
_cell_angle_alpha 90.000000
_cell_angle_beta 90.000000
_cell_angle_gamma 120.000000
_cell_volume 2184.731310
_symmetry_space_group_name_H-M "P 32 2 1"
_symmetry_group_IT_number 154
_symmetry_cell_setting 'hexagonal'
loop_
_space_group_symop_operation_xyz
x,y,z
-y,x-y,2/3+z
-x+y,-x,1/3+z
x-y,-y,1/3-z
-x,-x+y,2/3-z
y,x,-z
loop_
_atom_site_type_symbol
_atom_site_label
_atom_site_fract_x
_atom_site_fract_y
_atom_site_fract_z
Si Si1 0.636936 0.091449 0.501352
Si Si2 0.348919 0.860755 0.178814
Si Si3 0.080931 0.401473 0.462652
Si Si4 0.590914 0.879406 0.215920
Si Si5 0.477838 0.752353 0.676612
Si Si6 0.667951 0.153619 0.926097
Si Si7 0.537996 0.710254 0.944084
O O1 0.538666 0.132687 0.509203
O O2 0.706254 0.135499 0.595060
O O3 0.721089 0.162335 0.420808
O O4 0.572449 0.948764 0.482546
O O5 0.455372 0.827214 0.178277
O O6 0.271493 0.821174 0.267746
O O7 0.261809 0.798946 0.097764
O O8 0.400932 0.000000 0.166667
O O9 0.145380 0.357232 0.532280
O O10 0.127661 0.392158 0.367803
O O11 0.935470 0.333427 0.461053
O O12 0.584192 0.903876 0.317723
O O13 0.682790 0.000000 0.166667
O O14 0.415874 0.630703 0.735229
O O15 0.385990 0.783281 0.625147
#
# Coordination Sequence:
#
# PCOD8322332 Si02
#       7
#     6   6   6   6   6   6   6
#     4  11  20  32  53  79 108 143 186 228 284 343
#     4  10  21  36  52  77 112 148 186 230 288 350
#     4  10  20  33  53  77 107 144 180 228 284 340
#     4  10  21  36  56  81 111 145 185 232 285 347
#     4  10  20  34  53  79 113 145 182 233 281 337
#     4  11  22  35  55  81 112 150 188 234 286 346
#     4  10  20  34  52  79 110 140 183 233 280 338
#
# _framework density 19.224330999999999
#
# number of rings (size 3 to 8) (size 9 to 14) (size 15 to 20)
#    0.000    1.714    0.000    6.857    0.000    8.571 
#    0.000    0.000    0.000    0.857    0.000    2.000 
#    0.000    0.000    0.000    0.000    0.000    0.000 
#
# Total GULP energy -520464.155589 kJ/mol
# GULP energy per Si atom -12392.003705 kJ/mol
# Density = 1.918058 g / cm^3
# Si number density = 19.224331 Si / 1000 Ang^3
#
#
#
# Elastic Constant Matrix: (Units=GPa)
#
#
# Indices 1 2 3 4 5 6 
#
# 1 87.3991 35.2739 41.1081 1.5479 0.0001 0.0000
# 2 35.2739 87.3991 41.1081 -1.5479 -0.0001 0.0000
# 3 41.1081 41.1081 63.0518 0.0000 0.0000 0.0000
# 4 1.5479 -1.5479 0.0000 34.9714 0.0000 -0.0001
# 5 0.0001 -0.0001 0.0000 0.0000 34.9714 1.5479
# 6 0.0000 0.0000 0.0000 -0.0001 1.5479 26.0626
#
#
#
# Elastic Compliance Matrix: (Units=1/GPa)
#
#
# Indices 1 2 3 4 5 6 
#
# 1 0.016857 -0.002379 -0.009439 -0.000851 0.000000 0.000000
# 2 -0.002379 0.016857 -0.009439 0.000851 0.000000 0.000000
# 3 -0.009439 -0.009439 0.028168 0.000000 0.000000 0.000000
# 4 -0.000851 0.000851 0.000000 0.028670 0.000000 0.000000
# 5 0.000000 0.000000 0.000000 0.000000 0.028670 -0.001703
# 6 0.000000 0.000000 0.000000 0.000000 -0.001703 0.038470
#
#
# Mechanical properties :
#
#
# Convention : Reuss Voigt Hill
#
# Bulk Modulus (GPa) = 51.63367 52.53668 52.08518
# Shear Modulus (GPa) = 24.19411 27.22508 25.70959
#
# Velocity S-wave (km/s) = 3.55140 3.76730 3.66094
# Velocity P-wave (km/s) = 6.61313 6.80521 6.70986
#
# Compressibility (1/GPa) = 0.01936721
#
# Stress axis : x y z
#
# Youngs Moduli (GPa) = 59.32408 59.32408 35.50100
#
# Poissons Ratio (x) = 0.14111 0.33510
# Poissons Ratio (y) = 0.14111 0.33510
# Poissons Ratio (z) = 0.55997 0.55997
#
# Static dielectric constant tensor:
#      x y z
#    x 3.357890 0.000000 0.000000 
#    y 0.000000 3.357890 0.000000 
#    z 0.000000 0.000000 3.678740 
# 
# 
# High freq. dielectric constant tensor:
#      x y z
#    x 1.723000 0.000000 0.000000 
#    y 0.000000 1.723000 0.000000 
#    z 0.000000 0.000000 1.763360 
# 
# From -- ./inp_files/2447.got.cif
#   From: 2010.03.12/outbox.cif.g09.slc.cpg/sg154_2_cif.got.tgz:2447.got - 2010.04.03 13:51:21.
