data_PCOD8322779
_publ_section_title
;
Structure prediction by ZEFSAII (Michael W. Deem and Ramdas Pophale) SiO2 
 PCOD8322779
Probable space group: P 3 C 1
;
_chemical_formula_sum "Si O2"
_cell_formula_units_Z 40
_cell_length_a 11.087978
_cell_length_b 11.087978
_cell_length_c 16.959418
_cell_angle_alpha 90.000000
_cell_angle_beta 90.000000
_cell_angle_gamma 120.000000
_cell_volume 1805.702866
_symmetry_space_group_name_H-M "P 3 C 1"
_symmetry_group_IT_number 158
_symmetry_cell_setting 'hexagonal'
loop_
_space_group_symop_operation_xyz
x,y,z
-y,x-y,z
-x+y,-x,z
-x+y,y,1/2+z
x,x-y,1/2+z
-y,-x,1/2+z
loop_
_atom_site_type_symbol
_atom_site_label
_atom_site_fract_x
_atom_site_fract_y
_atom_site_fract_z
Si Si1 0.070946 0.616946 0.733140
Si Si2 0.360385 0.155852 0.306385
Si Si3 0.703221 0.949253 0.478600
Si Si4 0.666668 0.333335 0.617373
Si Si5 0.518025 0.021336 0.571185
Si Si6 0.289813 0.383092 0.302339
Si Si7 0.666668 0.333334 0.805253
Si Si8 0.755557 0.715108 0.471914
O O1 0.070272 0.516011 0.801672
O O2 0.197408 0.774327 0.745627
O O3 0.928545 0.624343 0.733720
O O4 0.065118 0.532816 0.653447
O O5 0.282294 0.237512 0.275249
O O6 0.511434 0.273041 0.338872
O O7 0.287545 0.041122 0.375798
O O8 0.643735 0.888455 0.392537
O O9 0.773481 0.859427 0.505316
O O10 0.575177 0.929768 0.529808
O O11 0.813501 0.110399 0.490806
O O12 0.630379 0.182272 0.586057
O O13 0.666668 0.333334 0.711231
O O14 0.400158 0.018728 0.515787
#
# Coordination Sequence:
#
# PCOD8322779 Si02
#       8
#     6   6   6   2   6   6   2   6
#     4  12  25  46  69 101 142 187 230 297 354 423
#     4  11  22  42  75 101 136 178 240 292 351 420
#     4  11  25  45  72 100 139 188 228 297 357 424
#     4  12  21  43  68 106 138 172 236 307 360 412
#     4  12  26  43  71 100 142 187 231 295 357 429
#     4  11  25  45  71 101 137 184 238 295 349 423
#     4  12  21  40  77 106 129 181 239 307 357 409
#     4  11  25  46  69 105 141 181 240 288 359 430
#
# _framework density 22.152038999999998
#
# number of rings (size 3 to 8) (size 9 to 14) (size 15 to 20)
#    0.000    0.600    6.000    1.500    4.200    0.000 
#    1.800    0.000    0.000    0.000    0.000    0.000 
#    0.000    0.000    0.000    0.000    0.000    0.000 
#
# Total GULP energy -495558.223429 kJ/mol
# GULP energy per Si atom -12388.955586 kJ/mol
# Density = 2.210162 g / cm^3
# Si number density = 22.152039 Si / 1000 Ang^3
#
#
#
# Elastic Constant Matrix: (Units=GPa)
#
#
# Indices 1 2 3 4 5 6 
#
# 1 104.6823 27.7128 38.7812 -2.1842 0.0000 0.0000
# 2 27.7128 104.6818 38.7811 2.1840 0.0000 0.0000
# 3 38.7812 38.7811 57.9312 0.0000 0.0000 0.0000
# 4 -2.1842 2.1840 0.0000 28.3612 0.0000 0.0000
# 5 0.0000 0.0000 0.0000 0.0000 28.3612 -2.1844
# 6 0.0000 0.0000 0.0000 0.0000 -2.1844 38.4847
#
#
#
# Elastic Compliance Matrix: (Units=1/GPa)
#
#
# Indices 1 2 3 4 5 6 
#
# 1 0.012738 -0.000311 -0.008319 0.001005 0.000000 0.000000
# 2 -0.000311 0.012738 -0.008319 -0.001005 0.000000 0.000000
# 3 -0.008319 -0.008319 0.028400 0.000000 0.000000 0.000000
# 4 0.001005 -0.001005 0.000000 0.035414 0.000000 0.000000
# 5 0.000000 0.000000 0.000000 0.000000 0.035414 0.002010
# 6 0.000000 0.000000 0.000000 0.000000 0.002010 0.026098
#
#
# Mechanical properties :
#
#
# Convention : Reuss Voigt Hill
#
# Bulk Modulus (GPa) = 50.05590 53.09394 51.57492
# Shear Modulus (GPa) = 26.12881 29.84278 27.98579
#
# Velocity S-wave (km/s) = 3.43814 3.67438 3.55822
# Velocity P-wave (km/s) = 6.19731 6.48239 6.34145
#
# Compressibility (1/GPa) = 0.01997767
#
# Stress axis : x y z
#
# Youngs Moduli (GPa) = 78.50565 78.50538 35.21165
#
# Poissons Ratio (x) = 0.02444 0.29292
# Poissons Ratio (y) = 0.02444 0.29292
# Poissons Ratio (z) = 0.65308 0.65307
#
# Static dielectric constant tensor:
#      x y z
#    x 4.075710 0.000000 0.000000 
#    y 0.000000 4.075710 0.000000 
#    z 0.000000 0.000000 3.856970 
# 
# 
# High freq. dielectric constant tensor:
#      x y z
#    x 1.877930 0.000000 0.000000 
#    y 0.000000 1.877930 0.000000 
#    z 0.000000 0.000000 1.854960 
# 
# From -- ./inp_files/667.got.cif
#   From: 2010.03.12/outbox.cif.g09.slc.cpg/sg158_cif.got.tgz:667.got - 2010.04.03 13:59:47.
