data_PCOD8322875
_publ_section_title
;
Structure prediction by ZEFSAII (Michael W. Deem and Ramdas Pophale) SiO2 
 PCOD8322875
Probable space group: R 3 M
;
_chemical_formula_sum "Si O2"
_cell_formula_units_Z 33
_cell_length_a 15.717571
_cell_length_b 15.717571
_cell_length_c 6.872679
_cell_angle_alpha 90.000000
_cell_angle_beta 90.000000
_cell_angle_gamma 120.000000
_cell_volume 1470.373115
_symmetry_space_group_name_H-M "R 3 M"
_symmetry_group_IT_number 160
_symmetry_cell_setting 'hexagonal'
loop_
_space_group_symop_operation_xyz
x,y,z
-y,x-y,z
-x+y,-x,z
-x+y,y,z
x,x-y,z
-y,-x,z
2/3+x,1/3+y,1/3+z
2/3-y,1/3+x-y,1/3+z
2/3-x+y,1/3-x,1/3+z
2/3-x+y,1/3+y,1/3+z
2/3+x,1/3+x-y,1/3+z
2/3-y,1/3-x,1/3+z
1/3+x,2/3+y,2/3+z
1/3-y,2/3+x-y,2/3+z
1/3-x+y,2/3-x,2/3+z
1/3-x+y,2/3+y,2/3+z
1/3+x,2/3+x-y,2/3+z
1/3-y,2/3-x,2/3+z
loop_
_atom_site_type_symbol
_atom_site_label
_atom_site_fract_x
_atom_site_fract_y
_atom_site_fract_z
Si Si1 0.158164 0.579082 0.767410
Si Si2 0.000000 0.000000 0.827271
Si Si3 0.621271 0.037972 0.301720
Si Si4 0.666667 0.333333 0.705911
O O1 0.222854 0.611427 0.571286
O O2 0.095320 0.633283 0.765924
O O3 0.222001 0.611001 0.963489
O O4 0.000000 0.000000 0.599704
O O5 0.515570 0.031140 0.293420
O O6 0.662926 0.051064 0.082293
#
# Coordination Sequence:
#
# PCOD8322875 Si02
#       4
#     9   3  18   3
#     4  10  22  46  65 111 149 179 245 302 341 448
#     4  10  20  37  73 101 151 190 233 289 379 410
#     4  12  27  48  73 107 149 189 238 300 361 424
#     4  10  20  37  76 104 148 193 236 283 382 416
#
# _framework density 22.443286000000001
#
# number of rings (size 3 to 8) (size 9 to 14) (size 15 to 20)
#    0.000    1.091    8.182    0.000    3.818    4.364 
#    0.000    0.000    0.000    0.000    0.000    0.000 
#    0.000    0.000    0.000    0.000    0.000    0.000 
#
# Total GULP energy -136378.483794 kJ/mol
# GULP energy per Si atom -12398.043981 kJ/mol
# Density = 2.239220 g / cm^3
# Si number density = 22.443286 Si / 1000 Ang^3
#
#
#
# Elastic Constant Matrix: (Units=GPa)
#
#
# Indices 1 2 3 4 5 6 
#
# 1 103.4065 51.8608 33.5977 4.7806 0.0007 0.0001
# 2 51.8608 103.4061 33.5958 -4.7802 0.0006 -0.0001
# 3 33.5977 33.5958 137.6358 0.0005 0.0034 -0.0001
# 4 4.7806 -4.7802 0.0005 24.8052 -0.0001 0.0003
# 5 0.0007 0.0006 0.0034 -0.0001 24.8069 4.7804
# 6 0.0001 -0.0001 -0.0001 0.0003 4.7804 25.7726
#
#
#
# Elastic Compliance Matrix: (Units=1/GPa)
#
#
# Indices 1 2 3 4 5 6 
#
# 1 0.013660 -0.006459 -0.001758 -0.003877 0.000000 0.000000
# 2 -0.006459 0.013660 -0.001758 0.003877 0.000000 0.000000
# 3 -0.001758 -0.001758 0.008124 0.000000 -0.000001 0.000000
# 4 -0.003877 0.003877 0.000000 0.041809 0.000000 -0.000001
# 5 0.000000 0.000000 -0.000001 0.000000 0.041806 -0.007754
# 6 0.000000 0.000000 0.000000 -0.000001 -0.007754 0.040239
#
#
# Mechanical properties :
#
#
# Convention : Reuss Voigt Hill
#
# Bulk Modulus (GPa) = 64.53730 64.72856 64.63293
# Shear Modulus (GPa) = 27.11316 30.10322 28.60819
#
# Velocity S-wave (km/s) = 3.47951 3.66635 3.57415
# Velocity P-wave (km/s) = 6.70528 6.84298 6.77448
#
# Compressibility (1/GPa) = 0.01549492
#
# Stress axis : x y z
#
# Youngs Moduli (GPa) = 73.20418 73.20463 123.09649
#
# Poissons Ratio (x) = 0.47284 0.21640
# Poissons Ratio (y) = 0.47284 0.21636
# Poissons Ratio (z) = 0.12869 0.12867
#
# Static dielectric constant tensor:
#      x y z
#    x 4.157930 0.000000 0.000000 
#    y 0.000000 4.157930 0.000000 
#    z 0.000000 0.000000 3.611310 
# 
# 
# High freq. dielectric constant tensor:
#      x y z
#    x 1.891910 0.000000 0.000000 
#    y 0.000000 1.891910 0.000000 
#    z 0.000000 0.000000 1.869790 
# 
# From -- ./inp_files/50.got.cif
#   From: 2010.03.12/outbox.cif.g09.slc.cpg/sg160_1_cif.got.tgz:50.got - 2010.04.02 06:26:15.
