data_PCOD8322470
_publ_section_title
;
Structure prediction by ZEFSAII (Michael W. Deem and Ramdas Pophale) SiO2 
 PCOD8322470
Probable space group: R 3 2
;
_chemical_formula_sum "Si O2"
_cell_formula_units_Z 126
_cell_length_a 20.569650
_cell_length_b 20.569650
_cell_length_c 17.408199
_cell_angle_alpha 90.000000
_cell_angle_beta 90.000000
_cell_angle_gamma 120.000000
_cell_volume 6378.789615
_symmetry_space_group_name_H-M "R 3 2"
_symmetry_group_IT_number 155
_symmetry_cell_setting 'hexagonal'
loop_
_space_group_symop_operation_xyz
x,y,z
-y,x-y,z
-x+y,-x,z
x-y,-y,-z
-x,-x+y,-z
y,x,-z
2/3+x,1/3+y,1/3+z
2/3-y,1/3+x-y,1/3+z
2/3-x+y,1/3-x,1/3+z
2/3+x-y,1/3-y,1/3-z
2/3-x,1/3-x+y,1/3-z
2/3+y,1/3+x,1/3-z
1/3+x,2/3+y,2/3+z
1/3-y,2/3+x-y,2/3+z
1/3-x+y,2/3-x,2/3+z
1/3+x-y,2/3-y,2/3-z
1/3-x,2/3-x+y,2/3-z
1/3+y,2/3+x,2/3-z
loop_
_atom_site_type_symbol
_atom_site_label
_atom_site_fract_x
_atom_site_fract_y
_atom_site_fract_z
Si Si1 0.821000 0.035500 0.856997
Si Si2 0.410716 0.196976 0.210060
Si Si3 0.747122 0.995794 0.304516
Si Si4 0.748626 0.632824 0.837521
Si Si5 0.580065 0.774841 0.310160
Si Si6 0.864004 0.372922 0.128743
Si Si7 0.486128 0.491040 0.692991
O O1 0.770416 0.029632 0.783751
O O2 0.910144 0.074876 0.833570
O O3 0.805378 0.080511 0.922535
O O4 0.794848 0.952607 0.886642
O O5 0.333334 0.172171 0.166667
O O6 0.460604 0.168954 0.165566
O O7 0.388043 0.164983 0.297207
O O8 0.666667 0.979818 0.333334
O O9 0.775897 0.948542 0.353886
O O10 0.805262 0.083788 0.313529
O O11 0.666667 0.624186 0.833334
O O12 0.746733 0.571113 0.777772
O O13 0.807849 0.715944 0.814584
O O14 0.772224 0.622282 0.923083
O O15 0.666667 0.808929 0.333334
O O16 0.526077 0.706346 0.368645
#
# Coordination Sequence:
#
# PCOD8322470 Si02
#       7
#    18  18  18  18  18  18  18
#     4  10  22  39  54  85 120 153 199 245 304 375
#     4  12  23  37  60  91 118 155 204 265 309 352
#     4  10  18  33  56  82 116 155 186 238 306 365
#     4  10  21  36  53  83 115 153 191 240 292 364
#     4   8  17  34  56  78 113 155 194 230 291 370
#     4   9  21  40  58  79 117 160 197 240 299 369
#     4  11  23  35  57  87 120 150 194 252 308 362
#
# _framework density 19.752963999999999
#
# number of rings (size 3 to 8) (size 9 to 14) (size 15 to 20)
#    0.000    2.000    1.429    4.286    2.000    4.000 
#    3.429    0.000    0.000    0.000    0.000    0.000 
#    5.714    0.000    0.000    0.000    0.000    0.000 
#
# Total GULP energy -520435.364545 kJ/mol
# GULP energy per Si atom -12391.318203 kJ/mol
# Density = 1.970801 g / cm^3
# Si number density = 19.752964 Si / 1000 Ang^3
#
#
#
# Elastic Constant Matrix: (Units=GPa)
#
#
# Indices 1 2 3 4 5 6 
#
# 1 78.3139 27.4473 42.1524 8.9334 -0.0002 0.0000
# 2 27.4473 78.3139 42.1524 -8.9334 0.0002 0.0000
# 3 42.1524 42.1524 124.6112 0.0000 0.0000 0.0000
# 4 8.9334 -8.9334 0.0000 28.1676 0.0000 0.0002
# 5 -0.0002 0.0002 0.0000 0.0000 28.1676 8.9334
# 6 0.0000 0.0000 0.0000 0.0002 8.9334 25.4333
#
#
#
# Elastic Compliance Matrix: (Units=1/GPa)
#
#
# Indices 1 2 3 4 5 6 
#
# 1 0.017535 -0.004589 -0.004379 -0.007017 0.000000 0.000000
# 2 -0.004589 0.017535 -0.004379 0.007017 0.000000 0.000000
# 3 -0.004379 -0.004379 0.010988 0.000000 0.000000 0.000000
# 4 -0.007017 0.007017 0.000000 0.039953 0.000000 0.000000
# 5 0.000000 0.000000 0.000000 0.000000 0.039953 -0.014033
# 6 0.000000 0.000000 0.000000 0.000000 -0.014033 0.044248
#
#
# Mechanical properties :
#
#
# Convention : Reuss Voigt Hill
#
# Bulk Modulus (GPa) = 51.64550 56.08257 53.86404
# Shear Modulus (GPa) = 24.58699 27.65281 26.11990
#
# Velocity S-wave (km/s) = 3.53189 3.74563 3.64033
# Velocity P-wave (km/s) = 6.54483 6.86731 6.70801
#
# Compressibility (1/GPa) = 0.01936277
#
# Stress axis : x y z
#
# Youngs Moduli (GPa) = 57.02888 57.02888 91.01056
#
# Poissons Ratio (x) = 0.26170 0.39856
# Poissons Ratio (y) = 0.26170 0.39856
# Poissons Ratio (z) = 0.24975 0.24975
#
# Static dielectric constant tensor:
#      x y z
#    x 3.520850 0.000000 0.000000 
#    y 0.000000 3.520850 0.000000 
#    z 0.000000 0.000000 4.139130 
# 
# 
# High freq. dielectric constant tensor:
#      x y z
#    x 1.745200 0.000000 0.000000 
#    y 0.000000 1.745200 0.000000 
#    z 0.000000 0.000000 1.789510 
# 
# From -- ./inp_files/6286.got.cif
#   From: 2010.03.12/outbox.cif.g09.slc.cpg/sg155_4_cif.got.tgz:6286.got - 2010.04.03 13:54:13.
