data_PCOD8322986
_publ_section_title
;
Structure prediction by ZEFSAII (Michael W. Deem and Ramdas Pophale) SiO2 
 PCOD8322986
Probable space group: P -3 1 M 
;
_chemical_formula_sum "Si O2"
_cell_formula_units_Z 60
_cell_length_a 30.835781
_cell_length_b 30.835781
_cell_length_c 5.107021
_cell_angle_alpha 90.000000
_cell_angle_beta 90.000000
_cell_angle_gamma 120.000000
_cell_volume 4205.408426
_symmetry_space_group_name_H-M "P -3 1 M "
_symmetry_group_IT_number 162
_symmetry_cell_setting 'hexagonal'
loop_
_space_group_symop_operation_xyz
x,y,z
-y,x-y,z
-x+y,-x,z
-y,-x,-z
-x+y,y,-z
x,x-y,-z
-x,-y,-z
y,-x+y,-z
x-y,x,-z
y,x,z
x-y,-y,z
-x,-x+y,z
loop_
_atom_site_type_symbol
_atom_site_label
_atom_site_fract_x
_atom_site_fract_y
_atom_site_fract_z
Si Si1 0.259752 0.203287 0.572489
Si Si2 0.851423 0.056442 0.089195
Si Si3 0.592451 0.650508 0.834945
Si Si4 0.555887 0.497926 0.741215
Si Si5 0.704114 0.645997 0.318657
O O1 0.239251 0.239251 0.469300
O O2 0.241145 0.160687 0.345103
O O3 0.320020 0.236547 0.612646
O O4 0.238826 0.181968 0.854712
O O5 0.840626 0.000000 0.144544
O O6 0.909194 0.090807 0.000000
O O7 0.615128 0.615128 0.908978
O O8 0.532415 0.615505 0.795977
O O9 0.611806 0.678277 0.564543
O O10 0.608875 0.691626 0.068744
O O11 0.541420 0.458581 0.500000
O O12 0.534707 0.534707 0.669565
O O13 0.532907 0.467094 0.000000
O O14 0.684027 0.684027 0.255210
#
# Coordination Sequence:
#
# PCOD8322986 Si02
#       5
#    12  12  12  12  12
#     4   9  17  28  42  59  77  95 113 136 165 197
#     4  10  19  31  46  63  81  99 117 135 159 196
#     4   9  15  21  30  43  59  82 110 140 173 205
#     4   9  15  21  27  36  53  78 109 143 175 205
#     4   9  15  23  34  48  65  83 106 135 167 202
#
# _framework density 14.267341
#
# number of rings (size 3 to 8) (size 9 to 14) (size 15 to 20)
#    0.000    2.800    0.000    3.000    0.000    9.600 
#    0.000    0.000    0.000    0.200    0.000    0.000 
#    0.000    4.800    0.000    0.000    0.000    0.800 
#
# Total GULP energy -743360.600586 kJ/mol
# GULP energy per Si atom -12389.343343 kJ/mol
# Density = 1.423487 g / cm^3
# Si number density = 14.267341 Si / 1000 Ang^3
#
#
#
# Elastic Constant Matrix: (Units=GPa)
#
#
# Indices 1 2 3 4 5 6 
#
# 1 42.8128 24.7761 16.3458 -0.0003 0.2085 0.0000
# 2 24.7761 42.8128 16.3458 0.0003 -0.2085 0.0000
# 3 16.3458 16.3458 85.1895 0.0000 0.0000 0.0000
# 4 -0.0003 0.0003 0.0000 14.0603 0.0000 -0.2085
# 5 0.2085 -0.2085 0.0000 0.0000 14.0603 -0.0003
# 6 0.0000 0.0000 0.0000 -0.2085 -0.0003 9.0184
#
#
#
# Elastic Compliance Matrix: (Units=1/GPa)
#
#
# Indices 1 2 3 4 5 6 
#
# 1 0.035885 -0.019576 -0.003129 0.000001 -0.000822 0.000000
# 2 -0.019576 0.035885 -0.003129 -0.000001 0.000822 0.000000
# 3 -0.003129 -0.003129 0.012939 0.000000 0.000000 0.000000
# 4 0.000001 -0.000001 0.000000 0.071147 0.000000 0.001645
# 5 -0.000822 0.000822 0.000000 0.000000 0.071147 0.000002
# 6 0.000000 0.000000 0.000000 0.001645 0.000002 0.110923
#
#
# Mechanical properties :
#
#
# Convention : Reuss Voigt Hill
#
# Bulk Modulus (GPa) = 30.26627 31.75007 31.00817
# Shear Modulus (GPa) = 12.48099 14.98428 13.73264
#
# Velocity S-wave (km/s) = 2.96090 3.24427 3.10582
# Velocity P-wave (km/s) = 5.74012 6.02791 5.88577
#
# Compressibility (1/GPa) = 0.03304008
#
# Stress axis : x y z
#
# Youngs Moduli (GPa) = 27.86664 27.86664 77.28328
#
# Poissons Ratio (x) = 0.54553 0.24184
# Poissons Ratio (y) = 0.54553 0.24184
# Poissons Ratio (z) = 0.08720 0.08720
#
# Static dielectric constant tensor:
#      x y z
#    x 2.621690 0.000000 0.000000 
#    y 0.000000 2.621690 0.000000 
#    z 0.000000 0.000000 2.965820 
# 
# 
# High freq. dielectric constant tensor:
#      x y z
#    x 1.495340 0.000000 0.000000 
#    y 0.000000 1.495340 0.000000 
#    z 0.000000 0.000000 1.573540 
# 
# From -- ./inp_files/664.got.cif
#   From: 2010.03.12/outbox.cif.g09.slc.cpg/sg162_1_cif.got.tgz:664.got - 2010.04.02 06:27:41.
