data_PCOD8322438
_publ_section_title
;
Structure prediction by ZEFSAII (Michael W. Deem and Ramdas Pophale) SiO2 
 PCOD8322438
Probable space group: P 32 2 1
;
_chemical_formula_sum "Si O2"
_cell_formula_units_Z 33
_cell_length_a 11.396729
_cell_length_b 11.396729
_cell_length_c 13.447935
_cell_angle_alpha 90.000000
_cell_angle_beta 90.000000
_cell_angle_gamma 120.000000
_cell_volume 1512.678645
_symmetry_space_group_name_H-M "P 32 2 1"
_symmetry_group_IT_number 154
_symmetry_cell_setting 'hexagonal'
loop_
_space_group_symop_operation_xyz
x,y,z
-y,x-y,2/3+z
-x+y,-x,1/3+z
x-y,-y,1/3-z
-x,-x+y,2/3-z
y,x,-z
loop_
_atom_site_type_symbol
_atom_site_label
_atom_site_fract_x
_atom_site_fract_y
_atom_site_fract_z
Si Si1 0.679270 0.252256 0.063046
Si Si2 0.900061 0.900061 0.500000
Si Si3 0.260609 0.932411 0.010896
Si Si4 0.451123 0.803099 0.764508
Si Si5 0.635354 0.635354 0.000000
Si Si6 0.832457 0.718038 0.174728
Si Si7 0.523170 0.523170 0.500000
O O1 0.749616 0.389736 0.126341
O O2 0.617061 0.136995 0.149292
O O3 0.774314 0.211769 0.000526
O O4 0.583173 0.268884 0.983438
O O5 0.803980 0.844886 0.404324
O O6 0.044394 0.914107 0.479800
O O7 0.401651 0.999358 0.067100
O O8 0.288697 0.998452 0.903528
O O9 0.403649 0.907228 0.731947
O O10 0.613698 0.877559 0.782006
O O11 0.675225 0.769844 0.935440
#
# Coordination Sequence:
#
# PCOD8322438 Si02
#       7
#     6   3   6   6   3   6   3
#     4  12  24  44  72 108 145 183 245 302 371 434
#     4  11  30  47  72 104 148 201 243 296 372 448
#     4  11  25  45  69 106 143 187 244 293 362 441
#     4  12  26  45  74 108 146 189 238 313 369 433
#     4  12  28  44  74 112 142 188 246 298 376 432
#     4  12  27  48  73 104 151 191 245 300 370 447
#     4  11  24  41  72 108 140 189 239 298 372 440
#
# _framework density 21.815604
#
# number of rings (size 3 to 8) (size 9 to 14) (size 15 to 20)
#    0.000    0.364    7.273    0.545    5.091    5.091 
#    0.000    0.000    0.000    0.000    0.000    0.000 
#    0.000    0.000    0.000    0.000    0.000    0.000 
#
# Total GULP energy -409115.520264 kJ/mol
# GULP energy per Si atom -12397.440008 kJ/mol
# Density = 2.176595 g / cm^3
# Si number density = 21.815604 Si / 1000 Ang^3
#
#
#
# Elastic Constant Matrix: (Units=GPa)
#
#
# Indices 1 2 3 4 5 6 
#
# 1 120.5208 46.5597 34.8782 1.0232 0.0000 0.0000
# 2 46.5597 120.5208 34.8782 -1.0232 0.0000 0.0000
# 3 34.8782 34.8782 96.4782 0.0000 0.0000 0.0000
# 4 1.0232 -1.0232 0.0000 64.4659 0.0000 0.0000
# 5 0.0000 0.0000 0.0000 0.0000 64.4659 1.0232
# 6 0.0000 0.0000 0.0000 0.0000 1.0232 36.9805
#
#
#
# Elastic Compliance Matrix: (Units=1/GPa)
#
#
# Indices 1 2 3 4 5 6 
#
# 1 0.010288 -0.003239 -0.002548 -0.000215 0.000000 0.000000
# 2 -0.003239 0.010288 -0.002548 0.000215 0.000000 0.000000
# 3 -0.002548 -0.002548 0.012208 0.000000 0.000000 0.000000
# 4 -0.000215 0.000215 0.000000 0.015519 0.000000 0.000000
# 5 0.000000 0.000000 0.000000 0.000000 0.015519 -0.000429
# 6 0.000000 0.000000 0.000000 0.000000 -0.000429 0.027053
#
#
# Mechanical properties :
#
#
# Convention : Reuss Voigt Hill
#
# Bulk Modulus (GPa) = 62.06420 63.35024 62.70722
# Shear Modulus (GPa) = 44.28080 47.92938 46.10509
#
# Velocity S-wave (km/s) = 4.51019 4.69233 4.60216
# Velocity P-wave (km/s) = 7.45880 7.64586 7.55291
#
# Compressibility (1/GPa) = 0.01611235
#
# Stress axis : x y z
#
# Youngs Moduli (GPa) = 97.20231 97.20231 81.91646
#
# Poissons Ratio (x) = 0.31481 0.20875
# Poissons Ratio (y) = 0.31481 0.20875
# Poissons Ratio (z) = 0.24770 0.24770
#
# Static dielectric constant tensor:
#      x y z
#    x 3.873930 0.000000 0.000000 
#    y 0.000000 3.873930 0.000000 
#    z 0.000000 0.000000 4.021600 
# 
# 
# High freq. dielectric constant tensor:
#      x y z
#    x 1.858140 0.000000 0.000000 
#    y 0.000000 1.858140 0.000000 
#    z 0.000000 0.000000 1.873350 
# 
# From -- ./inp_files/2023.got.cif
#   From: 2010.03.12/outbox.cif.g09.slc.cpg/sg154_2_cif.got.tgz:2023.got - 2010.04.03 13:51:21.
