data_PCOD8322502
_publ_section_title
;
Structure prediction by ZEFSAII (Michael W. Deem and Ramdas Pophale) SiO2 
 PCOD8322502
Probable space group: R 3 2
;
_chemical_formula_sum "Si O2"
_cell_formula_units_Z 39
_cell_length_a 11.706726
_cell_length_b 11.706726
_cell_length_c 14.548957
_cell_angle_alpha 90.000000
_cell_angle_beta 90.000000
_cell_angle_gamma 120.000000
_cell_volume 1726.765644
_symmetry_space_group_name_H-M "R 3 2"
_symmetry_group_IT_number 155
_symmetry_cell_setting 'hexagonal'
loop_
_space_group_symop_operation_xyz
x,y,z
-y,x-y,z
-x+y,-x,z
x-y,-y,-z
-x,-x+y,-z
y,x,-z
2/3+x,1/3+y,1/3+z
2/3-y,1/3+x-y,1/3+z
2/3-x+y,1/3-x,1/3+z
2/3+x-y,1/3-y,1/3-z
2/3-x,1/3-x+y,1/3-z
2/3+y,1/3+x,1/3-z
1/3+x,2/3+y,2/3+z
1/3-y,2/3+x-y,2/3+z
1/3-x+y,2/3-x,2/3+z
1/3+x-y,2/3-y,2/3-z
1/3-x,2/3-x+y,2/3-z
1/3+y,2/3+x,2/3-z
loop_
_atom_site_type_symbol
_atom_site_label
_atom_site_fract_x
_atom_site_fract_y
_atom_site_fract_z
Si Si1 0.546999 0.936394 0.766781
Si Si2 0.465403 0.132070 0.833334
Si Si3 0.333334 0.666668 0.045450
Si Si4 0.666668 0.333335 0.496601
O O1 0.608461 0.941795 0.666667
O O2 0.468636 0.783835 0.792188
O O3 0.666667 0.014816 0.833334
O O4 0.451316 0.000003 0.784536
O O5 0.575366 0.184652 0.915360
O O6 0.333334 0.666667 0.938245
#
# Coordination Sequence:
#
# PCOD8322502 Si02
#       4
#    18   9   6   6
#     4  12  26  48  71 106 148 190 247 308 375 453
#     4  10  22  44  76 102 142 184 254 300 368 442
#     4  10  19  46  70 109 131 187 253 299 361 451
#     4  12  29  44  69 103 155 190 241 308 385 451
#
# _framework density 22.585577000000001
#
# number of rings (size 3 to 8) (size 9 to 14) (size 15 to 20)
#    0.000    0.923    4.615    4.154    3.231    0.000 
#    8.308    0.000    0.000    0.000    0.000    0.000 
#    0.000    0.000    0.000    0.000    0.000    0.000 
#
# Total GULP energy -161068.130365 kJ/mol
# GULP energy per Si atom -12389.856182 kJ/mol
# Density = 2.253417 g / cm^3
# Si number density = 22.585577 Si / 1000 Ang^3
#
#
#
# Elastic Constant Matrix: (Units=GPa)
#
#
# Indices 1 2 3 4 5 6 
#
# 1 98.9557 18.1534 44.0877 3.1331 -0.0014 0.0000
# 2 18.1534 98.9556 44.0836 -3.1336 0.0014 0.0000
# 3 44.0877 44.0836 190.7523 0.0013 0.0000 0.0000
# 4 3.1331 -3.1336 0.0013 9.6187 0.0000 0.0014
# 5 -0.0014 0.0014 0.0000 0.0000 9.6331 3.1362
# 6 0.0000 0.0000 0.0000 0.0014 3.1362 40.3973
#
#
#
# Elastic Compliance Matrix: (Units=1/GPa)
#
#
# Indices 1 2 3 4 5 6 
#
# 1 0.011517 -0.001179 -0.002389 -0.004135 0.000002 0.000000
# 2 -0.001179 0.011517 -0.002389 0.004137 -0.000002 0.000000
# 3 -0.002389 -0.002389 0.006347 -0.000001 0.000000 0.000000
# 4 -0.004135 0.004137 -0.000001 0.106659 0.000000 -0.000004
# 5 0.000002 -0.000002 0.000000 0.000000 0.106500 -0.008268
# 6 0.000000 0.000000 0.000000 -0.000004 -0.008268 0.025396
#
#
# Mechanical properties :
#
#
# Convention : Reuss Voigt Hill
#
# Bulk Modulus (GPa) = 57.25533 66.81256 62.03395
# Shear Modulus (GPa) = 17.50247 30.75242 24.12745
#
# Velocity S-wave (km/s) = 2.78679 3.69398 3.27198
# Velocity P-wave (km/s) = 5.98000 6.91666 6.46532
#
# Compressibility (1/GPa) = 0.01746562
#
# Stress axis : x y z
#
# Youngs Moduli (GPa) = 86.82548 86.82653 157.56029
#
# Poissons Ratio (x) = 0.10240 0.37647
# Poissons Ratio (y) = 0.10240 0.37643
# Poissons Ratio (z) = 0.20746 0.20744
#
# Static dielectric constant tensor:
#      x y z
#    x 4.005920 0.000000 0.000000 
#    y 0.000000 4.005970 -0.000030 
#    z 0.000000 -0.000030 4.130190 
# 
# 
# High freq. dielectric constant tensor:
#      x y z
#    x 1.887450 0.000000 0.000000 
#    y 0.000000 1.887450 0.000000 
#    z 0.000000 0.000000 1.895850 
# 
# From -- ./inp_files/5595.got.cif
#   From: 2010.03.12/outbox.cif.g09.slc.cpg/sg155_3_cif.got.tgz:5595.got - 2010.04.03 13:54:13.
