data_PCOD8322456
_publ_section_title
;
Structure prediction by ZEFSAII (Michael W. Deem and Ramdas Pophale) SiO2 
 PCOD8322456
Probable space group: R 3 2
;
_chemical_formula_sum "Si O2"
_cell_formula_units_Z 72
_cell_length_a 23.005107
_cell_length_b 23.005107
_cell_length_c 10.132761
_cell_angle_alpha 90.000000
_cell_angle_beta 90.000000
_cell_angle_gamma 120.000000
_cell_volume 4644.157566
_symmetry_space_group_name_H-M "R 3 2"
_symmetry_group_IT_number 155
_symmetry_cell_setting 'hexagonal'
loop_
_space_group_symop_operation_xyz
x,y,z
-y,x-y,z
-x+y,-x,z
x-y,-y,-z
-x,-x+y,-z
y,x,-z
2/3+x,1/3+y,1/3+z
2/3-y,1/3+x-y,1/3+z
2/3-x+y,1/3-x,1/3+z
2/3+x-y,1/3-y,1/3-z
2/3-x,1/3-x+y,1/3-z
2/3+y,1/3+x,1/3-z
1/3+x,2/3+y,2/3+z
1/3-y,2/3+x-y,2/3+z
1/3-x+y,2/3-x,2/3+z
1/3+x-y,2/3-y,2/3-z
1/3-x,2/3-x+y,2/3-z
1/3+y,2/3+x,2/3-z
loop_
_atom_site_type_symbol
_atom_site_label
_atom_site_fract_x
_atom_site_fract_y
_atom_site_fract_z
Si Si1 0.161781 0.737358 0.948041
Si Si2 0.862596 0.604631 0.335885
Si Si3 0.922068 0.506211 0.039417
Si Si4 0.587497 0.411874 0.831285
O O1 0.181470 0.746315 0.792562
O O2 0.105519 0.662298 0.989462
O O3 0.130229 0.782052 0.990282
O O4 0.229965 0.761967 0.028098
O O5 0.927280 0.593947 0.333334
O O6 0.820373 0.578189 0.471432
O O7 0.876574 0.439672 0.953909
O O8 0.000000 0.541221 0.000000
O O9 0.563343 0.333334 0.833334
O O10 0.666667 0.453261 0.833334
#
# Coordination Sequence:
#
# PCOD8322456 Si02
#       4
#    18  18  18  18
#     4   9  17  27  44  70 102 127 150 183 241 290
#     4   9  16  26  43  73 104 125 140 183 242 303
#     4  10  17  27  46  72  98 124 157 190 238 293
#     4  10  20  33  48  68  93 130 168 203 230 272
#
# _framework density 15.503349999999999
#
# number of rings (size 3 to 8) (size 9 to 14) (size 15 to 20)
#    0.000    2.500    2.500    1.000    0.000    2.000 
#    0.000    1.250    0.000    0.000    6.500    3.500 
#    0.000    0.000    0.000    0.000    0.000    0.000 
#
# Total GULP energy -297403.818537 kJ/mol
# GULP energy per Si atom -12391.825772 kJ/mol
# Density = 1.546806 g / cm^3
# Si number density = 15.503350 Si / 1000 Ang^3
#
#
#
# Elastic Constant Matrix: (Units=GPa)
#
#
# Indices 1 2 3 4 5 6 
#
# 1 85.8622 42.7717 55.8639 0.8743 -0.0011 -0.0005
# 2 42.7717 85.8634 55.8676 -0.8746 -0.0003 0.0000
# 3 55.8639 55.8676 157.4919 -0.0012 -0.0046 -0.0017
# 4 0.8743 -0.8746 -0.0012 17.2273 -0.0004 -0.0004
# 5 -0.0011 -0.0003 -0.0046 -0.0004 17.2259 0.8739
# 6 -0.0005 0.0000 -0.0017 -0.0004 0.8739 21.5455
#
#
#
# Elastic Compliance Matrix: (Units=1/GPa)
#
#
# Indices 1 2 3 4 5 6 
#
# 1 0.017245 -0.006009 -0.003985 -0.001181 0.000000 0.000000
# 2 -0.006009 0.017245 -0.003986 0.001180 -0.000001 0.000000
# 3 -0.003985 -0.003986 0.009177 0.000001 0.000002 0.000001
# 4 -0.001181 0.001180 0.000001 0.058167 0.000001 0.000001
# 5 0.000000 -0.000001 0.000002 0.000001 0.058172 -0.002359
# 6 0.000000 0.000000 0.000001 0.000001 -0.002359 0.046509
#
#
# Mechanical properties :
#
#
# Convention : Reuss Voigt Hill
#
# Bulk Modulus (GPa) = 63.66837 70.91376 67.29107
# Shear Modulus (GPa) = 20.85837 22.84738 21.85288
#
# Velocity S-wave (km/s) = 3.67196 3.84305 3.75848
# Velocity P-wave (km/s) = 7.68989 8.09520 7.89515
#
# Compressibility (1/GPa) = 0.01570639
#
# Stress axis : x y z
#
# Youngs Moduli (GPa) = 57.98780 57.98656 108.96713
#
# Poissons Ratio (x) = 0.34846 0.43426
# Poissons Ratio (y) = 0.34847 0.43433
# Poissons Ratio (z) = 0.23110 0.23113
#
# Static dielectric constant tensor:
#      x y z
#    x 2.641400 0.000000 0.000000 
#    y 0.000000 2.641400 0.000000 
#    z 0.000000 0.000000 3.591560 
# 
# 
# High freq. dielectric constant tensor:
#      x y z
#    x 1.559560 0.000000 0.000000 
#    y 0.000000 1.559560 0.000000 
#    z 0.000000 0.000000 1.622590 
# 
# From -- ./inp_files/2447.got.cif
#   From: 2010.03.12/outbox.cif.g09.slc.cpg/sg155_2_cif.got.tgz:2447.got - 2010.04.03 13:54:13.
