data_PCOD8322245
_publ_section_title
;
Structure prediction by ZEFSAII (Michael W. Deem and Ramdas Pophale) SiO2 
 PCOD8322245
Probable space group: P 32 1 2
;
_chemical_formula_sum "Si O2"
_cell_formula_units_Z 24
_cell_length_a 14.281760
_cell_length_b 14.281760
_cell_length_c 7.646694
_cell_angle_alpha 90.000000
_cell_angle_beta 90.000000
_cell_angle_gamma 120.000000
_cell_volume 1350.727694
_symmetry_space_group_name_H-M "P 32 1 2"
_symmetry_group_IT_number 153
_symmetry_cell_setting 'hexagonal'
loop_
_space_group_symop_operation_xyz
x,y,z
-y,x-y,2/3+z
-x+y,-x,1/3+z
-y,-x,1/3-z
-x+y,y,2/3-z
x,x-y,-z
loop_
_atom_site_type_symbol
_atom_site_label
_atom_site_fract_x
_atom_site_fract_y
_atom_site_fract_z
Si Si1 0.579748 0.289874 0.000000
Si Si2 0.455218 0.096265 0.231646
Si Si3 0.749876 0.776462 0.443475
Si Si4 0.352060 0.176030 0.500000
Si Si5 0.974214 0.155478 0.406428
O O1 0.650531 0.301061 0.833334
O O2 0.508895 0.344069 0.943856
O O3 0.527813 0.055626 0.333334
O O4 0.432965 0.170778 0.362358
O O5 0.341540 0.997642 0.169053
O O6 0.701989 0.850995 0.500000
O O7 0.763640 0.782211 0.235297
O O8 0.864757 0.818637 0.540647
O O9 0.273158 0.059248 0.590798
O O10 0.063347 0.126693 0.333334
#
# Coordination Sequence:
#
# PCOD8322245 Si02
#       5
#     3   6   6   3   6
#     4  12  22  38  56  86 116 150 190 228 290 354
#     4  11  21  36  55  78 111 151 190 236 283 331
#     4  10  22  34  50  79 111 146 192 227 271 336
#     4  10  20  34  50  82 108 144 192 224 276 342
#     4  10  19  32  52  78 115 147 176 220 281 348
#
# _framework density 17.768201999999999
#
# number of rings (size 3 to 8) (size 9 to 14) (size 15 to 20)
#    0.000    1.500    1.250    7.500    5.250    0.000 
#    0.000    0.000    0.000    0.000    0.000    7.000 
#    0.000    0.000    0.000    0.000    0.000    0.000 
#
# Total GULP energy -297537.634934 kJ/mol
# GULP energy per Si atom -12397.401456 kJ/mol
# Density = 1.772776 g / cm^3
# Si number density = 17.768202 Si / 1000 Ang^3
#
#
#
# Elastic Constant Matrix: (Units=GPa)
#
#
# Indices 1 2 3 4 5 6 
#
# 1 102.3439 47.5447 41.9899 -0.0001 3.8874 0.0000
# 2 47.5447 102.3439 41.9899 0.0001 -3.8874 0.0000
# 3 41.9899 41.9899 116.9770 0.0000 0.0000 0.0000
# 4 -0.0001 0.0001 0.0000 20.0233 0.0000 -3.8874
# 5 3.8874 -3.8874 0.0000 0.0000 20.0233 -0.0001
# 6 0.0000 0.0000 0.0000 -3.8874 -0.0001 27.3996
#
#
#
# Elastic Compliance Matrix: (Units=1/GPa)
#
#
# Indices 1 2 3 4 5 6 
#
# 1 0.013558 -0.005207 -0.002998 0.000000 -0.003643 0.000000
# 2 -0.005207 0.013558 -0.002998 0.000000 0.003643 0.000000
# 3 -0.002998 -0.002998 0.010701 0.000000 0.000000 0.000000
# 4 0.000000 0.000000 0.000000 0.051356 0.000000 0.007286
# 5 -0.003643 0.003643 0.000000 0.000000 0.051356 0.000000
# 6 0.000000 0.000000 0.000000 0.007286 0.000000 0.037531
#
#
# Mechanical properties :
#
#
# Convention : Reuss Voigt Hill
#
# Bulk Modulus (GPa) = 64.88338 64.96821 64.92579
# Shear Modulus (GPa) = 24.31871 26.16528 25.24200
#
# Velocity S-wave (km/s) = 3.70356 3.84160 3.77321
# Velocity P-wave (km/s) = 7.40840 7.50472 7.45671
#
# Compressibility (1/GPa) = 0.01541227
#
# Stress axis : x y z
#
# Youngs Moduli (GPa) = 73.75583 73.75583 93.45076
#
# Poissons Ratio (x) = 0.38405 0.28014
# Poissons Ratio (y) = 0.38405 0.28014
# Poissons Ratio (z) = 0.22110 0.22110
#
# Static dielectric constant tensor:
#      x y z
#    x 3.195310 0.000000 0.000000 
#    y 0.000000 3.195310 0.000000 
#    z 0.000000 0.000000 2.110350 
# 
# 
# High freq. dielectric constant tensor:
#      x y z
#    x 1.659190 0.000000 0.000000 
#    y 0.000000 1.659190 0.000000 
#    z 0.000000 0.000000 1.717390 
# 
# From -- ./inp_files/1470.got.cif
#   From: 2010.03.12/outbox.cif.g09.slc.cpg/sg153_1_cif.got.tgz:1470.got - 2010.04.03 13:48:33.
