data_PCOD8322755
_publ_section_title
;
Structure prediction by ZEFSAII (Michael W. Deem and Ramdas Pophale) SiO2 
 PCOD8322755
Probable space group: P 3 C 1
;
_chemical_formula_sum "Si O2"
_cell_formula_units_Z 36
_cell_length_a 8.486319
_cell_length_b 8.486319
_cell_length_c 29.120996
_cell_angle_alpha 90.000000
_cell_angle_beta 90.000000
_cell_angle_gamma 120.000000
_cell_volume 1816.249727
_symmetry_space_group_name_H-M "P 3 C 1"
_symmetry_group_IT_number 158
_symmetry_cell_setting 'hexagonal'
loop_
_space_group_symop_operation_xyz
x,y,z
-y,x-y,z
-x+y,-x,z
-x+y,y,1/2+z
x,x-y,1/2+z
-y,-x,1/2+z
loop_
_atom_site_type_symbol
_atom_site_label
_atom_site_fract_x
_atom_site_fract_y
_atom_site_fract_z
Si Si1 0.328800 0.866817 0.893910
Si Si2 0.332541 0.333557 0.028392
Si Si3 0.189464 0.211829 0.310841
Si Si4 0.332541 0.333557 0.490826
Si Si5 0.133183 0.671200 0.125308
Si Si6 0.788171 0.977635 0.208377
O O1 0.151895 0.661947 0.896046
O O2 0.323992 0.963529 0.847004
O O3 0.328480 0.990990 0.935576
O O4 0.328480 0.337490 0.083642
O O5 0.402504 0.201252 0.009609
O O6 0.464221 0.535779 0.009609
O O7 0.130942 0.261884 0.009609
O O8 0.258537 0.289782 0.259609
O O9 0.187399 0.020195 0.317218
O O10 0.151895 0.489948 0.123172
O O11 0.036471 0.676008 0.172214
O O12 0.832797 0.812601 0.202000
#
# Coordination Sequence:
#
# PCOD8322755 Si02
#       6
#     6   6   6   6   6   6
#     4  10  21  36  58  86 119 155 201 265 309 367
#     4  12  24  42  60  88 125 165 211 267 323 383
#     4   8  18  35  57  86 117 151 202 251 297 374
#     4  12  24  42  60  88 125 165 211 267 323 383
#     4  10  21  36  58  86 119 155 201 265 309 367
#     4   8  18  35  57  86 117 151 202 251 297 374
#
# _framework density 19.821062999999999
#
# number of rings (size 3 to 8) (size 9 to 14) (size 15 to 20)
#    1.333    0.667    3.333    1.000    4.667    1.333 
#    0.000    0.000    0.000    1.333    0.000    0.000 
#    0.000    0.000    0.000    0.000    0.000    0.000 
#
# Total GULP energy -446120.811336 kJ/mol
# GULP energy per Si atom -12392.244759 kJ/mol
# Density = 1.977595 g / cm^3
# Si number density = 19.821063 Si / 1000 Ang^3
#
#
#
# Elastic Constant Matrix: (Units=GPa)
#
#
# Indices 1 2 3 4 5 6 
#
# 1 55.2326 11.6561 40.0558 0.0000 0.0000 0.0000
# 2 11.6561 55.2326 40.0558 0.0000 0.0000 0.0000
# 3 40.0558 40.0558 188.5861 0.0000 0.0000 0.0000
# 4 0.0000 0.0000 0.0000 32.8414 0.0000 0.0000
# 5 0.0000 0.0000 0.0000 0.0000 32.8414 0.0000
# 6 0.0000 0.0000 0.0000 0.0000 0.0000 21.7883
#
#
#
# Elastic Compliance Matrix: (Units=1/GPa)
#
#
# Indices 1 2 3 4 5 6 
#
# 1 0.021500 -0.001449 -0.004259 0.000000 0.000000 0.000000
# 2 -0.001449 0.021500 -0.004259 0.000000 0.000000 0.000000
# 3 -0.004259 -0.004259 0.007112 0.000000 0.000000 0.000000
# 4 0.000000 0.000000 0.000000 0.030449 0.000000 0.000000
# 5 0.000000 0.000000 0.000000 0.000000 0.030449 0.000000
# 6 0.000000 0.000000 0.000000 0.000000 0.000000 0.045896
#
#
# Mechanical properties :
#
#
# Convention : Reuss Voigt Hill
#
# Bulk Modulus (GPa) = 33.13638 53.62076 43.37857
# Shear Modulus (GPa) = 26.75259 31.31313 29.03286
#
# Velocity S-wave (km/s) = 3.67782 3.97897 3.83135
# Velocity P-wave (km/s) = 5.89824 6.94412 6.44244
#
# Compressibility (1/GPa) = 0.03017831
#
# Stress axis : x y z
#
# Youngs Moduli (GPa) = 46.51263 46.51263 140.61192
#
# Poissons Ratio (x) = 0.06738 0.59884
# Poissons Ratio (y) = 0.06738 0.59884
# Poissons Ratio (z) = 0.19809 0.19809
#
# Static dielectric constant tensor:
#      x y z
#    x 3.182400 0.000000 0.000000 
#    y 0.000000 3.182400 0.000000 
#    z 0.000000 0.000000 3.515510 
# 
# 
# High freq. dielectric constant tensor:
#      x y z
#    x 1.742940 0.000000 0.000000 
#    y 0.000000 1.742940 0.000000 
#    z 0.000000 0.000000 1.785340 
# 
# From -- ./inp_files/775.got.cif
#   From: 2010.03.12/outbox.cif.g09.slc.cpg/sg158_cif.got.tgz:775.got - 2010.04.03 13:59:47.
