data_PCOD8322081
_publ_section_title
;
Structure prediction by ZEFSAII (Michael W. Deem and Ramdas Pophale) SiO2 
 PCOD8322081
Probable space group: P 31 2 1
;
_chemical_formula_sum "Si O2"
_cell_formula_units_Z 36
_cell_length_a 11.743732
_cell_length_b 11.743732
_cell_length_c 16.057202
_cell_angle_alpha 90.000000
_cell_angle_beta 90.000000
_cell_angle_gamma 120.000000
_cell_volume 1917.841739
_symmetry_space_group_name_H-M "P 31 2 1"
_symmetry_group_IT_number 152
_symmetry_cell_setting 'hexagonal'
loop_
_space_group_symop_operation_xyz
x,y,z
-y,x-y,1/3+z
-x+y,-x,2/3+z
x-y,-y,2/3-z
-x,-x+y,1/3-z
y,x,-z
loop_
_atom_site_type_symbol
_atom_site_label
_atom_site_fract_x
_atom_site_fract_y
_atom_site_fract_z
Si Si1 0.356131 0.434343 0.740776
Si Si2 0.913697 0.958117 0.591854
Si Si3 0.406975 0.533043 0.555995
Si Si4 0.817118 0.193238 0.053629
Si Si5 0.856166 0.292695 0.867918
Si Si6 0.064891 0.297624 0.748916
O O1 0.376603 0.467057 0.644690
O O2 0.376362 0.310732 0.755450
O O3 0.468912 0.551537 0.793600
O O4 0.213524 0.414757 0.768268
O O5 0.973023 0.973023 0.500000
O O6 0.769483 0.829118 0.597405
O O7 0.909411 0.089527 0.608209
O O8 0.000000 0.944772 0.666667
O O9 0.454289 0.454289 0.500000
O O10 0.517460 0.685769 0.558842
O O11 0.272353 0.515993 0.521098
O O12 0.811891 0.218480 0.955806
O O13 0.967345 0.267430 0.826686
O O14 0.000000 0.324045 0.666667
#
# Coordination Sequence:
#
# PCOD8322081 Si02
#       6
#     6   6   6   6   6   6
#     4  10  22  38  56  86 118 151 198 240 297 354
#     4  10  20  35  60  87 121 155 197 252 304 359
#     4  11  21  37  60  83 117 156 196 241 298 356
#     4  10  22  38  56  88 118 157 197 244 300 363
#     4  11  22  36  61  83 116 158 196 248 297 356
#     4  10  20  36  58  86 112 149 200 247 291 353
#
# _framework density 18.771101000000002
#
# number of rings (size 3 to 8) (size 9 to 14) (size 15 to 20)
#    0.000    1.667    3.333    1.500    2.333    0.667 
#    0.000    0.000    0.000    4.000    0.000    0.000 
#    0.000    0.000    0.000    0.000    0.000    0.000 
#
# Total GULP energy -446289.525237 kJ/mol
# GULP energy per Si atom -12396.931257 kJ/mol
# Density = 1.872838 g / cm^3
# Si number density = 18.771101 Si / 1000 Ang^3
#
#
#
# Elastic Constant Matrix: (Units=GPa)
#
#
# Indices 1 2 3 4 5 6 
#
# 1 89.6492 39.0004 15.7069 1.1585 0.0000 0.0000
# 2 39.0004 89.6492 15.7069 -1.1585 0.0000 0.0000
# 3 15.7069 15.7069 52.5667 0.0000 0.0000 0.0000
# 4 1.1585 -1.1585 0.0000 22.4417 0.0000 0.0000
# 5 0.0000 0.0000 0.0000 0.0000 22.4417 1.1585
# 6 0.0000 0.0000 0.0000 0.0000 1.1585 25.3244
#
#
#
# Elastic Compliance Matrix: (Units=1/GPa)
#
#
# Indices 1 2 3 4 5 6 
#
# 1 0.014088 -0.005703 -0.002505 -0.001022 0.000000 0.000000
# 2 -0.005703 0.014088 -0.002505 0.001022 0.000000 0.000000
# 3 -0.002505 -0.002505 0.020521 0.000000 0.000000 0.000000
# 4 -0.001022 0.001022 0.000000 0.044665 0.000000 0.000000
# 5 0.000000 0.000000 0.000000 0.000000 0.044665 -0.002043
# 6 0.000000 0.000000 0.000000 0.000000 -0.002043 0.039581
#
#
# Mechanical properties :
#
#
# Convention : Reuss Voigt Hill
#
# Bulk Modulus (GPa) = 36.67197 41.41039 39.04118
# Shear Modulus (GPa) = 24.02408 24.80498 24.41453
#
# Velocity S-wave (km/s) = 3.58137 3.63911 3.61036
# Velocity P-wave (km/s) = 6.05644 6.30604 6.18250
#
# Compressibility (1/GPa) = 0.02726878
#
# Stress axis : x y z
#
# Youngs Moduli (GPa) = 70.98410 70.98410 48.73140
#
# Poissons Ratio (x) = 0.40481 0.12209
# Poissons Ratio (y) = 0.40481 0.12209
# Poissons Ratio (z) = 0.17784 0.17784
#
# Static dielectric constant tensor:
#      x y z
#    x 3.535110 0.000000 0.000000 
#    y 0.000000 3.535110 0.000000 
#    z 0.000000 0.000000 3.375790 
# 
# 
# High freq. dielectric constant tensor:
#      x y z
#    x 1.728640 0.000000 0.000000 
#    y 0.000000 1.728640 0.000000 
#    z 0.000000 0.000000 1.726910 
# 
# From -- ./inp_files/2021.got.cif
#   From: 2010.03.12/outbox.cif.g09.slc.cpg/sg152_2_cif.got.tgz:2021.got - 2010.04.03 13:45:27.
