data_PCOD8322863
_publ_section_title
;
Structure prediction by ZEFSAII (Michael W. Deem and Ramdas Pophale) SiO2 
 PCOD8322863
Probable space group: R 3 M
;
_chemical_formula_sum "Si O2"
_cell_formula_units_Z 108
_cell_length_a 17.292543
_cell_length_b 17.292543
_cell_length_c 20.048625
_cell_angle_alpha 90.000000
_cell_angle_beta 90.000000
_cell_angle_gamma 120.000000
_cell_volume 5191.979307
_symmetry_space_group_name_H-M "R 3 M"
_symmetry_group_IT_number 160
_symmetry_cell_setting 'hexagonal'
loop_
_space_group_symop_operation_xyz
x,y,z
-y,x-y,z
-x+y,-x,z
-x+y,y,z
x,x-y,z
-y,-x,z
2/3+x,1/3+y,1/3+z
2/3-y,1/3+x-y,1/3+z
2/3-x+y,1/3-x,1/3+z
2/3-x+y,1/3+y,1/3+z
2/3+x,1/3+x-y,1/3+z
2/3-y,1/3-x,1/3+z
1/3+x,2/3+y,2/3+z
1/3-y,2/3+x-y,2/3+z
1/3-x+y,2/3-x,2/3+z
1/3-x+y,2/3+y,2/3+z
1/3+x,2/3+x-y,2/3+z
1/3-y,2/3-x,2/3+z
loop_
_atom_site_type_symbol
_atom_site_label
_atom_site_fract_x
_atom_site_fract_y
_atom_site_fract_z
Si Si1 0.954842 0.566591 0.322268
Si Si2 0.153217 0.667569 0.787515
Si Si3 0.607489 0.036328 0.053682
Si Si4 0.999480 0.169432 0.532775
Si Si5 0.678306 0.682222 0.859704
Si Si6 0.165059 0.666872 0.041997
O O1 0.947592 0.473796 0.302646
O O2 0.886857 0.554010 0.381687
O O3 0.925391 0.602766 0.257761
O O4 0.058607 0.633571 0.346237
O O5 0.143907 0.571954 0.801607
O O6 0.256336 0.743665 0.792311
O O7 0.097748 0.688760 0.842313
O O8 0.532745 0.065489 0.041098
O O9 0.628949 0.044075 0.132320
O O10 0.574667 0.936414 0.025740
O O11 0.094700 0.189400 0.562141
O O12 0.980304 0.248459 0.549824
O O13 0.998922 0.157394 0.454083
O O14 0.920845 0.079156 0.565660
O O15 0.187374 0.593687 0.011288
O O16 0.235385 0.764616 0.012229
#
# Coordination Sequence:
#
# PCOD8322863 Si02
#       6
#    18  18  18  18  18  18
#     4  10  21  36  56  82 113 152 196 239 284 338
#     4  10  22  40  62  88 117 151 191 237 289 343
#     4   9  18  31  49  74 106 145 189 240 293 341
#     4   9  15  23  39  66 102 142 182 224 270 323
#     4  10  19  34  55  79 109 145 191 240 289 341
#     4   8  13  22  38  63  96 135 177 220 269 326
#
# _framework density 20.801317000000001
#
# number of rings (size 3 to 8) (size 9 to 14) (size 15 to 20)
#    0.000    2.667    0.000    3.500    0.000    7.333 
#    0.000    0.000    0.000    0.333    0.000    2.333 
#    0.000    2.667    0.000    0.000    0.000    0.000 
#
# Total GULP energy -446092.973059 kJ/mol
# GULP energy per Si atom -12391.471474 kJ/mol
# Density = 2.075397 g / cm^3
# Si number density = 20.801317 Si / 1000 Ang^3
#
#
#
# Elastic Constant Matrix: (Units=GPa)
#
#
# Indices 1 2 3 4 5 6 
#
# 1 71.6249 24.2395 24.4619 1.7742 0.0000 0.0000
# 2 24.2395 71.6249 24.4619 -1.7742 0.0000 0.0000
# 3 24.4619 24.4619 76.7656 0.0000 0.0000 0.0000
# 4 1.7742 -1.7742 0.0000 14.9177 0.0000 0.0000
# 5 0.0000 0.0000 0.0000 0.0000 14.9177 1.7742
# 6 0.0000 0.0000 0.0000 0.0000 1.7742 23.6927
#
#
#
# Elastic Compliance Matrix: (Units=1/GPa)
#
#
# Indices 1 2 3 4 5 6 
#
# 1 0.016875 -0.004418 -0.003970 -0.002532 0.000000 0.000000
# 2 -0.004418 0.016875 -0.003970 0.002532 0.000000 0.000000
# 3 -0.003970 -0.003970 0.015557 0.000000 0.000000 0.000000
# 4 -0.002532 0.002532 0.000000 0.067637 0.000000 0.000000
# 5 0.000000 0.000000 0.000000 0.000000 0.067637 -0.005065
# 6 0.000000 0.000000 0.000000 0.000000 -0.005065 0.042586
#
#
# Mechanical properties :
#
#
# Convention : Reuss Voigt Hill
#
# Bulk Modulus (GPa) = 40.66251 40.70469 40.68360
# Shear Modulus (GPa) = 19.22490 20.49573 19.86032
#
# Velocity S-wave (km/s) = 3.04339 3.14237 3.09328
# Velocity P-wave (km/s) = 5.65156 5.72510 5.68845
#
# Compressibility (1/GPa) = 0.02459268
#
# Stress axis : x y z
#
# Youngs Moduli (GPa) = 59.25843 59.25843 64.28164
#
# Poissons Ratio (x) = 0.26180 0.25517
# Poissons Ratio (y) = 0.26180 0.25517
# Poissons Ratio (z) = 0.23523 0.23523
#
# Static dielectric constant tensor:
#      x y z
#    x 3.769490 0.000000 0.000000 
#    y 0.000000 3.769490 0.000000 
#    z 0.000000 0.000000 3.670200 
# 
# 
# High freq. dielectric constant tensor:
#      x y z
#    x 1.800700 0.000000 0.000000 
#    y 0.000000 1.800700 0.000000 
#    z 0.000000 0.000000 1.797530 
# 
# From -- ./inp_files/3335.got.cif
#   From: 2010.03.12/outbox.cif.g09.slc.cpg/sg160_2_cif.got.tgz:3335.got - 2010.04.02 06:26:15.
