data_PCOD8322393
_publ_section_title
;
Structure prediction by ZEFSAII (Michael W. Deem and Ramdas Pophale) SiO2 
 PCOD8322393
Probable space group: P 32 2 1
;
_chemical_formula_sum "Si O2"
_cell_formula_units_Z 27
_cell_length_a 7.918786
_cell_length_b 7.918786
_cell_length_c 24.946537
_cell_angle_alpha 90.000000
_cell_angle_beta 90.000000
_cell_angle_gamma 120.000000
_cell_volume 1354.746731
_symmetry_space_group_name_H-M "P 32 2 1"
_symmetry_group_IT_number 154
_symmetry_cell_setting 'hexagonal'
loop_
_space_group_symop_operation_xyz
x,y,z
-y,x-y,2/3+z
-x+y,-x,1/3+z
x-y,-y,1/3-z
-x,-x+y,2/3-z
y,x,-z
loop_
_atom_site_type_symbol
_atom_site_label
_atom_site_fract_x
_atom_site_fract_y
_atom_site_fract_z
Si Si1 0.187373 0.494840 0.074651
Si Si2 0.160990 0.944453 0.500247
Si Si3 0.552825 0.332654 0.503210
Si Si4 0.481343 0.000000 0.666667
Si Si5 0.818108 0.511937 0.079606
O O1 0.112650 0.295070 0.106751
O O2 0.295008 0.674015 0.115793
O O3 0.322830 0.488191 0.028208
O O4 0.999622 0.504633 0.050985
O O5 0.984286 0.984286 0.500000
O O6 0.093016 0.764752 0.540266
O O7 0.362898 0.129471 0.519325
O O8 0.507396 0.507396 0.500000
O O9 0.633661 0.323314 0.444194
O O10 0.300587 0.873714 0.627275
#
# Coordination Sequence:
#
# PCOD8322393 Si02
#       5
#     6   6   6   3   6
#     4  10  22  40  62  90 121 164 208 250 321 377
#     4   9  18  39  65  91 116 154 209 266 307 370
#     4   9  18  37  69  91 114 158 212 262 308 375
#     4  12  24  44  58  86 142 166 192 278 314 366
#     4  10  22  40  62  88 124 164 204 253 323 371
#
# _framework density 19.929926999999999
#
# number of rings (size 3 to 8) (size 9 to 14) (size 15 to 20)
#    0.000    2.222    2.222    0.000    3.111    2.667 
#    8.000    0.000    0.000    0.000    0.000    0.000 
#    0.000    0.000    0.000    0.000    0.000    0.000 
#
# Total GULP energy -334681.108182 kJ/mol
# GULP energy per Si atom -12395.596599 kJ/mol
# Density = 1.988457 g / cm^3
# Si number density = 19.929927 Si / 1000 Ang^3
#
#
#
# Elastic Constant Matrix: (Units=GPa)
#
#
# Indices 1 2 3 4 5 6 
#
# 1 95.7745 34.1087 29.9150 3.4717 0.0001 0.0000
# 2 34.1087 95.7745 29.9150 -3.4717 -0.0001 0.0000
# 3 29.9150 29.9150 66.9905 0.0000 0.0000 0.0000
# 4 3.4717 -3.4717 0.0000 18.2196 0.0000 -0.0001
# 5 0.0001 -0.0001 0.0000 0.0000 18.2196 3.4717
# 6 0.0000 0.0000 0.0000 -0.0001 3.4717 30.8329
#
#
#
# Elastic Compliance Matrix: (Units=1/GPa)
#
#
# Indices 1 2 3 4 5 6 
#
# 1 0.013133 -0.003439 -0.004329 -0.003158 0.000000 0.000000
# 2 -0.003439 0.013133 -0.004329 0.003158 0.000000 0.000000
# 3 -0.004329 -0.004329 0.018793 0.000000 0.000000 0.000000
# 4 -0.003158 0.003158 0.000000 0.056089 0.000000 0.000000
# 5 0.000000 0.000000 0.000000 0.000000 0.056089 -0.006316
# 6 0.000000 0.000000 0.000000 0.000000 -0.006316 0.033144
#
#
# Mechanical properties :
#
#
# Convention : Reuss Voigt Hill
#
# Bulk Modulus (GPa) = 47.92597 49.60188 48.76392
# Shear Modulus (GPa) = 22.57037 24.42781 23.49909
#
# Velocity S-wave (km/s) = 3.36889 3.50478 3.43751
# Velocity P-wave (km/s) = 6.26355 6.42807 6.34634
#
# Compressibility (1/GPa) = 0.02086552
#
# Stress axis : x y z
#
# Youngs Moduli (GPa) = 76.14655 76.14655 53.21028
#
# Poissons Ratio (x) = 0.26190 0.23032
# Poissons Ratio (y) = 0.26190 0.23032
# Poissons Ratio (z) = 0.32960 0.32960
#
# Static dielectric constant tensor:
#      x y z
#    x 3.667870 0.000000 0.000000 
#    y 0.000000 3.667870 0.000000 
#    z 0.000000 0.000000 3.399550 
# 
# 
# High freq. dielectric constant tensor:
#      x y z
#    x 1.781410 0.000000 0.000000 
#    y 0.000000 1.781410 0.000000 
#    z 0.000000 0.000000 1.754060 
# 
# From -- ./inp_files/3295.got.cif
#   From: 2010.03.12/outbox.cif.g09.slc.cpg/sg154_2_cif.got.tgz:3295.got - 2010.04.03 13:51:21.
