data_PCOD8322234
_publ_section_title
;
Structure prediction by ZEFSAII (Michael W. Deem and Ramdas Pophale) SiO2 
 PCOD8322234
Probable space group: P 32 1 2
;
_chemical_formula_sum "Si O2"
_cell_formula_units_Z 42
_cell_length_a 8.380515
_cell_length_b 8.380515
_cell_length_c 30.741463
_cell_angle_alpha 90.000000
_cell_angle_beta 90.000000
_cell_angle_gamma 120.000000
_cell_volume 1869.806129
_symmetry_space_group_name_H-M "P 32 1 2"
_symmetry_group_IT_number 153
_symmetry_cell_setting 'hexagonal'
loop_
_space_group_symop_operation_xyz
x,y,z
-y,x-y,2/3+z
-x+y,-x,1/3+z
-y,-x,1/3-z
-x+y,y,2/3-z
x,x-y,-z
loop_
_atom_site_type_symbol
_atom_site_label
_atom_site_fract_x
_atom_site_fract_y
_atom_site_fract_z
Si Si1 0.550205 0.140288 0.965975
Si Si2 0.809098 0.489676 0.929949
Si Si3 0.848876 0.995007 0.309103
Si Si4 0.325232 0.827341 0.018124
Si Si5 0.661163 0.684745 0.816954
Si Si6 0.791075 0.753546 0.230619
Si Si7 0.437603 0.989982 0.107725
O O1 0.760264 0.289945 0.950615
O O2 0.422652 0.061860 0.923371
O O3 0.479318 0.239659 0.000000
O O4 0.521009 0.961894 0.993261
O O5 0.617487 0.450833 0.910058
O O6 0.863983 0.636987 0.969017
O O7 0.968268 0.560220 0.893699
O O8 0.710909 0.820862 0.338483
O O9 0.880645 0.932477 0.261670
O O10 0.046801 0.093602 0.333334
O O11 0.351047 0.834804 0.070143
O O12 0.244671 0.622336 0.000000
O O13 0.494021 0.584652 0.851263
O O14 0.849007 0.698014 0.833334
O O15 0.695422 0.890343 0.808729
O O16 0.946295 0.709612 0.211975
#
# Coordination Sequence:
#
# PCOD8322234 Si02
#       7
#     6   6   6   6   6   6   6
#     4  10  17  36  62  85 117 158 201 259 324 376
#     4   9  19  33  61  92 118 151 209 262 303 373
#     4  10  18  35  62  90 121 161 200 248 325 383
#     4  11  21  35  58  87 127 166 199 252 325 386
#     4   9  19  34  58  87 119 161 219 260 303 372
#     4   9  16  33  63  79 113 169 205 244 321 378
#     4  10  18  37  59  85 121 165 209 257 311 372
#
# _framework density 22.462222000000001
#
# number of rings (size 3 to 8) (size 9 to 14) (size 15 to 20)
#    0.000    2.286    4.286    0.857    0.000    1.143 
#    2.571    0.000   12.571    0.000    0.000    0.000 
#    0.000    0.000    0.000    0.000    0.000    0.000 
#
# Total GULP energy -520377.715373 kJ/mol
# GULP energy per Si atom -12389.945604 kJ/mol
# Density = 2.241110 g / cm^3
# Si number density = 22.462222 Si / 1000 Ang^3
#
#
#
# Elastic Constant Matrix: (Units=GPa)
#
#
# Indices 1 2 3 4 5 6 
#
# 1 78.1685 22.3970 35.3383 0.0001 -4.8366 0.0000
# 2 22.3970 78.1685 35.3383 -0.0001 4.8366 0.0000
# 3 35.3383 35.3383 108.1106 0.0000 0.0000 0.0000
# 4 0.0001 -0.0001 0.0000 22.9939 0.0000 4.8366
# 5 -4.8366 4.8366 0.0000 0.0000 22.9939 0.0001
# 6 0.0000 0.0000 0.0000 4.8366 0.0001 27.8858
#
#
#
# Elastic Compliance Matrix: (Units=1/GPa)
#
#
# Indices 1 2 3 4 5 6 
#
# 1 0.015759 -0.002850 -0.004220 0.000000 0.003914 0.000000
# 2 -0.002850 0.015759 -0.004220 0.000000 -0.003914 0.000000
# 3 -0.004220 -0.004220 0.012008 0.000000 0.000000 0.000000
# 4 0.000000 0.000000 0.000000 0.045136 0.000000 -0.007829
# 5 0.003914 -0.003914 0.000000 0.000000 0.045136 0.000000
# 6 0.000000 0.000000 0.000000 -0.007829 0.000000 0.037218
#
#
# Mechanical properties :
#
#
# Convention : Reuss Voigt Hill
#
# Bulk Modulus (GPa) = 47.73665 50.06609 48.90137
# Shear Modulus (GPa) = 24.92775 26.19965 25.56370
#
# Velocity S-wave (km/s) = 3.33493 3.41895 3.37720
# Velocity P-wave (km/s) = 6.01058 6.15817 6.08482
#
# Compressibility (1/GPa) = 0.02094827
#
# Stress axis : x y z
#
# Youngs Moduli (GPa) = 63.45476 63.45476 83.27515
#
# Poissons Ratio (x) = 0.18084 0.35140
# Poissons Ratio (y) = 0.18084 0.35140
# Poissons Ratio (z) = 0.26776 0.26776
#
# Static dielectric constant tensor:
#      x y z
#    x 3.935380 0.000000 0.000000 
#    y 0.000000 3.935380 0.000000 
#    z 0.000000 0.000000 4.355100 
# 
# 
# High freq. dielectric constant tensor:
#      x y z
#    x 1.864280 0.000000 0.000000 
#    y 0.000000 1.864280 0.000000 
#    z 0.000000 0.000000 1.882140 
# 
# From -- ./inp_files/5163.got.cif
#   From: 2010.03.12/outbox.cif.g09.slc.cpg/sg153_3_cif.got.tgz:5163.got - 2010.04.03 13:48:33.
