data_PCOD8322429
_publ_section_title
;
Structure prediction by ZEFSAII (Michael W. Deem and Ramdas Pophale) SiO2 
 PCOD8322429
Probable space group: P 32 2 1
;
_chemical_formula_sum "Si O2"
_cell_formula_units_Z 21
_cell_length_a 9.454997
_cell_length_b 9.454997
_cell_length_c 14.629876
_cell_angle_alpha 90.000000
_cell_angle_beta 90.000000
_cell_angle_gamma 120.000000
_cell_volume 1132.645666
_symmetry_space_group_name_H-M "P 32 2 1"
_symmetry_group_IT_number 154
_symmetry_cell_setting 'hexagonal'
loop_
_space_group_symop_operation_xyz
x,y,z
-y,x-y,2/3+z
-x+y,-x,1/3+z
x-y,-y,1/3-z
-x,-x+y,2/3-z
y,x,-z
loop_
_atom_site_type_symbol
_atom_site_label
_atom_site_fract_x
_atom_site_fract_y
_atom_site_fract_z
Si Si1 0.286487 0.335732 0.104644
Si Si2 0.000000 0.160319 0.833334
Si Si3 0.154110 0.577133 0.094191
Si Si4 0.397925 0.935069 0.072669
O O1 0.213994 0.452844 0.123762
O O2 0.459100 0.392418 0.153807
O O3 0.148075 0.160490 0.146131
O O4 0.322634 0.322634 0.000000
O O5 0.024775 0.274406 0.744253
O O6 0.318041 0.740490 0.063011
O O7 0.024376 0.512414 0.012422
O O8 0.504049 0.000000 0.166667
#
# Coordination Sequence:
#
# PCOD8322429 Si02
#       4
#     6   3   6   6
#     4  11  22  40  60  88 122 157 202 256 297 375
#     4   8  18  40  58  78 120 164 186 240 318 348
#     4  11  22  37  66  87 120 161 206 248 311 356
#     4   9  20  38  56  87 119 162 194 247 302 367
#
# _framework density 18.540661
#
# number of rings (size 3 to 8) (size 9 to 14) (size 15 to 20)
#    0.857    1.143    2.857    0.000    8.000    0.000 
#    0.000    4.286    0.000    0.000    0.000    0.000 
#    0.000    0.000    0.000    0.000    0.000    0.000 
#
# Total GULP energy -260258.077242 kJ/mol
# GULP energy per Si atom -12393.241773 kJ/mol
# Density = 1.849846 g / cm^3
# Si number density = 18.540661 Si / 1000 Ang^3
#
#
#
# Elastic Constant Matrix: (Units=GPa)
#
#
# Indices 1 2 3 4 5 6 
#
# 1 121.5314 61.2236 46.8336 -3.9628 -0.0001 0.0000
# 2 61.2236 121.5314 46.8336 3.9628 0.0001 0.0000
# 3 46.8336 46.8336 111.4381 0.0000 0.0000 0.0000
# 4 -3.9628 3.9628 0.0000 14.6797 0.0000 0.0001
# 5 -0.0001 0.0001 0.0000 0.0000 14.6797 -3.9628
# 6 0.0000 0.0000 0.0000 0.0001 -3.9628 30.1539
#
#
#
# Elastic Compliance Matrix: (Units=1/GPa)
#
#
# Indices 1 2 3 4 5 6 
#
# 1 0.012083 -0.005109 -0.002931 0.004641 0.000000 0.000000
# 2 -0.005109 0.012083 -0.002931 -0.004641 0.000000 0.000000
# 3 -0.002931 -0.002931 0.011437 0.000000 0.000000 0.000000
# 4 0.004641 -0.004641 0.000000 0.070627 0.000000 0.000000
# 5 0.000000 0.000000 0.000000 0.000000 0.070627 0.009282
# 6 0.000000 0.000000 0.000000 0.000000 0.009282 0.034383
#
#
# Mechanical properties :
#
#
# Convention : Reuss Voigt Hill
#
# Bulk Modulus (GPa) = 73.19893 73.80915 73.50404
# Shear Modulus (GPa) = 21.03185 25.21000 23.12093
#
# Velocity S-wave (km/s) = 3.37169 3.69143 3.53517
# Velocity P-wave (km/s) = 7.39754 7.62002 7.50960
#
# Compressibility (1/GPa) = 0.01366140
#
# Stress axis : x y z
#
# Youngs Moduli (GPa) = 82.76275 82.76275 87.43455
#
# Poissons Ratio (x) = 0.42281 0.25626
# Poissons Ratio (y) = 0.42281 0.25626
# Poissons Ratio (z) = 0.24257 0.24257
#
# Static dielectric constant tensor:
#      x y z
#    x 3.383110 0.000000 0.000000 
#    y 0.000000 3.383110 0.000000 
#    z 0.000000 0.000000 3.282850 
# 
# 
# High freq. dielectric constant tensor:
#      x y z
#    x 1.711200 0.000000 0.000000 
#    y 0.000000 1.711200 0.000000 
#    z 0.000000 0.000000 1.717840 
# 
# From -- ./inp_files/2296.got.cif
#   From: 2010.03.12/outbox.cif.g09.slc.cpg/sg154_2_cif.got.tgz:2296.got - 2010.04.03 13:51:21.
