data_PCOD8322840
_publ_section_title
;
Structure prediction by ZEFSAII (Michael W. Deem and Ramdas Pophale) SiO2 
 PCOD8322840
Probable space group: P 3 1 C
;
_chemical_formula_sum "Si O2"
_cell_formula_units_Z 40
_cell_length_a 19.166607
_cell_length_b 19.166607
_cell_length_c 9.667883
_cell_angle_alpha 90.000000
_cell_angle_beta 90.000000
_cell_angle_gamma 120.000000
_cell_volume 3075.760347
_symmetry_space_group_name_H-M "P 3 1 C"
_symmetry_group_IT_number 159
_symmetry_cell_setting 'hexagonal'
loop_
_space_group_symop_operation_xyz
x,y,z
-y,x-y,z
-x+y,-x,z
y,x,1/2+z
x-y,-y,1/2+z
-x,-x+y,1/2+z
loop_
_atom_site_type_symbol
_atom_site_label
_atom_site_fract_x
_atom_site_fract_y
_atom_site_fract_z
Si Si1 0.923881 0.380807 0.565940
Si Si2 0.666668 0.333334 0.239749
Si Si3 0.619193 0.543075 0.245848
Si Si4 0.456919 0.380802 0.245845
Si Si5 0.666668 0.333335 0.572004
Si Si6 0.511350 0.755674 0.742418
Si Si7 0.543081 0.923883 0.065934
Si Si8 0.244326 0.488652 0.069354
O O1 0.999998 0.395831 0.655897
O O2 0.900971 0.450489 0.590941
O O3 0.849541 0.293956 0.614213
O O4 0.945195 0.379043 0.405894
O O5 0.666668 0.333334 0.405877
O O6 0.711357 0.422704 0.177391
O O7 0.549512 0.450483 0.220841
O O8 0.706045 0.555590 0.197569
O O9 0.444404 0.293948 0.197578
O O10 0.395825 0.395825 0.155889
O O11 0.433842 0.379042 0.405889
O O12 0.577300 0.288661 0.634369
O O13 0.501798 0.750892 0.905886
O O14 0.555597 0.849544 0.114197
#
# Coordination Sequence:
#
# PCOD8322840 Si02
#       8
#     6   2   6   6   2   6   6   6
#     4   9  16  25  37  53  72  93 119 152 186 215
#     4   9  12  18  33  54  70  86 124 165 181 194
#     4   9  16  25  37  53  72  93 119 152 186 215
#     4   9  16  25  37  53  72  93 119 152 186 215
#     4   9  12  18  33  54  70  86 124 165 181 194
#     4   9  14  22  37  54  70  92 125 159 182 206
#     4   9  16  25  37  53  72  93 119 152 186 215
#     4   9  14  22  37  54  70  92 125 159 182 206
#
# _framework density 13.004915
#
# number of rings (size 3 to 8) (size 9 to 14) (size 15 to 20)
#    0.000    3.000    3.000    0.000    0.000    0.000 
#    0.000    1.500    0.000    0.000    0.000    0.000 
#    0.000    0.000    0.000    0.900    0.000   10.800 
#
# Total GULP energy -495627.669406 kJ/mol
# GULP energy per Si atom -12390.691735 kJ/mol
# Density = 1.297531 g / cm^3
# Si number density = 13.004915 Si / 1000 Ang^3
#
#
#
# Elastic Constant Matrix: (Units=GPa)
#
#
# Indices 1 2 3 4 5 6 
#
# 1 97.9268 51.8425 34.5409 0.0000 -0.0002 0.0001
# 2 51.8425 97.9269 34.5409 0.0000 0.0002 0.0000
# 3 34.5409 34.5409 33.9292 0.0000 0.0000 0.0000
# 4 0.0000 0.0000 0.0000 16.2998 0.0000 0.0002
# 5 -0.0002 0.0002 0.0000 0.0000 16.2998 0.0000
# 6 0.0001 0.0000 0.0000 0.0002 0.0000 23.0421
#
#
#
# Elastic Compliance Matrix: (Units=1/GPa)
#
#
# Indices 1 2 3 4 5 6 
#
# 1 0.017144 -0.004556 -0.012815 0.000000 0.000000 0.000000
# 2 -0.004556 0.017144 -0.012815 0.000000 0.000000 0.000000
# 3 -0.012815 -0.012815 0.055565 0.000000 0.000000 0.000000
# 4 0.000000 0.000000 0.000000 0.061351 0.000000 0.000000
# 5 0.000000 0.000000 0.000000 0.000000 0.061351 0.000000
# 6 0.000000 0.000000 0.000000 0.000000 0.000000 0.043399
#
#
# Mechanical properties :
#
#
# Convention : Reuss Voigt Hill
#
# Bulk Modulus (GPa) = 33.91980 52.40351 43.16166
# Shear Modulus (GPa) = 15.33040 18.38557 16.85798
#
# Velocity S-wave (km/s) = 3.43711 3.76405 3.60429
# Velocity P-wave (km/s) = 6.47229 7.69892 7.11210
#
# Compressibility (1/GPa) = 0.02948131
#
# Stress axis : x y z
#
# Youngs Moduli (GPa) = 58.33081 58.33091 17.99705
#
# Poissons Ratio (x) = 0.26574 0.23063
# Poissons Ratio (y) = 0.26574 0.23063
# Poissons Ratio (z) = 0.74749 0.74749
#
# Static dielectric constant tensor:
#      x y z
#    x 2.614280 0.000000 0.000000 
#    y 0.000000 2.614280 0.000000 
#    z 0.000000 0.000000 2.345730 
# 
# 
# High freq. dielectric constant tensor:
#      x y z
#    x 1.474640 0.000000 0.000000 
#    y 0.000000 1.474640 0.000000 
#    z 0.000000 0.000000 1.464600 
# 
# From -- ./inp_files/696.got.cif
#   From: 2010.03.12/outbox.cif.g09.slc.cpg/sg159_cif.got.tgz:696.got - 2010.04.03 14:00:19.
