data_PCOD8322106
_publ_section_title
;
Structure prediction by ZEFSAII (Michael W. Deem and Ramdas Pophale) SiO2 
 PCOD8322106
Probable space group: P 31 2 1
;
_chemical_formula_sum "Si O2"
_cell_formula_units_Z 36
_cell_length_a 8.472698
_cell_length_b 8.472698
_cell_length_c 27.565152
_cell_angle_alpha 90.000000
_cell_angle_beta 90.000000
_cell_angle_gamma 120.000000
_cell_volume 1713.698737
_symmetry_space_group_name_H-M "P 31 2 1"
_symmetry_group_IT_number 152
_symmetry_cell_setting 'hexagonal'
loop_
_space_group_symop_operation_xyz
x,y,z
-y,x-y,1/3+z
-x+y,-x,2/3+z
x-y,-y,2/3-z
-x,-x+y,1/3-z
y,x,-z
loop_
_atom_site_type_symbol
_atom_site_label
_atom_site_fract_x
_atom_site_fract_y
_atom_site_fract_z
Si Si1 0.201599 0.518711 0.882112
Si Si2 0.494380 0.324439 0.222807
Si Si3 0.134137 0.925543 0.621995
Si Si4 0.994545 0.169726 0.610086
Si Si5 0.508483 0.288156 0.631638
Si Si6 0.659055 0.197732 0.720103
O O1 0.229731 0.474702 0.827870
O O2 0.208698 0.375040 0.920089
O O3 0.343279 0.728107 0.897306
O O4 0.006402 0.494461 0.880272
O O5 0.681080 0.375487 0.250329
O O6 0.324234 0.201495 0.257708
O O7 0.000000 0.807817 0.666667
O O8 0.047856 0.024065 0.588414
O O9 0.327805 0.092823 0.640697
O O10 0.136385 0.380837 0.601573
O O11 0.000000 0.133743 0.666667
O O12 0.641450 0.318928 0.677173
O O13 0.467858 0.453562 0.626332
#
# Coordination Sequence:
#
# PCOD8322106 Si02
#       6
#     6   6   6   6   6   6
#     4  11  25  42  63  94 138 178 221 273 334 407
#     4  11  23  45  63  95 138 176 221 276 339 399
#     4   9  21  39  66  96 126 170 222 273 329 397
#     4  10  20  39  68  95 126 169 219 274 336 389
#     4  10  21  40  67  92 132 170 225 279 325 403
#     4  11  22  40  64  97 122 178 221 276 333 388
#
# _framework density 21.007193000000001
#
# number of rings (size 3 to 8) (size 9 to 14) (size 15 to 20)
#    0.000    1.667    1.667    3.000    4.667    2.000 
#    9.000    6.667    0.000    0.000    0.000    0.000 
#    0.000    0.000    0.000    0.000    0.000    0.000 
#
# Total GULP energy -446106.553831 kJ/mol
# GULP energy per Si atom -12391.848718 kJ/mol
# Density = 2.095938 g / cm^3
# Si number density = 21.007193 Si / 1000 Ang^3
#
#
#
# Elastic Constant Matrix: (Units=GPa)
#
#
# Indices 1 2 3 4 5 6 
#
# 1 60.3795 37.7842 42.4681 -3.2995 0.0010 0.0000
# 2 37.7842 60.3795 42.4681 3.2995 -0.0010 0.0000
# 3 42.4681 42.4681 104.9656 0.0000 0.0000 0.0000
# 4 -3.2995 3.2995 0.0000 24.4648 0.0000 -0.0010
# 5 0.0010 -0.0010 0.0000 0.0000 24.4648 -3.2995
# 6 0.0000 0.0000 0.0000 -0.0010 -3.2995 11.2976
#
#
#
# Elastic Compliance Matrix: (Units=1/GPa)
#
#
# Indices 1 2 3 4 5 6 
#
# 1 0.030873 -0.015199 -0.006342 0.006214 -0.000002 0.000000
# 2 -0.015199 0.030873 -0.006342 -0.006214 0.000002 0.000000
# 3 -0.006342 -0.006342 0.014658 0.000000 0.000000 0.000000
# 4 0.006214 -0.006214 0.000000 0.042551 0.000000 0.000004
# 5 -0.000002 0.000002 0.000000 0.000000 0.042551 0.012427
# 6 0.000000 0.000000 0.000000 0.000004 0.012427 0.092144
#
#
# Mechanical properties :
#
#
# Convention : Reuss Voigt Hill
#
# Bulk Modulus (GPa) = 48.44893 52.35172 50.40032
# Shear Modulus (GPa) = 15.80805 18.91238 17.36021
#
# Velocity S-wave (km/s) = 2.74616 3.00372 2.87783
# Velocity P-wave (km/s) = 5.75919 6.08315 5.92339
#
# Compressibility (1/GPa) = 0.02064029
#
# Stress axis : x y z
#
# Youngs Moduli (GPa) = 32.39076 32.39076 68.21995
#
# Poissons Ratio (x) = 0.49230 0.43263
# Poissons Ratio (y) = 0.49230 0.43263
# Poissons Ratio (z) = 0.20541 0.20541
#
# Static dielectric constant tensor:
#      x y z
#    x 4.362450 0.000000 0.000000 
#    y 0.000000 4.362450 0.000000 
#    z 0.000000 0.000000 9.524150 
# 
# 
# High freq. dielectric constant tensor:
#      x y z
#    x 1.830250 0.000000 0.000000 
#    y 0.000000 1.830250 0.000000 
#    z 0.000000 0.000000 1.804630 
# 
# From -- ./inp_files/3394.got.cif
#   From: 2010.03.12/outbox.cif.g09.slc.cpg/sg152_2_cif.got.tgz:3394.got - 2010.04.03 13:45:27.
