data_PCOD8323210
_publ_section_title
;
Structure prediction by ZEFSAII (Michael W. Deem and Ramdas Pophale) SiO2 
 PCOD8323210
Probable space group: P -3 1 C
;
_chemical_formula_sum "Si O2"
_cell_formula_units_Z 84
_cell_length_a 16.906077
_cell_length_b 16.906077
_cell_length_c 22.942694
_cell_angle_alpha 90.000000
_cell_angle_beta 90.000000
_cell_angle_gamma 120.000000
_cell_volume 5678.854345
_symmetry_space_group_name_H-M "P -3 1 C"
_symmetry_group_IT_number 163
_symmetry_cell_setting 'hexagonal'
loop_
_space_group_symop_operation_xyz
x,y,z
-y,x-y,z
-x+y,-x,z
-y,-x,1/2-z
-x+y,y,1/2-z
x,x-y,1/2-z
-x,-y,-z
y,-x+y,-z
x-y,x,-z
y,x,1/2+z
x-y,-y,1/2+z
-x,-x+y,1/2+z
loop_
_atom_site_type_symbol
_atom_site_label
_atom_site_fract_x
_atom_site_fract_y
_atom_site_fract_z
Si Si1 0.847151 0.332624 0.593448
Si Si2 0.570002 0.956195 0.866956
Si Si3 0.519888 0.665905 0.750000
Si Si4 0.847151 0.514527 0.593448
Si Si5 0.373163 0.275291 0.019036
Si Si6 0.613807 0.570002 0.366957
Si Si7 0.626837 0.902128 0.980964
O O1 0.817984 0.408992 0.599293
O O2 0.763604 0.236396 0.615347
O O3 0.871325 0.328144 0.525959
O O4 0.935394 0.356853 0.633163
O O5 0.574659 0.914028 0.805560
O O6 0.470299 0.940599 0.879795
O O7 0.590840 0.903245 0.916815
O O8 0.415789 0.584212 0.750000
O O9 0.519577 0.759789 0.750000
O O10 0.574659 0.660631 0.805560
O O11 0.871325 0.543182 0.525959
O O12 0.935394 0.578541 0.633163
O O13 0.409159 0.312404 0.083185
O O14 0.334671 0.167336 0.017916
O O15 0.289767 0.289767 1.000000
#
# Coordination Sequence:
#
# PCOD8323210 Si02
#       7
#    12  12  12  12  12  12  12
#     4   9  16  26  41  61  84 109 136 165 197 233
#     4   9  17  28  41  58  81 108 135 164 199 237
#     4  10  19  30  43  58  78 104 134 166 199 236
#     4   9  16  26  41  61  84 109 136 165 197 233
#     4   9  16  26  41  60  81 105 133 166 203 243
#     4   9  17  28  41  58  81 108 135 164 199 237
#     4   9  16  26  41  60  81 105 133 166 203 243
#
# _framework density 14.791715999999999
#
# number of rings (size 3 to 8) (size 9 to 14) (size 15 to 20)
#    0.000    2.857    0.000    2.143    0.000    3.429 
#    0.000    0.714    0.000    9.429    0.000    2.000 
#    0.000    0.000    0.000    2.857    0.000    2.286 
#
# Total GULP energy -1041493.111178 kJ/mol
# GULP energy per Si atom -12398.727514 kJ/mol
# Density = 1.475805 g / cm^3
# Si number density = 14.791716 Si / 1000 Ang^3
#
#
#
# Elastic Constant Matrix: (Units=GPa)
#
#
# Indices 1 2 3 4 5 6 
#
# 1 96.5008 50.5879 50.3115 0.0000 0.0000 0.0000
# 2 50.5879 96.5008 50.3115 0.0000 0.0000 0.0000
# 3 50.3115 50.3115 108.3873 0.0000 0.0000 0.0000
# 4 0.0000 0.0000 0.0000 18.4689 0.0000 0.0000
# 5 0.0000 0.0000 0.0000 0.0000 18.4689 0.0000
# 6 0.0000 0.0000 0.0000 0.0000 0.0000 22.9564
#
#
#
# Elastic Compliance Matrix: (Units=1/GPa)
#
#
# Indices 1 2 3 4 5 6 
#
# 1 0.015871 -0.005909 -0.004624 0.000000 0.000000 0.000000
# 2 -0.005909 0.015871 -0.004624 0.000000 0.000000 0.000000
# 3 -0.004624 -0.004624 0.013519 0.000000 0.000000 0.000000
# 4 0.000000 0.000000 0.000000 0.054145 0.000000 0.000000
# 5 0.000000 0.000000 0.000000 0.000000 0.054145 0.000000
# 6 0.000000 0.000000 0.000000 0.000000 0.000000 0.043561
#
#
# Mechanical properties :
#
#
# Convention : Reuss Voigt Hill
#
# Bulk Modulus (GPa) = 66.90588 67.09008 66.99798
# Shear Modulus (GPa) = 21.51373 21.99071 21.75222
#
# Velocity S-wave (km/s) = 3.81786 3.85995 3.83896
# Velocity P-wave (km/s) = 8.04766 8.08211 8.06491
#
# Compressibility (1/GPa) = 0.01494637
#
# Stress axis : x y z
#
# Youngs Moduli (GPa) = 63.00720 63.00720 73.96935
#
# Poissons Ratio (x) = 0.37232 0.34205
# Poissons Ratio (y) = 0.37232 0.34205
# Poissons Ratio (z) = 0.29136 0.29136
#
# Static dielectric constant tensor:
#      x y z
#    x 2.838010 0.000000 0.000000 
#    y 0.000000 2.838010 0.000000 
#    z 0.000000 0.000000 2.843470 
# 
# 
# High freq. dielectric constant tensor:
#      x y z
#    x 1.556740 0.000000 0.000000 
#    y 0.000000 1.556740 0.000000 
#    z 0.000000 0.000000 1.560050 
# 
# From -- ./inp_files/3675.got.cif
#   From: 2010.03.12/outbox.cif.g09.slc.cpg/sg163_2_cif.got.tgz:3675.got - 2010.04.02 06:30:25.
