data_PCOD8323025
_publ_section_title
;
Structure prediction by ZEFSAII (Michael W. Deem and Ramdas Pophale) SiO2 
 PCOD8323025
Probable space group: P -3 1 M 
;
_chemical_formula_sum "Si O2"
_cell_formula_units_Z 84
_cell_length_a 17.883121
_cell_length_b 17.883121
_cell_length_c 15.386802
_cell_angle_alpha 90.000000
_cell_angle_beta 90.000000
_cell_angle_gamma 120.000000
_cell_volume 4261.530755
_symmetry_space_group_name_H-M "P -3 1 M "
_symmetry_group_IT_number 162
_symmetry_cell_setting 'hexagonal'
loop_
_space_group_symop_operation_xyz
x,y,z
-y,x-y,z
-x+y,-x,z
-y,-x,-z
-x+y,y,-z
x,x-y,-z
-x,-y,-z
y,-x+y,-z
x-y,x,-z
y,x,z
x-y,-y,z
-x,-x+y,z
loop_
_atom_site_type_symbol
_atom_site_label
_atom_site_fract_x
_atom_site_fract_y
_atom_site_fract_z
Si Si1 0.101075 0.738166 0.138885
Si Si2 0.500070 0.830445 0.986954
Si Si3 0.528552 0.904035 0.805365
Si Si4 0.787416 0.690399 0.239990
Si Si5 0.529813 0.897287 0.475501
Si Si6 0.678977 0.898099 0.568038
Si Si7 0.519548 0.621390 0.716670
O O1 0.152606 0.840624 0.161755
O O2 0.129920 0.697639 0.215333
O O3 0.000000 0.706540 0.138773
O O4 0.123816 0.709040 0.047957
O O5 0.528575 0.849301 0.887788
O O6 0.431581 0.863161 0.000000
O O7 0.454854 0.727427 0.000000
O O8 0.603649 0.908237 0.746546
O O9 0.438897 0.859958 0.751387
O O10 0.551852 0.000000 0.836698
O O11 0.769595 0.769595 0.219277
O O12 0.825526 0.695407 0.336579
O O13 0.429708 0.859415 0.500000
O O14 0.578601 0.864594 0.540511
O O15 0.526762 0.862557 0.377174
O O16 0.578822 0.000000 0.477443
O O17 0.718249 0.859125 0.500000
O O18 0.732209 0.000000 0.560053
O O19 0.560270 0.560270 0.710631
#
# Coordination Sequence:
#
# PCOD8323025 Si02
#       7
#    12  12  12  12  12  12  12
#     4  11  22  36  58  85 110 144 193 243 290 341
#     4  12  23  38  56  81 118 156 189 224 275 336
#     4  10  19  33  54  78 108 147 188 230 280 336
#     4  10  21  37  55  79 114 154 193 236 292 350
#     4   9  16  28  48  75 105 137 177 222 273 331
#     4  10  20  34  55  81 112 151 191 239 295 347
#     4   9  17  29  49  77 106 136 174 226 276 327
#
# _framework density 19.711227000000001
#
# number of rings (size 3 to 8) (size 9 to 14) (size 15 to 20)
#    0.000    1.857    2.857    2.286    0.000    5.714 
#    0.000    0.000    0.000    0.714    0.000    4.000 
#    0.000    0.571    0.000    0.000    0.000    0.000 
#
# Total GULP energy -1040879.638518 kJ/mol
# GULP energy per Si atom -12391.424268 kJ/mol
# Density = 1.966636 g / cm^3
# Si number density = 19.711227 Si / 1000 Ang^3
#
#
#
# Elastic Constant Matrix: (Units=GPa)
#
#
# Indices 1 2 3 4 5 6 
#
# 1 56.6463 20.2572 16.1826 -0.0001 0.1890 0.0000
# 2 20.2572 56.6463 16.1826 0.0001 -0.1890 0.0000
# 3 16.1826 16.1826 84.1976 0.0000 0.0000 0.0000
# 4 -0.0001 0.0001 0.0000 26.5078 0.0000 -0.1890
# 5 0.1890 -0.1890 0.0000 0.0000 26.5078 -0.0001
# 6 0.0000 0.0000 0.0000 -0.1890 -0.0001 18.1945
#
#
#
# Elastic Compliance Matrix: (Units=1/GPa)
#
#
# Indices 1 2 3 4 5 6 
#
# 1 0.020815 -0.006668 -0.002719 0.000000 -0.000196 0.000000
# 2 -0.006668 0.020815 -0.002719 0.000000 0.000196 0.000000
# 3 -0.002719 -0.002719 0.012922 0.000000 0.000000 0.000000
# 4 0.000000 0.000000 0.000000 0.037728 0.000000 0.000392
# 5 -0.000196 0.000196 0.000000 0.000000 0.037728 0.000000
# 6 0.000000 0.000000 0.000000 0.000392 0.000000 0.054966
#
#
# Mechanical properties :
#
#
# Convention : Reuss Voigt Hill
#
# Bulk Modulus (GPa) = 32.95892 33.63721 33.29806
# Shear Modulus (GPa) = 22.79996 23.89989 23.34993
#
# Velocity S-wave (km/s) = 3.40472 3.48588 3.44554
# Velocity P-wave (km/s) = 5.67568 5.77095 5.72351
#
# Compressibility (1/GPa) = 0.03034080
#
# Stress axis : x y z
#
# Youngs Moduli (GPa) = 48.04169 48.04169 77.38711
#
# Poissons Ratio (x) = 0.32032 0.21043
# Poissons Ratio (y) = 0.32032 0.21043
# Poissons Ratio (z) = 0.13063 0.13063
#
# Static dielectric constant tensor:
#      x y z
#    x 3.393470 0.000000 0.000000 
#    y 0.000000 3.393470 0.000000 
#    z 0.000000 0.000000 3.772890 
# 
# 
# High freq. dielectric constant tensor:
#      x y z
#    x 1.742340 0.000000 0.000000 
#    y 0.000000 1.742340 0.000000 
#    z 0.000000 0.000000 1.780890 
# 
# From -- ./inp_files/3166.got.cif
#   From: 2010.03.12/outbox.cif.g09.slc.cpg/sg162_2_cif.got.tgz:3166.got - 2010.04.02 06:27:41.
