data_PCOD8323029
_publ_section_title
;
Structure prediction by ZEFSAII (Michael W. Deem and Ramdas Pophale) SiO2 
 PCOD8323029
Probable space group: P -3 1 M 
;
_chemical_formula_sum "Si O2"
_cell_formula_units_Z 60
_cell_length_a 13.907765
_cell_length_b 13.907765
_cell_length_c 18.351591
_cell_angle_alpha 90.000000
_cell_angle_beta 90.000000
_cell_angle_gamma 120.000000
_cell_volume 3074.107432
_symmetry_space_group_name_H-M "P -3 1 M "
_symmetry_group_IT_number 162
_symmetry_cell_setting 'hexagonal'
loop_
_space_group_symop_operation_xyz
x,y,z
-y,x-y,z
-x+y,-x,z
-y,-x,-z
-x+y,y,-z
x,x-y,-z
-x,-y,-z
y,-x+y,-z
x-y,x,-z
y,x,z
x-y,-y,z
-x,-x+y,z
loop_
_atom_site_type_symbol
_atom_site_label
_atom_site_fract_x
_atom_site_fract_y
_atom_site_fract_z
Si Si1 0.780198 0.126829 0.691539
Si Si2 0.726445 0.600359 0.565273
Si Si3 0.869806 0.330985 0.965052
Si Si4 0.130865 0.439954 0.799671
Si Si5 0.559736 0.433353 0.331219
O O1 0.873167 0.192201 0.629955
O O2 0.817110 0.181782 0.771524
O O3 0.678794 0.139706 0.660283
O O4 0.750096 0.000000 0.698543
O O5 0.795293 0.590587 0.500000
O O6 0.655072 0.655072 0.535613
O O7 0.648483 0.475738 0.598767
O O8 0.832506 0.317123 0.880916
O O9 0.000000 0.367157 0.975185
O O10 0.790182 0.209819 0.000000
O O11 0.846795 0.423398 0.000000
O O12 0.177466 0.546466 0.745256
O O13 0.000000 0.363567 0.798226
O O14 0.463841 0.463841 0.327248
#
# Coordination Sequence:
#
# PCOD8323029 Si02
#       5
#    12  12  12  12  12
#     4  10  19  33  57  81 104 142 182 217 270 328
#     4  10  20  36  55  76 107 140 175 221 271 322
#     4  10  22  38  57  85 119 155 194 239 293 348
#     4   9  19  36  54  76 112 143 175 225 271 323
#     4   8  17  33  51  75 103 135 174 217 263 315
#
# _framework density 19.517859000000001
#
# number of rings (size 3 to 8) (size 9 to 14) (size 15 to 20)
#    0.000    2.600    0.000    2.600    2.800    1.600 
#    9.600    3.000    0.000    7.800    0.000    0.000 
#    0.000    0.000    0.000    0.000    0.000    0.000 
#
# Total GULP energy -743436.415528 kJ/mol
# GULP energy per Si atom -12390.606925 kJ/mol
# Density = 1.947344 g / cm^3
# Si number density = 19.517859 Si / 1000 Ang^3
#
#
#
# Elastic Constant Matrix: (Units=GPa)
#
#
# Indices 1 2 3 4 5 6 
#
# 1 57.8131 8.5724 33.6556 0.0000 -0.1744 0.0000
# 2 8.5724 57.8131 33.6556 0.0000 0.1744 0.0000
# 3 33.6556 33.6556 144.3082 0.0000 0.0000 0.0000
# 4 0.0000 0.0000 0.0000 28.0337 0.0000 0.1744
# 5 -0.1744 0.1744 0.0000 0.0000 28.0337 0.0000
# 6 0.0000 0.0000 0.0000 0.1744 0.0000 24.6203
#
#
#
# Elastic Compliance Matrix: (Units=1/GPa)
#
#
# Indices 1 2 3 4 5 6 
#
# 1 0.020019 -0.000290 -0.004601 0.000000 0.000126 0.000000
# 2 -0.000290 0.020019 -0.004601 0.000000 -0.000126 0.000000
# 3 -0.004601 -0.004601 0.009076 0.000000 0.000000 0.000000
# 4 0.000000 0.000000 0.000000 0.035673 0.000000 -0.000253
# 5 0.000126 -0.000126 0.000000 0.000000 0.035673 0.000000
# 6 0.000000 0.000000 0.000000 -0.000253 0.000000 0.040619
#
#
# Mechanical properties :
#
#
# Convention : Reuss Voigt Hill
#
# Bulk Modulus (GPa) = 33.19079 45.74460 39.46770
# Shear Modulus (GPa) = 26.30106 28.40762 27.35434
#
# Velocity S-wave (km/s) = 3.67487 3.81920 3.74773
# Velocity P-wave (km/s) = 5.92017 6.55260 6.24440
#
# Compressibility (1/GPa) = 0.03012884
#
# Stress axis : x y z
#
# Youngs Moduli (GPa) = 49.95233 49.95233 110.18331
#
# Poissons Ratio (x) = 0.01450 0.50697
# Poissons Ratio (y) = 0.01450 0.50697
# Poissons Ratio (z) = 0.22984 0.22984
#
# Static dielectric constant tensor:
#      x y z
#    x 3.491740 0.000000 0.000000 
#    y 0.000000 3.491740 0.000000 
#    z 0.000000 0.000000 3.773420 
# 
# 
# High freq. dielectric constant tensor:
#      x y z
#    x 1.746430 0.000000 0.000000 
#    y 0.000000 1.746430 0.000000 
#    z 0.000000 0.000000 1.766320 
# 
# From -- ./inp_files/3790.got.cif
#   From: 2010.03.12/outbox.cif.g09.slc.cpg/sg162_2_cif.got.tgz:3790.got - 2010.04.02 06:27:41.
