data_PCOD8323232
_publ_section_title
;
Structure prediction by ZEFSAII (Michael W. Deem and Ramdas Pophale) SiO2 
 PCOD8323232
Probable space group: P -3 1 C
;
_chemical_formula_sum "Si O2"
_cell_formula_units_Z 60
_cell_length_a 13.075815
_cell_length_b 13.075815
_cell_length_c 25.099577
_cell_angle_alpha 90.000000
_cell_angle_beta 90.000000
_cell_angle_gamma 120.000000
_cell_volume 3716.503696
_symmetry_space_group_name_H-M "P -3 1 C"
_symmetry_group_IT_number 163
_symmetry_cell_setting 'hexagonal'
loop_
_space_group_symop_operation_xyz
x,y,z
-y,x-y,z
-x+y,-x,z
-y,-x,1/2-z
-x+y,y,1/2-z
x,x-y,1/2-z
-x,-y,-z
y,-x+y,-z
x-y,x,-z
y,x,1/2+z
x-y,-y,1/2+z
-x,-x+y,1/2+z
loop_
_atom_site_type_symbol
_atom_site_label
_atom_site_fract_x
_atom_site_fract_y
_atom_site_fract_z
Si Si1 0.568603 0.901927 0.459175
Si Si2 0.241509 0.239856 0.750000
Si Si3 0.430272 0.096600 0.662031
Si Si4 0.333672 0.430272 0.162031
Si Si5 0.568603 0.666676 0.459175
O O1 0.607098 0.945156 0.398667
O O2 0.576507 0.788253 0.472754
O O3 0.435129 0.870258 0.469137
O O4 0.656876 1.000000 0.500000
O O5 0.205583 0.102792 0.750000
O O6 0.318403 0.306251 0.801882
O O7 0.318403 0.306251 0.698118
O O8 0.124690 0.249379 0.750000
O O9 0.466089 0.233045 0.669311
O O10 0.542626 0.085251 0.679368
O O11 0.338058 0.392902 0.101333
#
# Coordination Sequence:
#
# PCOD8323232 Si02
#       5
#    12  12  12  12  12
#     4   9  17  29  46  68  93 120 150 185 224 265
#     4  10  20  32  46  64  88 118 148 178 216 266
#     4   9  17  30  49  71  91 113 146 190 233 265
#     4   9  17  30  49  71  91 113 146 190 233 265
#     4   9  17  29  46  68  93 120 150 185 224 265
#
# _framework density 16.144204999999999
#
# number of rings (size 3 to 8) (size 9 to 14) (size 15 to 20)
#    0.000    2.800    0.000    1.600    0.000    4.800 
#    0.000    2.000    0.000    3.600    0.000    0.000 
#    0.000    0.000    0.000    0.000    0.000    0.000 
#
# Total GULP energy -743999.921071 kJ/mol
# GULP energy per Si atom -12399.998685 kJ/mol
# Density = 1.610746 g / cm^3
# Si number density = 16.144205 Si / 1000 Ang^3
#
#
#
# Elastic Constant Matrix: (Units=GPa)
#
#
# Indices 1 2 3 4 5 6 
#
# 1 110.0406 66.3255 69.7232 0.0000 0.0000 0.0000
# 2 66.3255 110.0406 69.7232 0.0000 0.0000 0.0000
# 3 69.7232 69.7232 114.8873 0.0000 0.0000 0.0000
# 4 0.0000 0.0000 0.0000 26.2202 0.0000 0.0000
# 5 0.0000 0.0000 0.0000 0.0000 26.2202 0.0000
# 6 0.0000 0.0000 0.0000 0.0000 0.0000 21.8575
#
#
#
# Elastic Compliance Matrix: (Units=1/GPa)
#
#
# Indices 1 2 3 4 5 6 
#
# 1 0.016888 -0.005987 -0.006615 0.000000 0.000000 0.000000
# 2 -0.005987 0.016888 -0.006615 0.000000 0.000000 0.000000
# 3 -0.006615 -0.006615 0.016734 0.000000 0.000000 0.000000
# 4 0.000000 0.000000 0.000000 0.038139 0.000000 0.000000
# 5 0.000000 0.000000 0.000000 0.000000 0.038139 0.000000
# 6 0.000000 0.000000 0.000000 0.000000 0.000000 0.045751
#
#
# Mechanical properties :
#
#
# Convention : Reuss Voigt Hill
#
# Bulk Modulus (GPa) = 82.82710 82.94580 82.88645
# Shear Modulus (GPa) = 23.25599 23.47269 23.36434
#
# Velocity S-wave (km/s) = 3.79953 3.81719 3.80837
# Velocity P-wave (km/s) = 8.40622 8.42126 8.41374
#
# Compressibility (1/GPa) = 0.01207334
#
# Stress axis : x y z
#
# Youngs Moduli (GPa) = 59.21367 59.21367 59.75960
#
# Poissons Ratio (x) = 0.35454 0.39533
# Poissons Ratio (y) = 0.35454 0.39533
# Poissons Ratio (z) = 0.39172 0.39172
#
# Static dielectric constant tensor:
#      x y z
#    x 2.897070 0.000000 0.000000 
#    y 0.000000 2.897070 0.000000 
#    z 0.000000 0.000000 3.303130 
# 
# 
# High freq. dielectric constant tensor:
#      x y z
#    x 1.607370 0.000000 0.000000 
#    y 0.000000 1.607370 0.000000 
#    z 0.000000 0.000000 1.634770 
# 
# From -- ./inp_files/4106.got.cif
#   From: 2010.03.12/outbox.cif.g09.slc.cpg/sg163_3_cif.got.tgz:4106.got - 2010.04.02 06:30:25.
