data_PCOD8323147
_publ_section_title
;
Structure prediction by ZEFSAII (Michael W. Deem and Ramdas Pophale) SiO2 
 PCOD8323147
Probable space group: P -3 1 M 
;
_chemical_formula_sum "Si O2"
_cell_formula_units_Z 66
_cell_length_a 20.982576
_cell_length_b 20.982576
_cell_length_c 7.772588
_cell_angle_alpha 90.000000
_cell_angle_beta 90.000000
_cell_angle_gamma 120.000000
_cell_volume 2963.561124
_symmetry_space_group_name_H-M "P -3 1 M "
_symmetry_group_IT_number 162
_symmetry_cell_setting 'hexagonal'
loop_
_space_group_symop_operation_xyz
x,y,z
-y,x-y,z
-x+y,-x,z
-y,-x,-z
-x+y,y,-z
x,x-y,-z
-x,-y,-z
y,-x+y,-z
x-y,x,-z
y,x,z
x-y,-y,z
-x,-x+y,z
loop_
_atom_site_type_symbol
_atom_site_label
_atom_site_fract_x
_atom_site_fract_y
_atom_site_fract_z
Si Si1 0.851908 0.703816 0.500000
Si Si2 0.787668 0.444480 0.855968
Si Si3 0.084761 0.820401 0.847652
Si Si4 0.682737 0.083315 0.949243
Si Si5 0.915846 0.307170 0.651638
Si Si6 0.543288 0.220218 0.646105
O O1 0.861232 0.754898 0.336461
O O2 0.766404 0.656049 0.545079
O O3 0.866121 0.514270 0.901815
O O4 0.792183 0.404822 0.678241
O O5 0.726656 0.469680 0.822326
O O6 0.763260 0.381630 0.000000
O O7 0.106621 0.756276 0.839351
O O8 0.000000 0.786451 0.886097
O O9 0.123393 0.876608 0.000000
O O10 0.619404 0.000000 0.908285
O O11 0.708880 0.090294 0.145928
O O12 0.860036 0.335652 0.602772
O O13 0.000000 0.366908 0.599804
O O14 0.558339 0.279170 0.500000
#
# Coordination Sequence:
#
# PCOD8323147 Si02
#       6
#     6  12  12  12  12  12
#     4  12  22  40  70 104 149 184 238 294 365 442
#     4  12  25  42  67  92 122 178 242 291 353 425
#     4  11  24  42  70 105 144 189 237 292 361 441
#     4  10  23  43  67 100 137 174 229 299 366 429
#     4  11  23  41  70 104 138 182 231 295 374 438
#     4  12  26  45  64  93 137 181 235 298 356 430
#
# _framework density 22.270505
#
# number of rings (size 3 to 8) (size 9 to 14) (size 15 to 20)
#    0.000    0.727    4.545    3.091    0.000    1.818 
#    0.000    0.000    0.000    2.364    0.000    0.636 
#    0.000    0.000    0.000    0.000    0.000    0.000 
#
# Total GULP energy -818322.915497 kJ/mol
# GULP energy per Si atom -12398.832053 kJ/mol
# Density = 2.221982 g / cm^3
# Si number density = 22.270505 Si / 1000 Ang^3
#
#
#
# Elastic Constant Matrix: (Units=GPa)
#
#
# Indices 1 2 3 4 5 6 
#
# 1 119.3424 61.9608 49.5474 -0.0001 -9.7943 0.0000
# 2 61.9608 119.3424 49.5474 0.0001 9.7943 0.0000
# 3 49.5474 49.5474 113.7115 0.0000 0.0000 0.0000
# 4 -0.0001 0.0001 0.0000 27.7563 0.0000 9.7943
# 5 -9.7943 9.7943 0.0000 0.0000 27.7563 -0.0001
# 6 0.0000 0.0000 0.0000 9.7943 -0.0001 28.6908
#
#
#
# Elastic Compliance Matrix: (Units=1/GPa)
#
#
# Indices 1 2 3 4 5 6 
#
# 1 0.013527 -0.006287 -0.003155 0.000000 0.006992 0.000000
# 2 -0.006287 0.013527 -0.003155 0.000000 -0.006992 0.000000
# 3 -0.003155 -0.003155 0.011543 0.000000 0.000000 0.000000
# 4 0.000000 0.000000 0.000000 0.040962 0.000000 -0.013983
# 5 0.006992 -0.006992 0.000000 0.000000 0.040962 0.000000
# 6 0.000000 0.000000 0.000000 -0.013983 0.000000 0.039628
#
#
# Mechanical properties :
#
#
# Convention : Reuss Voigt Hill
#
# Bulk Modulus (GPa) = 74.60160 74.94526 74.77343
# Shear Modulus (GPa) = 26.34210 29.59673 27.96942
#
# Velocity S-wave (km/s) = 3.44295 3.64945 3.54771
# Velocity P-wave (km/s) = 7.02680 7.17519 7.10138
#
# Compressibility (1/GPa) = 0.01340454
#
# Stress axis : x y z
#
# Youngs Moduli (GPa) = 73.92666 73.92666 86.63046
#
# Poissons Ratio (x) = 0.46478 0.27328
# Poissons Ratio (y) = 0.46478 0.27328
# Poissons Ratio (z) = 0.23321 0.23321
#
# Static dielectric constant tensor:
#      x y z
#    x 3.960790 0.000000 0.000000 
#    y 0.000000 3.960790 0.000000 
#    z 0.000000 0.000000 4.867680 
# 
# 
# High freq. dielectric constant tensor:
#      x y z
#    x 1.863180 0.000000 0.000000 
#    y 0.000000 1.863180 0.000000 
#    z 0.000000 0.000000 1.906000 
# 
# From -- ./inp_files/1592.got.cif
#   From: 2010.03.12/outbox.cif.g09.slc.cpg/sg162_1_cif.got.tgz:1592.got - 2010.04.02 06:27:41.
