data_PCOD8323581
_publ_section_title
;
Structure prediction by ZEFSAII (Michael W. Deem and Ramdas Pophale) SiO2 
 PCOD8323581
Probable space group: P -3 M 1
;
_chemical_formula_sum "Si O2"
_cell_formula_units_Z 96
_cell_length_a 22.450703
_cell_length_b 22.450703
_cell_length_c 12.890193
_cell_angle_alpha 90.000000
_cell_angle_beta 90.000000
_cell_angle_gamma 120.000000
_cell_volume 5626.650515
_symmetry_space_group_name_H-M "P -3 M 1"
_symmetry_group_IT_number 164
_symmetry_cell_setting 'hexagonal'
loop_
_space_group_symop_operation_xyz
x,y,z
-y,x-y,z
-x+y,-x,z
x-y,-y,-z
-x,-x+y,-z
y,x,-z
-x,-y,-z
y,-x+y,-z
x-y,x,-z
-x+y,y,z
x,x-y,z
-y,-x,z
loop_
_atom_site_type_symbol
_atom_site_label
_atom_site_fract_x
_atom_site_fract_y
_atom_site_fract_z
Si Si1 0.280197 0.857686 0.543668
Si Si2 0.233658 0.184629 0.084287
Si Si3 0.627373 0.882218 0.042215
Si Si4 0.071355 0.795301 0.454864
Si Si5 0.529196 0.604189 0.952640
Si Si6 0.415573 0.361115 0.270113
Si Si7 0.941933 0.537825 0.586374
Si Si8 0.294935 0.029229 0.767921
O O1 0.224209 0.775792 0.547822
O O2 0.241173 0.901020 0.533361
O O3 0.328431 0.882861 0.646482
O O4 0.330394 0.876045 0.443435
O O5 0.221482 0.110741 0.115318
O O6 0.220220 0.218368 0.185477
O O7 0.177142 0.177142 0.000000
O O8 0.309768 0.234770 0.037035
O O9 0.608285 0.804143 0.049088
O O10 0.647568 0.914724 0.156437
O O11 0.557276 0.878599 0.003642
O O12 0.123395 0.876606 0.450182
O O13 0.064730 0.763524 0.341560
O O14 0.000000 0.784059 0.500000
O O15 0.448942 0.551059 0.979654
O O16 0.534183 0.611148 0.827947
O O17 0.576482 0.576482 0.000000
O O18 0.404187 0.423469 0.309182
O O19 0.340269 0.301717 0.238951
O O20 0.914175 0.457088 0.596823
O O21 0.000000 0.573883 0.500000
#
# Coordination Sequence:
#
# PCOD8323581 Si02
#       8
#    12  12  12  12  12  12  12  12
#     4  10  20  32  50  75 102 131 165 204 247 294
#     4   9  18  31  51  74 100 129 163 202 248 300
#     4  10  19  33  50  73 101 134 165 200 249 300
#     4  11  21  34  50  74 103 133 165 205 249 296
#     4  11  21  33  50  75 104 133 167 206 245 292
#     4  11  18  31  49  72 106 131 160 197 248 298
#     4   9  17  31  50  71  98 133 166 197 239 292
#     4  11  18  31  49  74 104 130 160 197 249 300
#
# _framework density 17.06166
#
# number of rings (size 3 to 8) (size 9 to 14) (size 15 to 20)
#    0.000    1.750    5.000    1.500    0.000    2.500 
#    0.000    0.000    0.000    0.750    0.000    1.750 
#    0.000    1.000    0.000    0.000    0.000    0.000 
#
# Total GULP energy -1189998.635540 kJ/mol
# GULP energy per Si atom -12395.819120 kJ/mol
# Density = 1.702283 g / cm^3
# Si number density = 17.061660 Si / 1000 Ang^3
#
#
#
# Elastic Constant Matrix: (Units=GPa)
#
#
# Indices 1 2 3 4 5 6 
#
# 1 83.4165 37.1373 25.4898 -3.2931 0.0000 0.0000
# 2 37.1373 83.4165 25.4898 3.2931 0.0000 0.0000
# 3 25.4898 25.4898 84.7278 0.0000 0.0000 0.0000
# 4 -3.2931 3.2931 0.0000 14.3462 0.0000 0.0000
# 5 0.0000 0.0000 0.0000 0.0000 14.3462 -3.2931
# 6 0.0000 0.0000 0.0000 0.0000 -3.2931 23.1396
#
#
#
# Elastic Compliance Matrix: (Units=1/GPa)
#
#
# Indices 1 2 3 4 5 6 
#
# 1 0.015921 -0.006417 -0.002859 0.005128 0.000000 0.000000
# 2 -0.006417 0.015921 -0.002859 -0.005128 0.000000 0.000000
# 3 -0.002859 -0.002859 0.013523 0.000000 0.000000 0.000000
# 4 0.005128 -0.005128 0.000000 0.072059 0.000000 0.000000
# 5 0.000000 0.000000 0.000000 0.000000 0.072059 0.010255
# 6 0.000000 0.000000 0.000000 0.000000 0.010255 0.044675
#
#
# Mechanical properties :
#
#
# Convention : Reuss Voigt Hill
#
# Bulk Modulus (GPa) = 47.40648 47.53273 47.46961
# Shear Modulus (GPa) = 18.83526 21.26267 20.04897
#
# Velocity S-wave (km/s) = 3.32618 3.53402 3.43168
# Velocity P-wave (km/s) = 6.52664 6.67625 6.60187
#
# Compressibility (1/GPa) = 0.02109416
#
# Stress axis : x y z
#
# Youngs Moduli (GPa) = 62.81035 62.81035 73.94868
#
# Poissons Ratio (x) = 0.40304 0.21144
# Poissons Ratio (y) = 0.40304 0.21144
# Poissons Ratio (z) = 0.17959 0.17959
#
# Static dielectric constant tensor:
#      x y z
#    x 3.061580 0.000000 0.000000 
#    y 0.000000 3.061580 0.000000 
#    z 0.000000 0.000000 3.326100 
# 
# 
# High freq. dielectric constant tensor:
#      x y z
#    x 1.631400 0.000000 0.000000 
#    y 0.000000 1.631400 0.000000 
#    z 0.000000 0.000000 1.668070 
# 
# From -- ./inp_files/3135.got.cif
#   From: 2010.03.12/outbox.cif.g09.slc.cpg/sg164_2_cif.got.tgz:3135.got - 2010.04.02 06:32:59.
