data_PCOD8323435
_publ_section_title
;
Structure prediction by ZEFSAII (Michael W. Deem and Ramdas Pophale) SiO2 
 PCOD8323435
Probable space group: P -3 M 1
;
_chemical_formula_sum "Si O2"
_cell_formula_units_Z 72
_cell_length_a 23.943804
_cell_length_b 23.943804
_cell_length_c 9.558133
_cell_angle_alpha 90.000000
_cell_angle_beta 90.000000
_cell_angle_gamma 120.000000
_cell_volume 4745.587645
_symmetry_space_group_name_H-M "P -3 M 1"
_symmetry_group_IT_number 164
_symmetry_cell_setting 'hexagonal'
loop_
_space_group_symop_operation_xyz
x,y,z
-y,x-y,z
-x+y,-x,z
x-y,-y,-z
-x,-x+y,-z
y,x,-z
-x,-y,-z
y,-x+y,-z
x-y,x,-z
-x+y,y,z
x,x-y,z
-y,-x,z
loop_
_atom_site_type_symbol
_atom_site_label
_atom_site_fract_x
_atom_site_fract_y
_atom_site_fract_z
Si Si1 0.195759 0.267347 0.148622
Si Si2 0.407745 0.268654 0.201425
Si Si3 0.260163 0.191288 0.184209
Si Si4 0.386817 0.317079 0.926481
Si Si5 0.465005 0.408866 0.691480
Si Si6 0.609789 0.091021 0.384278
O O1 0.130987 0.261974 0.214756
O O2 0.209530 0.214703 0.226436
O O3 0.257537 0.337591 0.171161
O O4 0.188513 0.258908 0.982765
O O5 0.423960 0.211980 0.208767
O O6 0.332160 0.241904 0.239488
O O7 0.458046 0.323090 0.305967
O O8 0.420253 0.295984 0.044243
O O9 0.238699 0.119350 0.242292
O O10 0.443249 0.362215 0.822836
O O11 0.350708 0.350708 0.000000
O O12 0.535617 0.464384 0.730926
O O13 0.468063 0.374638 0.548902
O O14 0.417704 0.437181 0.672999
O O15 0.556878 0.113755 0.357760
#
# Coordination Sequence:
#
# PCOD8323435 Si02
#       6
#    12  12  12  12  12  12
#     4   9  14  22  35  55  81 113 147 178 216 263
#     4  10  18  29  45  66  89 118 153 188 223 265
#     4   8  13  22  36  55  79 106 143 184 221 259
#     4  11  16  26  42  65  93 117 147 182 224 264
#     4   9  18  29  45  67  93 119 142 173 223 275
#     4   9  17  31  46  65  91 118 146 178 217 272
#
# _framework density 15.171988000000001
#
# number of rings (size 3 to 8) (size 9 to 14) (size 15 to 20)
#    0.000    2.667    5.000    2.500    0.000    1.000 
#    0.000    1.667    0.000    0.667    0.000    2.333 
#    0.000    1.333    0.000    0.000    0.000    0.000 
#
# Total GULP energy -892136.221522 kJ/mol
# GULP energy per Si atom -12390.780854 kJ/mol
# Density = 1.513746 g / cm^3
# Si number density = 15.171988 Si / 1000 Ang^3
#
#
#
# Elastic Constant Matrix: (Units=GPa)
#
#
# Indices 1 2 3 4 5 6 
#
# 1 103.5944 57.8686 48.0062 -6.4679 0.0000 0.0000
# 2 57.8686 103.5944 48.0062 6.4679 0.0000 0.0000
# 3 48.0062 48.0062 50.0699 0.0000 0.0000 0.0000
# 4 -6.4679 6.4679 0.0000 11.6493 0.0000 0.0000
# 5 0.0000 0.0000 0.0000 0.0000 11.6493 -6.4679
# 6 0.0000 0.0000 0.0000 0.0000 -6.4679 22.8629
#
#
#
# Elastic Compliance Matrix: (Units=1/GPa)
#
#
# Indices 1 2 3 4 5 6 
#
# 1 0.020176 -0.005768 -0.013814 0.014405 0.000000 0.000000
# 2 -0.005768 0.020176 -0.013814 -0.014405 0.000000 0.000000
# 3 -0.013814 -0.013814 0.046461 0.000000 0.000000 0.000000
# 4 0.014405 -0.014405 0.000000 0.101837 0.000000 0.000000
# 5 0.000000 0.000000 0.000000 0.000000 0.101837 0.028810
# 6 0.000000 0.000000 0.000000 0.000000 0.028810 0.051889
#
#
# Mechanical properties :
#
#
# Convention : Reuss Voigt Hill
#
# Bulk Modulus (GPa) = 49.94746 62.78007 56.36376
# Shear Modulus (GPa) = 12.02378 16.12416 14.07397
#
# Velocity S-wave (km/s) = 2.81819 3.26353 3.04900
# Velocity P-wave (km/s) = 6.60166 7.46121 7.04456
#
# Compressibility (1/GPa) = 0.02002104
#
# Stress axis : x y z
#
# Youngs Moduli (GPa) = 49.56365 49.56365 21.52344
#
# Poissons Ratio (x) = 0.28591 0.29732
# Poissons Ratio (y) = 0.28591 0.29732
# Poissons Ratio (z) = 0.68466 0.68466
#
# Static dielectric constant tensor:
#      x y z
#    x 2.992840 0.000000 0.000000 
#    y 0.000000 2.992840 0.000000 
#    z 0.000000 0.000000 2.708810 
# 
# 
# High freq. dielectric constant tensor:
#      x y z
#    x 1.567340 0.000000 0.000000 
#    y 0.000000 1.567340 0.000000 
#    z 0.000000 0.000000 1.549630 
# 
# From -- ./inp_files/1921.got.cif
#   From: 2010.03.12/outbox.cif.g09.slc.cpg/sg164_1_cif.got.tgz:1921.got - 2010.04.02 06:32:59.
