data_PCOD8323657
_publ_section_title
;
Structure prediction by ZEFSAII (Michael W. Deem and Ramdas Pophale) SiO2 
 PCOD8323657
Probable space group: P -3 M 1
;
_chemical_formula_sum "Si O2"
_cell_formula_units_Z 60
_cell_length_a 12.696541
_cell_length_b 12.696541
_cell_length_c 26.023808
_cell_angle_alpha 90.000000
_cell_angle_beta 90.000000
_cell_angle_gamma 120.000000
_cell_volume 3633.057879
_symmetry_space_group_name_H-M "P -3 M 1"
_symmetry_group_IT_number 164
_symmetry_cell_setting 'hexagonal'
loop_
_space_group_symop_operation_xyz
x,y,z
-y,x-y,z
-x+y,-x,z
x-y,-y,-z
-x,-x+y,-z
y,x,-z
-x,-y,-z
y,-x+y,-z
x-y,x,-z
-x+y,y,z
x,x-y,z
-y,-x,z
loop_
_atom_site_type_symbol
_atom_site_label
_atom_site_fract_x
_atom_site_fract_y
_atom_site_fract_z
Si Si1 0.000758 0.245710 0.142437
Si Si2 0.570405 0.905627 0.654716
Si Si3 0.087702 0.420925 0.047502
Si Si4 0.664715 0.086527 0.233893
Si Si5 0.578309 0.913951 0.543896
O O1 0.876347 0.123654 0.129933
O O2 0.993843 0.307192 0.195211
O O3 0.106352 0.212704 0.147837
O O4 0.026327 0.340212 0.097308
O O5 0.424861 0.849722 0.655484
O O6 0.603046 0.801523 0.653050
O O7 0.622124 0.975994 0.709078
O O8 0.621721 0.979037 0.600725
O O9 0.217076 0.434151 0.035038
O O10 0.106949 0.553475 0.057734
O O11 0.000000 0.355130 0.000000
O O12 0.543170 0.086339 0.216072
O O13 0.774112 0.225889 0.235004
O O14 0.443290 0.886579 0.530917
O O15 0.576479 0.788240 0.543245
O O16 0.670366 0.000000 0.500000
#
# Coordination Sequence:
#
# PCOD8323657 Si02
#       5
#    12  12  12  12  12
#     4  10  20  33  48  66  90 121 154 184 213 250
#     4   8  13  22  38  60  84 108 136 172 215 260
#     4  10  20  34  52  73  96 121 149 182 220 260
#     4   9  16  27  45  68  90 110 136 176 225 269
#     4   9  16  26  41  61  84 110 140 175 215 258
#
# _framework density 16.515014000000001
#
# number of rings (size 3 to 8) (size 9 to 14) (size 15 to 20)
#    0.000    2.800    0.000    2.200    0.000    3.200 
#    0.000    1.000    0.000   10.200    0.000    0.000 
#    0.000    0.000    0.000    0.000    0.000    0.000 
#
# Total GULP energy -743309.177965 kJ/mol
# GULP energy per Si atom -12388.486299 kJ/mol
# Density = 1.647743 g / cm^3
# Si number density = 16.515014 Si / 1000 Ang^3
#
#
#
# Elastic Constant Matrix: (Units=GPa)
#
#
# Indices 1 2 3 4 5 6 
#
# 1 74.2441 41.9805 58.0247 0.2475 0.0000 0.0000
# 2 41.9805 74.2441 58.0247 -0.2475 0.0000 0.0000
# 3 58.0247 58.0247 140.1406 0.0000 0.0000 0.0000
# 4 0.2475 -0.2475 0.0000 24.0365 0.0000 0.0000
# 5 0.0000 0.0000 0.0000 0.0000 24.0365 0.2475
# 6 0.0000 0.0000 0.0000 0.0000 0.2475 16.1318
#
#
#
# Elastic Compliance Matrix: (Units=1/GPa)
#
#
# Indices 1 2 3 4 5 6 
#
# 1 0.022834 -0.008166 -0.006073 -0.000319 0.000000 0.000000
# 2 -0.008166 0.022834 -0.006073 0.000319 0.000000 0.000000
# 3 -0.006073 -0.006073 0.012165 0.000000 0.000000 0.000000
# 4 -0.000319 0.000319 0.000000 0.041610 0.000000 0.000000
# 5 0.000000 0.000000 0.000000 0.000000 0.041610 -0.000638
# 6 0.000000 0.000000 0.000000 0.000000 -0.000638 0.061999
#
#
# Mechanical properties :
#
#
# Convention : Reuss Voigt Hill
#
# Bulk Modulus (GPa) = 58.11220 67.18761 62.64990
# Shear Modulus (GPa) = 20.04713 21.54757 20.79735
#
# Velocity S-wave (km/s) = 3.48785 3.61602 3.55251
# Velocity P-wave (km/s) = 7.17523 7.62923 7.40571
#
# Compressibility (1/GPa) = 0.01720809
#
# Stress axis : x y z
#
# Youngs Moduli (GPa) = 43.79461 43.79461 82.20346
#
# Poissons Ratio (x) = 0.35761 0.49925
# Poissons Ratio (y) = 0.35761 0.49925
# Poissons Ratio (z) = 0.26598 0.26598
#
# Static dielectric constant tensor:
#      x y z
#    x 2.897170 0.000000 0.000000 
#    y 0.000000 2.897170 0.000000 
#    z 0.000000 0.000000 3.688610 
# 
# 
# High freq. dielectric constant tensor:
#      x y z
#    x 1.612510 0.000000 0.000000 
#    y 0.000000 1.612510 0.000000 
#    z 0.000000 0.000000 1.662680 
# 
# From -- ./inp_files/5165.got.cif
#   From: 2010.03.12/outbox.cif.g09.slc.cpg/sg164_3_cif.got.tgz:5165.got - 2010.04.02 06:32:59.
