data_PCOD8323507
_publ_section_title
;
Structure prediction by ZEFSAII (Michael W. Deem and Ramdas Pophale) SiO2 
 PCOD8323507
Probable space group: P -3 M 1
;
_chemical_formula_sum "Si O2"
_cell_formula_units_Z 66
_cell_length_a 17.111021
_cell_length_b 17.111021
_cell_length_c 15.307316
_cell_angle_alpha 90.000000
_cell_angle_beta 90.000000
_cell_angle_gamma 120.000000
_cell_volume 3881.338570
_symmetry_space_group_name_H-M "P -3 M 1"
_symmetry_group_IT_number 164
_symmetry_cell_setting 'hexagonal'
loop_
_space_group_symop_operation_xyz
x,y,z
-y,x-y,z
-x+y,-x,z
x-y,-y,-z
-x,-x+y,-z
y,x,-z
-x,-y,-z
y,-x+y,-z
x-y,x,-z
-x+y,y,z
x,x-y,z
-y,-x,z
loop_
_atom_site_type_symbol
_atom_site_label
_atom_site_fract_x
_atom_site_fract_y
_atom_site_fract_z
Si Si1 0.363113 0.363113 0.500000
Si Si2 0.664824 0.507425 0.615583
Si Si3 0.609737 0.037095 0.778363
Si Si4 0.172104 0.000610 0.776668
Si Si5 0.068804 0.318406 0.079038
Si Si6 0.914301 0.652873 0.329256
O O1 0.377288 0.453303 0.453741
O O2 0.338994 0.285868 0.428601
O O3 0.766178 0.532356 0.591509
O O4 0.600474 0.399527 0.615400
O O5 0.665000 0.546602 0.710823
O O6 0.510830 0.021659 0.799013
O O7 0.669136 0.068020 0.866269
O O8 0.596443 0.944191 0.734585
O O9 0.173553 0.086777 0.734745
O O10 0.228996 0.025808 0.864372
O O11 0.209175 0.964173 0.701813
O O12 0.071870 0.928131 0.805355
O O13 0.172061 0.344122 0.051706
O O14 0.000000 0.297688 0.000000
O O15 0.805352 0.610704 0.324803
#
# Coordination Sequence:
#
# PCOD8323507 Si02
#       6
#     6  12  12  12  12  12
#     4  10  19  30  46  68  97 128 160 196 237 286
#     4  10  19  32  50  72  97 124 156 195 239 284
#     4   9  19  34  52  72  94 123 159 199 243 289
#     4   9  17  29  45  66  93 125 159 194 231 271
#     4  10  19  31  49  73  99 125 155 190 232 286
#     4   9  18  31  47  67  92 124 161 198 235 277
#
# _framework density 17.004442999999998
#
# number of rings (size 3 to 8) (size 9 to 14) (size 15 to 20)
#    0.000    2.545    0.000    2.273    0.000    6.909 
#    0.000    0.000    0.000    3.636    0.000    4.455 
#    0.000    0.000    0.000    0.000    0.000    0.000 
#
# Total GULP energy -817946.546816 kJ/mol
# GULP energy per Si atom -12393.129497 kJ/mol
# Density = 1.696574 g / cm^3
# Si number density = 17.004443 Si / 1000 Ang^3
#
#
#
# Elastic Constant Matrix: (Units=GPa)
#
#
# Indices 1 2 3 4 5 6 
#
# 1 100.0976 57.3873 44.8779 -3.4766 0.0000 0.0000
# 2 57.3873 100.0976 44.8779 3.4766 0.0000 0.0000
# 3 44.8779 44.8779 85.4087 0.0000 0.0000 0.0000
# 4 -3.4766 3.4766 0.0000 16.1683 0.0000 0.0000
# 5 0.0000 0.0000 0.0000 0.0000 16.1683 -3.4766
# 6 0.0000 0.0000 0.0000 0.0000 -3.4766 21.3551
#
#
#
# Elastic Compliance Matrix: (Units=1/GPa)
#
#
# Indices 1 2 3 4 5 6 
#
# 1 0.016664 -0.007599 -0.004763 0.005217 0.000000 0.000000
# 2 -0.007599 0.016664 -0.004763 -0.005217 0.000000 0.000000
# 3 -0.004763 -0.004763 0.016714 0.000000 0.000000 0.000000
# 4 0.005217 -0.005217 0.000000 0.064093 0.000000 0.000000
# 5 0.000000 0.000000 0.000000 0.000000 0.064093 0.010434
# 6 0.000000 0.000000 0.000000 0.000000 0.010434 0.048526
#
#
# Mechanical properties :
#
#
# Convention : Reuss Voigt Hill
#
# Bulk Modulus (GPa) = 63.32740 64.43223 63.87982
# Shear Modulus (GPa) = 18.77816 19.96905 19.37360
#
# Velocity S-wave (km/s) = 3.32672 3.43059 3.37905
# Velocity P-wave (km/s) = 7.21655 7.32568 7.27132
#
# Compressibility (1/GPa) = 0.01579095
#
# Stress axis : x y z
#
# Youngs Moduli (GPa) = 60.01098 60.01098 59.83129
#
# Poissons Ratio (x) = 0.45604 0.28497
# Poissons Ratio (y) = 0.45604 0.28497
# Poissons Ratio (z) = 0.28582 0.28582
#
# Static dielectric constant tensor:
#      x y z
#    x 3.300680 0.000000 0.000000 
#    y 0.000000 3.300680 0.000000 
#    z 0.000000 0.000000 3.090130 
# 
# 
# High freq. dielectric constant tensor:
#      x y z
#    x 1.653840 0.000000 0.000000 
#    y 0.000000 1.653840 0.000000 
#    z 0.000000 0.000000 1.647450 
# 
# From -- ./inp_files/3426.got.cif
#   From: 2010.03.12/outbox.cif.g09.slc.cpg/sg164_2_cif.got.tgz:3426.got - 2010.04.02 06:32:59.
