data_PCOD8323463
_publ_section_title
;
Structure prediction by ZEFSAII (Michael W. Deem and Ramdas Pophale) SiO2 
 PCOD8323463
Probable space group: P -3 M 1
;
_chemical_formula_sum "Si O2"
_cell_formula_units_Z 84
_cell_length_a 17.465556
_cell_length_b 17.465556
_cell_length_c 20.268374
_cell_angle_alpha 90.000000
_cell_angle_beta 90.000000
_cell_angle_gamma 120.000000
_cell_volume 5354.443895
_symmetry_space_group_name_H-M "P -3 M 1"
_symmetry_group_IT_number 164
_symmetry_cell_setting 'hexagonal'
loop_
_space_group_symop_operation_xyz
x,y,z
-y,x-y,z
-x+y,-x,z
x-y,-y,-z
-x,-x+y,-z
y,x,-z
-x,-y,-z
y,-x+y,-z
x-y,x,-z
-x+y,y,z
x,x-y,z
-y,-x,z
loop_
_atom_site_type_symbol
_atom_site_label
_atom_site_fract_x
_atom_site_fract_y
_atom_site_fract_z
Si Si1 0.821776 0.998644 0.815112
Si Si2 0.505032 0.669113 0.875776
Si Si3 0.299953 0.236661 0.308584
Si Si4 0.465966 0.364831 0.982883
Si Si5 0.823214 0.823246 0.424716
Si Si6 0.098251 0.730593 0.145379
Si Si7 0.596096 0.580064 0.231231
O O1 0.923610 0.076391 0.813932
O O2 0.760775 0.023686 0.860753
O O3 0.817115 0.908558 0.841561
O O4 0.781412 0.984209 0.742033
O O5 0.519132 0.759566 0.844658
O O6 0.402043 0.597958 0.874113
O O7 0.559283 0.637557 0.832004
O O8 0.538777 0.687747 0.950974
O O9 0.337168 0.168584 0.309786
O O10 0.260815 0.240945 0.379631
O O11 0.381825 0.333954 0.291229
O O12 0.567977 0.432024 0.961428
O O13 0.413425 0.296271 0.925510
O O14 0.423134 0.423134 0.000000
O O15 0.794355 0.794355 0.500000
O O16 0.925134 0.850267 0.413690
O O17 0.813245 0.906623 0.404900
O O18 0.186968 0.813033 0.172550
O O19 0.076215 0.655733 0.200911
O O20 0.505180 0.494821 0.255652
#
# Coordination Sequence:
#
# PCOD8323463 Si02
#       7
#    12  12  12  12  12  12  12
#     4   9  17  28  43  63  89 119 151 183 214 249
#     4  10  19  30  47  68  89 110 135 173 221 275
#     4   9  17  28  43  67  95 120 151 184 214 256
#     4  10  18  31  47  64  83 105 137 175 222 277
#     4   9  16  26  43  70 104 137 162 183 210 246
#     4  10  19  31  45  64  86 110 143 184 224 267
#     4  10  19  32  49  65  86 116 146 180 225 270
#
# _framework density 15.687904
#
# number of rings (size 3 to 8) (size 9 to 14) (size 15 to 20)
#    0.000    2.429    1.429    2.143    0.000    1.714 
#    0.000    1.429    0.000    3.857    0.000    0.000 
#    0.000    2.857    0.000    0.286    0.000    0.000 
#
# Total GULP energy -1041177.203092 kJ/mol
# GULP energy per Si atom -12394.966703 kJ/mol
# Density = 1.565220 g / cm^3
# Si number density = 15.687904 Si / 1000 Ang^3
#
#
#
# Elastic Constant Matrix: (Units=GPa)
#
#
# Indices 1 2 3 4 5 6 
#
# 1 86.6342 46.8236 37.4718 -0.8914 0.0000 0.0000
# 2 46.8236 86.6342 37.4718 0.8914 0.0000 0.0000
# 3 37.4718 37.4718 72.3909 0.0000 0.0000 0.0000
# 4 -0.8914 0.8914 0.0000 21.6442 0.0000 0.0000
# 5 0.0000 0.0000 0.0000 0.0000 21.6442 -0.8914
# 6 0.0000 0.0000 0.0000 0.0000 -0.8914 19.9053
#
#
#
# Elastic Compliance Matrix: (Units=1/GPa)
#
#
# Indices 1 2 3 4 5 6 
#
# 1 0.017864 -0.007301 -0.005468 0.001036 0.000000 0.000000
# 2 -0.007301 0.017864 -0.005468 -0.001036 0.000000 0.000000
# 3 -0.005468 -0.005468 0.019475 0.000000 0.000000 0.000000
# 4 0.001036 -0.001036 0.000000 0.046287 0.000000 0.000000
# 5 0.000000 0.000000 0.000000 0.000000 0.046287 0.002073
# 6 0.000000 0.000000 0.000000 0.000000 0.002073 0.050331
#
#
# Mechanical properties :
#
#
# Convention : Reuss Voigt Hill
#
# Bulk Modulus (GPa) = 53.39096 54.35485 53.87291
# Shear Modulus (GPa) = 20.76191 20.89824 20.83007
#
# Velocity S-wave (km/s) = 3.64185 3.65379 3.64782
# Velocity P-wave (km/s) = 7.19661 7.24728 7.22199
#
# Compressibility (1/GPa) = 0.01872976
#
# Stress axis : x y z
#
# Youngs Moduli (GPa) = 55.97710 55.97710 51.34854
#
# Poissons Ratio (x) = 0.40868 0.28078
# Poissons Ratio (y) = 0.40868 0.28078
# Poissons Ratio (z) = 0.30609 0.30609
#
# Static dielectric constant tensor:
#      x y z
#    x 3.002800 0.000000 0.000000 
#    y 0.000000 3.002800 0.000000 
#    z 0.000000 0.000000 3.117740 
# 
# 
# High freq. dielectric constant tensor:
#      x y z
#    x 1.598830 0.000000 0.000000 
#    y 0.000000 1.598830 0.000000 
#    z 0.000000 0.000000 1.571690 
# 
# From -- ./inp_files/4662.got.cif
#   From: 2010.03.12/outbox.cif.g09.slc.cpg/sg164_3_cif.got.tgz:4662.got - 2010.04.02 06:32:59.
