data_PCOD8323325
_publ_section_title
;
Structure prediction by ZEFSAII (Michael W. Deem and Ramdas Pophale) SiO2 
 PCOD8323325
Probable space group: P -3 1 C
;
_chemical_formula_sum "Si O2"
_cell_formula_units_Z 52
_cell_length_a 11.769975
_cell_length_b 11.769975
_cell_length_c 19.390918
_cell_angle_alpha 90.000000
_cell_angle_beta 90.000000
_cell_angle_gamma 120.000000
_cell_volume 2326.376929
_symmetry_space_group_name_H-M "P -3 1 C"
_symmetry_group_IT_number 163
_symmetry_cell_setting 'hexagonal'
loop_
_space_group_symop_operation_xyz
x,y,z
-y,x-y,z
-x+y,-x,z
-y,-x,1/2-z
-x+y,y,1/2-z
x,x-y,1/2-z
-x,-y,-z
y,-x+y,-z
x-y,x,-z
y,x,1/2+z
x-y,-y,1/2+z
-x,-x+y,1/2+z
loop_
_atom_site_type_symbol
_atom_site_label
_atom_site_fract_x
_atom_site_fract_y
_atom_site_fract_z
Si Si1 0.000000 0.000000 0.831618
Si Si2 0.786337 0.080938 0.846450
Si Si3 0.679238 0.594893 0.041926
Si Si4 0.652684 0.572404 0.418433
Si Si5 0.593806 0.946575 0.218593
O O1 0.000000 0.000000 0.750000
O O2 0.907476 0.055420 0.859444
O O3 0.831789 0.230644 0.824116
O O4 0.699174 0.997373 0.780250
O O5 0.694186 0.044409 0.913601
O O6 0.573217 0.443399 0.054456
O O7 0.818706 0.620810 0.065303
O O8 0.674838 0.623743 0.960616
O O9 0.633255 0.571121 0.336555
O O10 0.449093 0.898185 0.250000
#
# Coordination Sequence:
#
# PCOD8323325 Si02
#       5
#     4  12  12  12  12
#     4  12  21  39  69 105 136 189 222 297 352 426
#     4  11  24  41  68  98 138 177 233 283 353 416
#     4  11  24  44  66  97 135 183 229 289 350 427
#     4  11  24  42  66  93 134 176 228 283 350 416
#     4  11  22  42  63  98 133 175 226 284 342 414
#
# _framework density 22.352353999999998
#
# number of rings (size 3 to 8) (size 9 to 14) (size 15 to 20)
#    0.000    0.923    4.615    3.231    0.000    0.000 
#    5.538    0.000    0.000    4.615    0.000    0.000 
#    0.000    0.000    0.000    0.000    0.000    0.000 
#
# Total GULP energy -644621.591651 kJ/mol
# GULP energy per Si atom -12396.569070 kJ/mol
# Density = 2.230148 g / cm^3
# Si number density = 22.352354 Si / 1000 Ang^3
#
#
#
# Elastic Constant Matrix: (Units=GPa)
#
#
# Indices 1 2 3 4 5 6 
#
# 1 96.9926 45.8768 23.0172 0.0000 0.0034 0.0000
# 2 45.8768 96.9926 23.0172 0.0000 -0.0034 0.0000
# 3 23.0172 23.0172 100.8951 0.0000 0.0000 0.0000
# 4 0.0000 0.0000 0.0000 22.6338 0.0000 -0.0034
# 5 0.0034 -0.0034 0.0000 0.0000 22.6338 0.0000
# 6 0.0000 0.0000 0.0000 -0.0034 0.0000 25.5579
#
#
#
# Elastic Compliance Matrix: (Units=1/GPa)
#
#
# Indices 1 2 3 4 5 6 
#
# 1 0.013559 -0.006004 -0.001723 0.000000 -0.000003 0.000000
# 2 -0.006004 0.013559 -0.001723 0.000000 0.000003 0.000000
# 3 -0.001723 -0.001723 0.010698 0.000000 0.000000 0.000000
# 4 0.000000 0.000000 0.000000 0.044182 0.000000 0.000006
# 5 -0.000003 0.000003 0.000000 0.000000 0.044182 0.000000
# 6 0.000000 0.000000 0.000000 0.000006 0.000000 0.039127
#
#
# Mechanical properties :
#
#
# Convention : Reuss Voigt Hill
#
# Bulk Modulus (GPa) = 52.87299 53.18916 53.03108
# Shear Modulus (GPa) = 26.24494 27.69638 26.97066
#
# Velocity S-wave (km/s) = 3.43030 3.52388 3.47740
# Velocity P-wave (km/s) = 6.27654 6.35644 6.31662
#
# Compressibility (1/GPa) = 0.01891325
#
# Stress axis : x y z
#
# Youngs Moduli (GPa) = 73.75133 73.75133 93.47868
#
# Poissons Ratio (x) = 0.44283 0.16111
# Poissons Ratio (y) = 0.44283 0.16111
# Poissons Ratio (z) = 0.12711 0.12711
#
# Static dielectric constant tensor:
#      x y z
#    x 3.894680 0.000000 0.000000 
#    y 0.000000 3.894680 0.000000 
#    z 0.000000 0.000000 4.422000 
# 
# 
# High freq. dielectric constant tensor:
#      x y z
#    x 1.868500 0.000000 0.000000 
#    y 0.000000 1.868500 0.000000 
#    z 0.000000 0.000000 1.896230 
# 
# From -- ./inp_files/3507.got.cif
#   From: 2010.03.12/outbox.cif.g09.slc.cpg/sg163_2_cif.got.tgz:3507.got - 2010.04.02 06:30:25.
