data_PCOD8323462
_publ_section_title
;
Structure prediction by ZEFSAII (Michael W. Deem and Ramdas Pophale) SiO2 
 PCOD8323462
Probable space group: P -3 M 1
;
_chemical_formula_sum "Si O2"
_cell_formula_units_Z 72
_cell_length_a 22.223979
_cell_length_b 22.223979
_cell_length_c 10.183111
_cell_angle_alpha 90.000000
_cell_angle_beta 90.000000
_cell_angle_gamma 120.000000
_cell_volume 4355.667761
_symmetry_space_group_name_H-M "P -3 M 1"
_symmetry_group_IT_number 164
_symmetry_cell_setting 'hexagonal'
loop_
_space_group_symop_operation_xyz
x,y,z
-y,x-y,z
-x+y,-x,z
x-y,-y,-z
-x,-x+y,-z
y,x,-z
-x,-y,-z
y,-x+y,-z
x-y,x,-z
-x+y,y,z
x,x-y,z
-y,-x,z
loop_
_atom_site_type_symbol
_atom_site_label
_atom_site_fract_x
_atom_site_fract_y
_atom_site_fract_z
Si Si1 0.815483 0.043932 0.621436
Si Si2 0.945060 0.539530 0.615534
Si Si3 0.258659 0.878664 0.477139
Si Si4 0.037224 0.449426 0.865205
Si Si5 0.763642 0.951057 0.875156
Si Si6 0.262206 0.389196 0.783458
O O1 0.890039 0.109962 0.642844
O O2 0.758315 0.066782 0.592636
O O3 0.819037 0.000000 0.500000
O O4 0.796995 0.997353 0.748599
O O5 0.912348 0.456174 0.618129
O O6 0.884511 0.557048 0.587535
O O7 0.000000 0.572844 0.500000
O O8 0.981267 0.572634 0.752669
O O9 0.199459 0.800542 0.449449
O O10 0.267366 0.895381 0.631772
O O11 0.062086 0.531043 0.865280
O O12 0.106094 0.443863 0.840781
O O13 0.000000 0.412845 0.000000
O O14 0.787686 0.893843 0.884177
O O15 0.680633 0.913753 0.867766
O O16 0.790136 0.000000 0.000000
O O17 0.210147 0.420293 0.798274
#
# Coordination Sequence:
#
# PCOD8323462 Si02
#       6
#    12  12  12  12  12  12
#     4  11  20  33  53  73  95 124 159 203 250 298
#     4  10  18  30  51  74  99 133 170 203 241 297
#     4  10  19  31  50  77 105 130 162 209 255 294
#     4  10  20  33  50  75 106 136 166 207 251 289
#     4  11  22  36  52  72  98 128 163 204 251 303
#     4  10  19  32  51  76 103 133 166 203 250 300
#
# _framework density 16.530187000000002
#
# number of rings (size 3 to 8) (size 9 to 14) (size 15 to 20)
#    0.000    1.667    3.333    3.000    0.000    0.000 
#    0.000    2.500    0.000    7.333    0.000    0.000 
#    0.000    0.000    0.000    0.000    0.000    0.000 
#
# Total GULP energy -892876.682221 kJ/mol
# GULP energy per Si atom -12401.065031 kJ/mol
# Density = 1.649256 g / cm^3
# Si number density = 16.530187 Si / 1000 Ang^3
#
#
#
# Elastic Constant Matrix: (Units=GPa)
#
#
# Indices 1 2 3 4 5 6 
#
# 1 108.9935 56.6159 47.1834 0.3954 0.0000 0.0000
# 2 56.6159 108.9935 47.1834 -0.3954 0.0000 0.0000
# 3 47.1834 47.1834 125.0870 0.0000 0.0000 0.0000
# 4 0.3954 -0.3954 0.0000 28.1430 0.0000 0.0000
# 5 0.0000 0.0000 0.0000 0.0000 28.1430 0.3954
# 6 0.0000 0.0000 0.0000 0.0000 0.3954 26.1888
#
#
#
# Elastic Compliance Matrix: (Units=1/GPa)
#
#
# Indices 1 2 3 4 5 6 
#
# 1 0.013394 -0.005702 -0.002901 -0.000268 0.000000 0.000000
# 2 -0.005702 0.013394 -0.002901 0.000268 0.000000 0.000000
# 3 -0.002901 -0.002901 0.010183 0.000000 0.000000 0.000000
# 4 -0.000268 0.000268 0.000000 0.035540 0.000000 0.000000
# 5 0.000000 0.000000 0.000000 0.000000 0.035540 -0.000537
# 6 0.000000 0.000000 0.000000 0.000000 -0.000537 0.038192
#
#
# Mechanical properties :
#
#
# Convention : Reuss Voigt Hill
#
# Bulk Modulus (GPa) = 71.62761 71.67104 71.64933
# Shear Modulus (GPa) = 28.75096 29.30106 29.02601
#
# Velocity S-wave (km/s) = 4.17502 4.21477 4.19494
# Velocity P-wave (km/s) = 8.16495 8.19375 8.17936
#
# Compressibility (1/GPa) = 0.01396110
#
# Stress axis : x y z
#
# Youngs Moduli (GPa) = 74.66122 74.66122 98.20107
#
# Poissons Ratio (x) = 0.42574 0.28491
# Poissons Ratio (y) = 0.42574 0.28491
# Poissons Ratio (z) = 0.21661 0.21661
#
# Static dielectric constant tensor:
#      x y z
#    x 3.139040 0.000000 0.000000 
#    y 0.000000 3.139040 0.000000 
#    z 0.000000 0.000000 3.215670 
# 
# 
# High freq. dielectric constant tensor:
#      x y z
#    x 1.626000 0.000000 0.000000 
#    y 0.000000 1.626000 0.000000 
#    z 0.000000 0.000000 1.647850 
# 
# From -- ./inp_files/1940.got.cif
#   From: 2010.03.12/outbox.cif.g09.slc.cpg/sg164_1_cif.got.tgz:1940.got - 2010.04.02 06:32:59.
