data_PCOD8323267
_publ_section_title
;
Structure prediction by ZEFSAII (Michael W. Deem and Ramdas Pophale) SiO2 
 PCOD8323267
Probable space group: P -3 1 C
;
_chemical_formula_sum "Si O2"
_cell_formula_units_Z 84
_cell_length_a 20.715402
_cell_length_b 20.715402
_cell_length_c 12.402106
_cell_angle_alpha 90.000000
_cell_angle_beta 90.000000
_cell_angle_gamma 120.000000
_cell_volume 4609.064670
_symmetry_space_group_name_H-M "P -3 1 C"
_symmetry_group_IT_number 163
_symmetry_cell_setting 'hexagonal'
loop_
_space_group_symop_operation_xyz
x,y,z
-y,x-y,z
-x+y,-x,z
-y,-x,1/2-z
-x+y,y,1/2-z
x,x-y,1/2-z
-x,-y,-z
y,-x+y,-z
x-y,x,-z
y,x,1/2+z
x-y,-y,1/2+z
-x,-x+y,1/2+z
loop_
_atom_site_type_symbol
_atom_site_label
_atom_site_fract_x
_atom_site_fract_y
_atom_site_fract_z
Si Si1 0.621721 0.882319 0.236931
Si Si2 0.899208 0.444312 0.424836
Si Si3 0.080192 0.777239 0.019474
Si Si4 0.137464 0.702983 0.863341
Si Si5 0.938520 0.425728 0.850759
Si Si6 0.689655 0.770514 0.030468
Si Si7 0.286437 0.441632 0.622391
O O1 0.583190 0.791595 0.250000
O O2 0.685110 0.910944 0.146939
O O3 0.566855 0.909267 0.191089
O O4 0.663325 0.919341 0.347699
O O5 0.883058 0.500351 0.356853
O O6 0.891463 0.461368 0.549445
O O7 0.838050 0.359711 0.397990
O O8 0.976007 0.447527 0.389664
O O9 0.146030 0.859798 0.990456
O O10 0.084949 0.713435 0.948943
O O11 0.998206 0.763102 0.994079
O O12 0.126449 0.720707 0.740635
O O13 0.221687 0.760180 0.900140
O O14 0.923175 0.461588 0.750000
O O15 0.618747 0.714163 0.959352
#
# Coordination Sequence:
#
# PCOD8323267 Si02
#       7
#    12  12  12  12  12  12  12
#     4  10  21  38  57  80 115 150 185 235 285 339
#     4  11  22  35  54  81 111 143 189 240 281 340
#     4  10  21  37  57  84 111 146 181 226 282 337
#     4  10  21  37  54  79 111 143 188 237 284 333
#     4  11  22  33  54  84 107 143 189 236 286 334
#     4  10  22  36  59  83 113 145 182 229 279 340
#     4  10  21  36  55  78 107 148 187 230 286 335
#
# _framework density 18.224955000000001
#
# number of rings (size 3 to 8) (size 9 to 14) (size 15 to 20)
#    0.000    1.714    1.429    3.000    8.000    0.000 
#    0.857    0.000    0.000    0.571    0.000    0.000 
#    0.000    0.000    0.000    0.000    0.000    0.000 
#
# Total GULP energy -1040891.426282 kJ/mol
# GULP energy per Si atom -12391.564599 kJ/mol
# Density = 1.818347 g / cm^3
# Si number density = 18.224955 Si / 1000 Ang^3
#
#
#
# Elastic Constant Matrix: (Units=GPa)
#
#
# Indices 1 2 3 4 5 6 
#
# 1 103.5880 45.6040 35.6254 0.0001 -0.6480 0.0000
# 2 45.6040 103.5880 35.6254 -0.0001 0.6480 0.0000
# 3 35.6254 35.6254 109.4158 0.0000 0.0000 0.0000
# 4 0.0001 -0.0001 0.0000 25.7758 0.0000 0.6480
# 5 -0.6480 0.6480 0.0000 0.0000 25.7758 0.0001
# 6 0.0000 0.0000 0.0000 0.6480 0.0001 28.9920
#
#
#
# Elastic Compliance Matrix: (Units=1/GPa)
#
#
# Indices 1 2 3 4 5 6 
#
# 1 0.012596 -0.004659 -0.002584 0.000000 0.000434 0.000000
# 2 -0.004659 0.012596 -0.002584 0.000000 -0.000434 0.000000
# 3 -0.002584 -0.002584 0.010822 0.000000 0.000000 0.000000
# 4 0.000000 0.000000 0.000000 0.038818 0.000000 -0.000868
# 5 0.000434 -0.000434 0.000000 0.000000 0.038818 0.000000
# 6 0.000000 0.000000 0.000000 -0.000868 0.000000 0.034512
#
#
# Mechanical properties :
#
#
# Convention : Reuss Voigt Hill
#
# Bulk Modulus (GPa) = 61.12762 61.14460 61.13611
# Shear Modulus (GPa) = 28.85644 29.42450 29.14047
#
# Velocity S-wave (km/s) = 3.98345 4.02246 4.00300
# Velocity P-wave (km/s) = 7.40071 7.42943 7.41508
#
# Compressibility (1/GPa) = 0.01635922
#
# Stress axis : x y z
#
# Youngs Moduli (GPa) = 79.38784 79.38784 92.40188
#
# Poissons Ratio (x) = 0.36990 0.23879
# Poissons Ratio (y) = 0.36990 0.23879
# Poissons Ratio (z) = 0.20516 0.20516
#
# Static dielectric constant tensor:
#      x y z
#    x 3.234120 0.000000 0.000000 
#    y 0.000000 3.234120 0.000000 
#    z 0.000000 0.000000 3.653170 
# 
# 
# High freq. dielectric constant tensor:
#      x y z
#    x 1.686950 0.000000 0.000000 
#    y 0.000000 1.686950 0.000000 
#    z 0.000000 0.000000 1.734890 
# 
# From -- ./inp_files/1844.got.cif
#   From: 2010.03.12/outbox.cif.g09.slc.cpg/sg163_1_cif.got.tgz:1844.got - 2010.04.02 06:30:25.
