data_PCOD8323237
_publ_section_title
;
Structure prediction by ZEFSAII (Michael W. Deem and Ramdas Pophale) SiO2 
 PCOD8323237
Probable space group: P -3 1 C
;
_chemical_formula_sum "Si O2"
_cell_formula_units_Z 60
_cell_length_a 12.728440
_cell_length_b 12.728440
_cell_length_c 25.924112
_cell_angle_alpha 90.000000
_cell_angle_beta 90.000000
_cell_angle_gamma 120.000000
_cell_volume 3637.348221
_symmetry_space_group_name_H-M "P -3 1 C"
_symmetry_group_IT_number 163
_symmetry_cell_setting 'hexagonal'
loop_
_space_group_symop_operation_xyz
x,y,z
-y,x-y,z
-x+y,-x,z
-y,-x,1/2-z
-x+y,y,1/2-z
x,x-y,1/2-z
-x,-y,-z
y,-x+y,-z
x-y,x,-z
y,x,1/2+z
x-y,-y,1/2+z
-x,-x+y,1/2+z
loop_
_atom_site_type_symbol
_atom_site_label
_atom_site_fract_x
_atom_site_fract_y
_atom_site_fract_z
Si Si1 0.246532 0.244083 0.361758
Si Si2 0.577758 0.665717 0.452576
Si Si3 0.001641 0.764681 0.750000
Si Si4 0.246532 0.002449 0.361758
Si Si5 0.665717 0.577758 0.547424
O O1 0.308755 0.285607 0.304350
O O2 0.243667 0.121833 0.379930
O O3 0.328977 0.351383 0.400581
O O4 0.108636 0.217273 0.360781
O O5 0.648616 0.671022 0.400581
O O6 0.643990 0.643990 0.500000
O O7 0.440489 0.559511 0.446244
O O8 0.578471 0.789235 0.463188
O O9 0.863952 0.727903 0.750000
O O10 0.023148 0.714393 0.695650
O O11 0.089634 0.910367 0.750000
#
# Coordination Sequence:
#
# PCOD8323237 Si02
#       5
#    12  12  12  12  12
#     4   9  16  27  45  69  94 117 142 175 217 262
#     4  10  20  33  48  65  87 116 150 187 225 267
#     4   8  13  22  39  64  92 118 142 170 208 256
#     4   9  16  27  45  69  94 117 142 175 217 262
#     4  10  20  33  48  65  87 116 150 187 225 267
#
# _framework density 16.495533999999999
#
# number of rings (size 3 to 8) (size 9 to 14) (size 15 to 20)
#    0.000    2.800    0.000    2.200    0.000    3.200 
#    0.000    1.000    0.000    7.200    0.000    2.800 
#    0.000    0.000    0.000    0.000    0.000    0.000 
#
# Total GULP energy -743365.325291 kJ/mol
# GULP energy per Si atom -12389.422088 kJ/mol
# Density = 1.645799 g / cm^3
# Si number density = 16.495534 Si / 1000 Ang^3
#
#
#
# Elastic Constant Matrix: (Units=GPa)
#
#
# Indices 1 2 3 4 5 6 
#
# 1 73.8051 39.7227 55.3320 0.0000 0.0000 0.0000
# 2 39.7227 73.8051 55.3320 0.0000 0.0000 0.0000
# 3 55.3320 55.3320 136.2410 0.0000 0.0000 0.0000
# 4 0.0000 0.0000 0.0000 21.2291 0.0000 0.0000
# 5 0.0000 0.0000 0.0000 0.0000 21.2291 0.0000
# 6 0.0000 0.0000 0.0000 0.0000 0.0000 17.0412
#
#
#
# Elastic Compliance Matrix: (Units=1/GPa)
#
#
# Indices 1 2 3 4 5 6 
#
# 1 0.021961 -0.007380 -0.005922 0.000000 0.000000 0.000000
# 2 -0.007380 0.021961 -0.005922 0.000000 0.000000 0.000000
# 3 -0.005922 -0.005922 0.012150 0.000000 0.000000 0.000000
# 4 0.000000 0.000000 0.000000 0.047105 0.000000 0.000000
# 5 0.000000 0.000000 0.000000 0.000000 0.047105 0.000000
# 6 0.000000 0.000000 0.000000 0.000000 0.000000 0.058681
#
#
# Mechanical properties :
#
#
# Convention : Reuss Voigt Hill
#
# Bulk Modulus (GPa) = 56.73899 64.95828 60.84863
# Shear Modulus (GPa) = 19.74061 20.79750 20.26905
#
# Velocity S-wave (km/s) = 3.46312 3.55462 3.50917
# Velocity P-wave (km/s) = 7.10368 7.50413 7.30664
#
# Compressibility (1/GPa) = 0.01762457
#
# Stress axis : x y z
#
# Youngs Moduli (GPa) = 45.53581 45.53581 82.30483
#
# Poissons Ratio (x) = 0.33605 0.48739
# Poissons Ratio (y) = 0.33605 0.48739
# Poissons Ratio (z) = 0.26965 0.26965
#
# Static dielectric constant tensor:
#      x y z
#    x 2.878640 0.000000 0.000000 
#    y 0.000000 2.878640 0.000000 
#    z 0.000000 0.000000 3.604190 
# 
# 
# High freq. dielectric constant tensor:
#      x y z
#    x 1.611970 0.000000 0.000000 
#    y 0.000000 1.611970 0.000000 
#    z 0.000000 0.000000 1.659900 
# 
# From -- ./inp_files/4092.got.cif
#   From: 2010.03.12/outbox.cif.g09.slc.cpg/sg163_3_cif.got.tgz:4092.got - 2010.04.02 06:30:25.
