data_PCOD8323385
_publ_section_title
;
Structure prediction by ZEFSAII (Michael W. Deem and Ramdas Pophale) SiO2 
 PCOD8323385
Probable space group: P -3 M 1
;
_chemical_formula_sum "Si O2"
_cell_formula_units_Z 96
_cell_length_a 18.157062
_cell_length_b 18.157062
_cell_length_c 20.254807
_cell_angle_alpha 90.000000
_cell_angle_beta 90.000000
_cell_angle_gamma 120.000000
_cell_volume 5782.956082
_symmetry_space_group_name_H-M "P -3 M 1"
_symmetry_group_IT_number 164
_symmetry_cell_setting 'hexagonal'
loop_
_space_group_symop_operation_xyz
x,y,z
-y,x-y,z
-x+y,-x,z
x-y,-y,-z
-x,-x+y,-z
y,x,-z
-x,-y,-z
y,-x+y,-z
x-y,x,-z
-x+y,y,z
x,x-y,z
-y,-x,z
loop_
_atom_site_type_symbol
_atom_site_label
_atom_site_fract_x
_atom_site_fract_y
_atom_site_fract_z
Si Si1 0.502955 0.668023 0.356153
Si Si2 0.560400 0.609265 0.233978
Si Si3 0.666543 0.502987 0.890416
Si Si4 0.411060 0.124595 0.235711
Si Si5 0.830026 0.497842 0.106111
Si Si6 0.459560 0.365082 0.505217
Si Si7 0.828201 0.497135 0.370560
Si Si8 0.735013 0.096285 0.004120
O O1 0.507144 0.753572 0.331039
O O2 0.404788 0.595213 0.359506
O O3 0.554410 0.641757 0.306265
O O4 0.547215 0.685426 0.427924
O O5 0.493232 0.506769 0.228563
O O6 0.536490 0.658559 0.180731
O O7 0.659773 0.636431 0.221307
O O8 0.738450 0.476899 0.885943
O O9 0.579138 0.420863 0.912560
O O10 0.689568 0.576372 0.943283
O O11 0.363042 0.181521 0.226711
O O12 0.490302 0.165021 0.185124
O O13 0.437509 0.130489 0.311347
O O14 0.734503 0.469006 0.081417
O O15 0.852818 0.426409 0.085672
O O16 0.895163 0.586853 0.071279
O O17 0.380154 0.380154 0.500000
O O18 0.546827 0.453174 0.506991
O O19 0.454985 0.311503 0.440647
O O20 0.726084 0.452168 0.366624
O O21 0.859142 0.429571 0.363545
O O22 0.836662 0.163339 0.004098
O O23 0.718199 0.000000 0.000000
#
# Coordination Sequence:
#
# PCOD8323385 Si02
#       8
#    12  12  12  12  12  12  12  12
#     4  10  19  30  45  65  90 120 155 194 233 272
#     4  10  19  31  47  65  88 120 156 193 233 276
#     4  10  20  33  50  72  99 130 162 193 224 262
#     4  10  20  31  44  62  84 114 152 192 231 272
#     4  10  19  30  45  66  93 123 154 187 223 266
#     4   9  17  28  41  56  76 106 144 183 223 268
#     4  10  18  27  39  55  76 101 132 172 217 262
#     4  10  21  35  51  71  94 122 155 193 237 281
#
# _framework density 16.600505999999999
#
# number of rings (size 3 to 8) (size 9 to 14) (size 15 to 20)
#    0.000    2.125    0.000    4.250    0.000    4.000 
#    0.000    5.000    0.000    0.375    0.000    0.000 
#    0.000    0.000    0.000    3.000    0.000    1.125 
#
# Total GULP energy -1189618.406210 kJ/mol
# GULP energy per Si atom -12391.858398 kJ/mol
# Density = 1.656272 g / cm^3
# Si number density = 16.600506 Si / 1000 Ang^3
#
#
#
# Elastic Constant Matrix: (Units=GPa)
#
#
# Indices 1 2 3 4 5 6 
#
# 1 76.8312 39.6580 18.2842 -0.1895 0.0000 0.0000
# 2 39.6580 76.8312 18.2842 0.1895 0.0000 0.0000
# 3 18.2842 18.2842 86.1833 0.0000 0.0000 0.0000
# 4 -0.1895 0.1895 0.0000 19.1046 0.0000 0.0000
# 5 0.0000 0.0000 0.0000 0.0000 19.1046 -0.1895
# 6 0.0000 0.0000 0.0000 0.0000 -0.1895 18.5866
#
#
#
# Elastic Compliance Matrix: (Units=1/GPa)
#
#
# Indices 1 2 3 4 5 6 
#
# 1 0.018050 -0.008853 -0.001951 0.000267 0.000000 0.000000
# 2 -0.008853 0.018050 -0.001951 -0.000267 0.000000 0.000000
# 3 -0.001951 -0.001951 0.012431 0.000000 0.000000 0.000000
# 4 0.000267 -0.000267 0.000000 0.052349 0.000000 0.000000
# 5 0.000000 0.000000 0.000000 0.000000 0.052349 0.000534
# 6 0.000000 0.000000 0.000000 0.000000 0.000534 0.053808
#
#
# Mechanical properties :
#
#
# Convention : Reuss Voigt Hill
#
# Bulk Modulus (GPa) = 43.43985 43.58873 43.51429
# Shear Modulus (GPa) = 20.81407 22.26710 21.54059
#
# Velocity S-wave (km/s) = 3.54478 3.66642 3.60611
# Velocity P-wave (km/s) = 6.55580 6.65116 6.60365
#
# Compressibility (1/GPa) = 0.02302034
#
# Stress axis : x y z
#
# Youngs Moduli (GPa) = 55.40045 55.40045 80.44348
#
# Poissons Ratio (x) = 0.49048 0.15696
# Poissons Ratio (y) = 0.49048 0.15696
# Poissons Ratio (z) = 0.10810 0.10810
#
# Static dielectric constant tensor:
#      x y z
#    x 2.982860 0.000000 0.000000 
#    y 0.000000 2.982860 0.000000 
#    z 0.000000 0.000000 3.390450 
# 
# 
# High freq. dielectric constant tensor:
#      x y z
#    x 1.606760 0.000000 0.000000 
#    y 0.000000 1.606760 0.000000 
#    z 0.000000 0.000000 1.666050 
# 
# From -- ./inp_files/4704.got.cif
#   From: 2010.03.12/outbox.cif.g09.slc.cpg/sg164_3_cif.got.tgz:4704.got - 2010.04.02 06:32:59.
