data_PCOD8323100
_publ_section_title
;
Structure prediction by ZEFSAII (Michael W. Deem and Ramdas Pophale) SiO2 
 PCOD8323100
Probable space group: P -3 1 M 
;
_chemical_formula_sum "Si O2"
_cell_formula_units_Z 84
_cell_length_a 19.889457
_cell_length_b 19.889457
_cell_length_c 11.911292
_cell_angle_alpha 90.000000
_cell_angle_beta 90.000000
_cell_angle_gamma 120.000000
_cell_volume 4080.706468
_symmetry_space_group_name_H-M "P -3 1 M "
_symmetry_group_IT_number 162
_symmetry_cell_setting 'hexagonal'
loop_
_space_group_symop_operation_xyz
x,y,z
-y,x-y,z
-x+y,-x,z
-y,-x,-z
-x+y,y,-z
x,x-y,-z
-x,-y,-z
y,-x+y,-z
x-y,x,-z
y,x,z
x-y,-y,z
-x,-x+y,z
loop_
_atom_site_type_symbol
_atom_site_label
_atom_site_fract_x
_atom_site_fract_y
_atom_site_fract_z
Si Si1 0.317556 0.403273 0.417883
Si Si2 0.540862 0.203231 0.934644
Si Si3 0.634066 0.915207 0.036842
Si Si4 0.089817 0.749218 0.781657
Si Si5 0.084567 0.805757 0.254437
Si Si6 0.361334 0.812393 0.684686
Si Si7 0.701323 0.514069 0.372184
O O1 0.371128 0.371128 0.467047
O O2 0.245000 0.337194 0.351941
O O3 0.368377 0.471722 0.327836
O O4 0.287696 0.433291 0.520373
O O5 0.450438 0.148148 0.926520
O O6 0.574369 0.220813 0.809192
O O7 0.580476 0.160952 0.000000
O O8 0.564905 0.282453 0.000000
O O9 0.691594 0.915219 0.129504
O O10 0.641761 0.000000 0.032252
O O11 0.653903 0.895265 0.914986
O O12 0.111361 0.835542 0.735817
O O13 0.147500 0.719809 0.734090
O O14 0.000000 0.689561 0.750319
O O15 0.000000 0.801252 0.270220
O O16 0.439106 0.823086 0.628797
O O17 0.280249 0.756671 0.620239
#
# Coordination Sequence:
#
# PCOD8323100 Si02
#       7
#    12  12  12  12  12  12  12
#     4  11  24  42  63  85 116 159 206 258 314 375
#     4  12  23  37  57  84 118 160 203 259 315 374
#     4  10  20  36  59  87 118 156 202 255 312 374
#     4  11  22  38  64  95 127 160 205 267 322 376
#     4  10  20  39  65  90 122 165 208 250 312 389
#     4  12  24  40  63  84 122 163 212 259 316 377
#     4  12  25  43  60  90 119 164 215 264 317 375
#
# _framework density 20.584671
#
# number of rings (size 3 to 8) (size 9 to 14) (size 15 to 20)
#    0.000    0.857    2.857    5.571    0.000    2.000 
#    0.000    1.429    0.000    0.286    0.000    0.000 
#    0.000    3.429    0.000    4.571    0.000    0.000 
#
# Total GULP energy -1040735.099158 kJ/mol
# GULP energy per Si atom -12389.703561 kJ/mol
# Density = 2.053782 g / cm^3
# Si number density = 20.584671 Si / 1000 Ang^3
#
#
#
# Elastic Constant Matrix: (Units=GPa)
#
#
# Indices 1 2 3 4 5 6 
#
# 1 72.5407 39.0228 16.4781 0.0000 0.7379 0.0000
# 2 39.0228 72.5407 16.4781 0.0000 -0.7379 0.0000
# 3 16.4781 16.4781 108.8657 0.0000 0.0000 0.0000
# 4 0.0000 0.0000 0.0000 20.9532 0.0000 -0.7379
# 5 0.7379 -0.7379 0.0000 0.0000 20.9532 0.0000
# 6 0.0000 0.0000 0.0000 -0.7379 0.0000 16.7590
#
#
#
# Elastic Compliance Matrix: (Units=1/GPa)
#
#
# Indices 1 2 3 4 5 6 
#
# 1 0.019632 -0.010249 -0.001420 0.000000 -0.001052 0.000000
# 2 -0.010249 0.019632 -0.001420 0.000000 0.001052 0.000000
# 3 -0.001420 -0.001420 0.009616 0.000000 0.000000 0.000000
# 4 0.000000 0.000000 0.000000 0.047799 0.000000 0.002104
# 5 -0.001052 0.001052 0.000000 0.000000 0.047799 0.000000
# 6 0.000000 0.000000 0.000000 0.002104 0.000000 0.059762
#
#
# Mechanical properties :
#
#
# Convention : Reuss Voigt Hill
#
# Bulk Modulus (GPa) = 44.05144 44.21166 44.13155
# Shear Modulus (GPa) = 21.00958 23.86430 22.43694
#
# Velocity S-wave (km/s) = 3.19821 3.40858 3.30507
# Velocity P-wave (km/s) = 5.92323 6.08406 6.00418
#
# Compressibility (1/GPa) = 0.02270073
#
# Stress axis : x y z
#
# Youngs Moduli (GPa) = 50.93709 50.93709 103.99804
#
# Poissons Ratio (x) = 0.52206 0.14770
# Poissons Ratio (y) = 0.52206 0.14770
# Poissons Ratio (z) = 0.07234 0.07234
#
# Static dielectric constant tensor:
#      x y z
#    x 3.974370 0.000000 0.000000 
#    y 0.000000 3.974370 0.000000 
#    z 0.000000 0.000000 4.022740 
# 
# 
# High freq. dielectric constant tensor:
#      x y z
#    x 1.791610 0.000000 0.000000 
#    y 0.000000 1.791610 0.000000 
#    z 0.000000 0.000000 1.825020 
# 
# From -- ./inp_files/2534.got.cif
#   From: 2010.03.12/outbox.cif.g09.slc.cpg/sg162_2_cif.got.tgz:2534.got - 2010.04.02 06:27:41.
