data_PCOD8323788
_publ_section_title
;
Structure prediction by ZEFSAII (Michael W. Deem and Ramdas Pophale) SiO2 
 PCOD8323788
Probable space group: P -3 M 1
;
_chemical_formula_sum "Si O2"
_cell_formula_units_Z 84
_cell_length_a 21.123203
_cell_length_b 21.123203
_cell_length_c 11.414985
_cell_angle_alpha 90.000000
_cell_angle_beta 90.000000
_cell_angle_gamma 120.000000
_cell_volume 4410.882839
_symmetry_space_group_name_H-M "P -3 M 1"
_symmetry_group_IT_number 164
_symmetry_cell_setting 'hexagonal'
loop_
_space_group_symop_operation_xyz
x,y,z
-y,x-y,z
-x+y,-x,z
x-y,-y,-z
-x,-x+y,-z
y,x,-z
-x,-y,-z
y,-x+y,-z
x-y,x,-z
-x+y,y,z
x,x-y,z
-y,-x,z
loop_
_atom_site_type_symbol
_atom_site_label
_atom_site_fract_x
_atom_site_fract_y
_atom_site_fract_z
Si Si1 0.189872 0.666993 0.702056
Si Si2 0.518018 0.186081 0.855872
Si Si3 0.427322 0.287703 0.081797
Si Si4 0.390134 0.121736 0.696423
Si Si5 0.117512 0.379483 0.566584
Si Si6 0.704712 0.977110 0.783506
Si Si7 0.144883 0.144535 0.136665
O O1 0.177695 0.588848 0.667994
O O2 0.275895 0.724106 0.714849
O O3 0.149260 0.661521 0.823715
O O4 0.154600 0.690270 0.599329
O O5 0.588452 0.176903 0.859197
O O6 0.542802 0.271401 0.872956
O O7 0.475178 0.154924 0.733331
O O8 0.460098 0.137445 0.956367
O O9 0.410134 0.205067 0.093115
O O10 0.350419 0.283517 0.110080
O O11 0.369149 0.184575 0.707155
O O12 0.374981 0.088589 0.565404
O O13 0.339833 0.059161 0.788097
O O14 0.176624 0.353247 0.571931
O O15 0.054691 0.328777 0.656284
O O16 0.781369 0.979293 0.794297
O O17 0.122472 0.061236 0.164837
O O18 0.078138 0.156276 0.177303
O O19 0.161181 0.161181 0.000000
#
# Coordination Sequence:
#
# PCOD8323788 Si02
#       7
#    12  12  12  12  12  12  12
#     4   9  16  28  49  76 104 135 174 223 277 330
#     4  10  21  38  59  81 109 143 180 223 277 334
#     4   9  19  33  52  79 110 141 177 224 269 319
#     4  10  22  37  54  78 108 139 181 235 275 317
#     4   9  19  36  54  76 106 140 184 235 276 315
#     4  11  20  35  58  81 108 150 190 220 268 331
#     4  10  21  35  55  85 121 154 185 222 268 322
#
# _framework density 19.043806
#
# number of rings (size 3 to 8) (size 9 to 14) (size 15 to 20)
#    0.000    2.286    0.000    3.857    2.000    1.143 
#    0.000    5.714    0.000    6.000    0.000    0.000 
#    0.000    6.857    0.000    0.000    0.000    0.000 
#
# Total GULP energy -1041492.438706 kJ/mol
# GULP energy per Si atom -12398.719508 kJ/mol
# Density = 1.900046 g / cm^3
# Si number density = 19.043806 Si / 1000 Ang^3
#
#
#
# Elastic Constant Matrix: (Units=GPa)
#
#
# Indices 1 2 3 4 5 6 
#
# 1 108.8212 50.4952 37.8749 4.2533 0.0000 0.0000
# 2 50.4952 108.8212 37.8749 -4.2533 0.0000 0.0000
# 3 37.8749 37.8749 74.1410 0.0000 0.0000 0.0000
# 4 4.2533 -4.2533 0.0000 20.6950 0.0000 0.0000
# 5 0.0000 0.0000 0.0000 0.0000 20.6950 4.2533
# 6 0.0000 0.0000 0.0000 0.0000 4.2533 29.1630
#
#
#
# Elastic Compliance Matrix: (Units=1/GPa)
#
#
# Indices 1 2 3 4 5 6 
#
# 1 0.012983 -0.004692 -0.004235 -0.003633 0.000000 0.000000
# 2 -0.004692 0.012983 -0.004235 0.003633 0.000000 0.000000
# 3 -0.004235 -0.004235 0.017815 0.000000 0.000000 0.000000
# 4 -0.003633 0.003633 0.000000 0.049814 0.000000 0.000000
# 5 0.000000 0.000000 0.000000 0.000000 0.049814 -0.007265
# 6 0.000000 0.000000 0.000000 0.000000 -0.007265 0.035350
#
#
# Mechanical properties :
#
#
# Convention : Reuss Voigt Hill
#
# Bulk Modulus (GPa) = 57.28973 60.47481 58.88227
# Shear Modulus (GPa) = 23.70778 25.14650 24.42714
#
# Velocity S-wave (km/s) = 3.53215 3.63775 3.58534
# Velocity P-wave (km/s) = 6.83983 7.03341 6.93729
#
# Compressibility (1/GPa) = 0.01745513
#
# Stress axis : x y z
#
# Youngs Moduli (GPa) = 77.02580 77.02580 56.13267
#
# Poissons Ratio (x) = 0.36142 0.23773
# Poissons Ratio (y) = 0.36142 0.23773
# Poissons Ratio (z) = 0.32622 0.32622
#
# Static dielectric constant tensor:
#      x y z
#    x 3.353070 0.000000 0.000000 
#    y 0.000000 3.353070 0.000000 
#    z 0.000000 0.000000 3.507220 
# 
# 
# High freq. dielectric constant tensor:
#      x y z
#    x 1.736620 0.000000 0.000000 
#    y 0.000000 1.736620 0.000000 
#    z 0.000000 0.000000 1.734790 
# 
# From -- ./inp_files/2907.got.cif
#   From: 2010.03.12/outbox.cif.g09.slc.cpg/sg164_2_cif.got.tgz:2907.got - 2010.04.02 06:32:59.
