data_PCOD8323545
_publ_section_title
;
Structure prediction by ZEFSAII (Michael W. Deem and Ramdas Pophale) SiO2 
 PCOD8323545
Probable space group: P -3 M 1
;
_chemical_formula_sum "Si O2"
_cell_formula_units_Z 72
_cell_length_a 17.349317
_cell_length_b 17.349317
_cell_length_c 15.619546
_cell_angle_alpha 90.000000
_cell_angle_beta 90.000000
_cell_angle_gamma 120.000000
_cell_volume 4071.587786
_symmetry_space_group_name_H-M "P -3 M 1"
_symmetry_group_IT_number 164
_symmetry_cell_setting 'hexagonal'
loop_
_space_group_symop_operation_xyz
x,y,z
-y,x-y,z
-x+y,-x,z
x-y,-y,-z
-x,-x+y,-z
y,x,-z
-x,-y,-z
y,-x+y,-z
x-y,x,-z
-x+y,y,z
x,x-y,z
-y,-x,z
loop_
_atom_site_type_symbol
_atom_site_label
_atom_site_fract_x
_atom_site_fract_y
_atom_site_fract_z
Si Si1 0.729857 0.633572 0.982837
Si Si2 0.097501 0.367468 0.209050
Si Si3 0.176656 0.001342 0.267665
Si Si4 0.692663 0.758160 0.578796
Si Si5 0.034837 0.429211 0.698462
Si Si6 0.157081 0.665803 0.862445
O O1 0.833521 0.667042 0.996574
O O2 0.699439 0.595704 0.886817
O O3 0.718229 0.718229 0.000000
O O4 0.667971 0.555255 0.048011
O O5 0.193803 0.387606 0.242134
O O6 0.029643 0.260253 0.205783
O O7 0.064642 0.415502 0.276469
O O8 0.182755 0.091378 0.230456
O O9 0.221270 0.019979 0.360883
O O10 0.073917 0.926084 0.276745
O O11 0.712905 0.712905 0.500000
O O12 0.672871 0.836436 0.550044
O O13 0.604060 0.680901 0.625523
O O14 0.033025 0.516513 0.665717
O O15 0.088665 0.446551 0.785863
O O16 0.189037 0.594519 0.872115
O O17 0.240384 0.759617 0.839054
#
# Coordination Sequence:
#
# PCOD8323545 Si02
#       6
#    12  12  12  12  12  12
#     4  10  19  31  48  71 100 136 175 213 250 290
#     4   9  18  32  47  70 101 134 170 209 249 289
#     4   9  17  29  48  73 102 134 168 204 244 288
#     4  10  20  34  53  77 105 133 162 199 244 297
#     4  10  20  34  55  78 100 129 166 208 252 302
#     4  10  20  33  51  75 103 132 163 204 255 304
#
# _framework density 17.683517999999999
#
# number of rings (size 3 to 8) (size 9 to 14) (size 15 to 20)
#    0.000    2.333    1.667    1.333    0.000    3.333 
#    0.000    0.000    0.000    3.500    0.000    1.167 
#    0.000    0.000    0.000    0.000    0.000    0.000 
#
# Total GULP energy -892644.874649 kJ/mol
# GULP energy per Si atom -12397.845481 kJ/mol
# Density = 1.764327 g / cm^3
# Si number density = 17.683518 Si / 1000 Ang^3
#
#
#
# Elastic Constant Matrix: (Units=GPa)
#
#
# Indices 1 2 3 4 5 6 
#
# 1 87.3966 39.2963 29.2251 -2.1021 0.0000 0.0000
# 2 39.2963 87.3966 29.2251 2.1021 0.0000 0.0000
# 3 29.2251 29.2251 73.7204 0.0000 0.0000 0.0000
# 4 -2.1021 2.1021 0.0000 22.9554 0.0000 0.0000
# 5 0.0000 0.0000 0.0000 0.0000 22.9554 -2.1021
# 6 0.0000 0.0000 0.0000 0.0000 -2.1021 24.0501
#
#
#
# Elastic Compliance Matrix: (Units=1/GPa)
#
#
# Indices 1 2 3 4 5 6 
#
# 1 0.015309 -0.005649 -0.003829 0.001919 0.000000 0.000000
# 2 -0.005649 0.015309 -0.003829 -0.001919 0.000000 0.000000
# 3 -0.003829 -0.003829 0.016601 0.000000 0.000000 0.000000
# 4 0.001919 -0.001919 0.000000 0.043914 0.000000 0.000000
# 5 0.000000 0.000000 0.000000 0.000000 0.043914 0.003838
# 6 0.000000 0.000000 0.000000 0.000000 0.003838 0.041915
#
#
# Mechanical properties :
#
#
# Convention : Reuss Voigt Hill
#
# Bulk Modulus (GPa) = 48.53706 49.33409 48.93557
# Shear Modulus (GPa) = 23.75913 24.04333 23.90123
#
# Velocity S-wave (km/s) = 3.66946 3.69134 3.68041
# Velocity P-wave (km/s) = 6.74244 6.79168 6.76710
#
# Compressibility (1/GPa) = 0.02060281
#
# Stress axis : x y z
#
# Youngs Moduli (GPa) = 65.32214 65.32214 60.23724
#
# Poissons Ratio (x) = 0.36900 0.23068
# Poissons Ratio (y) = 0.36900 0.23068
# Poissons Ratio (z) = 0.25015 0.25015
#
# Static dielectric constant tensor:
#      x y z
#    x 3.322360 0.000000 0.000000 
#    y 0.000000 3.322360 0.000000 
#    z 0.000000 0.000000 3.160370 
# 
# 
# High freq. dielectric constant tensor:
#      x y z
#    x 1.678730 0.000000 0.000000 
#    y 0.000000 1.678730 0.000000 
#    z 0.000000 0.000000 1.671960 
# 
# From -- ./inp_files/4087.got.cif
#   From: 2010.03.12/outbox.cif.g09.slc.cpg/sg164_3_cif.got.tgz:4087.got - 2010.04.02 06:32:59.
