data_PCOD8324537
_publ_section_title
;
Structure prediction by ZEFSAII (Michael W. Deem and Ramdas Pophale) SiO2 
 PCOD8324537
Probable space group: P 61
;
_chemical_formula_sum "Si O2"
_cell_formula_units_Z 42
_cell_length_a 13.695926
_cell_length_b 13.695926
_cell_length_c 12.108739
_cell_angle_alpha 90.000000
_cell_angle_beta 90.000000
_cell_angle_gamma 120.000000
_cell_volume 1967.036196
_symmetry_space_group_name_H-M "P 61"
_symmetry_group_IT_number 169
_symmetry_cell_setting 'hexagonal'
loop_
_space_group_symop_operation_xyz
x,y,z
x-y,x,1/6+z
-y,x-y,1/3+z
-x,-y,1/2+z
-x+y,-x,2/3+z
y,-x+y,5/6+z
loop_
_atom_site_type_symbol
_atom_site_label
_atom_site_fract_x
_atom_site_fract_y
_atom_site_fract_z
Si Si1 0.490072 0.087177 0.182570
Si Si2 0.591177 0.077313 0.863527
Si Si3 0.910439 0.116995 0.194190
Si Si4 0.778369 0.450912 0.797001
Si Si5 0.285221 0.867699 0.578315
Si Si6 0.760502 0.368376 0.023847
Si Si7 0.644452 0.630959 0.634006
O O1 0.508037 0.209967 0.189629
O O2 0.600160 0.078402 0.149850
O O3 0.459467 0.044821 0.308219
O O4 0.384419 0.014588 0.099694
O O5 0.645596 0.167408 0.765092
O O6 0.494803 0.096709 0.920866
O O7 0.683532 0.089474 0.952019
O O8 0.799230 0.092973 0.125854
O O9 0.950198 0.228984 0.267332
O O10 0.010534 0.133956 0.109819
O O11 0.710093 0.369501 0.695224
O O12 0.889410 0.559520 0.751499
O O13 0.803536 0.387169 0.897082
O O14 0.225793 0.732508 0.574804
#
# Coordination Sequence:
#
# PCOD8324537 Si02
#       7
#     6   6   6   6   6   6   6
#     4  10  22  36  59  99 135 174 220 263 330 399
#     4  11  20  38  61  98 136 167 210 263 321 405
#     4  12  27  50  74  94 123 173 234 287 332 386
#     4  11  22  36  57  92 131 173 209 268 324 390
#     4  10  23  39  67  95 132 177 215 268 332 402
#     4  11  20  36  59  92 137 168 202 251 328 401
#     4  11  22  39  67  94 130 174 226 268 331 393
#
# _framework density 21.351921999999998
#
# number of rings (size 3 to 8) (size 9 to 14) (size 15 to 20)
#    0.000    1.143    4.286    2.571    0.000    1.143 
#    2.571    2.857    0.000    0.000    0.000    0.000 
#    0.000    0.000    0.000    0.000    0.000    0.000 
#
# Total GULP energy -520625.564679 kJ/mol
# GULP energy per Si atom -12395.846778 kJ/mol
# Density = 2.130332 g / cm^3
# Si number density = 21.351922 Si / 1000 Ang^3
#
#
#
# Elastic Constant Matrix: (Units=GPa)
#
#
# Indices 1 2 3 4 5 6 
#
# 1 84.6754 36.7724 29.1027 0.0000 0.0000 0.0000
# 2 36.7724 84.6754 29.1027 0.0000 0.0000 0.0000
# 3 29.1027 29.1027 96.9045 0.0000 0.0000 0.0000
# 4 0.0000 0.0000 0.0000 36.6392 0.0000 0.0000
# 5 0.0000 0.0000 0.0000 0.0000 36.6392 0.0000
# 6 0.0000 0.0000 0.0000 0.0000 0.0000 23.9515
#
#
#
# Elastic Compliance Matrix: (Units=1/GPa)
#
#
# Indices 1 2 3 4 5 6 
#
# 1 0.015247 -0.005629 -0.002889 0.000000 0.000000 0.000000
# 2 -0.005629 0.015247 -0.002889 0.000000 0.000000 0.000000
# 3 -0.002889 -0.002889 0.012054 0.000000 0.000000 0.000000
# 4 0.000000 0.000000 0.000000 0.027293 0.000000 0.000000
# 5 0.000000 0.000000 0.000000 0.000000 0.027293 0.000000
# 6 0.000000 0.000000 0.000000 0.000000 0.000000 0.041751
#
#
# Mechanical properties :
#
#
# Convention : Reuss Voigt Hill
#
# Bulk Modulus (GPa) = 50.66687 50.69010 50.67848
# Shear Modulus (GPa) = 29.71304 30.86449 30.28877
#
# Velocity S-wave (km/s) = 3.73444 3.80612 3.77045
# Velocity P-wave (km/s) = 6.50966 6.56561 6.53769
#
# Compressibility (1/GPa) = 0.01973676
#
# Stress axis : x y z
#
# Youngs Moduli (GPa) = 65.58688 65.58688 82.95667
#
# Poissons Ratio (x) = 0.36916 0.23963
# Poissons Ratio (y) = 0.36916 0.23963
# Poissons Ratio (z) = 0.18946 0.18946
#
# Static dielectric constant tensor:
#      x y z
#    x 3.741820 0.000000 0.000000 
#    y 0.000000 3.741820 0.000000 
#    z 0.000000 0.000000 3.990450 
# 
# 
# High freq. dielectric constant tensor:
#      x y z
#    x 1.818380 0.000000 0.000000 
#    y 0.000000 1.818380 0.000000 
#    z 0.000000 0.000000 1.852970 
# 
# From -- ./inp_files/929.got.cif
#   From: 2010.03.12/outbox.cif.g09.slc.cpg/sg169_cif.got.tgz:929.got - 2010.04.02 06:46:06.
