data_PCOD8324407
_publ_section_title
;
Structure prediction by ZEFSAII (Michael W. Deem and Ramdas Pophale) SiO2 
 PCOD8324407
Probable space group: R -3 C 
;
_chemical_formula_sum "Si O2"
_cell_formula_units_Z 108
_cell_length_a 26.085367
_cell_length_b 26.085367
_cell_length_c 9.106582
_cell_angle_alpha 90.000000
_cell_angle_beta 90.000000
_cell_angle_gamma 120.000000
_cell_volume 5366.361644
_symmetry_space_group_name_H-M "R -3 C "
_symmetry_group_IT_number 167
_symmetry_cell_setting 'hexagonal'
loop_
_space_group_symop_operation_xyz
x,y,z
-y,x-y,z
-x+y,-x,z
x-y,-y,1/2-z
-x,-x+y,1/2-z
y,x,1/2-z
-x,-y,-z
y,-x+y,-z
x-y,x,-z
-x+y,y,1/2+z
x,x-y,1/2+z
-y,-x,1/2+z
2/3+x,1/3+y,1/3+z
2/3-y,1/3+x-y,1/3+z
2/3-x+y,1/3-x,1/3+z
2/3+x-y,1/3-y,5/6-z
2/3-x,1/3-x+y,5/6-z
2/3+y,1/3+x,5/6-z
2/3-x,1/3-y,1/3-z
2/3+y,1/3-x+y,1/3-z
2/3+x-y,1/3+x,1/3-z
2/3-x+y,1/3+y,5/6+z
2/3+x,1/3+x-y,5/6+z
2/3-y,1/3-x,5/6+z
1/3+x,2/3+y,2/3+z
1/3-y,2/3+x-y,2/3+z
1/3-x+y,2/3-x,2/3+z
1/3+x-y,2/3-y,1/6-z
1/3-x,2/3-x+y,1/6-z
1/3+y,2/3+x,1/6-z
1/3-x,2/3-y,2/3-z
1/3+y,2/3-x+y,2/3-z
1/3+x-y,2/3+x,2/3-z
1/3-x+y,2/3+y,1/6+z
1/3+x,2/3+x-y,1/6+z
1/3-y,2/3-x,1/6+z
loop_
_atom_site_type_symbol
_atom_site_label
_atom_site_fract_x
_atom_site_fract_y
_atom_site_fract_z
Si Si1 0.233627 0.060168 0.949435
Si Si2 0.833050 0.570932 0.725180
Si Si3 0.729244 0.674592 0.153462
O O1 0.242829 0.081074 0.782583
O O2 0.180282 0.992543 0.952800
O O3 0.218371 0.103310 0.039516
O O4 0.292767 0.066581 0.021010
O O5 0.888222 0.637311 0.760733
O O6 0.722529 0.722529 0.250000
O O7 0.666667 0.625338 0.083334
#
# Coordination Sequence:
#
# PCOD8324407 Si02
#       3
#    36  36  36
#     4  11  25  41  63  91 127 167 216 263 312 375
#     4  11  24  43  61  92 127 166 216 264 310 376
#     4  12  21  39  62  91 135 174 206 248 307 379
#
# _framework density 20.125367000000001
#
# number of rings (size 3 to 8) (size 9 to 14) (size 15 to 20)
#    0.000    0.667    6.667    2.000    4.667    0.000 
#    0.000    0.000    0.000    0.667    0.000    0.000 
#    0.000    0.000    0.000    0.000    0.000    0.000 
#
# Total GULP energy -446169.365963 kJ/mol
# GULP energy per Si atom -12393.593499 kJ/mol
# Density = 2.007956 g / cm^3
# Si number density = 20.125367 Si / 1000 Ang^3
#
#
#
# Elastic Constant Matrix: (Units=GPa)
#
#
# Indices 1 2 3 4 5 6 
#
# 1 122.8549 71.1671 69.7344 -9.5705 -0.0238 -0.0027
# 2 71.1671 122.8665 69.7575 9.5666 -0.0092 0.0017
# 3 69.7344 69.7575 97.6633 0.0017 0.0038 -0.0236
# 4 -9.5705 9.5666 0.0017 38.3042 -0.0030 -0.0055
# 5 -0.0238 -0.0092 0.0038 -0.0030 38.3116 -9.5811
# 6 -0.0027 0.0017 -0.0236 -0.0055 -9.5811 25.8440
#
#
#
# Elastic Compliance Matrix: (Units=1/GPa)
#
#
# Indices 1 2 3 4 5 6 
#
# 1 0.015952 -0.005362 -0.007560 0.005325 0.000010 0.000000
# 2 -0.005362 0.015956 -0.007568 -0.005325 -0.000002 -0.000010
# 3 -0.007560 -0.007568 0.021043 0.000000 -0.000004 0.000017
# 4 0.005325 -0.005325 0.000000 0.028767 0.000007 0.000009
# 5 0.000010 -0.000002 -0.000004 0.000007 0.028769 0.010665
# 6 0.000000 -0.000010 0.000017 0.000009 0.010665 0.042648
#
#
# Mechanical properties :
#
#
# Convention : Reuss Voigt Hill
#
# Bulk Modulus (GPa) = 83.54034 84.96697 84.25365
# Shear Modulus (GPa) = 25.23893 29.34033 27.28963
#
# Velocity S-wave (km/s) = 3.54515 3.82236 3.68636
# Velocity P-wave (km/s) = 7.63921 7.86073 7.75076
#
# Compressibility (1/GPa) = 0.01197026
#
# Stress axis : x y z
#
# Youngs Moduli (GPa) = 62.68800 62.67182 47.52099
#
# Poissons Ratio (x) = 0.33605 0.35928
# Poissons Ratio (y) = 0.33613 0.35965
# Poissons Ratio (z) = 0.47395 0.47431
#
# Static dielectric constant tensor:
#      x y z
#    x 3.656830 -0.000020 -0.000080 
#    y -0.000020 3.656870 0.000020 
#    z -0.000080 0.000020 3.798590 
# 
# 
# High freq. dielectric constant tensor:
#      x y z
#    x 1.767520 0.000000 -0.000010 
#    y 0.000000 1.767520 0.000000 
#    z -0.000010 0.000000 1.802730 
# 
# From -- ./inp_files/1337.got.cif
#   From: 2010.03.12/outbox.cif.g09.slc.cpg/sg167_1_cif.got.tgz:1337.got - 2010.04.02 06:42:56.
