data_PCOD8324439
_publ_section_title
;
Structure prediction by ZEFSAII (Michael W. Deem and Ramdas Pophale) SiO2 
 PCOD8324439
Probable space group: P 6
;
_chemical_formula_sum "Si O2"
_cell_formula_units_Z 40
_cell_length_a 18.775935
_cell_length_b 18.775935
_cell_length_c 7.456864
_cell_angle_alpha 90.000000
_cell_angle_beta 90.000000
_cell_angle_gamma 120.000000
_cell_volume 2276.617135
_symmetry_space_group_name_H-M "P 6"
_symmetry_group_IT_number 168
_symmetry_cell_setting 'hexagonal'
loop_
_space_group_symop_operation_xyz
x,y,z
x-y,x,z
-y,x-y,z
-x,-y,z
-x+y,-x,z
y,-x+y,z
loop_
_atom_site_type_symbol
_atom_site_label
_atom_site_fract_x
_atom_site_fract_y
_atom_site_fract_z
Si Si1 0.273392 0.787333 0.879050
Si Si2 0.591738 0.030040 0.287739
Si Si3 0.591738 0.030042 0.879844
Si Si4 0.689778 0.686393 0.583792
Si Si5 0.821843 0.641845 0.583793
Si Si6 0.787335 0.513943 0.288537
Si Si7 0.666668 0.333334 0.870936
Si Si8 0.666668 0.333335 0.296659
O O1 0.359241 0.871801 0.863463
O O2 0.204153 0.790034 0.760589
O O3 0.290008 0.716841 0.801732
O O4 0.241484 0.769911 0.083793
O O5 0.640761 0.128196 0.304124
O O6 0.500000 0.000000 0.356753
O O7 0.634389 0.991571 0.408543
O O8 0.590682 0.000815 0.083791
O O9 0.500000 0.000000 0.810829
O O10 0.634391 0.991575 0.759040
O O11 0.782025 0.700633 0.583795
O O12 0.696734 0.775759 0.583790
O O13 0.790033 0.585881 0.406998
O O14 0.716848 0.426834 0.365861
O O15 0.666668 0.333334 0.083797
#
# Coordination Sequence:
#
# PCOD8324439 Si02
#       8
#     6   6   6   6   6   6   2   2
#     4   9  19  33  47  71 100 132 172 205 242 287
#     4   9  18  32  51  72  98 132 167 205 246 289
#     4   9  18  32  51  72  98 132 167 205 246 289
#     4  10  21  36  52  75  98 126 166 208 256 309
#     4  10  22  36  54  73  98 128 161 210 256 308
#     4   9  19  33  47  71 100 132 172 205 242 287
#     4   9  18  31  47  67 100 137 172 208 236 271
#     4   9  18  31  47  67 100 137 172 208 236 271
#
# _framework density 17.569929999999999
#
# number of rings (size 3 to 8) (size 9 to 14) (size 15 to 20)
#    0.000    2.700    0.000    0.450    4.200    2.400 
#    0.000    0.000    0.000    0.300    0.000    0.000 
#    0.000    0.000    0.000   15.000    0.000    0.000 
#
# Total GULP energy -495991.776832 kJ/mol
# GULP energy per Si atom -12399.794421 kJ/mol
# Density = 1.752994 g / cm^3
# Si number density = 17.569930 Si / 1000 Ang^3
#
#
#
# Elastic Constant Matrix: (Units=GPa)
#
#
# Indices 1 2 3 4 5 6 
#
# 1 100.8883 59.0869 34.0333 0.0000 0.0000 -0.0007
# 2 59.0869 100.8895 34.0333 0.0000 0.0000 -0.0003
# 3 34.0333 34.0333 81.7545 0.0000 0.0000 0.0001
# 4 0.0000 0.0000 0.0000 8.8411 -0.0008 0.0000
# 5 0.0000 0.0000 0.0000 -0.0008 8.8398 0.0000
# 6 -0.0007 -0.0003 0.0001 0.0000 0.0000 20.9013
#
#
#
# Elastic Compliance Matrix: (Units=1/GPa)
#
#
# Indices 1 2 3 4 5 6 
#
# 1 0.015759 -0.008163 -0.003162 0.000000 0.000000 0.000000
# 2 -0.008163 0.015759 -0.003162 0.000000 0.000000 0.000000
# 3 -0.003162 -0.003162 0.014865 0.000000 0.000000 0.000000
# 4 0.000000 0.000000 0.000000 0.113108 0.000010 0.000000
# 5 0.000000 0.000000 0.000000 0.000010 0.113125 0.000000
# 6 0.000000 0.000000 0.000000 0.000000 0.000000 0.047844
#
#
# Mechanical properties :
#
#
# Convention : Reuss Voigt Hill
#
# Bulk Modulus (GPa) = 57.44392 59.75991 58.60192
# Shear Modulus (GPa) = 14.07508 18.14169 16.10838
#
# Velocity S-wave (km/s) = 2.83342 3.21680 3.03118
# Velocity P-wave (km/s) = 6.59316 6.91979 6.75845
#
# Compressibility (1/GPa) = 0.01740828
#
# Stress axis : x y z
#
# Youngs Moduli (GPa) = 63.45388 63.45475 67.27392
#
# Poissons Ratio (x) = 0.51798 0.21274
# Poissons Ratio (y) = 0.51797 0.21274
# Poissons Ratio (z) = 0.20066 0.20066
#
# Static dielectric constant tensor:
#      x y z
#    x 3.095760 0.000000 0.000000 
#    y 0.000000 3.095750 0.000000 
#    z 0.000000 0.000000 3.528020 
# 
# 
# High freq. dielectric constant tensor:
#      x y z
#    x 1.655900 0.000000 0.000000 
#    y 0.000000 1.655900 0.000000 
#    z 0.000000 0.000000 1.692500 
# 
# From -- ./inp_files/326.got.cif
#   From: 2010.03.12/outbox.cif.g09.slc.cpg/sg168_cif.got.tgz:326.got - 2010.04.02 06:45:48.
