data_PCOD8324512
_publ_section_title
;
Structure prediction by ZEFSAII (Michael W. Deem and Ramdas Pophale) SiO2 
 PCOD8324512
Probable space group: P 61
;
_chemical_formula_sum "Si O2"
_cell_formula_units_Z 18
_cell_length_a 12.445027
_cell_length_b 12.445027
_cell_length_c 7.358889
_cell_angle_alpha 90.000000
_cell_angle_beta 90.000000
_cell_angle_gamma 120.000000
_cell_volume 987.039585
_symmetry_space_group_name_H-M "P 61"
_symmetry_group_IT_number 169
_symmetry_cell_setting 'hexagonal'
loop_
_space_group_symop_operation_xyz
x,y,z
x-y,x,1/6+z
-y,x-y,1/3+z
-x,-y,1/2+z
-x+y,-x,2/3+z
y,-x+y,5/6+z
loop_
_atom_site_type_symbol
_atom_site_label
_atom_site_fract_x
_atom_site_fract_y
_atom_site_fract_z
Si Si1 0.249361 0.795803 0.272670
Si Si2 0.632131 0.579769 0.821746
Si Si3 0.112100 0.631886 0.591749
O O1 0.167136 0.748056 0.454778
O O2 0.374517 0.786990 0.293660
O O3 0.289044 0.939452 0.231271
O O4 0.175570 0.711815 0.102282
O O5 0.485210 0.474212 0.835526
O O6 0.674358 0.596043 0.612198
#
# Coordination Sequence:
#
# PCOD8324512 Si02
#       3
#     6   6   6
#     4  10  22  36  55  86 121 160 201 252 312 370
#     4  10  21  35  55  85 119 159 205 249 310 372
#     4  10  21  35  58  83 124 157 202 249 310 368
#
# _framework density 18.236350000000002
#
# number of rings (size 3 to 8) (size 9 to 14) (size 15 to 20)
#    2.000    0.000    3.333    0.000    4.667    5.333 
#    0.000    0.000    0.000    0.000    8.667    0.000 
#    0.000    0.000    0.000    0.000    0.000    0.000 
#
# Total GULP energy -223031.521682 kJ/mol
# GULP energy per Si atom -12390.640093 kJ/mol
# Density = 1.819484 g / cm^3
# Si number density = 18.236350 Si / 1000 Ang^3
#
#
#
# Elastic Constant Matrix: (Units=GPa)
#
#
# Indices 1 2 3 4 5 6 
#
# 1 60.5098 26.8953 35.8715 0.0000 0.0000 0.0000
# 2 26.8953 60.5098 35.8715 0.0000 0.0000 0.0000
# 3 35.8715 35.8715 160.0604 0.0000 0.0000 0.0000
# 4 0.0000 0.0000 0.0000 37.0723 0.0000 0.0000
# 5 0.0000 0.0000 0.0000 0.0000 37.0723 0.0000
# 6 0.0000 0.0000 0.0000 0.0000 0.0000 16.8073
#
#
#
# Elastic Compliance Matrix: (Units=1/GPa)
#
#
# Indices 1 2 3 4 5 6 
#
# 1 0.021885 -0.007865 -0.003142 0.000000 0.000000 0.000000
# 2 -0.007865 0.021885 -0.003142 0.000000 0.000000 0.000000
# 3 -0.003142 -0.003142 0.007656 0.000000 0.000000 0.000000
# 4 0.000000 0.000000 0.000000 0.026974 0.000000 0.000000
# 5 0.000000 0.000000 0.000000 0.000000 0.026974 0.000000
# 6 0.000000 0.000000 0.000000 0.000000 0.000000 0.059498
#
#
# Mechanical properties :
#
#
# Convention : Reuss Voigt Hill
#
# Bulk Modulus (GPa) = 43.23803 53.15073 48.19438
# Shear Modulus (GPa) = 24.89069 30.35315 27.62192
#
# Velocity S-wave (km/s) = 3.69846 4.08417 3.89609
# Velocity P-wave (km/s) = 6.48069 7.17282 6.83552
#
# Compressibility (1/GPa) = 0.02312779
#
# Stress axis : x y z
#
# Youngs Moduli (GPa) = 45.69439 45.69439 130.61676
#
# Poissons Ratio (x) = 0.35936 0.41041
# Poissons Ratio (y) = 0.35936 0.41041
# Poissons Ratio (z) = 0.14357 0.14357
#
# Static dielectric constant tensor:
#      x y z
#    x 3.064400 0.000000 0.000000 
#    y 0.000000 3.064400 0.000000 
#    z 0.000000 0.000000 3.344360 
# 
# 
# High freq. dielectric constant tensor:
#      x y z
#    x 1.669690 0.000000 0.000000 
#    y 0.000000 1.669690 0.000000 
#    z 0.000000 0.000000 1.725730 
# 
# From -- ./inp_files/434.got.cif
#   From: 2010.03.12/outbox.cif.g09.slc.cpg/sg169_cif.got.tgz:434.got - 2010.04.02 06:46:06.
