data_PCOD8324237
_publ_section_title
;
Structure prediction by ZEFSAII (Michael W. Deem and Ramdas Pophale) SiO2 
 PCOD8324237
Probable space group: R -3 M
;
_chemical_formula_sum "Si O2"
_cell_formula_units_Z 90
_cell_length_a 26.511124
_cell_length_b 26.511124
_cell_length_c 7.721624
_cell_angle_alpha 90.000000
_cell_angle_beta 90.000000
_cell_angle_gamma 120.000000
_cell_volume 4699.975173
_symmetry_space_group_name_H-M "R -3 M"
_symmetry_group_IT_number 166
_symmetry_cell_setting 'hexagonal'
loop_
_space_group_symop_operation_xyz
x,y,z
-y,x-y,z
-x+y,-x,z
x-y,-y,-z
-x,-x+y,-z
y,x,-z
-x,-y,-z
y,-x+y,-z
x-y,x,-z
-x+y,y,z
x,x-y,z
-y,-x,z
2/3+x,1/3+y,1/3+z
2/3-y,1/3+x-y,1/3+z
2/3-x+y,1/3-x,1/3+z
2/3+x-y,1/3-y,1/3-z
2/3-x,1/3-x+y,1/3-z
2/3+y,1/3+x,1/3-z
2/3-x,1/3-y,1/3-z
2/3+y,1/3-x+y,1/3-z
2/3+x-y,1/3+x,1/3-z
2/3-x+y,1/3+y,1/3+z
2/3+x,1/3+x-y,1/3+z
2/3-y,1/3-x,1/3+z
1/3+x,2/3+y,2/3+z
1/3-y,2/3+x-y,2/3+z
1/3-x+y,2/3-x,2/3+z
1/3+x-y,2/3-y,2/3-z
1/3-x,2/3-x+y,2/3-z
1/3+y,2/3+x,2/3-z
1/3-x,2/3-y,2/3-z
1/3+y,2/3-x+y,2/3-z
1/3+x-y,2/3+x,2/3-z
1/3-x+y,2/3+y,2/3+z
1/3+x,2/3+x-y,2/3+z
1/3-y,2/3-x,2/3+z
loop_
_atom_site_type_symbol
_atom_site_label
_atom_site_fract_x
_atom_site_fract_y
_atom_site_fract_z
Si Si1 0.887555 0.554222 0.833334
Si Si2 0.538072 0.826904 0.514329
Si Si3 0.009788 0.410678 0.689630
O O1 0.845830 0.523936 0.669419
O O2 0.895981 0.617865 0.867529
O O3 0.519309 0.759654 0.506086
O O4 0.501505 0.834838 0.666667
O O5 0.606798 0.866767 0.547446
O O6 0.027364 0.360698 0.666667
O O7 0.000000 0.429484 0.500000
#
# Coordination Sequence:
#
# PCOD8324237 Si02
#       3
#    18  36  36
#     4  12  20  36  60  86 124 166 206 236 274 348
#     4  11  25  41  60  88 120 156 197 247 302 352
#     4  11  18  33  57  85 123 168 200 227 273 338
#
# _framework density 19.149035999999999
#
# number of rings (size 3 to 8) (size 9 to 14) (size 15 to 20)
#    0.000    0.800   10.000    1.200    0.000    5.600 
#    0.000    0.000    0.000    0.400    0.000    1.400 
#    0.000    0.000    0.000    0.000    0.000    0.000 
#
# Total GULP energy -372046.661965 kJ/mol
# GULP energy per Si atom -12401.555399 kJ/mol
# Density = 1.910545 g / cm^3
# Si number density = 19.149036 Si / 1000 Ang^3
#
#
#
# Elastic Constant Matrix: (Units=GPa)
#
#
# Indices 1 2 3 4 5 6 
#
# 1 66.5768 42.6413 34.0664 2.3763 -0.0721 0.0346
# 2 42.6413 66.5531 33.9935 -2.4171 -0.1818 0.0249
# 3 34.0664 33.9935 149.4550 -0.1702 -0.3490 0.0626
# 4 2.3763 -2.4171 -0.1702 7.6668 -0.1279 0.0549
# 5 -0.0721 -0.1818 -0.3490 -0.1279 7.2815 2.4947
# 6 0.0346 0.0249 0.0626 0.0549 2.4947 12.0539
#
#
#
# Elastic Compliance Matrix: (Units=1/GPa)
#
#
# Indices 1 2 3 4 5 6 
#
# 1 0.027642 -0.016964 -0.002460 -0.013981 -0.000565 0.000149
# 2 -0.016964 0.027628 -0.002400 0.013928 0.000723 -0.000209
# 3 -0.002460 -0.002400 0.007798 0.000185 0.000326 -0.000097
# 4 -0.013981 0.013928 0.000185 0.139221 0.003097 -0.001265
# 5 -0.000565 0.000723 0.000326 0.003097 0.147911 -0.030628
# 6 0.000149 -0.000209 -0.000097 -0.001265 -0.030628 0.089306
#
#
# Mechanical properties :
#
#
# Convention : Reuss Voigt Hill
#
# Bulk Modulus (GPa) = 51.48633 55.99860 53.74247
# Shear Modulus (GPa) = 10.21185 16.85933 13.53559
#
# Velocity S-wave (km/s) = 2.31180 2.97042 2.66156
# Velocity P-wave (km/s) = 5.83707 6.40871 6.12956
#
# Compressibility (1/GPa) = 0.01942263
#
# Stress axis : x y z
#
# Youngs Moduli (GPa) = 36.17679 36.19518 128.23087
#
# Poissons Ratio (x) = 0.61400 0.31539
# Poissons Ratio (y) = 0.61369 0.30772
# Poissons Ratio (z) = 0.08898 0.08686
#
# Static dielectric constant tensor:
#      x y z
#    x 3.077860 -0.000030 -0.000290 
#    y -0.000030 3.077890 -0.000010 
#    z -0.000290 -0.000010 3.888690 
# 
# 
# High freq. dielectric constant tensor:
#      x y z
#    x 1.699540 0.000000 -0.000030 
#    y 0.000000 1.699540 0.000000 
#    z -0.000030 0.000000 1.775050 
# 
# From -- ./inp_files/1254.got.cif
#   From: 2010.03.12/outbox.cif.g09.slc.cpg/sg166_1_cif.got.tgz:1254.got - 2010.04.02 06:38:31.
