data_PCOD8324510
_publ_section_title
;
Structure prediction by ZEFSAII (Michael W. Deem and Ramdas Pophale) SiO2 
 PCOD8324510
Probable space group: P 61
;
_chemical_formula_sum "Si O2"
_cell_formula_units_Z 18
_cell_length_a 15.861256
_cell_length_b 15.861256
_cell_length_c 5.164228
_cell_angle_alpha 90.000000
_cell_angle_beta 90.000000
_cell_angle_gamma 120.000000
_cell_volume 1125.151981
_symmetry_space_group_name_H-M "P 61"
_symmetry_group_IT_number 169
_symmetry_cell_setting 'hexagonal'
loop_
_space_group_symop_operation_xyz
x,y,z
x-y,x,1/6+z
-y,x-y,1/3+z
-x,-y,1/2+z
-x+y,-x,2/3+z
y,-x+y,5/6+z
loop_
_atom_site_type_symbol
_atom_site_label
_atom_site_fract_x
_atom_site_fract_y
_atom_site_fract_z
Si Si1 0.373832 0.867955 0.046690
Si Si2 0.623971 0.563128 0.478826
Si Si3 0.305748 0.477140 0.491109
O O1 0.454282 0.925360 0.273583
O O2 0.272524 0.794310 0.179387
O O3 0.413088 0.810194 0.867695
O O4 0.363261 0.947490 0.873832
O O5 0.690198 0.592374 0.218292
O O6 0.690604 0.564147 0.712741
#
# Coordination Sequence:
#
# PCOD8324510 Si02
#       3
#     6   6   6
#     4  10  21  34  48  68 102 124 177 217 255 292
#     4  10  21  34  44  71  97 127 163 227 257 275
#     4  10  22  28  52  65  91 133 168 206 254 303
#
# _framework density 15.99784
#
# number of rings (size 3 to 8) (size 9 to 14) (size 15 to 20)
#    2.000    0.000    3.333    0.000    9.333    0.000 
#    0.000    0.000    0.000    0.000    0.000    0.000 
#    0.000    0.000    0.000    6.000    0.000    5.333 
#
# Total GULP energy -223002.224886 kJ/mol
# GULP energy per Si atom -12389.012494 kJ/mol
# Density = 1.596143 g / cm^3
# Si number density = 15.997840 Si / 1000 Ang^3
#
#
#
# Elastic Constant Matrix: (Units=GPa)
#
#
# Indices 1 2 3 4 5 6 
#
# 1 72.8738 27.4905 20.4914 0.0000 0.0000 0.0000
# 2 27.4905 72.8738 20.4914 0.0000 0.0000 0.0000
# 3 20.4914 20.4914 98.9535 0.0000 0.0000 0.0000
# 4 0.0000 0.0000 0.0000 22.9691 0.0000 0.0000
# 5 0.0000 0.0000 0.0000 0.0000 22.9691 0.0000
# 6 0.0000 0.0000 0.0000 0.0000 0.0000 22.6916
#
#
#
# Elastic Compliance Matrix: (Units=1/GPa)
#
#
# Indices 1 2 3 4 5 6 
#
# 1 0.016459 -0.005575 -0.002254 0.000000 0.000000 0.000000
# 2 -0.005575 0.016459 -0.002254 0.000000 0.000000 0.000000
# 3 -0.002254 -0.002254 0.011039 0.000000 0.000000 0.000000
# 4 0.000000 0.000000 0.000000 0.043537 0.000000 0.000000
# 5 0.000000 0.000000 0.000000 0.000000 0.043537 0.000000
# 6 0.000000 0.000000 0.000000 0.000000 0.000000 0.044069
#
#
# Mechanical properties :
#
#
# Convention : Reuss Voigt Hill
#
# Bulk Modulus (GPa) = 42.03127 42.40530 42.21828
# Shear Modulus (GPa) = 24.60666 25.47449 25.04057
#
# Velocity S-wave (km/s) = 3.92615 3.99478 3.96061
# Velocity P-wave (km/s) = 6.84711 6.91680 6.88205
#
# Compressibility (1/GPa) = 0.02379181
#
# Stress axis : x y z
#
# Youngs Moduli (GPa) = 60.75589 60.75589 90.58600
#
# Poissons Ratio (x) = 0.33873 0.20417
# Poissons Ratio (y) = 0.33873 0.20417
# Poissons Ratio (z) = 0.13694 0.13694
#
# Static dielectric constant tensor:
#      x y z
#    x 2.649120 0.000000 0.000000 
#    y 0.000000 2.649120 0.000000 
#    z 0.000000 0.000000 3.084330 
# 
# 
# High freq. dielectric constant tensor:
#      x y z
#    x 1.572590 0.000000 0.000000 
#    y 0.000000 1.572590 0.000000 
#    z 0.000000 0.000000 1.633140 
# 
# From -- ./inp_files/413.got.cif
#   From: 2010.03.12/outbox.cif.g09.slc.cpg/sg169_cif.got.tgz:413.got - 2010.04.02 06:46:06.
