data_PCOD8324648
_publ_section_title
;
Structure prediction by ZEFSAII (Michael W. Deem and Ramdas Pophale) SiO2 
 PCOD8324648
Probable space group: P 65
;
_chemical_formula_sum "Si O2"
_cell_formula_units_Z 42
_cell_length_a 14.607092
_cell_length_b 14.607092
_cell_length_c 12.511975
_cell_angle_alpha 90.000000
_cell_angle_beta 90.000000
_cell_angle_gamma 120.000000
_cell_volume 2311.979766
_symmetry_space_group_name_H-M "P 65"
_symmetry_group_IT_number 170
_symmetry_cell_setting 'hexagonal'
loop_
_space_group_symop_operation_xyz
x,y,z
x-y,x,5/6+z
-y,x-y,2/3+z
-x,-y,1/2+z
-x+y,-x,1/3+z
y,-x+y,1/6+z
loop_
_atom_site_type_symbol
_atom_site_label
_atom_site_fract_x
_atom_site_fract_y
_atom_site_fract_z
Si Si1 0.631945 0.898131 0.016890
Si Si2 0.647120 0.700450 0.026268
Si Si3 0.478672 0.244890 0.040284
Si Si4 0.586636 0.434017 0.540912
Si Si5 0.029682 0.414111 0.996429
Si Si6 0.652655 0.550204 0.184543
Si Si7 0.558131 0.237083 0.647580
O O1 0.680544 0.821553 0.009666
O O2 0.507696 0.826593 0.042809
O O3 0.692308 0.962349 0.119898
O O4 0.655202 0.978265 0.919184
O O5 0.527582 0.623822 0.983703
O O6 0.653941 0.657544 0.145513
O O7 0.547610 0.224199 0.125218
O O8 0.403289 0.280629 0.101650
O O9 0.419850 0.146789 0.957130
O O10 0.563557 0.342002 0.970857
O O11 0.612425 0.548322 0.580984
O O12 0.587126 0.359164 0.636829
O O13 0.074503 0.532241 0.044621
O O14 0.696629 0.506870 0.090316
#
# Coordination Sequence:
#
# PCOD8324648 Si02
#       7
#     6   6   6   6   6   6   6
#     4  10  20  35  58  77 113 137 191 232 272 339
#     4   9  20  37  54  84  99 147 184 229 278 330
#     4  11  21  34  53  82 116 151 187 231 284 331
#     4  10  21  34  51  81 115 146 191 216 275 333
#     4  10  22  33  52  83 112 152 184 231 285 323
#     4   9  19  36  51  79 114 146 193 224 275 343
#     4   9  19  33  53  80 109 159 188 219 275 335
#
# _framework density 18.166249000000001
#
# number of rings (size 3 to 8) (size 9 to 14) (size 15 to 20)
#    0.000    2.286    0.000    3.429    8.000    0.000 
#    7.714    0.000    0.000    0.000    3.714    0.000 
#    0.000    0.000    0.000    0.000    0.000    0.000 
#
# Total GULP energy -520357.313206 kJ/mol
# GULP energy per Si atom -12389.459838 kJ/mol
# Density = 1.812490 g / cm^3
# Si number density = 18.166249 Si / 1000 Ang^3
#
#
#
# Elastic Constant Matrix: (Units=GPa)
#
#
# Indices 1 2 3 4 5 6 
#
# 1 87.2230 36.7654 40.7004 0.0000 0.0000 0.0000
# 2 36.7654 87.2230 40.7004 0.0000 0.0000 0.0000
# 3 40.7004 40.7004 70.8580 0.0000 0.0000 0.0000
# 4 0.0000 0.0000 0.0000 28.5847 0.0000 0.0000
# 5 0.0000 0.0000 0.0000 0.0000 28.5847 0.0000
# 6 0.0000 0.0000 0.0000 0.0000 0.0000 25.2288
#
#
#
# Elastic Compliance Matrix: (Units=1/GPa)
#
#
# Indices 1 2 3 4 5 6 
#
# 1 0.016383 -0.003435 -0.007437 0.000000 0.000000 0.000000
# 2 -0.003435 0.016383 -0.007437 0.000000 0.000000 0.000000
# 3 -0.007437 -0.007437 0.022657 0.000000 0.000000 0.000000
# 4 0.000000 0.000000 0.000000 0.034984 0.000000 0.000000
# 5 0.000000 0.000000 0.000000 0.000000 0.034984 0.000000
# 6 0.000000 0.000000 0.000000 0.000000 0.000000 0.039637
#
#
# Mechanical properties :
#
#
# Convention : Reuss Voigt Hill
#
# Bulk Modulus (GPa) = 53.18151 53.51516 53.34834
# Shear Modulus (GPa) = 24.04822 24.95546 24.50184
#
# Velocity S-wave (km/s) = 3.64233 3.71040 3.67653
# Velocity P-wave (km/s) = 6.85764 6.91944 6.88861
#
# Compressibility (1/GPa) = 0.01880353
#
# Stress axis : x y z
#
# Youngs Moduli (GPa) = 61.03773 61.03773 44.13730
#
# Poissons Ratio (x) = 0.20968 0.32826
# Poissons Ratio (y) = 0.20968 0.32826
# Poissons Ratio (z) = 0.45395 0.45395
#
# Static dielectric constant tensor:
#      x y z
#    x 3.348030 0.000000 0.000000 
#    y 0.000000 3.348030 0.000000 
#    z 0.000000 0.000000 3.229660 
# 
# 
# High freq. dielectric constant tensor:
#      x y z
#    x 1.686940 0.000000 0.000000 
#    y 0.000000 1.686940 0.000000 
#    z 0.000000 0.000000 1.695180 
# 
# From -- ./inp_files/952.got.cif
#   From: 2010.03.12/outbox.cif.g09.slc.cpg/sg170_cif.got.tgz:952.got - 2010.04.02 06:47:37.
