data_PCOD8324282
_publ_section_title
;
Structure prediction by ZEFSAII (Michael W. Deem and Ramdas Pophale) SiO2 
 PCOD8324282
Probable space group: R -3 C 
;
_chemical_formula_sum "Si O2"
_cell_formula_units_Z 162
_cell_length_a 24.185127
_cell_length_b 24.185127
_cell_length_c 16.772314
_cell_angle_alpha 90.000000
_cell_angle_beta 90.000000
_cell_angle_gamma 120.000000
_cell_volume 8496.114578
_symmetry_space_group_name_H-M "R -3 C "
_symmetry_group_IT_number 167
_symmetry_cell_setting 'hexagonal'
loop_
_space_group_symop_operation_xyz
x,y,z
-y,x-y,z
-x+y,-x,z
x-y,-y,1/2-z
-x,-x+y,1/2-z
y,x,1/2-z
-x,-y,-z
y,-x+y,-z
x-y,x,-z
-x+y,y,1/2+z
x,x-y,1/2+z
-y,-x,1/2+z
2/3+x,1/3+y,1/3+z
2/3-y,1/3+x-y,1/3+z
2/3-x+y,1/3-x,1/3+z
2/3+x-y,1/3-y,5/6-z
2/3-x,1/3-x+y,5/6-z
2/3+y,1/3+x,5/6-z
2/3-x,1/3-y,1/3-z
2/3+y,1/3-x+y,1/3-z
2/3+x-y,1/3+x,1/3-z
2/3-x+y,1/3+y,5/6+z
2/3+x,1/3+x-y,5/6+z
2/3-y,1/3-x,5/6+z
1/3+x,2/3+y,2/3+z
1/3-y,2/3+x-y,2/3+z
1/3-x+y,2/3-x,2/3+z
1/3+x-y,2/3-y,1/6-z
1/3-x,2/3-x+y,1/6-z
1/3+y,2/3+x,1/6-z
1/3-x,2/3-y,2/3-z
1/3+y,2/3-x+y,2/3-z
1/3+x-y,2/3+x,2/3-z
1/3-x+y,2/3+y,1/6+z
1/3+x,2/3+x-y,1/6+z
1/3-y,2/3-x,1/6+z
loop_
_atom_site_type_symbol
_atom_site_label
_atom_site_fract_x
_atom_site_fract_y
_atom_site_fract_z
Si Si1 0.902836 0.860990 0.991409
Si Si2 0.235879 0.419617 0.288656
Si Si3 0.049888 0.458163 0.428896
Si Si4 0.333334 0.828493 0.916667
Si Si5 0.720103 0.216504 0.514796
O O1 0.867376 0.844041 0.906032
O O2 0.890569 0.913730 0.030700
O O3 0.879349 0.800926 0.048707
O O4 0.165829 0.404115 0.320625
O O5 0.238127 0.358752 0.253343
O O6 0.287799 0.445736 0.360000
O O7 0.070217 0.403550 0.416667
O O8 0.086205 0.510137 0.359076
O O9 0.291431 0.768146 0.973482
O O10 0.666667 0.192650 0.583334
#
# Coordination Sequence:
#
# PCOD8324282 Si02
#       5
#    36  36  36  18  36
#     4  12  23  38  58  91 125 159 203 255 302 364
#     4  10  21  38  63  88 123 161 201 257 301 364
#     4   9  19  40  63  87 117 163 202 246 308 363
#     4  10  18  40  56  80 118 162 192 240 306 354
#     4  10  21  37  60  84 119 161 198 240 304 363
#
# _framework density 19.067539
#
# number of rings (size 3 to 8) (size 9 to 14) (size 15 to 20)
#    0.000    1.778    2.222    4.222    0.000    0.889 
#    0.667   11.111    0.000    0.000    0.000    0.000 
#    0.000    0.000    0.000    0.000    0.000    0.000 
#
# Total GULP energy -669007.402359 kJ/mol
# GULP energy per Si atom -12389.025970 kJ/mol
# Density = 1.902414 g / cm^3
# Si number density = 19.067539 Si / 1000 Ang^3
#
#
#
# Elastic Constant Matrix: (Units=GPa)
#
#
# Indices 1 2 3 4 5 6 
#
# 1 109.7705 57.0505 37.1767 -1.4328 -0.0002 0.0000
# 2 57.0505 109.7705 37.1767 1.4328 0.0002 0.0000
# 3 37.1767 37.1767 109.7302 0.0000 0.0000 0.0000
# 4 -1.4328 1.4328 0.0000 22.7739 0.0000 0.0002
# 5 -0.0002 0.0002 0.0000 0.0000 22.7739 -1.4328
# 6 0.0000 0.0000 0.0000 0.0002 -1.4328 26.3600
#
#
#
# Elastic Compliance Matrix: (Units=1/GPa)
#
#
# Indices 1 2 3 4 5 6 
#
# 1 0.013047 -0.005986 -0.002392 0.001197 0.000000 0.000000
# 2 -0.005986 0.013047 -0.002392 -0.001197 0.000000 0.000000
# 3 -0.002392 -0.002392 0.010734 0.000000 0.000000 0.000000
# 4 0.001197 -0.001197 0.000000 0.044061 0.000000 0.000000
# 5 0.000000 0.000000 0.000000 0.000000 0.044061 0.002395
# 6 0.000000 0.000000 0.000000 0.000000 0.002395 0.038066
#
#
# Mechanical properties :
#
#
# Convention : Reuss Voigt Hill
#
# Bulk Modulus (GPa) = 65.41559 65.78654 65.60106
# Shear Modulus (GPa) = 26.36399 27.57269 26.96834
#
# Velocity S-wave (km/s) = 3.72245 3.80683 3.76488
# Velocity P-wave (km/s) = 7.27030 7.34162 7.30605
#
# Compressibility (1/GPa) = 0.01528688
#
# Stress axis : x y z
#
# Youngs Moduli (GPa) = 76.64632 76.64632 93.16024
#
# Poissons Ratio (x) = 0.45883 0.22285
# Poissons Ratio (y) = 0.45883 0.22285
# Poissons Ratio (z) = 0.18335 0.18335
#
# Static dielectric constant tensor:
#      x y z
#    x 3.576440 0.000000 0.000000 
#    y 0.000000 3.576440 0.000000 
#    z 0.000000 0.000000 3.434390 
# 
# 
# High freq. dielectric constant tensor:
#      x y z
#    x 1.738110 0.000000 0.000000 
#    y 0.000000 1.738110 0.000000 
#    z 0.000000 0.000000 1.739030 
# 
# From -- ./inp_files/3403.got.cif
#   From: 2010.03.12/outbox.cif.g09.slc.cpg/sg167_2_cif.got.tgz:3403.got - 2010.04.02 06:42:56.
