data_PCOD8324395
_publ_section_title
;
Structure prediction by ZEFSAII (Michael W. Deem and Ramdas Pophale) SiO2 
 PCOD8324395
Probable space group: R -3 C 
;
_chemical_formula_sum "Si O2"
_cell_formula_units_Z 126
_cell_length_a 24.946645
_cell_length_b 24.946645
_cell_length_c 10.352550
_cell_angle_alpha 90.000000
_cell_angle_beta 90.000000
_cell_angle_gamma 120.000000
_cell_volume 5579.589679
_symmetry_space_group_name_H-M "R -3 C "
_symmetry_group_IT_number 167
_symmetry_cell_setting 'hexagonal'
loop_
_space_group_symop_operation_xyz
x,y,z
-y,x-y,z
-x+y,-x,z
x-y,-y,1/2-z
-x,-x+y,1/2-z
y,x,1/2-z
-x,-y,-z
y,-x+y,-z
x-y,x,-z
-x+y,y,1/2+z
x,x-y,1/2+z
-y,-x,1/2+z
2/3+x,1/3+y,1/3+z
2/3-y,1/3+x-y,1/3+z
2/3-x+y,1/3-x,1/3+z
2/3+x-y,1/3-y,5/6-z
2/3-x,1/3-x+y,5/6-z
2/3+y,1/3+x,5/6-z
2/3-x,1/3-y,1/3-z
2/3+y,1/3-x+y,1/3-z
2/3+x-y,1/3+x,1/3-z
2/3-x+y,1/3+y,5/6+z
2/3+x,1/3+x-y,5/6+z
2/3-y,1/3-x,5/6+z
1/3+x,2/3+y,2/3+z
1/3-y,2/3+x-y,2/3+z
1/3-x+y,2/3-x,2/3+z
1/3+x-y,2/3-y,1/6-z
1/3-x,2/3-x+y,1/6-z
1/3+y,2/3+x,1/6-z
1/3-x,2/3-y,2/3-z
1/3+y,2/3-x+y,2/3-z
1/3+x-y,2/3+x,2/3-z
1/3-x+y,2/3+y,1/6+z
1/3+x,2/3+x-y,1/6+z
1/3-y,2/3-x,1/6+z
loop_
_atom_site_type_symbol
_atom_site_label
_atom_site_fract_x
_atom_site_fract_y
_atom_site_fract_z
Si Si1 0.104937 0.419884 0.176847
Si Si2 0.130040 0.553744 0.141583
Si Si3 0.633224 0.666667 0.916667
Si Si4 0.465698 0.731734 0.943769
O O1 0.105928 0.485143 0.200557
O O2 0.168935 0.418251 0.192872
O O3 0.058404 0.368500 0.278324
O O4 0.078955 0.397633 0.034810
O O5 0.182859 0.601073 0.240661
O O6 0.151002 0.553347 0.994377
O O7 0.403700 0.666667 0.916667
O O8 0.455589 0.788922 0.916667
#
# Coordination Sequence:
#
# PCOD8324395 Si02
#       4
#    36  36  18  36
#     4  11  24  46  70 104 137 184 232 291 352 409
#     4  12  24  42  74 100 141 182 229 285 349 420
#     4  10  26  46  70  96 140 176 250 304 326 412
#     4  12  22  39  62 104 140 187 228 276 339 429
#
# _framework density 22.582305999999999
#
# number of rings (size 3 to 8) (size 9 to 14) (size 15 to 20)
#    0.000    0.571    5.714    2.000    0.000    8.000 
#    0.000    2.857    0.000    0.000    0.000    0.000 
#    0.000    0.000    0.000    0.000    0.000    0.000 
#
# Total GULP energy -520308.060893 kJ/mol
# GULP energy per Si atom -12388.287164 kJ/mol
# Density = 2.253091 g / cm^3
# Si number density = 22.582306 Si / 1000 Ang^3
#
#
#
# Elastic Constant Matrix: (Units=GPa)
#
#
# Indices 1 2 3 4 5 6 
#
# 1 113.9629 40.5986 1.7652 2.6771 -0.0011 0.0009
# 2 40.5986 113.9635 1.7626 -2.6772 0.0015 -0.0010
# 3 1.7652 1.7626 88.7590 0.0041 0.0025 0.0053
# 4 2.6771 -2.6772 0.0041 21.4235 0.0044 -0.0005
# 5 -0.0011 0.0015 0.0025 0.0044 21.4202 2.6794
# 6 0.0009 -0.0010 0.0053 -0.0005 2.6794 36.6813
#
#
#
# Elastic Compliance Matrix: (Units=1/GPa)
#
#
# Indices 1 2 3 4 5 6 
#
# 1 0.010114 -0.003642 -0.000129 -0.001719 0.000001 0.000000
# 2 -0.003642 0.010114 -0.000129 0.001719 -0.000001 0.000000
# 3 -0.000129 -0.000129 0.011272 -0.000002 -0.000001 -0.000002
# 4 -0.001719 0.001719 -0.000002 0.047107 -0.000010 0.000001
# 5 0.000001 -0.000001 -0.000001 -0.000010 0.047115 -0.003442
# 6 0.000000 0.000000 -0.000002 0.000001 -0.003442 0.027513
#
#
# Mechanical properties :
#
#
# Convention : Reuss Voigt Hill
#
# Bulk Modulus (GPa) = 42.18926 44.99314 43.59120
# Shear Modulus (GPa) = 29.59718 34.07560 31.83639
#
# Velocity S-wave (km/s) = 3.62420 3.88874 3.75880
# Velocity P-wave (km/s) = 6.01964 6.33485 6.17926
#
# Compressibility (1/GPa) = 0.02370271
#
# Stress axis : x y z
#
# Youngs Moduli (GPa) = 98.86848 98.86899 88.71876
#
# Poissons Ratio (x) = 0.36004 0.01142
# Poissons Ratio (y) = 0.36004 0.01140
# Poissons Ratio (z) = 0.01273 0.01271
#
# Static dielectric constant tensor:
#      x y z
#    x 4.305000 0.000000 -0.000010 
#    y 0.000000 4.305000 0.000000 
#    z -0.000010 0.000000 4.067010 
# 
# 
# High freq. dielectric constant tensor:
#      x y z
#    x 1.888340 0.000000 0.000000 
#    y 0.000000 1.888340 0.000000 
#    z 0.000000 0.000000 1.894800 
# 
# From -- ./inp_files/1426.got.cif
#   From: 2010.03.12/outbox.cif.g09.slc.cpg/sg167_1_cif.got.tgz:1426.got - 2010.04.02 06:42:56.
