data_PCOD8324821
_publ_section_title
;
Structure prediction by ZEFSAII (Michael W. Deem and Ramdas Pophale) SiO2 
 PCOD8324821
Probable space group: P 62
;
_chemical_formula_sum "Si O2"
_cell_formula_units_Z 24
_cell_length_a 9.572408
_cell_length_b 9.572408
_cell_length_c 10.778165
_cell_angle_alpha 90.000000
_cell_angle_beta 90.000000
_cell_angle_gamma 120.000000
_cell_volume 855.298798
_symmetry_space_group_name_H-M "P 62"
_symmetry_group_IT_number 171
_symmetry_cell_setting 'hexagonal'
loop_
_space_group_symop_operation_xyz
x,y,z
x-y,x,1/3+z
-y,x-y,2/3+z
-x,-y,z
-x+y,-x,1/3+z
y,-x+y,2/3+z
loop_
_atom_site_type_symbol
_atom_site_label
_atom_site_fract_x
_atom_site_fract_y
_atom_site_fract_z
Si Si1 0.495288 0.347183 0.667100
Si Si2 0.727489 0.258638 0.785268
Si Si3 0.842162 0.845866 0.737504
Si Si4 0.268242 0.295786 0.271147
O O1 0.500000 0.500000 0.740279
O O2 0.563563 0.256775 0.751536
O O3 0.593860 0.422674 0.543021
O O4 0.308311 0.213130 0.641904
O O5 0.836608 0.302312 0.660564
O O6 0.682358 0.083256 0.836171
O O7 0.787999 0.877791 0.871588
O O8 0.909070 0.719642 0.719387
O O9 0.000000 0.000000 0.684818
#
# Coordination Sequence:
#
# PCOD8324821 Si02
#       4
#     6   6   6   6
#     4  12  30  54  84 122 176 231 298 367 445 524
#     4  12  30  55  91 129 181 237 295 375 449 540
#     4  12  27  52  85 129 172 232 293 361 442 534
#     4  12  28  52  92 132 182 235 298 367 452 541
#
# _framework density 28.060369000000001
#
# number of rings (size 3 to 8) (size 9 to 14) (size 15 to 20)
#    0.000    0.000    5.000    2.250    3.500    7.000 
#    4.500    0.000    0.000    0.000    0.000    0.000 
#    0.000    0.000    0.000    0.000    0.000    0.000 
#
# Total GULP energy -297319.091571 kJ/mol
# GULP energy per Si atom -12388.295482 kJ/mol
# Density = 2.799650 g / cm^3
# Si number density = 28.060369 Si / 1000 Ang^3
#
#
#
# Elastic Constant Matrix: (Units=GPa)
#
#
# Indices 1 2 3 4 5 6 
#
# 1 170.0917 59.2261 33.2879 0.0000 0.0000 0.0000
# 2 59.2261 170.0917 33.2879 0.0000 0.0000 0.0000
# 3 33.2879 33.2879 95.9270 0.0000 0.0000 0.0000
# 4 0.0000 0.0000 0.0000 31.0602 0.0000 0.0000
# 5 0.0000 0.0000 0.0000 0.0000 31.0602 0.0000
# 6 0.0000 0.0000 0.0000 0.0000 0.0000 55.4328
#
#
#
# Elastic Compliance Matrix: (Units=1/GPa)
#
#
# Indices 1 2 3 4 5 6 
#
# 1 0.006935 -0.002085 -0.001683 0.000000 0.000000 0.000000
# 2 -0.002085 0.006935 -0.001683 0.000000 0.000000 0.000000
# 3 -0.001683 -0.001683 0.011592 0.000000 0.000000 0.000000
# 4 0.000000 0.000000 0.000000 0.032196 0.000000 0.000000
# 5 0.000000 0.000000 0.000000 0.000000 0.032196 0.000000
# 6 0.000000 0.000000 0.000000 0.000000 0.000000 0.018040
#
#
# Mechanical properties :
#
#
# Convention : Reuss Voigt Hill
#
# Bulk Modulus (GPa) = 68.68130 76.41269 72.54699
# Shear Modulus (GPa) = 40.43744 44.19786 42.31765
#
# Velocity S-wave (km/s) = 3.80028 3.97306 3.88763
# Velocity P-wave (km/s) = 6.61707 6.95252 6.78687
#
# Compressibility (1/GPa) = 0.01456000
#
# Stress axis : x y z
#
# Youngs Moduli (GPa) = 144.20406 144.20406 86.26280
#
# Poissons Ratio (x) = 0.30071 0.14516
# Poissons Ratio (y) = 0.30071 0.14516
# Poissons Ratio (z) = 0.24266 0.24266
#
# Static dielectric constant tensor:
#      x y z
#    x 5.573700 0.000000 0.000000 
#    y 0.000000 5.573700 0.000000 
#    z 0.000000 0.000000 4.653960 
# 
# 
# High freq. dielectric constant tensor:
#      x y z
#    x 2.153360 0.000000 0.000000 
#    y 0.000000 2.153360 0.000000 
#    z 0.000000 0.000000 2.113690 
# 
# From -- ./inp_files/1818.got.cif
#   From: 2010.03.12/outbox.cif.g09.slc.cpg/sg171_1_cif.got.tgz:1818.got - 2010.04.02 06:49:11.
