data_PCOD8324931
_publ_section_title
;
Structure prediction by ZEFSAII (Michael W. Deem and Ramdas Pophale) SiO2 
 PCOD8324931
Probable space group: P -6
;
_chemical_formula_sum "Si O2"
_cell_formula_units_Z 32
_cell_length_a 14.544133
_cell_length_b 14.544133
_cell_length_c 8.732819
_cell_angle_alpha 90.000000
_cell_angle_beta 90.000000
_cell_angle_gamma 120.000000
_cell_volume 1599.781850
_symmetry_space_group_name_H-M "P -6"
_symmetry_group_IT_number 174
_symmetry_cell_setting 'hexagonal'
loop_
_space_group_symop_operation_xyz
x,y,z
-x+y,-x,-z
-y,x-y,z
x,y,-z
-x+y,-x,z
-y,x-y,-z
loop_
_atom_site_type_symbol
_atom_site_label
_atom_site_fract_x
_atom_site_fract_y
_atom_site_fract_z
Si Si1 0.135944 0.457405 0.181198
Si Si2 0.757619 0.836591 0.678162
Si Si3 0.845154 0.076047 0.322446
Si Si4 0.729315 0.172577 0.180090
Si Si5 0.496741 0.096477 0.817531
Si Si6 0.333335 0.666668 0.681958
O O1 0.138832 0.351422 0.226664
O O2 0.230941 0.559951 0.260147
O O3 0.023256 0.441627 0.240328
O O4 0.149516 0.473863 0.000000
O O5 0.728342 0.812773 0.500000
O O6 0.831118 0.790057 0.736197
O O7 0.830042 0.961351 0.709414
O O8 0.830983 0.092078 0.500000
O O9 0.754400 0.081215 0.226130
O O10 0.614218 0.138444 0.248828
O O11 0.821607 0.283911 0.248962
O O12 0.724615 0.182152 0.000000
O O13 0.494960 0.096748 0.000000
O O14 0.333334 0.666668 0.500000
#
# Coordination Sequence:
#
# PCOD8324931 Si02
#       6
#     6   6   6   6   6   2
#     4  11  23  42  64  92 123 158 205 260 308 359
#     4  10  21  39  61  87 122 164 203 248 304 368
#     4  10  21  37  58  86 118 156 200 243 294 356
#     4  10  19  36  59  87 117 153 194 235 292 359
#     4   9  19  35  60  89 120 153 193 242 295 357
#     4  12  28  47  64  87 118 164 211 252 307 371
#
# _framework density 20.002727
#
# number of rings (size 3 to 8) (size 9 to 14) (size 15 to 20)
#    0.000    1.875    1.875    1.875    2.625    3.750 
#    0.000    1.875    0.000    2.250    0.000    0.000 
#    0.000    0.000    0.000    0.000    0.000    0.000 
#
# Total GULP energy -396817.189589 kJ/mol
# GULP energy per Si atom -12400.537175 kJ/mol
# Density = 1.995720 g / cm^3
# Si number density = 20.002727 Si / 1000 Ang^3
#
#
#
# Elastic Constant Matrix: (Units=GPa)
#
#
# Indices 1 2 3 4 5 6 
#
# 1 131.6529 51.7902 32.9932 0.0000 0.0000 0.0001
# 2 51.7902 131.6516 32.9933 0.0000 0.0000 -0.0004
# 3 32.9932 32.9933 45.6580 0.0000 0.0000 -0.0001
# 4 0.0000 0.0000 0.0000 27.9628 -0.0001 0.0000
# 5 0.0000 0.0000 0.0000 -0.0001 27.9630 0.0000
# 6 0.0001 -0.0004 -0.0001 0.0000 0.0000 39.9307
#
#
#
# Elastic Compliance Matrix: (Units=1/GPa)
#
#
# Indices 1 2 3 4 5 6 
#
# 1 0.009944 -0.002578 -0.005323 0.000000 0.000000 0.000000
# 2 -0.002578 0.009944 -0.005323 0.000000 0.000000 0.000000
# 3 -0.005323 -0.005323 0.029595 0.000000 0.000000 0.000000
# 4 0.000000 0.000000 0.000000 0.035762 0.000000 0.000000
# 5 0.000000 0.000000 0.000000 0.000000 0.035762 0.000000
# 6 0.000000 0.000000 0.000000 0.000000 0.000000 0.025043
#
#
# Mechanical properties :
#
#
# Convention : Reuss Voigt Hill
#
# Bulk Modulus (GPa) = 43.41134 60.50178 51.95656
# Shear Modulus (GPa) = 27.75094 31.91703 29.83399
#
# Velocity S-wave (km/s) = 3.72877 3.99887 3.86618
# Velocity P-wave (km/s) = 6.34729 7.18566 6.77945
#
# Compressibility (1/GPa) = 0.02303545
#
# Stress axis : x y z
#
# Youngs Moduli (GPa) = 100.56602 100.56474 33.78994
#
# Poissons Ratio (x) = 0.25924 0.17985
# Poissons Ratio (y) = 0.25924 0.17986
# Poissons Ratio (z) = 0.53528 0.53529
#
# Static dielectric constant tensor:
#      x y z
#    x 3.776100 0.000010 0.000000 
#    y 0.000010 3.776110 0.000000 
#    z 0.000000 0.000000 3.327060 
# 
# 
# High freq. dielectric constant tensor:
#      x y z
#    x 1.792930 0.000000 0.000000 
#    y 0.000000 1.792930 0.000000 
#    z 0.000000 0.000000 1.751500 
# 
# From -- ./inp_files/305.got.cif
#   From: 2010.03.12/outbox.cif.g09.slc.cpg/sg174_cif.got.tgz:305.got - 2010.04.02 06:54:58.
