data_PCOD8324478
_publ_section_title
;
Structure prediction by ZEFSAII (Michael W. Deem and Ramdas Pophale) SiO2 
 PCOD8324478
Probable space group: P 61
;
_chemical_formula_sum "Si O2"
_cell_formula_units_Z 36
_cell_length_a 12.654392
_cell_length_b 12.654392
_cell_length_c 11.456932
_cell_angle_alpha 90.000000
_cell_angle_beta 90.000000
_cell_angle_gamma 120.000000
_cell_volume 1588.845010
_symmetry_space_group_name_H-M "P 61"
_symmetry_group_IT_number 169
_symmetry_cell_setting 'hexagonal'
loop_
_space_group_symop_operation_xyz
x,y,z
x-y,x,1/6+z
-y,x-y,1/3+z
-x,-y,1/2+z
-x+y,-x,2/3+z
y,-x+y,5/6+z
loop_
_atom_site_type_symbol
_atom_site_label
_atom_site_fract_x
_atom_site_fract_y
_atom_site_fract_z
Si Si1 0.033385 0.637940 0.036030
Si Si2 0.324609 0.706140 0.283242
Si Si3 0.544668 0.667183 0.331786
Si Si4 0.806465 0.993951 0.186322
Si Si5 0.743492 0.132687 0.916742
Si Si6 0.470006 0.293312 0.216794
O O1 0.150991 0.770244 0.030448
O O2 0.960092 0.649080 0.143313
O O3 0.064344 0.530181 0.055770
O O4 0.966207 0.613618 0.909826
O O5 0.458007 0.727750 0.321323
O O6 0.275813 0.753967 0.388653
O O7 0.221052 0.561422 0.272477
O O8 0.325408 0.767957 0.163069
O O9 0.672178 0.745334 0.403565
O O10 0.595138 0.667124 0.201213
O O11 0.842938 0.931989 0.288982
O O12 0.711095 0.886041 0.100056
#
# Coordination Sequence:
#
# PCOD8324478 Si02
#       6
#     6   6   6   6   6   6
#     4  10  23  34  60  90 127 158 214 260 332 384
#     4  10  19  36  60  89 130 151 201 262 335 383
#     4  10  21  38  62  95 123 167 208 270 328 392
#     4  10  23  40  69  93 126 177 231 266 312 389
#     4  10  21  36  61  91 121 162 208 270 316 385
#     4  10  21  36  56  90 123 165 196 266 313 403
#
# _framework density 22.657965999999998
#
# number of rings (size 3 to 8) (size 9 to 14) (size 15 to 20)
#    0.000    2.000    1.667    1.000   18.667    0.000 
#    0.000    0.000    3.667    0.000    0.000    0.000 
#    0.000    0.000    0.000    0.000    0.000    0.000 
#
# Total GULP energy -445994.666895 kJ/mol
# GULP energy per Si atom -12388.740747 kJ/mol
# Density = 2.260640 g / cm^3
# Si number density = 22.657966 Si / 1000 Ang^3
#
#
#
# Elastic Constant Matrix: (Units=GPa)
#
#
# Indices 1 2 3 4 5 6 
#
# 1 115.9288 37.5503 0.8055 0.0000 0.0000 0.0000
# 2 37.5503 115.9288 0.8055 0.0000 0.0000 0.0000
# 3 0.8055 0.8055 4.4634 0.0000 0.0000 0.0000
# 4 0.0000 0.0000 0.0000 27.1567 0.0000 0.0000
# 5 0.0000 0.0000 0.0000 0.0000 27.1567 0.0000
# 6 0.0000 0.0000 0.0000 0.0000 0.0000 39.1892
#
#
#
# Elastic Compliance Matrix: (Units=1/GPa)
#
#
# Indices 1 2 3 4 5 6 
#
# 1 0.009643 -0.003115 -0.001178 0.000000 0.000000 0.000000
# 2 -0.003115 0.009643 -0.001178 0.000000 0.000000 0.000000
# 3 -0.001178 -0.001178 0.224469 0.000000 0.000000 0.000000
# 4 0.000000 0.000000 0.000000 0.036823 0.000000 0.000000
# 5 0.000000 0.000000 0.000000 0.000000 0.036823 0.000000
# 6 0.000000 0.000000 0.000000 0.000000 0.000000 0.025517
#
#
# Mechanical properties :
#
#
# Convention : Reuss Voigt Hill
#
# Bulk Modulus (GPa) = 4.29531 34.96040 19.62786
# Shear Modulus (GPa) = 11.58839 31.84449 21.71644
#
# Velocity S-wave (km/s) = 2.26398 3.75299 3.09924
# Velocity P-wave (km/s) = 2.95533 5.85176 4.63557
#
# Compressibility (1/GPa) = 0.23281213
#
# Stress axis : x y z
#
# Youngs Moduli (GPa) = 103.69937 103.69937 4.45496
#
# Poissons Ratio (x) = 0.32306 0.00525
# Poissons Ratio (y) = 0.32306 0.00525
# Poissons Ratio (z) = 0.12217 0.12217
#
# Static dielectric constant tensor:
#      x y z
#    x 4.349700 0.000000 0.000000 
#    y 0.000000 4.349700 0.000000 
#    z 0.000000 0.000000 4.062320 
# 
# 
# High freq. dielectric constant tensor:
#      x y z
#    x 1.892270 0.000000 0.000000 
#    y 0.000000 1.892270 0.000000 
#    z 0.000000 0.000000 1.872980 
# 
# From -- ./inp_files/1167.got.cif
#   From: 2010.03.12/outbox.cif.g09.slc.cpg/sg169_cif.got.tgz:1167.got - 2010.04.02 06:46:06.
