data_PCOD8324707
_publ_section_title
;
Structure prediction by ZEFSAII (Michael W. Deem and Ramdas Pophale) SiO2 
 PCOD8324707
Probable space group: P 65
;
_chemical_formula_sum "Si O2"
_cell_formula_units_Z 36
_cell_length_a 11.935820
_cell_length_b 11.935820
_cell_length_c 13.395607
_cell_angle_alpha 90.000000
_cell_angle_beta 90.000000
_cell_angle_gamma 120.000000
_cell_volume 1652.713410
_symmetry_space_group_name_H-M "P 65"
_symmetry_group_IT_number 170
_symmetry_cell_setting 'hexagonal'
loop_
_space_group_symop_operation_xyz
x,y,z
x-y,x,5/6+z
-y,x-y,2/3+z
-x,-y,1/2+z
-x+y,-x,1/3+z
y,-x+y,1/6+z
loop_
_atom_site_type_symbol
_atom_site_label
_atom_site_fract_x
_atom_site_fract_y
_atom_site_fract_z
Si Si1 0.982546 0.526945 0.380570
Si Si2 0.868294 0.510635 0.182627
Si Si3 0.022165 0.828353 0.704973
Si Si4 0.641451 0.374048 0.573219
Si Si5 0.560150 0.632626 0.767502
Si Si6 0.406847 0.175511 0.691500
O O1 0.133771 0.605492 0.349885
O O2 0.896965 0.550251 0.298772
O O3 0.956081 0.579900 0.482816
O O4 0.940285 0.374618 0.383959
O O5 0.733956 0.374644 0.167590
O O6 0.855787 0.624346 0.125592
O O7 0.984119 0.490895 0.146946
O O8 0.138478 0.839824 0.773877
O O9 0.931656 0.853874 0.781016
O O10 0.947450 0.688988 0.653932
O O11 0.780965 0.454493 0.623715
O O12 0.536493 0.304771 0.659127
#
# Coordination Sequence:
#
# PCOD8324707 Si02
#       6
#     6   6   6   6   6   6
#     4  11  23  38  62 104 144 191 234 303 372 435
#     4  11  25  39  68 101 152 189 234 304 373 442
#     4  12  28  51  78 106 141 207 267 315 375 469
#     4  11  23  40  63 101 146 179 247 297 360 448
#     4  12  24  39  72 104 148 195 240 312 379 451
#     4  11  23  43  69 104 143 189 244 301 371 451
#
# _framework density 21.782359
#
# number of rings (size 3 to 8) (size 9 to 14) (size 15 to 20)
#    0.000    0.667    6.667    2.000    2.333    0.000 
#    0.000    3.333    0.000    0.000    0.000    0.000 
#    0.000    0.000    0.000    0.000    0.000    0.000 
#
# Total GULP energy -446254.380801 kJ/mol
# GULP energy per Si atom -12395.955022 kJ/mol
# Density = 2.173278 g / cm^3
# Si number density = 21.782359 Si / 1000 Ang^3
#
#
#
# Elastic Constant Matrix: (Units=GPa)
#
#
# Indices 1 2 3 4 5 6 
#
# 1 101.4886 52.6635 34.6103 0.0000 0.0000 0.0000
# 2 52.6635 101.4886 34.6103 0.0000 0.0000 0.0000
# 3 34.6103 34.6103 122.2302 0.0000 0.0000 0.0000
# 4 0.0000 0.0000 0.0000 39.6917 0.0000 0.0000
# 5 0.0000 0.0000 0.0000 0.0000 39.6917 0.0000
# 6 0.0000 0.0000 0.0000 0.0000 0.0000 24.4125
#
#
#
# Elastic Compliance Matrix: (Units=1/GPa)
#
#
# Indices 1 2 3 4 5 6 
#
# 1 0.013957 -0.006525 -0.002104 0.000000 0.000000 0.000000
# 2 -0.006525 0.013957 -0.002104 0.000000 0.000000 0.000000
# 3 -0.002104 -0.002104 0.009373 0.000000 0.000000 0.000000
# 4 0.000000 0.000000 0.000000 0.025194 0.000000 0.000000
# 5 0.000000 0.000000 0.000000 0.000000 0.025194 0.000000
# 6 0.000000 0.000000 0.000000 0.000000 0.000000 0.040963
#
#
# Mechanical properties :
#
#
# Convention : Reuss Voigt Hill
#
# Bulk Modulus (GPa) = 63.21335 63.21952 63.21643
# Shear Modulus (GPa) = 32.17971 34.31409 33.24690
#
# Velocity S-wave (km/s) = 3.84777 3.97333 3.91106
# Velocity P-wave (km/s) = 6.98741 7.08068 7.03420
#
# Compressibility (1/GPa) = 0.01581944
#
# Stress axis : x y z
#
# Youngs Moduli (GPa) = 71.65030 71.65030 106.68874
#
# Poissons Ratio (x) = 0.46749 0.22452
# Poissons Ratio (y) = 0.46749 0.22452
# Poissons Ratio (z) = 0.15078 0.15078
#
# Static dielectric constant tensor:
#      x y z
#    x 3.908530 0.000000 0.000000 
#    y 0.000000 3.908530 0.000000 
#    z 0.000000 0.000000 4.274820 
# 
# 
# High freq. dielectric constant tensor:
#      x y z
#    x 1.841090 0.000000 0.000000 
#    y 0.000000 1.841090 0.000000 
#    z 0.000000 0.000000 1.873320 
# 
# From -- ./inp_files/1215.got.cif
#   From: 2010.03.12/outbox.cif.g09.slc.cpg/sg170_cif.got.tgz:1215.got - 2010.04.02 06:47:37.
