data_PCOD8324161
_publ_section_title
;
Structure prediction by ZEFSAII (Michael W. Deem and Ramdas Pophale) SiO2 
 PCOD8324161
Probable space group: R -3 M
;
_chemical_formula_sum "Si O2"
_cell_formula_units_Z 144
_cell_length_a 31.756119
_cell_length_b 31.756119
_cell_length_c 9.981440
_cell_angle_alpha 90.000000
_cell_angle_beta 90.000000
_cell_angle_gamma 120.000000
_cell_volume 8717.233389
_symmetry_space_group_name_H-M "R -3 M"
_symmetry_group_IT_number 166
_symmetry_cell_setting 'hexagonal'
loop_
_space_group_symop_operation_xyz
x,y,z
-y,x-y,z
-x+y,-x,z
x-y,-y,-z
-x,-x+y,-z
y,x,-z
-x,-y,-z
y,-x+y,-z
x-y,x,-z
-x+y,y,z
x,x-y,z
-y,-x,z
2/3+x,1/3+y,1/3+z
2/3-y,1/3+x-y,1/3+z
2/3-x+y,1/3-x,1/3+z
2/3+x-y,1/3-y,1/3-z
2/3-x,1/3-x+y,1/3-z
2/3+y,1/3+x,1/3-z
2/3-x,1/3-y,1/3-z
2/3+y,1/3-x+y,1/3-z
2/3+x-y,1/3+x,1/3-z
2/3-x+y,1/3+y,1/3+z
2/3+x,1/3+x-y,1/3+z
2/3-y,1/3-x,1/3+z
1/3+x,2/3+y,2/3+z
1/3-y,2/3+x-y,2/3+z
1/3-x+y,2/3-x,2/3+z
1/3+x-y,2/3-y,2/3-z
1/3-x,2/3-x+y,2/3-z
1/3+y,2/3+x,2/3-z
1/3-x,2/3-y,2/3-z
1/3+y,2/3-x+y,2/3-z
1/3+x-y,2/3+x,2/3-z
1/3-x+y,2/3+y,2/3+z
1/3+x,2/3+x-y,2/3+z
1/3-y,2/3-x,2/3+z
loop_
_atom_site_type_symbol
_atom_site_label
_atom_site_fract_x
_atom_site_fract_y
_atom_site_fract_z
Si Si1 0.780513 0.722557 0.709445
Si Si2 0.946983 0.214028 0.266385
Si Si3 0.129259 0.517270 0.175211
Si Si4 0.296309 0.197276 0.993134
O O1 0.753659 0.666667 0.666667
O O2 0.741675 0.740554 0.718912
O O3 0.821764 0.754933 0.603030
O O4 0.806548 0.729490 0.852410
O O5 0.939333 0.167047 0.345998
O O6 0.913567 0.233120 0.330841
O O7 0.934910 0.197185 0.112577
O O8 0.149190 0.574595 0.159784
O O9 0.174728 0.508061 0.166667
O O10 0.306236 0.153118 0.012148
#
# Coordination Sequence:
#
# PCOD8324161 Si02
#       4
#    36  36  36  36
#     4  11  22  33  50  74 101 134 168 211 253 297
#     4  10  21  33  47  71  97 130 171 211 252 292
#     4  10  20  36  54  75  99 128 166 206 253 304
#     4  11  21  34  51  68  94 137 175 212 254 298
#
# _framework density 16.519002
#
# number of rings (size 3 to 8) (size 9 to 14) (size 15 to 20)
#    0.000    1.500    2.500    4.500    0.000    5.000 
#    0.000    0.000    0.000    0.250    0.000    0.000 
#    0.000    0.000    0.000    0.000    0.000   52.000 
#
# Total GULP energy -595308.394354 kJ/mol
# GULP energy per Si atom -12402.258216 kJ/mol
# Density = 1.648140 g / cm^3
# Si number density = 16.519002 Si / 1000 Ang^3
#
#
#
# Elastic Constant Matrix: (Units=GPa)
#
#
# Indices 1 2 3 4 5 6 
#
# 1 91.9756 58.0797 39.1231 -0.2149 -0.1443 -0.0082
# 2 58.0797 92.1073 39.2892 0.2700 -0.0298 0.0085
# 3 39.1231 39.2892 109.1473 0.0935 -0.1899 0.0102
# 4 -0.2149 0.2700 0.0935 15.5770 0.0761 -0.0226
# 5 -0.1443 -0.0298 -0.1899 0.0761 15.4868 -0.2472
# 6 -0.0082 0.0085 0.0102 -0.0226 -0.2472 16.9785
#
#
#
# Elastic Compliance Matrix: (Units=1/GPa)
#
#
# Indices 1 2 3 4 5 6 
#
# 1 0.018827 -0.010626 -0.002924 0.000461 0.000117 0.000018
# 2 -0.010626 0.018824 -0.002967 -0.000455 -0.000097 -0.000015
# 3 -0.002924 -0.002967 0.011278 -0.000057 0.000106 -0.000005
# 4 0.000461 -0.000455 -0.000057 0.064213 -0.000311 0.000081
# 5 0.000117 -0.000097 0.000106 -0.000311 0.064590 0.000940
# 6 0.000018 -0.000015 -0.000005 0.000081 0.000940 0.058912
#
#
# Mechanical properties :
#
#
# Convention : Reuss Voigt Hill
#
# Bulk Modulus (GPa) = 62.90812 62.91267 62.91039
# Shear Modulus (GPa) = 18.18333 20.05768 19.12050
#
# Velocity S-wave (km/s) = 3.32136 3.48834 3.40587
# Velocity P-wave (km/s) = 7.27142 7.37512 7.32345
#
# Compressibility (1/GPa) = 0.01589620
#
# Stress axis : x y z
#
# Youngs Moduli (GPa) = 53.11408 53.12293 88.66686
#
# Poissons Ratio (x) = 0.56449 0.25924
# Poissons Ratio (y) = 0.56439 0.26308
# Poissons Ratio (z) = 0.15529 0.15762
#
# Static dielectric constant tensor:
#      x y z
#    x 2.982380 0.000000 -0.000320 
#    y 0.000000 2.982520 0.000010 
#    z -0.000320 0.000010 3.482510 
# 
# 
# High freq. dielectric constant tensor:
#      x y z
#    x 1.615510 0.000000 -0.000020 
#    y 0.000000 1.615520 0.000000 
#    z -0.000020 0.000000 1.660670 
# 
# From -- ./inp_files/1819.got.cif
#   From: 2010.03.12/outbox.cif.g09.slc.cpg/sg166_1_cif.got.tgz:1819.got - 2010.04.02 06:38:31.
