data_PCOD8324264
_publ_section_title
;
Structure prediction by ZEFSAII (Michael W. Deem and Ramdas Pophale) SiO2 
 PCOD8324264
Probable space group: R -3 C 
;
_chemical_formula_sum "Si O2"
_cell_formula_units_Z 264
_cell_length_a 29.618773
_cell_length_b 29.618773
_cell_length_c 19.214916
_cell_angle_alpha 90.000000
_cell_angle_beta 90.000000
_cell_angle_gamma 120.000000
_cell_volume 14598.332411
_symmetry_space_group_name_H-M "R -3 C "
_symmetry_group_IT_number 167
_symmetry_cell_setting 'hexagonal'
loop_
_space_group_symop_operation_xyz
x,y,z
-y,x-y,z
-x+y,-x,z
x-y,-y,1/2-z
-x,-x+y,1/2-z
y,x,1/2-z
-x,-y,-z
y,-x+y,-z
x-y,x,-z
-x+y,y,1/2+z
x,x-y,1/2+z
-y,-x,1/2+z
2/3+x,1/3+y,1/3+z
2/3-y,1/3+x-y,1/3+z
2/3-x+y,1/3-x,1/3+z
2/3+x-y,1/3-y,5/6-z
2/3-x,1/3-x+y,5/6-z
2/3+y,1/3+x,5/6-z
2/3-x,1/3-y,1/3-z
2/3+y,1/3-x+y,1/3-z
2/3+x-y,1/3+x,1/3-z
2/3-x+y,1/3+y,5/6+z
2/3+x,1/3+x-y,5/6+z
2/3-y,1/3-x,5/6+z
1/3+x,2/3+y,2/3+z
1/3-y,2/3+x-y,2/3+z
1/3-x+y,2/3-x,2/3+z
1/3+x-y,2/3-y,1/6-z
1/3-x,2/3-x+y,1/6-z
1/3+y,2/3+x,1/6-z
1/3-x,2/3-y,2/3-z
1/3+y,2/3-x+y,2/3-z
1/3+x-y,2/3+x,2/3-z
1/3-x+y,2/3+y,1/6+z
1/3+x,2/3+x-y,1/6+z
1/3-y,2/3-x,1/6+z
loop_
_atom_site_type_symbol
_atom_site_label
_atom_site_fract_x
_atom_site_fract_y
_atom_site_fract_z
Si Si1 0.938827 0.694427 0.485426
Si Si2 0.493934 0.123362 0.989233
Si Si3 0.739451 0.812978 0.705232
Si Si4 0.870192 0.119075 0.428687
Si Si5 0.000000 0.000000 0.830876
Si Si6 0.299191 0.556245 0.773423
Si Si7 0.632265 0.450702 0.333639
Si Si8 0.296619 0.867318 0.169773
O O1 0.944372 0.666667 0.416667
O O2 0.906233 0.650654 0.543768
O O3 0.902327 0.718946 0.469925
O O4 0.997925 0.737081 0.508190
O O5 0.543500 0.181782 0.989035
O O6 0.482818 0.092647 0.916106
O O7 0.443955 0.128727 0.004049
O O8 0.502092 0.090486 0.050319
O O9 0.741278 0.857934 0.654280
O O10 0.894395 0.083420 0.451679
O O11 0.912666 0.178428 0.452297
O O12 0.940301 0.965383 0.853314
O O13 0.000000 0.000000 0.750000
O O14 0.338578 0.574202 0.708381
O O15 0.240985 0.524582 0.742975
O O16 0.669786 0.510653 0.349687
#
# Coordination Sequence:
#
# PCOD8324264 Si02
#       8
#    36  36  36  36  12  36  36  36
#     4   9  17  33  54  82 113 140 182 238 281 344
#     4  10  19  32  59  80 107 147 193 235 279 339
#     4  10  19  33  56  81 112 141 186 235 292 343
#     4  10  17  31  54  82 110 141 185 233 280 333
#     4  12  30  34  41  67 117 156 187 236 283 321
#     4  11  21  36  48  73 106 146 193 232 285 322
#     4  10  17  30  54  74  98 132 191 237 265 321
#     4  10  18  32  56  85 106 141 191 236 274 335
#
# _framework density 18.084257999999998
#
# number of rings (size 3 to 8) (size 9 to 14) (size 15 to 20)
#    0.000    1.909    8.182    0.818    1.909    0.545 
#    0.000    0.682    9.000    0.000    0.000    0.000 
#    4.091    0.000    0.000    0.000    0.000    0.000 
#
# Total GULP energy -1090469.131769 kJ/mol
# GULP energy per Si atom -12391.694679 kJ/mol
# Density = 1.804310 g / cm^3
# Si number density = 18.084258 Si / 1000 Ang^3
#
#
#
# Elastic Constant Matrix: (Units=GPa)
#
#
# Indices 1 2 3 4 5 6 
#
# 1 73.1513 23.4897 48.4110 5.1318 0.0000 0.0000
# 2 23.4897 73.1513 48.4110 -5.1318 0.0000 0.0000
# 3 48.4110 48.4110 88.1703 0.0000 0.0000 0.0000
# 4 5.1318 -5.1318 0.0000 23.6580 0.0000 0.0000
# 5 0.0000 0.0000 0.0000 0.0000 23.6580 5.1318
# 6 0.0000 0.0000 0.0000 0.0000 5.1318 24.8308
#
#
#
# Elastic Compliance Matrix: (Units=1/GPa)
#
#
# Indices 1 2 3 4 5 6 
#
# 1 0.022040 0.000959 -0.012628 -0.004573 0.000000 0.000000
# 2 0.000959 0.022040 -0.012628 0.004573 0.000000 0.000000
# 3 -0.012628 -0.012628 0.025209 0.000000 0.000000 0.000000
# 4 -0.004573 0.004573 0.000000 0.044253 0.000000 0.000000
# 5 0.000000 0.000000 0.000000 0.000000 0.044253 -0.009146
# 6 0.000000 0.000000 0.000000 0.000000 -0.009146 0.042163
#
#
# Mechanical properties :
#
#
# Convention : Reuss Voigt Hill
#
# Bulk Modulus (GPa) = 48.32030 52.78850 50.55440
# Shear Modulus (GPa) = 19.57326 22.04010 20.80668
#
# Velocity S-wave (km/s) = 3.29346 3.49484 3.39564
# Velocity P-wave (km/s) = 6.42184 6.74825 6.58707
#
# Compressibility (1/GPa) = 0.02069524
#
# Stress axis : x y z
#
# Youngs Moduli (GPa) = 45.37144 45.37144 39.66861
#
# Poissons Ratio (x) = -0.04351 0.50094
# Poissons Ratio (y) = -0.04351 0.50094
# Poissons Ratio (z) = 0.57295 0.57295
#
# Static dielectric constant tensor:
#      x y z
#    x 3.317390 0.000000 0.000000 
#    y 0.000000 3.317390 0.000000 
#    z 0.000000 0.000000 3.426270 
# 
# 
# High freq. dielectric constant tensor:
#      x y z
#    x 1.690660 0.000000 0.000000 
#    y 0.000000 1.690660 0.000000 
#    z 0.000000 0.000000 1.678140 
# 
# From -- ./inp_files/4754.got.cif
#   From: 2010.03.12/outbox.cif.g09.slc.cpg/sg167_3_cif.got.tgz:4754.got - 2010.04.02 06:42:56.
