data_PCOD8324737
_publ_section_title
;
Structure prediction by ZEFSAII (Michael W. Deem and Ramdas Pophale) SiO2 
 PCOD8324737
Probable space group: P 62
;
_chemical_formula_sum "Si O2"
_cell_formula_units_Z 36
_cell_length_a 10.849962
_cell_length_b 10.849962
_cell_length_c 16.843016
_cell_angle_alpha 90.000000
_cell_angle_beta 90.000000
_cell_angle_gamma 120.000000
_cell_volume 1717.144832
_symmetry_space_group_name_H-M "P 62"
_symmetry_group_IT_number 171
_symmetry_cell_setting 'hexagonal'
loop_
_space_group_symop_operation_xyz
x,y,z
x-y,x,1/3+z
-y,x-y,2/3+z
-x,-y,z
-x+y,-x,1/3+z
y,-x+y,2/3+z
loop_
_atom_site_type_symbol
_atom_site_label
_atom_site_fract_x
_atom_site_fract_y
_atom_site_fract_z
Si Si1 0.130936 0.345559 0.356270
Si Si2 0.642401 0.006190 0.534044
Si Si3 0.176329 0.732708 0.847181
Si Si4 0.289889 0.852221 0.166625
Si Si5 0.947956 0.840788 0.084778
Si Si6 0.893845 0.674793 0.668585
O O1 0.185467 0.446890 0.434112
O O2 0.259014 0.321212 0.330005
O O3 0.096845 0.417822 0.282161
O O4 0.986882 0.203229 0.378167
O O5 0.598307 0.844746 0.553854
O O6 0.500000 0.000000 0.495738
O O7 0.784644 0.066179 0.479350
O O8 0.180713 0.590303 0.861787
O O9 0.012291 0.691666 0.843149
O O10 0.246482 0.835158 0.921135
O O11 0.260650 0.820414 0.072651
O O12 0.057223 0.857920 0.015154
O O13 0.000000 0.000000 0.123125
#
# Coordination Sequence:
#
# PCOD8324737 Si02
#       6
#     6   6   6   6   6   6
#     4  10  20  35  60  86 119 153 206 257 311 366
#     4  11  23  40  55  90 132 158 191 270 325 381
#     4  10  19  37  62  87 112 165 209 251 300 374
#     4   9  21  38  56  86 121 159 211 242 302 384
#     4   9  19  37  63  91 116 159 214 267 310 367
#     4   9  18  35  62  89 114 152 210 265 303 357
#
# _framework density 20.965035
#
# number of rings (size 3 to 8) (size 9 to 14) (size 15 to 20)
#    0.000    2.333    0.000    3.000    0.000    3.333 
#   21.000    0.000    7.333    0.000    0.000    0.000 
#    0.000    0.000    0.000    0.000    0.000    0.000 
#
# Total GULP energy -446097.432821 kJ/mol
# GULP energy per Si atom -12391.595356 kJ/mol
# Density = 2.091732 g / cm^3
# Si number density = 20.965035 Si / 1000 Ang^3
#
#
#
# Elastic Constant Matrix: (Units=GPa)
#
#
# Indices 1 2 3 4 5 6 
#
# 1 60.7292 19.5749 20.7948 0.0000 0.0000 0.0000
# 2 19.5749 60.7292 20.7948 0.0000 0.0000 0.0000
# 3 20.7948 20.7948 104.8284 0.0000 0.0000 0.0000
# 4 0.0000 0.0000 0.0000 21.7026 0.0000 0.0000
# 5 0.0000 0.0000 0.0000 0.0000 21.7026 0.0000
# 6 0.0000 0.0000 0.0000 0.0000 0.0000 20.5771
#
#
#
# Elastic Compliance Matrix: (Units=1/GPa)
#
#
# Indices 1 2 3 4 5 6 
#
# 1 0.019089 -0.005210 -0.002753 0.000000 0.000000 0.000000
# 2 -0.005210 0.019089 -0.002753 0.000000 0.000000 0.000000
# 3 -0.002753 -0.002753 0.010632 0.000000 0.000000 0.000000
# 4 0.000000 0.000000 0.000000 0.046077 0.000000 0.000000
# 5 0.000000 0.000000 0.000000 0.000000 0.046077 0.000000
# 6 0.000000 0.000000 0.000000 0.000000 0.000000 0.048598
#
#
# Mechanical properties :
#
#
# Convention : Reuss Voigt Hill
#
# Bulk Modulus (GPa) = 36.52791 38.73510 37.63151
# Shear Modulus (GPa) = 22.71492 23.80460 23.25976
#
# Velocity S-wave (km/s) = 3.29518 3.37329 3.33446
# Velocity P-wave (km/s) = 5.65143 5.80416 5.72830
#
# Compressibility (1/GPa) = 0.02737633
#
# Stress axis : x y z
#
# Youngs Moduli (GPa) = 52.38714 52.38714 94.05876
#
# Poissons Ratio (x) = 0.27295 0.25895
# Poissons Ratio (y) = 0.27295 0.25895
# Poissons Ratio (z) = 0.14423 0.14423
#
# Static dielectric constant tensor:
#      x y z
#    x 3.731820 0.000000 0.000000 
#    y 0.000000 3.731820 0.000000 
#    z 0.000000 0.000000 3.637980 
# 
# 
# High freq. dielectric constant tensor:
#      x y z
#    x 1.812270 0.000000 0.000000 
#    y 0.000000 1.812270 0.000000 
#    z 0.000000 0.000000 1.807340 
# 
# From -- ./inp_files/3615.got.cif
#   From: 2010.03.12/outbox.cif.g09.slc.cpg/sg171_2_cif.got.tgz:3615.got - 2010.04.02 06:49:11.
