data_PCOD8324141
_publ_section_title
;
Structure prediction by ZEFSAII (Michael W. Deem and Ramdas Pophale) SiO2 
 PCOD8324141
Probable space group: R -3 M
;
_chemical_formula_sum "Si O2"
_cell_formula_units_Z 108
_cell_length_a 12.650410
_cell_length_b 12.650410
_cell_length_c 45.450410
_cell_angle_alpha 90.000000
_cell_angle_beta 90.000000
_cell_angle_gamma 120.000000
_cell_volume 6299.087475
_symmetry_space_group_name_H-M "R -3 M"
_symmetry_group_IT_number 166
_symmetry_cell_setting 'hexagonal'
loop_
_space_group_symop_operation_xyz
x,y,z
-y,x-y,z
-x+y,-x,z
x-y,-y,-z
-x,-x+y,-z
y,x,-z
-x,-y,-z
y,-x+y,-z
x-y,x,-z
-x+y,y,z
x,x-y,z
-y,-x,z
2/3+x,1/3+y,1/3+z
2/3-y,1/3+x-y,1/3+z
2/3-x+y,1/3-x,1/3+z
2/3+x-y,1/3-y,1/3-z
2/3-x,1/3-x+y,1/3-z
2/3+y,1/3+x,1/3-z
2/3-x,1/3-y,1/3-z
2/3+y,1/3-x+y,1/3-z
2/3+x-y,1/3+x,1/3-z
2/3-x+y,1/3+y,1/3+z
2/3+x,1/3+x-y,1/3+z
2/3-y,1/3-x,1/3+z
1/3+x,2/3+y,2/3+z
1/3-y,2/3+x-y,2/3+z
1/3-x+y,2/3-x,2/3+z
1/3+x-y,2/3-y,2/3-z
1/3-x,2/3-x+y,2/3-z
1/3+y,2/3+x,2/3-z
1/3-x,2/3-y,2/3-z
1/3+y,2/3-x+y,2/3-z
1/3+x-y,2/3+x,2/3-z
1/3-x+y,2/3+y,2/3+z
1/3+x,2/3+x-y,2/3+z
1/3-y,2/3-x,2/3+z
loop_
_atom_site_type_symbol
_atom_site_label
_atom_site_fract_x
_atom_site_fract_y
_atom_site_fract_z
Si Si1 0.419886 0.333482 0.639393
Si Si2 0.245787 0.245559 0.081560
Si Si3 0.666797 0.575738 0.866700
O O1 0.439870 0.219935 0.634637
O O2 0.549279 0.450722 0.645935
O O3 0.333334 0.315490 0.666667
O O4 0.357794 0.348268 0.610331
O O5 0.123312 0.246623 0.073711
O O6 0.302642 0.310604 0.112477
O O7 0.213864 0.106932 0.084010
O O8 0.766408 0.532815 0.870170
O O9 0.536816 0.463185 0.875847
O O10 0.666667 0.618678 0.833334
#
# Coordination Sequence:
#
# PCOD8324141 Si02
#       3
#    36  36  36
#     4  10  20  34  52  73  97 124 155 192 234 279
#     4  10  20  33  49  69  95 127 161 195 231 274
#     4   9  17  30  49  72  96 122 154 194 239 283
#
# _framework density 17.145340999999998
#
# number of rings (size 3 to 8) (size 9 to 14) (size 15 to 20)
#    0.000    2.333    0.000    3.000    0.000    2.000 
#    0.000    0.000    0.000   16.667    0.000    0.000 
#    0.000    0.000    0.000    0.000    0.000    0.000 
#
# Total GULP energy -446511.878342 kJ/mol
# GULP energy per Si atom -12403.107732 kJ/mol
# Density = 1.710632 g / cm^3
# Si number density = 17.145341 Si / 1000 Ang^3
#
#
#
# Elastic Constant Matrix: (Units=GPa)
#
#
# Indices 1 2 3 4 5 6 
#
# 1 107.6262 68.6826 67.7751 4.3664 -0.0009 0.0000
# 2 68.6826 107.6262 67.7751 -4.3664 0.0009 0.0000
# 3 67.7751 67.7751 113.2484 0.0000 0.0000 0.0000
# 4 4.3664 -4.3664 0.0000 27.2026 0.0000 0.0009
# 5 -0.0009 0.0009 0.0000 0.0000 27.2026 4.3664
# 6 0.0000 0.0000 0.0000 0.0009 4.3664 19.4718
#
#
#
# Elastic Compliance Matrix: (Units=1/GPa)
#
#
# Indices 1 2 3 4 5 6 
#
# 1 0.018571 -0.008066 -0.006287 -0.004276 0.000001 0.000000
# 2 -0.008066 0.018571 -0.006287 0.004276 -0.000001 0.000000
# 3 -0.006287 -0.006287 0.016356 0.000000 0.000000 0.000000
# 4 -0.004276 0.004276 0.000000 0.038134 0.000000 -0.000002
# 5 0.000001 -0.000001 0.000000 0.000000 0.038134 -0.008551
# 6 0.000000 0.000000 0.000000 -0.000002 -0.008551 0.053274
#
#
# Mechanical properties :
#
#
# Convention : Reuss Voigt Hill
#
# Bulk Modulus (GPa) = 81.84765 81.88515 81.86640
# Shear Modulus (GPa) = 21.89213 23.05991 22.47602
#
# Velocity S-wave (km/s) = 3.57719 3.67136 3.62458
# Velocity P-wave (km/s) = 8.05623 8.11387 8.08510
#
# Compressibility (1/GPa) = 0.01221782
#
# Stress axis : x y z
#
# Youngs Moduli (GPa) = 53.84652 53.84652 61.14129
#
# Poissons Ratio (x) = 0.43431 0.38441
# Poissons Ratio (y) = 0.43431 0.38441
# Poissons Ratio (z) = 0.33855 0.33855
#
# Static dielectric constant tensor:
#      x y z
#    x 3.166310 0.000000 0.000000 
#    y 0.000000 3.166310 0.000000 
#    z 0.000000 0.000000 3.336840 
# 
# 
# High freq. dielectric constant tensor:
#      x y z
#    x 1.665380 0.000000 0.000000 
#    y 0.000000 1.665380 0.000000 
#    z 0.000000 0.000000 1.672020 
# 
# From -- ./inp_files/10096.got.cif
#   From: 2010.03.12/outbox.cif.g09.slc.cpg/sg166_6_cif.got.tgz:10096.got - 2010.04.02 06:38:31.
