data_PCOD8324979
_publ_section_title
;
Structure prediction by ZEFSAII (Michael W. Deem and Ramdas Pophale) SiO2 
 PCOD8324979
Probable space group: P -6
;
_chemical_formula_sum "Si O2"
_cell_formula_units_Z 32
_cell_length_a 14.400963
_cell_length_b 14.400963
_cell_length_c 8.549173
_cell_angle_alpha 90.000000
_cell_angle_beta 90.000000
_cell_angle_gamma 120.000000
_cell_volume 1535.457522
_symmetry_space_group_name_H-M "P -6"
_symmetry_group_IT_number 174
_symmetry_cell_setting 'hexagonal'
loop_
_space_group_symop_operation_xyz
x,y,z
-x+y,-x,-z
-y,x-y,z
x,y,-z
-x+y,-x,z
-y,x-y,-z
loop_
_atom_site_type_symbol
_atom_site_label
_atom_site_fract_x
_atom_site_fract_y
_atom_site_fract_z
Si Si1 0.880534 0.486540 0.819870
Si Si2 0.000000 0.000000 0.814408
Si Si3 0.218666 0.013987 0.816083
Si Si4 0.264604 0.840431 0.682390
Si Si5 0.097995 0.600018 0.682373
Si Si6 0.731253 0.559560 0.318401
O O1 0.882381 0.379182 0.776771
O O2 0.794358 0.496614 0.714712
O O3 0.997493 0.585831 0.782748
O O4 0.850686 0.486636 0.000000
O O5 0.996086 0.104198 0.752630
O O6 0.000000 0.000000 0.000000
O O7 0.316951 0.116622 0.733831
O O8 0.220232 0.905673 0.777735
O O9 0.229725 0.034484 0.000000
O O10 0.259529 0.863172 0.500000
O O11 0.195506 0.715806 0.723442
O O12 0.383959 0.873915 0.734635
O O13 0.068654 0.589472 0.500000
O O14 0.703513 0.553337 0.500000
#
# Coordination Sequence:
#
# PCOD8324979 Si02
#       6
#     6   2   6   6   6   6
#     4  12  25  42  65  96 129 167 210 260 319 390
#     4   9  24  45  64  89 127 171 217 272 331 375
#     4  11  23  43  67  94 127 171 218 271 327 384
#     4  10  21  39  64  94 130 172 213 261 317 382
#     4  10  21  39  63  94 131 170 212 258 317 382
#     4  12  25  44  67  95 130 169 210 266 323 387
#
# _framework density 20.840693999999999
#
# number of rings (size 3 to 8) (size 9 to 14) (size 15 to 20)
#    0.000    1.125    1.875    4.688    2.625    2.250 
#    0.000    2.812    0.000    2.250    0.000    0.000 
#    0.000    0.000    0.000    0.000    0.000    0.000 
#
# Total GULP energy -396994.910857 kJ/mol
# GULP energy per Si atom -12406.090964 kJ/mol
# Density = 2.079326 g / cm^3
# Si number density = 20.840694 Si / 1000 Ang^3
#
#
#
# Elastic Constant Matrix: (Units=GPa)
#
#
# Indices 1 2 3 4 5 6 
#
# 1 121.5218 37.5424 25.6376 0.0000 0.0000 0.0000
# 2 37.5424 121.5218 25.6376 0.0000 0.0000 0.0000
# 3 25.6376 25.6376 58.3142 0.0000 0.0000 0.0000
# 4 0.0000 0.0000 0.0000 29.5314 0.0000 0.0000
# 5 0.0000 0.0000 0.0000 0.0000 29.5314 0.0000
# 6 0.0000 0.0000 0.0000 0.0000 0.0000 41.9897
#
#
#
# Elastic Compliance Matrix: (Units=1/GPa)
#
#
# Indices 1 2 3 4 5 6 
#
# 1 0.009616 -0.002291 -0.003220 0.000000 0.000000 0.000000
# 2 -0.002291 0.009616 -0.003220 0.000000 0.000000 0.000000
# 3 -0.003220 -0.003220 0.019980 0.000000 0.000000 0.000000
# 4 0.000000 0.000000 0.000000 0.033862 0.000000 0.000000
# 5 0.000000 0.000000 0.000000 0.000000 0.033862 0.000000
# 6 0.000000 0.000000 0.000000 0.000000 0.000000 0.023815
#
#
# Mechanical properties :
#
#
# Convention : Reuss Voigt Hill
#
# Bulk Modulus (GPa) = 45.98029 53.22144 49.60087
# Shear Modulus (GPa) = 32.16134 34.37987 33.27061
#
# Velocity S-wave (km/s) = 3.93262 4.06600 3.99986
# Velocity P-wave (km/s) = 6.53692 6.90187 6.72187
#
# Compressibility (1/GPa) = 0.02174845
#
# Stress axis : x y z
#
# Youngs Moduli (GPa) = 103.99046 103.99046 50.04984
#
# Poissons Ratio (x) = 0.23828 0.16118
# Poissons Ratio (y) = 0.23828 0.16118
# Poissons Ratio (z) = 0.33488 0.33488
#
# Static dielectric constant tensor:
#      x y z
#    x 3.874840 0.000000 0.000000 
#    y 0.000000 3.874840 0.000000 
#    z 0.000000 0.000000 3.648260 
# 
# 
# High freq. dielectric constant tensor:
#      x y z
#    x 1.826420 0.000000 0.000000 
#    y 0.000000 1.826420 0.000000 
#    z 0.000000 0.000000 1.805750 
# 
# From -- ./inp_files/339.got.cif
#   From: 2010.03.12/outbox.cif.g09.slc.cpg/sg174_cif.got.tgz:339.got - 2010.04.02 06:54:58.
