data_PCOD8325281
_publ_section_title
;
Structure prediction by ZEFSAII (Michael W. Deem and Ramdas Pophale) SiO2 
 PCOD8325281
Probable space group: P 6/M
;
_chemical_formula_sum "Si O2"
_cell_formula_units_Z 72
_cell_length_a 22.442675
_cell_length_b 22.442675
_cell_length_c 8.447686
_cell_angle_alpha 90.000000
_cell_angle_beta 90.000000
_cell_angle_gamma 120.000000
_cell_volume 3684.831516
_symmetry_space_group_name_H-M "P 6/M"
_symmetry_group_IT_number 175
_symmetry_cell_setting 'hexagonal'
loop_
_space_group_symop_operation_xyz
x,y,z
x-y,x,z
-y,x-y,z
-x,-y,z
-x+y,-x,z
y,-x+y,z
-x,-y,-z
-x+y,-x,-z
y,-x+y,-z
x,y,-z
x-y,x,-z
-y,x-y,-z
loop_
_atom_site_type_symbol
_atom_site_label
_atom_site_fract_x
_atom_site_fract_y
_atom_site_fract_z
Si Si1 0.124368 0.726923 0.316065
Si Si2 0.267817 0.268910 0.815412
Si Si3 0.990621 0.132869 0.313923
Si Si4 0.800577 0.340531 0.185184
Si Si5 0.671343 0.208421 0.316455
Si Si6 0.750915 0.143398 0.183291
O O1 0.143203 0.740796 0.500000
O O2 0.047430 0.709904 0.284619
O O3 0.135448 0.664720 0.257001
O O4 0.173284 0.794677 0.216525
O O5 0.192015 0.207881 0.775337
O O6 0.323417 0.247731 0.764295
O O7 0.271352 0.285973 0.000000
O O8 0.059942 0.133552 0.262569
O O9 0.989981 0.145025 0.500000
O O10 0.730011 0.284218 0.266202
O O11 0.813575 0.416112 0.217935
O O12 0.794878 0.325283 0.000000
O O13 0.654985 0.208466 0.500000
O O14 0.694755 0.152529 0.282265
O O15 0.732647 0.141860 0.000000
#
# Coordination Sequence:
#
# PCOD8325281 Si02
#       6
#    12  12  12  12  12  12
#     4  11  22  37  58  83 111 143 183 230 277 325
#     4  11  23  38  57  81 110 146 187 228 272 328
#     4  10  21  37  58  84 114 147 184 228 278 330
#     4  11  21  36  57  82 114 149 185 225 276 331
#     4  11  21  35  56  84 115 145 184 230 277 327
#     4  10  21  38  58  81 111 146 185 228 276 328
#
# _framework density 19.539563000000001
#
# number of rings (size 3 to 8) (size 9 to 14) (size 15 to 20)
#    0.000    1.333    0.000    9.000    0.000    6.667 
#    0.000    0.833    0.000    6.000    0.000    0.000 
#    0.000    0.000    0.000    0.000    0.000    0.000 
#
# Total GULP energy -893178.854409 kJ/mol
# GULP energy per Si atom -12405.261867 kJ/mol
# Density = 1.949509 g / cm^3
# Si number density = 19.539563 Si / 1000 Ang^3
#
#
#
# Elastic Constant Matrix: (Units=GPa)
#
#
# Indices 1 2 3 4 5 6 
#
# 1 73.6477 14.0800 19.9596 0.0000 0.0000 0.0000
# 2 14.0800 73.6477 19.9596 0.0000 0.0000 0.0000
# 3 19.9596 19.9596 72.0252 0.0000 0.0000 0.0000
# 4 0.0000 0.0000 0.0000 32.7545 0.0000 0.0000
# 5 0.0000 0.0000 0.0000 0.0000 32.7545 0.0000
# 6 0.0000 0.0000 0.0000 0.0000 0.0000 29.7838
#
#
#
# Elastic Compliance Matrix: (Units=1/GPa)
#
#
# Indices 1 2 3 4 5 6 
#
# 1 0.014916 -0.001872 -0.003615 0.000000 0.000000 0.000000
# 2 -0.001872 0.014916 -0.003615 0.000000 0.000000 0.000000
# 3 -0.003615 -0.003615 0.015887 0.000000 0.000000 0.000000
# 4 0.000000 0.000000 0.000000 0.030530 0.000000 0.000000
# 5 0.000000 0.000000 0.000000 0.000000 0.030530 0.000000
# 6 0.000000 0.000000 0.000000 0.000000 0.000000 0.033575
#
#
# Mechanical properties :
#
#
# Convention : Reuss Voigt Hill
#
# Bulk Modulus (GPa) = 36.34227 36.36877 36.35552
# Shear Modulus (GPa) = 29.80999 30.07998 29.94498
#
# Velocity S-wave (km/s) = 3.91016 3.92783 3.91900
# Velocity P-wave (km/s) = 6.24704 6.26288 6.25497
#
# Compressibility (1/GPa) = 0.02751617
#
# Stress axis : x y z
#
# Youngs Moduli (GPa) = 67.04360 67.04360 62.94288
#
# Poissons Ratio (x) = 0.12550 0.22752
# Poissons Ratio (y) = 0.12550 0.22752
# Poissons Ratio (z) = 0.24234 0.24234
#
# Static dielectric constant tensor:
#      x y z
#    x 3.590400 0.000000 0.000000 
#    y 0.000000 3.590400 0.000000 
#    z 0.000000 0.000000 3.598880 
# 
# 
# High freq. dielectric constant tensor:
#      x y z
#    x 1.759550 0.000000 0.000000 
#    y 0.000000 1.759550 0.000000 
#    z 0.000000 0.000000 1.773470 
# 
# From -- ./inp_files/1229.got.cif
#   From: 2010.03.12/outbox.cif.g09.slc.cpg/sg175_1_cif.got.tgz:1229.got - 2010.04.02 06:55:29.
