data_PCOD8325857
_publ_section_title
;
Structure prediction by ZEFSAII (Michael W. Deem and Ramdas Pophale) SiO2 
 PCOD8325857
Probable space group: P 61 2 2
;
_chemical_formula_sum "Si O2"
_cell_formula_units_Z 78
_cell_length_a 16.978188
_cell_length_b 16.978188
_cell_length_c 13.959272
_cell_angle_alpha 90.000000
_cell_angle_beta 90.000000
_cell_angle_gamma 120.000000
_cell_volume 3484.785715
_symmetry_space_group_name_H-M "P 61 2 2"
_symmetry_group_IT_number 178
_symmetry_cell_setting 'hexagonal'
loop_
_space_group_symop_operation_xyz
x,y,z
x-y,x,1/6+z
-y,x-y,1/3+z
-x,-y,1/2+z
-x+y,-x,2/3+z
y,-x+y,5/6+z
x-y,-y,-z
-x,-x+y,2/3-z
y,x,1/3-z
-y,-x,5/6-z
-x+y,y,1/2-z
x,x-y,1/6-z
loop_
_atom_site_type_symbol
_atom_site_label
_atom_site_fract_x
_atom_site_fract_y
_atom_site_fract_z
Si Si1 0.253894 0.819349 0.518250
Si Si2 0.546569 0.820072 0.375882
Si Si3 0.459843 0.564138 0.654101
Si Si4 0.024789 0.765541 0.729951
Si Si5 0.136420 0.716005 0.983662
Si Si6 0.951540 0.084567 0.697348
Si Si7 0.000000 0.760753 0.333334
O O1 0.227868 0.772133 0.416667
O O2 0.186930 0.741084 0.594479
O O3 0.355109 0.841746 0.541427
O O4 0.246557 0.910168 0.515158
O O5 0.471967 0.844428 0.418150
O O6 0.637698 0.902735 0.419854
O O7 0.539000 0.725926 0.414863
O O8 0.487889 0.487889 0.666667
O O9 0.517382 0.617406 0.560750
O O10 0.067219 0.853849 0.665876
O O11 0.000000 0.789648 0.833334
O O12 0.941525 0.684730 0.672111
O O13 0.214601 0.785400 0.916667
O O14 0.009164 0.075017 0.611477
O O15 0.009109 0.186813 0.740445
#
# Coordination Sequence:
#
# PCOD8325857 Si02
#       7
#    12  12  12  12  12  12   6
#     4  12  28  48  74 103 140 192 241 286 360 442
#     4  11  23  44  73 103 141 185 230 296 357 420
#     4  11  22  48  74 106 144 177 235 303 354 429
#     4  12  21  41  73 106 137 181 242 300 348 409
#     4  10  20  39  70 106 141 175 229 294 362 417
#     4  12  28  48  68 100 147 191 237 297 358 422
#     4  12  26  52  72  94 142 194 242 292 348 436
#
# _framework density 22.383012999999998
#
# number of rings (size 3 to 8) (size 9 to 14) (size 15 to 20)
#    0.000    0.615    6.923    2.308    0.000    1.231 
#   15.231    1.538    0.000    0.000    0.000    0.000 
#    0.000    0.000    0.000    0.000    0.000    0.000 
#
# Total GULP energy -966788.401839 kJ/mol
# GULP energy per Si atom -12394.723101 kJ/mol
# Density = 2.233207 g / cm^3
# Si number density = 22.383013 Si / 1000 Ang^3
#
#
#
# Elastic Constant Matrix: (Units=GPa)
#
#
# Indices 1 2 3 4 5 6 
#
# 1 70.1575 6.3460 16.8153 0.0000 0.0000 0.0000
# 2 6.3460 70.1575 16.8153 0.0000 0.0000 0.0000
# 3 16.8153 16.8153 108.3296 0.0000 0.0000 0.0000
# 4 0.0000 0.0000 0.0000 38.2788 0.0000 0.0000
# 5 0.0000 0.0000 0.0000 0.0000 38.2788 0.0000
# 6 0.0000 0.0000 0.0000 0.0000 0.0000 31.9058
#
#
#
# Elastic Compliance Matrix: (Units=1/GPa)
#
#
# Indices 1 2 3 4 5 6 
#
# 1 0.014850 -0.000821 -0.002178 0.000000 0.000000 0.000000
# 2 -0.000821 0.014850 -0.002178 0.000000 0.000000 0.000000
# 3 -0.002178 -0.002178 0.009907 0.000000 0.000000 0.000000
# 4 0.000000 0.000000 0.000000 0.026124 0.000000 0.000000
# 5 0.000000 0.000000 0.000000 0.000000 0.026124 0.000000
# 6 0.000000 0.000000 0.000000 0.000000 0.000000 0.031342
#
#
# Mechanical properties :
#
#
# Convention : Reuss Voigt Hill
#
# Bulk Modulus (GPa) = 34.18341 36.51087 35.34714
# Shear Modulus (GPa) = 34.89147 35.60388 35.24768
#
# Velocity S-wave (km/s) = 3.95249 3.99264 3.97262
# Velocity P-wave (km/s) = 6.01122 6.13206 6.07194
#
# Compressibility (1/GPa) = 0.02925396
#
# Stress axis : x y z
#
# Youngs Moduli (GPa) = 67.34075 67.34075 100.93769
#
# Poissons Ratio (x) = 0.05531 0.21980
# Poissons Ratio (y) = 0.05531 0.21980
# Poissons Ratio (z) = 0.14664 0.14664
#
# Static dielectric constant tensor:
#      x y z
#    x 3.366730 0.000000 0.000000 
#    y 0.000000 3.366730 0.000000 
#    z 0.000000 0.000000 2.030650 
# 
# 
# High freq. dielectric constant tensor:
#      x y z
#    x 1.882560 0.000000 0.000000 
#    y 0.000000 1.882560 0.000000 
#    z 0.000000 0.000000 1.882540 
# 
# From -- ./inp_files/5987.got.cif
#   From: 2010.03.12/outbox.cif.g09.slc.cpg/sg178_3_cif.got.tgz:5987.got - 2010.04.02 07:02:38.
