data_PCOD8325607
_publ_section_title
;
Structure prediction by ZEFSAII (Michael W. Deem and Ramdas Pophale) SiO2 
 PCOD8325607
Probable space group: P 63/M
;
_chemical_formula_sum "Si O2"
_cell_formula_units_Z 60
_cell_length_a 14.605252
_cell_length_b 14.605252
_cell_length_c 17.846811
_cell_angle_alpha 90.000000
_cell_angle_beta 90.000000
_cell_angle_gamma 120.000000
_cell_volume 3296.927261
_symmetry_space_group_name_H-M "P 63/M"
_symmetry_group_IT_number 176
_symmetry_cell_setting 'hexagonal'
loop_
_space_group_symop_operation_xyz
x,y,z
x-y,x,1/2+z
-y,x-y,z
-x,-y,1/2+z
-x+y,-x,z
y,-x+y,1/2+z
-x,-y,-z
-x+y,-x,1/2-z
y,-x+y,-z
x,y,1/2-z
x-y,x,-z
-y,x-y,1/2-z
loop_
_atom_site_type_symbol
_atom_site_label
_atom_site_fract_x
_atom_site_fract_y
_atom_site_fract_z
Si Si1 0.242592 0.454839 0.417953
Si Si2 0.125071 0.874930 1.000000
Si Si3 0.212247 0.454839 0.917953
Si Si4 0.119303 0.571968 0.835165
Si Si5 0.547336 0.428033 0.835165
O O1 0.172935 0.326637 0.426647
O O2 0.253493 0.506985 0.500000
O O3 0.192098 0.500689 0.360720
O O4 0.357655 0.488211 0.386803
O O5 0.172936 0.846300 0.926647
O O6 0.000001 0.823471 0.991024
O O7 0.130557 0.488212 0.886803
O O8 0.308590 0.500688 0.860720
O O9 0.148548 0.561000 0.750000
O O10 1.000000 0.547143 0.842531
O O11 0.587548 0.439000 0.750000
#
# Coordination Sequence:
#
# PCOD8325607 Si02
#       5
#    12  12  12  12  12
#     4  10  22  35  58  82 117 152 184 232 277 344
#     4  10  21  36  58  82 110 144 191 244 288 328
#     4  10  22  35  58  82 117 152 184 232 277 344
#     4  11  22  37  57  83 117 151 186 227 279 344
#     4  11  22  37  57  83 117 151 186 227 279 344
#
# _framework density 18.198763
#
# number of rings (size 3 to 8) (size 9 to 14) (size 15 to 20)
#    1.200    0.400    0.000    5.800    0.000    1.600 
#    0.000    0.000    0.000    0.000    0.000    0.000 
#    0.000   19.200    0.000    0.000    0.000    0.000 
#
# Total GULP energy -743746.697622 kJ/mol
# GULP energy per Si atom -12395.778294 kJ/mol
# Density = 1.815734 g / cm^3
# Si number density = 18.198763 Si / 1000 Ang^3
#
#
#
# Elastic Constant Matrix: (Units=GPa)
#
#
# Indices 1 2 3 4 5 6 
#
# 1 94.4553 24.0389 14.0125 0.0000 0.0000 0.0000
# 2 24.0389 94.4553 14.0125 0.0000 0.0000 0.0000
# 3 14.0125 14.0125 85.4850 0.0000 0.0000 0.0000
# 4 0.0000 0.0000 0.0000 24.3153 0.0000 0.0000
# 5 0.0000 0.0000 0.0000 0.0000 24.3153 0.0000
# 6 0.0000 0.0000 0.0000 0.0000 0.0000 35.2082
#
#
#
# Elastic Compliance Matrix: (Units=1/GPa)
#
#
# Indices 1 2 3 4 5 6 
#
# 1 0.011490 -0.002711 -0.001439 0.000000 0.000000 0.000000
# 2 -0.002711 0.011490 -0.001439 0.000000 0.000000 0.000000
# 3 -0.001439 -0.001439 0.012170 0.000000 0.000000 0.000000
# 4 0.000000 0.000000 0.000000 0.041126 0.000000 0.000000
# 5 0.000000 0.000000 0.000000 0.000000 0.041126 0.000000
# 6 0.000000 0.000000 0.000000 0.000000 0.000000 0.028402
#
#
# Mechanical properties :
#
#
# Convention : Reuss Voigt Hill
#
# Bulk Modulus (GPa) = 41.71457 42.05814 41.88635
# Shear Modulus (GPa) = 30.30764 31.58985 30.94874
#
# Velocity S-wave (km/s) = 4.08532 4.17084 4.12830
# Velocity P-wave (km/s) = 6.72492 6.80846 6.76682
#
# Compressibility (1/GPa) = 0.02397244
#
# Stress axis : x y z
#
# Youngs Moduli (GPa) = 87.02900 87.02900 82.17086
#
# Poissons Ratio (x) = 0.23592 0.11825
# Poissons Ratio (y) = 0.23592 0.11825
# Poissons Ratio (z) = 0.12525 0.12525
#
# Static dielectric constant tensor:
#      x y z
#    x 3.232820 0.000000 0.000000 
#    y 0.000000 3.232820 0.000000 
#    z 0.000000 0.000000 3.297130 
# 
# 
# High freq. dielectric constant tensor:
#      x y z
#    x 1.705630 0.000000 0.000000 
#    y 0.000000 1.705630 0.000000 
#    z 0.000000 0.000000 1.698360 
# 
# From -- ./inp_files/2649.got.cif
#   From: 2010.06.25/outbox.cif.g09.slc.cpg/sg176_2_cif.got.tgz:2649.got - 2010.06.28 12:15:01.
