data_PCOD8325476
_publ_section_title
;
Structure prediction by ZEFSAII (Michael W. Deem and Ramdas Pophale) SiO2 
 PCOD8325476
Probable space group: P 63/M
;
_chemical_formula_sum "Si O2"
_cell_formula_units_Z 84
_cell_length_a 24.183009
_cell_length_b 24.183009
_cell_length_c 9.417052
_cell_angle_alpha 90.000000
_cell_angle_beta 90.000000
_cell_angle_gamma 120.000000
_cell_volume 4769.427761
_symmetry_space_group_name_H-M "P 63/M"
_symmetry_group_IT_number 176
_symmetry_cell_setting 'hexagonal'
loop_
_space_group_symop_operation_xyz
x,y,z
x-y,x,1/2+z
-y,x-y,z
-x,-y,1/2+z
-x+y,-x,z
y,-x+y,1/2+z
-x,-y,-z
-x+y,-x,1/2-z
y,-x+y,-z
x,y,1/2-z
x-y,x,-z
-y,x-y,1/2-z
loop_
_atom_site_type_symbol
_atom_site_label
_atom_site_fract_x
_atom_site_fract_y
_atom_site_fract_z
Si Si1 0.659311 0.649820 0.582544
Si Si2 0.749396 0.599760 0.584999
Si Si3 0.515266 0.563162 0.918264
Si Si4 0.277293 0.521596 0.580746
Si Si5 0.809172 0.420826 0.418084
Si Si6 0.975813 0.761165 0.084119
Si Si7 0.140471 0.259249 0.411873
O O1 0.669437 0.655283 0.750000
O O2 0.689719 0.607085 0.529510
O O3 0.585936 0.618184 0.537329
O O4 0.698508 0.721989 0.522732
O O5 0.741224 0.579476 0.750000
O O6 0.753303 0.547396 0.489714
O O7 0.814252 0.665751 0.559073
O O8 0.510219 0.550261 0.750000
O O9 0.466721 0.585728 0.972522
O O10 0.500000 0.500000 0.000000
O O11 0.273996 0.513520 0.750000
O O12 0.236945 0.553911 0.526080
O O13 0.349543 0.565575 0.525273
O O14 0.807888 0.420464 0.250000
O O15 0.960465 0.753582 0.250000
O O16 0.043907 0.822918 0.051806
O O17 0.921884 0.769642 0.008031
O O18 0.117827 0.247898 0.250000
#
# Coordination Sequence:
#
# PCOD8325476 Si02
#       7
#    12  12  12  12  12  12  12
#     4   8  16  31  50  69  97 133 164 198 246 303
#     4   9  18  33  50  71 100 132 161 202 255 298
#     4  10  19  32  49  70  95 125 161 201 246 299
#     4  10  19  33  51  70  94 127 167 210 252 300
#     4   9  19  32  49  72  96 124 162 209 253 289
#     4   9  18  33  54  77 103 138 175 204 245 305
#     4   9  19  34  51  77 110 137 165 210 257 292
#
# _framework density 17.612176000000002
#
# number of rings (size 3 to 8) (size 9 to 14) (size 15 to 20)
#    0.000    2.857    0.000    2.857    2.000    2.286 
#    0.000    4.286    0.000    0.286    0.000    0.000 
#    0.000    0.000    0.000    0.000    0.000    0.000 
#
# Total GULP energy -1041503.177717 kJ/mol
# GULP energy per Si atom -12398.847354 kJ/mol
# Density = 1.757209 g / cm^3
# Si number density = 17.612176 Si / 1000 Ang^3
#
#
#
# Elastic Constant Matrix: (Units=GPa)
#
#
# Indices 1 2 3 4 5 6 
#
# 1 130.1734 71.8528 46.7395 0.0000 0.0000 0.0000
# 2 71.8528 130.1734 46.7395 0.0000 0.0000 0.0000
# 3 46.7395 46.7395 43.2421 0.0000 0.0000 0.0000
# 4 0.0000 0.0000 0.0000 26.9209 0.0000 0.0000
# 5 0.0000 0.0000 0.0000 0.0000 26.9209 0.0000
# 6 0.0000 0.0000 0.0000 0.0000 0.0000 29.1603
#
#
#
# Elastic Compliance Matrix: (Units=1/GPa)
#
#
# Indices 1 2 3 4 5 6 
#
# 1 0.013524 -0.003622 -0.010703 0.000000 0.000000 0.000000
# 2 -0.003622 0.013524 -0.010703 0.000000 0.000000 0.000000
# 3 -0.010703 -0.010703 0.046263 0.000000 0.000000 0.000000
# 4 0.000000 0.000000 0.000000 0.037146 0.000000 0.000000
# 5 0.000000 0.000000 0.000000 0.000000 0.037146 0.000000
# 6 0.000000 0.000000 0.000000 0.000000 0.000000 0.034293
#
#
# Mechanical properties :
#
#
# Convention : Reuss Voigt Hill
#
# Bulk Modulus (GPa) = 43.00123 70.47252 56.73688
# Shear Modulus (GPa) = 20.85888 25.81755 23.33821
#
# Velocity S-wave (km/s) = 3.44516 3.83285 3.64417
# Velocity P-wave (km/s) = 6.34777 7.72580 7.07044
#
# Compressibility (1/GPa) = 0.02325515
#
# Stress axis : x y z
#
# Youngs Moduli (GPa) = 73.94015 73.94015 21.61539
#
# Poissons Ratio (x) = 0.26782 0.23135
# Poissons Ratio (y) = 0.26782 0.23135
# Poissons Ratio (z) = 0.79140 0.79140
#
# Static dielectric constant tensor:
#      x y z
#    x 3.404310 0.000000 0.000000 
#    y 0.000000 3.404310 0.000000 
#    z 0.000000 0.000000 2.906900 
# 
# 
# High freq. dielectric constant tensor:
#      x y z
#    x 1.685410 0.000000 0.000000 
#    y 0.000000 1.685410 0.000000 
#    z 0.000000 0.000000 1.646590 
# 
# From -- ./inp_files/2050.got.cif
#   From: 2010.06.25/outbox.cif.g09.slc.cpg/sg176_2_cif.got.tgz:2050.got - 2010.06.28 12:15:01.
