data_PCOD8325003
_publ_section_title
;
Structure prediction by ZEFSAII (Michael W. Deem and Ramdas Pophale) SiO2 
 PCOD8325003
Probable space group: P 6/M
;
_chemical_formula_sum "Si O2"
_cell_formula_units_Z 60
_cell_length_a 17.770080
_cell_length_b 17.770080
_cell_length_c 11.325902
_cell_angle_alpha 90.000000
_cell_angle_beta 90.000000
_cell_angle_gamma 120.000000
_cell_volume 3097.292330
_symmetry_space_group_name_H-M "P 6/M"
_symmetry_group_IT_number 175
_symmetry_cell_setting 'hexagonal'
loop_
_space_group_symop_operation_xyz
x,y,z
x-y,x,z
-y,x-y,z
-x,-y,z
-x+y,-x,z
y,-x+y,z
-x,-y,-z
-x+y,-x,-z
y,-x+y,-z
x,y,-z
x-y,x,-z
-y,x-y,-z
loop_
_atom_site_type_symbol
_atom_site_label
_atom_site_fract_x
_atom_site_fract_y
_atom_site_fract_z
Si Si1 0.092420 0.780119 0.265953
Si Si2 0.181193 0.519401 0.864880
Si Si3 0.821596 0.334336 0.741844
Si Si4 0.868890 0.792358 0.500000
Si Si5 0.922738 0.677244 0.133716
Si Si6 0.409520 0.773300 0.500000
O O1 0.113130 0.702099 0.272503
O O2 0.102797 0.830682 0.387996
O O3 0.151953 0.841541 0.161604
O O4 0.994309 0.739184 0.225673
O O5 0.147719 0.586956 0.835788
O O6 0.260560 0.536185 0.778744
O O7 0.101538 0.422194 0.846256
O O8 0.214036 0.531586 0.000000
O O9 0.828621 0.378772 0.616392
O O10 0.840123 0.865855 0.500000
O O11 0.953254 0.706505 0.000000
O O12 0.306132 0.736450 0.500000
#
# Coordination Sequence:
#
# PCOD8325003 Si02
#       6
#    12  12  12   6  12   6
#     4  11  23  40  64  88 122 156 193 246 308 370
#     4  10  20  34  56  85 120 162 211 255 291 341
#     4  11  20  35  56  85 119 163 209 254 302 342
#     4  12  24  46  74  98 119 151 194 253 315 383
#     4  10  22  40  62  88 119 161 199 239 303 370
#     4  10  17  32  54  74 107 151 196 246 284 327
#
# _framework density 19.371756999999999
#
# number of rings (size 3 to 8) (size 9 to 14) (size 15 to 20)
#    0.200    1.200    4.000    2.300    0.000    3.200 
#    0.000    3.000    0.000    2.400    0.000    2.800 
#    0.000    0.000    0.000    0.000    0.000    0.000 
#
# Total GULP energy -743767.801288 kJ/mol
# GULP energy per Si atom -12396.130021 kJ/mol
# Density = 1.932767 g / cm^3
# Si number density = 19.371757 Si / 1000 Ang^3
#
#
#
# Elastic Constant Matrix: (Units=GPa)
#
#
# Indices 1 2 3 4 5 6 
#
# 1 77.6336 28.1812 23.7927 0.0000 0.0000 0.0000
# 2 28.1812 77.6336 23.7927 0.0000 0.0000 0.0000
# 3 23.7927 23.7927 95.3354 0.0000 0.0000 0.0000
# 4 0.0000 0.0000 0.0000 26.6443 0.0000 0.0000
# 5 0.0000 0.0000 0.0000 0.0000 26.6443 0.0000
# 6 0.0000 0.0000 0.0000 0.0000 0.0000 24.7262
#
#
#
# Elastic Compliance Matrix: (Units=1/GPa)
#
#
# Indices 1 2 3 4 5 6 
#
# 1 0.015433 -0.004788 -0.002657 0.000000 0.000000 0.000000
# 2 -0.004788 0.015433 -0.002657 0.000000 0.000000 0.000000
# 3 -0.002657 -0.002657 0.011815 0.000000 0.000000 0.000000
# 4 0.000000 0.000000 0.000000 0.037531 0.000000 0.000000
# 5 0.000000 0.000000 0.000000 0.000000 0.037531 0.000000
# 6 0.000000 0.000000 0.000000 0.000000 0.000000 0.040443
#
#
# Mechanical properties :
#
#
# Convention : Reuss Voigt Hill
#
# Bulk Modulus (GPa) = 44.48612 44.68177 44.58394
# Shear Modulus (GPa) = 26.89850 27.25869 27.07860
#
# Velocity S-wave (km/s) = 3.73036 3.75525 3.74282
# Velocity P-wave (km/s) = 6.44735 6.47441 6.46090
#
# Compressibility (1/GPa) = 0.02247892
#
# Stress axis : x y z
#
# Youngs Moduli (GPa) = 64.79475 64.79475 84.63570
#
# Poissons Ratio (x) = 0.31025 0.22485
# Poissons Ratio (y) = 0.31025 0.22485
# Poissons Ratio (z) = 0.17214 0.17214
#
# Static dielectric constant tensor:
#      x y z
#    x 3.385790 0.000000 0.000000 
#    y 0.000000 3.385790 0.000000 
#    z 0.000000 0.000000 3.539450 
# 
# 
# High freq. dielectric constant tensor:
#      x y z
#    x 1.742640 0.000000 0.000000 
#    y 0.000000 1.742640 0.000000 
#    z 0.000000 0.000000 1.767970 
# 
# From -- ./inp_files/1848.got.cif
#   From: 2010.03.12/outbox.cif.g09.slc.cpg/sg175_1_cif.got.tgz:1848.got - 2010.04.02 06:55:29.
