data_PCOD8325702
_publ_section_title
;
Structure prediction by ZEFSAII (Michael W. Deem and Ramdas Pophale) SiO2 
 PCOD8325702
Probable space group: P 63/M
;
_chemical_formula_sum "Si O2"
_cell_formula_units_Z 48
_cell_length_a 18.449997
_cell_length_b 18.449997
_cell_length_c 8.263607
_cell_angle_alpha 90.000000
_cell_angle_beta 90.000000
_cell_angle_gamma 120.000000
_cell_volume 2436.087517
_symmetry_space_group_name_H-M "P 63/M"
_symmetry_group_IT_number 176
_symmetry_cell_setting 'hexagonal'
loop_
_space_group_symop_operation_xyz
x,y,z
x-y,x,1/2+z
-y,x-y,z
-x,-y,1/2+z
-x+y,-x,z
y,-x+y,1/2+z
-x,-y,-z
-x+y,-x,1/2-z
y,-x+y,-z
x,y,1/2-z
x-y,x,-z
-y,x-y,1/2-z
loop_
_atom_site_type_symbol
_atom_site_label
_atom_site_fract_x
_atom_site_fract_y
_atom_site_fract_z
Si Si1 0.186291 0.083867 0.560819
Si Si2 0.188856 0.376490 0.442011
Si Si3 0.465787 0.087167 0.941537
Si Si4 0.094903 0.466266 0.062787
O O1 0.184879 0.064435 0.750000
O O2 0.141117 0.137798 0.533475
O O3 0.281484 0.134340 0.492101
O O4 0.179571 0.370852 0.250000
O O5 0.284552 0.433798 0.495770
O O6 0.144097 0.424470 0.521596
O O7 0.457529 0.069912 0.750000
O O8 0.562144 0.122411 0.999395
O O9 0.407077 0.002211 0.034025
O O10 0.116118 0.472716 0.250000
#
# Coordination Sequence:
#
# PCOD8325702 Si02
#       4
#    12  12  12  12
#     4  11  22  36  53  73 102 134 170 209 251 297
#     4   9  18  32  50  75 101 128 163 205 243 289
#     4   9  17  31  50  71  97 127 160 197 240 286
#     4   9  17  31  50  71  97 127 160 197 240 286
#
# _framework density 19.703724999999999
#
# number of rings (size 3 to 8) (size 9 to 14) (size 15 to 20)
#    0.000    2.500    0.000    2.500    0.000    0.000 
#    1.500    3.750    0.000    0.000    0.000    0.000 
#    0.000    0.000    0.000    0.000    0.000    0.000 
#
# Total GULP energy -594955.949556 kJ/mol
# GULP energy per Si atom -12394.915616 kJ/mol
# Density = 1.965888 g / cm^3
# Si number density = 19.703725 Si / 1000 Ang^3
#
#
#
# Elastic Constant Matrix: (Units=GPa)
#
#
# Indices 1 2 3 4 5 6 
#
# 1 142.4194 90.9172 -1.4992 0.0000 0.0000 0.0000
# 2 90.9172 142.4194 -1.4992 0.0000 0.0000 0.0000
# 3 -1.4992 -1.4992 10.3854 0.0000 0.0000 0.0000
# 4 0.0000 0.0000 0.0000 11.3943 0.0000 0.0000
# 5 0.0000 0.0000 0.0000 0.0000 11.3943 0.0000
# 6 0.0000 0.0000 0.0000 0.0000 0.0000 25.7511
#
#
#
# Elastic Compliance Matrix: (Units=1/GPa)
#
#
# Indices 1 2 3 4 5 6 
#
# 1 0.011855 -0.007562 0.000620 0.000000 0.000000 0.000000
# 2 -0.007562 0.011855 0.000620 0.000000 0.000000 0.000000
# 3 0.000620 0.000620 0.096468 0.000000 0.000000 0.000000
# 4 0.000000 0.000000 0.000000 0.087763 0.000000 0.000000
# 5 0.000000 0.000000 0.000000 0.000000 0.087763 0.000000
# 6 0.000000 0.000000 0.000000 0.000000 0.000000 0.038833
#
#
# Mechanical properties :
#
#
# Convention : Reuss Voigt Hill
#
# Bulk Modulus (GPa) = 9.29935 52.34020 30.81977
# Shear Modulus (GPa) = 13.05395 23.52832 18.29114
#
# Velocity S-wave (km/s) = 2.57672 3.45933 3.05012
# Velocity P-wave (km/s) = 3.68544 6.52512 5.29904
#
# Compressibility (1/GPa) = 0.10753441
#
# Stress axis : x y z
#
# Youngs Moduli (GPa) = 84.35171 84.35171 10.36614
#
# Poissons Ratio (x) = 0.63783 -0.00643
# Poissons Ratio (y) = 0.63783 -0.00643
# Poissons Ratio (z) = -0.05228 -0.05228
#
# Static dielectric constant tensor:
#      x y z
#    x 3.913900 0.000000 0.000000 
#    y 0.000000 3.913900 0.000000 
#    z 0.000000 0.000000 3.219990 
# 
# 
# High freq. dielectric constant tensor:
#      x y z
#    x 1.776060 0.000000 0.000000 
#    y 0.000000 1.776060 0.000000 
#    z 0.000000 0.000000 1.733730 
# 
# From -- ./inp_files/558.got.cif
#   From: 2010.06.25/outbox.cif.g09.slc.cpg/sg176_1_cif.got.tgz:558.got - 2010.06.28 12:15:01.
