data_PCOD8325324
_publ_section_title
;
Structure prediction by ZEFSAII (Michael W. Deem and Ramdas Pophale) SiO2 
 PCOD8325324
Probable space group: P 6/M
;
_chemical_formula_sum "Si O2"
_cell_formula_units_Z 24
_cell_length_a 10.070230
_cell_length_b 10.070230
_cell_length_c 11.487068
_cell_angle_alpha 90.000000
_cell_angle_beta 90.000000
_cell_angle_gamma 120.000000
_cell_volume 1008.831428
_symmetry_space_group_name_H-M "P 6/M"
_symmetry_group_IT_number 175
_symmetry_cell_setting 'hexagonal'
loop_
_space_group_symop_operation_xyz
x,y,z
x-y,x,z
-y,x-y,z
-x,-y,z
-x+y,-x,z
y,-x+y,z
-x,-y,-z
-x+y,-x,-z
y,-x+y,-z
x,y,-z
x-y,x,-z
-y,x-y,-z
loop_
_atom_site_type_symbol
_atom_site_label
_atom_site_fract_x
_atom_site_fract_y
_atom_site_fract_z
Si Si1 0.500000 0.000000 0.305108
Si Si2 0.654568 0.745278 0.132047
Si Si3 0.927042 0.271907 0.500000
O O1 0.362244 0.880748 0.220640
O O2 0.447398 0.096506 0.385903
O O3 0.715471 0.921366 0.157825
O O4 0.594134 0.701192 0.000000
O O5 0.094965 0.291979 0.500000
#
# Coordination Sequence:
#
# PCOD8325324 Si02
#       3
#     6  12   6
#     4  11  23  40  60  98 137 163 206 262 330 403
#     4  10  21  41  68  99 132 173 222 272 321 377
#     4  11  25  48  72  96 121 167 224 282 332 381
#
# _framework density 23.789902000000001
#
# number of rings (size 3 to 8) (size 9 to 14) (size 15 to 20)
#    0.000    1.500    0.000    4.500    0.000    2.000 
#   42.000    5.000    0.000    0.000    0.000    0.000 
#    0.000    0.000    0.000    0.000    0.000    0.000 
#
# Total GULP energy -297603.695269 kJ/mol
# GULP energy per Si atom -12400.153970 kJ/mol
# Density = 2.373575 g / cm^3
# Si number density = 23.789902 Si / 1000 Ang^3
#
#
#
# Elastic Constant Matrix: (Units=GPa)
#
#
# Indices 1 2 3 4 5 6 
#
# 1 110.4245 62.4941 68.5293 0.0000 0.0000 0.0000
# 2 62.4941 110.4245 68.5293 0.0000 0.0000 0.0000
# 3 68.5293 68.5293 173.3305 0.0000 0.0000 0.0000
# 4 0.0000 0.0000 0.0000 20.5553 0.0000 0.0000
# 5 0.0000 0.0000 0.0000 0.0000 20.5553 0.0000
# 6 0.0000 0.0000 0.0000 0.0000 0.0000 23.9652
#
#
#
# Elastic Compliance Matrix: (Units=1/GPa)
#
#
# Indices 1 2 3 4 5 6 
#
# 1 0.014643 -0.006221 -0.003330 0.000000 0.000000 0.000000
# 2 -0.006221 0.014643 -0.003330 0.000000 0.000000 0.000000
# 3 -0.003330 -0.003330 0.008402 0.000000 0.000000 0.000000
# 4 0.000000 0.000000 0.000000 0.048649 0.000000 0.000000
# 5 0.000000 0.000000 0.000000 0.000000 0.048649 0.000000
# 6 0.000000 0.000000 0.000000 0.000000 0.000000 0.041727
#
#
# Mechanical properties :
#
#
# Convention : Reuss Voigt Hill
#
# Bulk Modulus (GPa) = 83.83991 88.14281 85.99136
# Shear Modulus (GPa) = 24.21884 25.99030 25.10457
#
# Velocity S-wave (km/s) = 3.19412 3.30887 3.25200
# Velocity P-wave (km/s) = 6.99439 7.19230 7.09403
#
# Compressibility (1/GPa) = 0.01192749
#
# Stress axis : x y z
#
# Youngs Moduli (GPa) = 68.29190 68.29190 119.01285
#
# Poissons Ratio (x) = 0.42481 0.39631
# Poissons Ratio (y) = 0.42481 0.39631
# Poissons Ratio (z) = 0.22741 0.22741
#
# Static dielectric constant tensor:
#      x y z
#    x 4.186980 0.000000 0.000000 
#    y 0.000000 4.186980 0.000000 
#    z 0.000000 0.000000 4.854910 
# 
# 
# High freq. dielectric constant tensor:
#      x y z
#    x 1.931660 0.000000 0.000000 
#    y 0.000000 1.931660 0.000000 
#    z 0.000000 0.000000 1.975390 
# 
# From -- ./inp_files/1496.got.cif
#   From: 2010.03.12/outbox.cif.g09.slc.cpg/sg175_1_cif.got.tgz:1496.got - 2010.04.02 06:55:29.
