data_PCOD8325014
_publ_section_title
;
Structure prediction by ZEFSAII (Michael W. Deem and Ramdas Pophale) SiO2 
 PCOD8325014
Probable space group: P 6/M
;
_chemical_formula_sum "Si O2"
_cell_formula_units_Z 72
_cell_length_a 24.008471
_cell_length_b 24.008471
_cell_length_c 8.778142
_cell_angle_alpha 90.000000
_cell_angle_beta 90.000000
_cell_angle_gamma 120.000000
_cell_volume 4381.897744
_symmetry_space_group_name_H-M "P 6/M"
_symmetry_group_IT_number 175
_symmetry_cell_setting 'hexagonal'
loop_
_space_group_symop_operation_xyz
x,y,z
x-y,x,z
-y,x-y,z
-x,-y,z
-x+y,-x,z
y,-x+y,z
-x,-y,-z
-x+y,-x,-z
y,-x+y,-z
x,y,-z
x-y,x,-z
-y,x-y,-z
loop_
_atom_site_type_symbol
_atom_site_label
_atom_site_fract_x
_atom_site_fract_y
_atom_site_fract_z
Si Si1 0.526371 0.596351 0.679853
Si Si2 0.600196 0.525849 0.319687
Si Si3 0.070298 0.805775 0.179606
Si Si4 0.590454 0.853912 0.819866
Si Si5 0.854561 0.594852 0.319168
Si Si6 0.072370 0.266954 0.181169
O O1 0.529600 0.594375 0.500000
O O2 0.453383 0.546432 0.730321
O O3 0.575970 0.574050 0.739535
O O4 0.547189 0.667523 0.738194
O O5 0.612471 0.531380 0.500000
O O6 0.665100 0.541953 0.234383
O O7 0.096490 0.759318 0.239030
O O8 0.120199 0.879382 0.229077
O O9 0.999046 0.782795 0.244431
O O10 0.065229 0.800826 0.000000
O O11 0.567822 0.784078 0.749081
O O12 0.588729 0.847315 0.000000
O O13 0.851470 0.597084 0.500000
O O14 0.904914 0.665005 0.257958
O O15 0.073901 0.276438 0.000000
#
# Coordination Sequence:
#
# PCOD8325014 Si02
#       6
#    12  12  12  12  12  12
#     4   8  16  29  47  69  92 115 144 179 221 265
#     4   9  16  30  49  68  90 117 144 179 221 264
#     4   8  15  26  42  60  84 115 145 175 215 260
#     4  10  19  30  43  65  92 119 148 181 218 259
#     4  10  18  29  45  66  88 115 146 178 215 261
#     4   9  16  28  43  62  86 115 146 180 219 261
#
# _framework density 16.431235999999998
#
# number of rings (size 3 to 8) (size 9 to 14) (size 15 to 20)
#    0.000    3.000    0.000    4.000    0.000    0.000 
#    0.000    7.500    0.000    1.000    0.000    4.667 
#    0.000    0.000    0.000    6.000    0.000    6.667 
#
# Total GULP energy -892385.016545 kJ/mol
# GULP energy per Si atom -12394.236341 kJ/mol
# Density = 1.639384 g / cm^3
# Si number density = 16.431236 Si / 1000 Ang^3
#
#
#
# Elastic Constant Matrix: (Units=GPa)
#
#
# Indices 1 2 3 4 5 6 
#
# 1 142.3091 84.4745 29.7047 0.0000 0.0000 0.0000
# 2 84.4745 142.3091 29.7047 0.0000 0.0000 0.0000
# 3 29.7047 29.7047 40.2458 0.0000 0.0000 0.0000
# 4 0.0000 0.0000 0.0000 19.3563 0.0000 0.0000
# 5 0.0000 0.0000 0.0000 0.0000 19.3563 0.0000
# 6 0.0000 0.0000 0.0000 0.0000 0.0000 28.9173
#
#
#
# Elastic Compliance Matrix: (Units=1/GPa)
#
#
# Indices 1 2 3 4 5 6 
#
# 1 0.011379 -0.005912 -0.004035 0.000000 0.000000 0.000000
# 2 -0.005912 0.011379 -0.004035 0.000000 0.000000 0.000000
# 3 -0.004035 -0.004035 0.030803 0.000000 0.000000 0.000000
# 4 0.000000 0.000000 0.000000 0.051663 0.000000 0.000000
# 5 0.000000 0.000000 0.000000 0.000000 0.051663 0.000000
# 6 0.000000 0.000000 0.000000 0.000000 0.000000 0.034581
#
#
# Mechanical properties :
#
#
# Convention : Reuss Voigt Hill
#
# Bulk Modulus (GPa) = 39.06660 68.07023 53.56842
# Shear Modulus (GPa) = 21.93342 25.59131 23.76237
#
# Velocity S-wave (km/s) = 3.65754 3.95077 3.80698
# Velocity P-wave (km/s) = 6.45478 7.89486 7.21086
#
# Compressibility (1/GPa) = 0.02559731
#
# Stress axis : x y z
#
# Youngs Moduli (GPa) = 87.88455 87.88455 32.46420
#
# Poissons Ratio (x) = 0.51958 0.13098
# Poissons Ratio (y) = 0.51958 0.13098
# Poissons Ratio (z) = 0.35459 0.35459
#
# Static dielectric constant tensor:
#      x y z
#    x 3.344590 0.000000 0.000000 
#    y 0.000000 3.344590 0.000000 
#    z 0.000000 0.000000 2.835540 
# 
# 
# High freq. dielectric constant tensor:
#      x y z
#    x 1.626030 0.000000 0.000000 
#    y 0.000000 1.626030 0.000000 
#    z 0.000000 0.000000 1.610380 
# 
# From -- ./inp_files/1167.got.cif
#   From: 2010.03.12/outbox.cif.g09.slc.cpg/sg175_1_cif.got.tgz:1167.got - 2010.04.02 06:55:29.
