data_PCOD8325578
_publ_section_title
;
Structure prediction by ZEFSAII (Michael W. Deem and Ramdas Pophale) SiO2 
 PCOD8325578
Probable space group: P 63/M
;
_chemical_formula_sum "Si O2"
_cell_formula_units_Z 84
_cell_length_a 18.192597
_cell_length_b 18.192597
_cell_length_c 14.541370
_cell_angle_alpha 90.000000
_cell_angle_beta 90.000000
_cell_angle_gamma 120.000000
_cell_volume 4167.977397
_symmetry_space_group_name_H-M "P 63/M"
_symmetry_group_IT_number 176
_symmetry_cell_setting 'hexagonal'
loop_
_space_group_symop_operation_xyz
x,y,z
x-y,x,1/2+z
-y,x-y,z
-x,-y,1/2+z
-x+y,-x,z
y,-x+y,1/2+z
-x,-y,-z
-x+y,-x,1/2-z
y,-x+y,-z
x,y,1/2-z
x-y,x,-z
-y,x-y,1/2-z
loop_
_atom_site_type_symbol
_atom_site_label
_atom_site_fract_x
_atom_site_fract_y
_atom_site_fract_z
Si Si1 0.051972 0.855238 0.500000
Si Si2 0.750326 0.658584 0.642556
Si Si3 0.554792 0.596131 0.353631
Si Si4 0.445208 0.403869 0.146369
Si Si5 0.193050 0.714856 1.000000
Si Si6 0.464346 0.629166 0.500000
Si Si7 0.750326 0.658584 0.142556
O O1 0.066579 0.813598 0.408101
O O2 0.066579 0.813598 0.591899
O O3 0.956130 0.838580 0.500000
O O4 0.777036 0.663029 0.750000
O O5 0.654975 0.639926 0.633244
O O6 0.750679 0.580464 0.590892
O O7 0.529298 0.599441 0.250000
O O8 0.500000 0.500000 0.390330
O O9 0.523814 0.649203 0.411558
O O10 0.654975 0.639927 0.366756
O O11 0.470702 0.400559 0.250000
O O12 0.476186 0.350797 0.088442
O O13 0.147613 0.613628 0.000000
O O14 0.291862 0.739923 1.000000
O O15 0.170214 0.750679 0.909108
O O16 0.777036 0.663029 0.250000
#
# Coordination Sequence:
#
# PCOD8325578 Si02
#       7
#    12  12  12  12  12  12  12
#     4  11  26  47  70  97 126 161 198 251 320 396
#     4  10  23  42  64  94 125 159 208 263 314 370
#     4  10  20  37  63  88 115 157 205 254 307 356
#     4  10  20  37  63  88 115 157 205 254 307 356
#     4  11  24  37  58  86 130 174 214 256 303 364
#     4  12  22  37  56  86 124 167 209 250 299 356
#     4  10  23  42  64  94 125 159 208 263 314 370
#
# _framework density 20.153659999999999
#
# number of rings (size 3 to 8) (size 9 to 14) (size 15 to 20)
#    0.000    1.429    2.857    2.571    8.000    2.286 
#    0.000    0.000    0.000    5.143    0.000    0.000 
#    0.000    0.000    0.000    0.000    0.000    0.000 
#
# Total GULP energy -1040914.906814 kJ/mol
# GULP energy per Si atom -12391.844129 kJ/mol
# Density = 2.010779 g / cm^3
# Si number density = 20.153660 Si / 1000 Ang^3
#
#
#
# Elastic Constant Matrix: (Units=GPa)
#
#
# Indices 1 2 3 4 5 6 
#
# 1 116.0972 45.4982 56.3784 0.0000 0.0000 0.0000
# 2 45.4982 116.0972 56.3784 0.0000 0.0000 0.0000
# 3 56.3784 56.3784 150.7276 0.0000 0.0000 0.0000
# 4 0.0000 0.0000 0.0000 24.1862 0.0000 0.0000
# 5 0.0000 0.0000 0.0000 0.0000 24.1862 0.0000
# 6 0.0000 0.0000 0.0000 0.0000 0.0000 35.2995
#
#
#
# Elastic Compliance Matrix: (Units=1/GPa)
#
#
# Indices 1 2 3 4 5 6 
#
# 1 0.011269 -0.002895 -0.003132 0.000000 0.000000 0.000000
# 2 -0.002895 0.011269 -0.003132 0.000000 0.000000 0.000000
# 3 -0.003132 -0.003132 0.008978 0.000000 0.000000 0.000000
# 4 0.000000 0.000000 0.000000 0.041346 0.000000 0.000000
# 5 0.000000 0.000000 0.000000 0.000000 0.041346 0.000000
# 6 0.000000 0.000000 0.000000 0.000000 0.000000 0.028329
#
#
# Mechanical properties :
#
#
# Convention : Reuss Voigt Hill
#
# Bulk Modulus (GPa) = 75.77700 77.71468 76.74584
# Shear Modulus (GPa) = 30.25627 31.71217 30.98422
#
# Velocity S-wave (km/s) = 3.87884 3.97106 3.92522
# Velocity P-wave (km/s) = 7.59880 7.72467 7.66200
#
# Compressibility (1/GPa) = 0.01319662
#
# Stress axis : x y z
#
# Youngs Moduli (GPa) = 88.73764 88.73764 111.38831
#
# Poissons Ratio (x) = 0.25693 0.34889
# Poissons Ratio (y) = 0.25693 0.34889
# Poissons Ratio (z) = 0.27794 0.27794
#
# Static dielectric constant tensor:
#      x y z
#    x 3.557560 0.000000 0.000000 
#    y 0.000000 3.557560 0.000000 
#    z 0.000000 0.000000 3.684690 
# 
# 
# High freq. dielectric constant tensor:
#      x y z
#    x 1.782600 0.000000 0.000000 
#    y 0.000000 1.782600 0.000000 
#    z 0.000000 0.000000 1.797150 
# 
# From -- ./inp_files/2940.got.cif
#   From: 2010.06.25/outbox.cif.g09.slc.cpg/sg176_2_cif.got.tgz:2940.got - 2010.06.28 12:15:01.
