data_PCOD8325257
_publ_section_title
;
Structure prediction by ZEFSAII (Michael W. Deem and Ramdas Pophale) SiO2 
 PCOD8325257
Probable space group: P 6/M
;
_chemical_formula_sum "Si O2"
_cell_formula_units_Z 78
_cell_length_a 22.816846
_cell_length_b 22.816846
_cell_length_c 9.761530
_cell_angle_alpha 90.000000
_cell_angle_beta 90.000000
_cell_angle_gamma 120.000000
_cell_volume 4401.084909
_symmetry_space_group_name_H-M "P 6/M"
_symmetry_group_IT_number 175
_symmetry_cell_setting 'hexagonal'
loop_
_space_group_symop_operation_xyz
x,y,z
x-y,x,z
-y,x-y,z
-x,-y,z
-x+y,-x,z
y,-x+y,z
-x,-y,-z
-x+y,-x,-z
y,-x+y,-z
x,y,-z
x-y,x,-z
-y,x-y,-z
loop_
_atom_site_type_symbol
_atom_site_label
_atom_site_fract_x
_atom_site_fract_y
_atom_site_fract_z
Si Si1 0.928594 0.749595 0.749434
Si Si2 0.918294 0.394737 0.657447
Si Si3 0.070907 0.791079 0.650322
Si Si4 0.532870 0.607823 0.656638
Si Si5 0.842982 0.896828 0.000000
Si Si6 0.600928 0.733728 0.844770
Si Si7 0.728719 0.595893 0.159060
O O1 0.868759 0.738254 0.647595
O O2 0.917003 0.678416 0.804963
O O3 0.999599 0.787678 0.671600
O O4 0.927096 0.795183 0.870388
O O5 0.900481 0.370353 0.500000
O O6 0.903999 0.455625 0.685779
O O7 0.871695 0.335286 0.762401
O O8 0.996102 0.418285 0.688648
O O9 0.070769 0.760668 0.500000
O O10 0.081632 0.748751 0.769258
O O11 0.542021 0.632052 0.500000
O O12 0.551218 0.671526 0.750747
O O13 0.900995 0.877923 0.000000
O O14 0.580255 0.790934 0.826502
O O15 0.589998 0.707681 0.000000
O O16 0.711738 0.600176 0.000000
#
# Coordination Sequence:
#
# PCOD8325257 Si02
#       7
#    12  12  12  12   6  12  12
#     4  11  22  35  57  76 106 139 179 226 280 335
#     4   9  18  35  55  78 108 142 176 218 265 317
#     4  11  23  37  53  76 105 140 179 225 279 336
#     4   9  19  34  54  79 110 143 176 215 266 323
#     4  12  23  40  62  82 104 145 193 243 291 343
#     4  10  21  34  51  79 110 140 175 217 271 320
#     4  10  22  35  53  79 109 142 181 221 270 320
#
# _framework density 17.722902999999999
#
# number of rings (size 3 to 8) (size 9 to 14) (size 15 to 20)
#    0.000    1.846    2.308    2.846    2.154    7.385 
#    0.000    1.538    0.000    0.615    0.000    2.154 
#    0.000    0.000    0.000    0.000    0.000    0.000 
#
# Total GULP energy -967339.965524 kJ/mol
# GULP energy per Si atom -12401.794430 kJ/mol
# Density = 1.768257 g / cm^3
# Si number density = 17.722903 Si / 1000 Ang^3
#
#
#
# Elastic Constant Matrix: (Units=GPa)
#
#
# Indices 1 2 3 4 5 6 
#
# 1 78.7716 33.9696 45.7031 0.0000 0.0000 0.0000
# 2 33.9696 78.7716 45.7031 0.0000 0.0000 0.0000
# 3 45.7031 45.7031 123.6773 0.0000 0.0000 0.0000
# 4 0.0000 0.0000 0.0000 29.9471 0.0000 0.0000
# 5 0.0000 0.0000 0.0000 0.0000 29.9471 0.0000
# 6 0.0000 0.0000 0.0000 0.0000 0.0000 22.4010
#
#
#
# Elastic Compliance Matrix: (Units=1/GPa)
#
#
# Indices 1 2 3 4 5 6 
#
# 1 0.017492 -0.004828 -0.004680 0.000000 0.000000 0.000000
# 2 -0.004828 0.017492 -0.004680 0.000000 0.000000 0.000000
# 3 -0.004680 -0.004680 0.011544 0.000000 0.000000 0.000000
# 4 0.000000 0.000000 0.000000 0.033392 0.000000 0.000000
# 5 0.000000 0.000000 0.000000 0.000000 0.033392 0.000000
# 6 0.000000 0.000000 0.000000 0.000000 0.000000 0.044641
#
#
# Mechanical properties :
#
#
# Convention : Reuss Voigt Hill
#
# Bulk Modulus (GPa) = 55.08685 59.10803 57.09744
# Shear Modulus (GPa) = 25.99014 26.84871 26.41942
#
# Velocity S-wave (km/s) = 3.83361 3.89641 3.86514
# Velocity P-wave (km/s) = 7.12356 7.32573 7.22536
#
# Compressibility (1/GPa) = 0.01815315
#
# Stress axis : x y z
#
# Youngs Moduli (GPa) = 57.16816 57.16816 86.62294
#
# Poissons Ratio (x) = 0.27602 0.40538
# Poissons Ratio (y) = 0.27602 0.40538
# Poissons Ratio (z) = 0.26754 0.26754
#
# Static dielectric constant tensor:
#      x y z
#    x 3.210300 0.000000 0.000000 
#    y 0.000000 3.210300 0.000000 
#    z 0.000000 0.000000 3.335140 
# 
# 
# High freq. dielectric constant tensor:
#      x y z
#    x 1.677430 0.000000 0.000000 
#    y 0.000000 1.677430 0.000000 
#    z 0.000000 0.000000 1.695430 
# 
# From -- ./inp_files/1273.got.cif
#   From: 2010.03.12/outbox.cif.g09.slc.cpg/sg175_1_cif.got.tgz:1273.got - 2010.04.02 06:55:29.
