data_PCOD8325883
_publ_section_title
;
Structure prediction by ZEFSAII (Michael W. Deem and Ramdas Pophale) SiO2 
 PCOD8325883
Probable space group: P 61 2 2
;
_chemical_formula_sum "Si O2"
_cell_formula_units_Z 36
_cell_length_a 13.076308
_cell_length_b 13.076308
_cell_length_c 9.220520
_cell_angle_alpha 90.000000
_cell_angle_beta 90.000000
_cell_angle_gamma 120.000000
_cell_volume 1365.388777
_symmetry_space_group_name_H-M "P 61 2 2"
_symmetry_group_IT_number 178
_symmetry_cell_setting 'hexagonal'
loop_
_space_group_symop_operation_xyz
x,y,z
x-y,x,1/6+z
-y,x-y,1/3+z
-x,-y,1/2+z
-x+y,-x,2/3+z
y,-x+y,5/6+z
x-y,-y,-z
-x,-x+y,2/3-z
y,x,1/3-z
-y,-x,5/6-z
-x+y,y,1/2-z
x,x-y,1/6-z
loop_
_atom_site_type_symbol
_atom_site_label
_atom_site_fract_x
_atom_site_fract_y
_atom_site_fract_z
Si Si1 0.734993 0.520689 0.584384
Si Si2 0.149089 0.930449 0.148739
Si Si3 0.519384 0.861448 0.005920
O O1 0.774621 0.549242 0.750000
O O2 0.770627 0.641585 0.500109
O O3 0.594864 0.435832 0.570279
O O4 0.806333 0.471355 0.489522
O O5 0.172970 0.009443 0.293426
O O6 0.185358 0.000000 0.000000
O O7 0.571625 0.785813 0.083334
O O8 0.617435 0.000000 0.000000
#
# Coordination Sequence:
#
# PCOD8325883 Si02
#       3
#    12  12  12
#     4  12  25  48  77 113 153 210 273 332 425 502
#     4  10  21  41  72 107 144 204 264 326 405 494
#     4  12  30  51  78 120 161 213 276 348 422 508
#
# _framework density 26.366115000000001
#
# number of rings (size 3 to 8) (size 9 to 14) (size 15 to 20)
#    0.000    0.667    3.333    5.000    4.667    2.667 
#    0.000    8.333    0.000    0.000    0.000    0.000 
#    0.000    0.000    0.000    0.000    0.000    0.000 
#
# Total GULP energy -446176.626980 kJ/mol
# GULP energy per Si atom -12393.795194 kJ/mol
# Density = 2.630610 g / cm^3
# Si number density = 26.366115 Si / 1000 Ang^3
#
#
#
# Elastic Constant Matrix: (Units=GPa)
#
#
# Indices 1 2 3 4 5 6 
#
# 1 178.2859 93.1384 51.6342 0.0000 0.0000 0.0000
# 2 93.1384 178.2859 51.6342 0.0000 0.0000 0.0000
# 3 51.6342 51.6342 104.6153 0.0000 0.0000 0.0000
# 4 0.0000 0.0000 0.0000 10.9936 0.0000 0.0000
# 5 0.0000 0.0000 0.0000 0.0000 10.9936 0.0000
# 6 0.0000 0.0000 0.0000 0.0000 0.0000 42.5738
#
#
#
# Elastic Compliance Matrix: (Units=1/GPa)
#
#
# Indices 1 2 3 4 5 6 
#
# 1 0.008140 -0.003604 -0.002239 0.000000 0.000000 0.000000
# 2 -0.003604 0.008140 -0.002239 0.000000 0.000000 0.000000
# 3 -0.002239 -0.002239 0.011769 0.000000 0.000000 0.000000
# 4 0.000000 0.000000 0.000000 0.090962 0.000000 0.000000
# 5 0.000000 0.000000 0.000000 0.000000 0.090962 0.000000
# 6 0.000000 0.000000 0.000000 0.000000 0.000000 0.023489
#
#
# Mechanical properties :
#
#
# Convention : Reuss Voigt Hill
#
# Bulk Modulus (GPa) = 84.13511 94.88897 89.51204
# Shear Modulus (GPa) = 19.71708 30.56422 25.14065
#
# Velocity S-wave (km/s) = 2.73759 3.40843 3.09126
# Velocity P-wave (km/s) = 6.47859 7.18032 6.83846
#
# Compressibility (1/GPa) = 0.01188564
#
# Stress axis : x y z
#
# Youngs Moduli (GPa) = 122.84711 122.84711 84.97014
#
# Poissons Ratio (x) = 0.44276 0.19023
# Poissons Ratio (y) = 0.44276 0.19023
# Poissons Ratio (z) = 0.27503 0.27503
#
# Static dielectric constant tensor:
#      x y z
#    x 5.172820 0.000000 0.000000 
#    y 0.000000 5.172820 0.000000 
#    z 0.000000 0.000000 5.205990 
# 
# 
# High freq. dielectric constant tensor:
#      x y z
#    x 2.056150 0.000000 0.000000 
#    y 0.000000 2.056150 0.000000 
#    z 0.000000 0.000000 2.068830 
# 
# From -- ./inp_files/2133.got.cif
#   From: 2010.03.12/outbox.cif.g09.slc.cpg/sg178_2_cif.got.tgz:2133.got - 2010.04.02 07:02:38.
