data_PCOD8325123
_publ_section_title
;
Structure prediction by ZEFSAII (Michael W. Deem and Ramdas Pophale) SiO2 
 PCOD8325123
Probable space group: P 6/M
;
_chemical_formula_sum "Si O2"
_cell_formula_units_Z 90
_cell_length_a 25.607970
_cell_length_b 25.607970
_cell_length_c 9.132414
_cell_angle_alpha 90.000000
_cell_angle_beta 90.000000
_cell_angle_gamma 120.000000
_cell_volume 5186.406198
_symmetry_space_group_name_H-M "P 6/M"
_symmetry_group_IT_number 175
_symmetry_cell_setting 'hexagonal'
loop_
_space_group_symop_operation_xyz
x,y,z
x-y,x,z
-y,x-y,z
-x,-y,z
-x+y,-x,z
y,-x+y,z
-x,-y,-z
-x+y,-x,-z
y,-x+y,-z
x,y,-z
x-y,x,-z
-y,x-y,-z
loop_
_atom_site_type_symbol
_atom_site_label
_atom_site_fract_x
_atom_site_fract_y
_atom_site_fract_z
Si Si1 0.140601 0.763616 0.324756
Si Si2 0.877466 0.639596 0.832204
Si Si3 0.929794 0.477454 0.161041
Si Si4 0.244251 0.064749 0.660014
Si Si5 0.586850 0.635859 0.325245
Si Si6 0.010701 0.127422 0.000000
Si Si7 0.437705 0.079059 0.173406
Si Si8 0.941590 0.777173 0.765986
O O1 0.143705 0.756802 0.500000
O O2 0.203440 0.817070 0.263647
O O3 0.087598 0.777142 0.270730
O O4 0.129714 0.703758 0.242252
O O5 0.917094 0.617471 0.748766
O O6 0.913493 0.712032 0.838315
O O7 0.863644 0.616123 0.000000
O O8 0.916873 0.515789 0.280968
O O9 0.897471 0.406353 0.200287
O O10 0.000000 0.500000 0.155006
O O11 0.908839 0.486854 0.000000
O O12 0.259857 0.093125 0.500000
O O13 0.209871 0.097933 0.726067
O O14 0.205733 0.991858 0.645808
O O15 0.593323 0.641177 0.500000
O O16 0.621013 0.603036 0.261964
O O17 0.064735 0.114070 0.000000
O O18 0.012611 0.167971 0.866347
O O19 0.422217 0.069101 0.000000
#
# Coordination Sequence:
#
# PCOD8325123 Si02
#       8
#    12  12  12  12  12   6  12  12
#     4  10  21  35  51  74 103 134 170 215 263 312
#     4  11  22  35  52  73 101 138 175 213 257 315
#     4   8  16  31  50  72 102 136 173 210 246 288
#     4  10  21  35  51  70  95 125 158 202 259 323
#     4  11  21  32  49  75 107 141 176 214 259 308
#     4  12  23  40  58  74  96 118 159 223 283 333
#     4  10  19  33  52  75 103 138 177 216 255 303
#     4  11  21  35  54  72  92 122 163 205 260 321
#
# _framework density 17.353057
#
# number of rings (size 3 to 8) (size 9 to 14) (size 15 to 20)
#    0.000    1.733    2.000    4.467    0.000    5.600 
#    1.200    0.000    0.000    0.000    0.000    1.867 
#    1.333    0.000    2.400    0.000    2.400    0.000 
#
# Total GULP energy -1115050.038138 kJ/mol
# GULP energy per Si atom -12389.444868 kJ/mol
# Density = 1.731356 g / cm^3
# Si number density = 17.353057 Si / 1000 Ang^3
#
#
#
# Elastic Constant Matrix: (Units=GPa)
#
#
# Indices 1 2 3 4 5 6 
#
# 1 73.5941 21.7667 28.8849 0.0000 0.0000 0.0000
# 2 21.7667 73.5941 28.8849 0.0000 0.0000 0.0000
# 3 28.8849 28.8849 103.5442 0.0000 0.0000 0.0000
# 4 0.0000 0.0000 0.0000 10.3485 0.0000 0.0000
# 5 0.0000 0.0000 0.0000 0.0000 10.3485 0.0000
# 6 0.0000 0.0000 0.0000 0.0000 0.0000 25.9137
#
#
#
# Elastic Compliance Matrix: (Units=1/GPa)
#
#
# Indices 1 2 3 4 5 6 
#
# 1 0.015957 -0.003338 -0.003520 0.000000 0.000000 0.000000
# 2 -0.003338 0.015957 -0.003520 0.000000 0.000000 0.000000
# 3 -0.003520 -0.003520 0.011622 0.000000 0.000000 0.000000
# 4 0.000000 0.000000 0.000000 0.096632 0.000000 0.000000
# 5 0.000000 0.000000 0.000000 0.000000 0.096632 0.000000
# 6 0.000000 0.000000 0.000000 0.000000 0.000000 0.038590
#
#
# Mechanical properties :
#
#
# Convention : Reuss Voigt Hill
#
# Bulk Modulus (GPa) = 43.90024 45.53390 44.71707
# Shear Modulus (GPa) = 16.46150 20.73522 18.59836
#
# Velocity S-wave (km/s) = 3.08331 3.46049 3.27733
# Velocity P-wave (km/s) = 6.16676 6.50102 6.33610
#
# Compressibility (1/GPa) = 0.02277892
#
# Stress axis : x y z
#
# Youngs Moduli (GPa) = 62.66871 62.66871 86.04567
#
# Poissons Ratio (x) = 0.20918 0.30290
# Poissons Ratio (y) = 0.20918 0.30290
# Poissons Ratio (z) = 0.22061 0.22061
#
# Static dielectric constant tensor:
#      x y z
#    x 3.254580 0.000000 0.000000 
#    y 0.000000 3.254580 0.000000 
#    z 0.000000 0.000000 3.303160 
# 
# 
# High freq. dielectric constant tensor:
#      x y z
#    x 1.654400 0.000000 0.000000 
#    y 0.000000 1.654400 0.000000 
#    z 0.000000 0.000000 1.679700 
# 
# From -- ./inp_files/1442.got.cif
#   From: 2010.03.12/outbox.cif.g09.slc.cpg/sg175_1_cif.got.tgz:1442.got - 2010.04.02 06:55:29.
