data_PCOD8325079
_publ_section_title
;
Structure prediction by ZEFSAII (Michael W. Deem and Ramdas Pophale) SiO2 
 PCOD8325079
Probable space group: P 6/M
;
_chemical_formula_sum "Si O2"
_cell_formula_units_Z 82
_cell_length_a 22.057781
_cell_length_b 22.057781
_cell_length_c 10.154905
_cell_angle_alpha 90.000000
_cell_angle_beta 90.000000
_cell_angle_gamma 120.000000
_cell_volume 4278.880302
_symmetry_space_group_name_H-M "P 6/M"
_symmetry_group_IT_number 175
_symmetry_cell_setting 'hexagonal'
loop_
_space_group_symop_operation_xyz
x,y,z
x-y,x,z
-y,x-y,z
-x,-y,z
-x+y,-x,z
y,-x+y,z
-x,-y,-z
-x+y,-x,-z
y,-x+y,-z
x,y,-z
x-y,x,-z
-y,x-y,-z
loop_
_atom_site_type_symbol
_atom_site_label
_atom_site_fract_x
_atom_site_fract_y
_atom_site_fract_z
Si Si1 0.435590 0.928900 0.156418
Si Si2 0.840564 0.227418 0.151368
Si Si3 0.875038 0.866181 0.146546
Si Si4 0.843671 0.982517 0.500000
Si Si5 0.740933 0.971067 0.738405
Si Si6 0.372240 0.294191 0.151533
Si Si7 0.333334 0.666668 0.842824
Si Si8 0.808282 0.346193 0.156685
O O1 0.363427 0.922878 0.202995
O O2 0.442354 0.864450 0.213175
O O3 0.500000 0.000000 0.212852
O O4 0.438263 0.927741 0.000000
O O5 0.895300 0.223346 0.250660
O O6 0.768071 0.156476 0.160130
O O7 0.828446 0.289160 0.204941
O O8 0.868436 0.241749 0.000000
O O9 0.862405 0.924050 0.220938
O O10 0.806013 0.790264 0.135709
O O11 0.896759 0.893285 0.000000
O O12 0.858830 0.916885 0.500000
O O13 0.793897 0.977873 0.621694
O O14 0.718533 0.030042 0.744859
O O15 0.354010 0.303784 0.000000
O O16 0.267777 0.672663 0.788810
O O17 0.333334 0.666668 0.000000
O O18 0.807131 0.346447 0.000000
#
# Coordination Sequence:
#
# PCOD8325079 Si02
#       8
#    12  12  12   6  12  12   4  12
#     4   9  16  26  41  65 100 141 179 209 242 289
#     4  10  19  31  49  75 106 137 169 205 248 300
#     4  10  19  31  48  70  95 121 149 184 229 283
#     4  12  27  46  64  78  95 124 166 214 260 308
#     4  12  23  36  53  73  97 126 161 203 252 307
#     4  10  19  31  49  75 106 137 169 206 249 299
#     4   9  15  24  39  63 102 148 185 214 246 291
#     4   9  16  26  42  68 105 147 183 212 246 293
#
# _framework density 19.163892000000001
#
# number of rings (size 3 to 8) (size 9 to 14) (size 15 to 20)
#    0.000    1.902    0.000    5.927    0.000    8.780 
#    0.000    1.463    0.000    0.000    0.000    4.610 
#    0.000    1.171    0.000    0.220    0.000    0.000 
#
# Total GULP energy -1015897.777247 kJ/mol
# GULP energy per Si atom -12388.997284 kJ/mol
# Density = 1.912027 g / cm^3
# Si number density = 19.163892 Si / 1000 Ang^3
#
#
#
# Elastic Constant Matrix: (Units=GPa)
#
#
# Indices 1 2 3 4 5 6 
#
# 1 130.3166 42.1895 30.4402 0.0000 0.0000 0.0004
# 2 42.1895 130.3120 30.4404 0.0000 0.0000 0.0010
# 3 30.4402 30.4404 40.4550 0.0000 0.0000 0.0000
# 4 0.0000 0.0000 0.0000 9.6304 -0.0001 0.0000
# 5 0.0000 0.0000 0.0000 -0.0001 9.6305 0.0000
# 6 0.0004 0.0010 0.0000 0.0000 0.0000 44.0623
#
#
#
# Elastic Compliance Matrix: (Units=1/GPa)
#
#
# Indices 1 2 3 4 5 6 
#
# 1 0.009620 -0.001727 -0.005939 0.000000 0.000000 0.000000
# 2 -0.001727 0.009621 -0.005939 0.000000 0.000000 0.000000
# 3 -0.005939 -0.005939 0.033657 0.000000 0.000000 0.000000
# 4 0.000000 0.000000 0.000000 0.103838 0.000001 0.000000
# 5 0.000000 0.000000 0.000000 0.000001 0.103837 0.000000
# 6 0.000000 0.000000 0.000000 0.000000 0.000000 0.022695
#
#
# Mechanical properties :
#
#
# Convention : Reuss Voigt Hill
#
# Bulk Modulus (GPa) = 38.93136 56.35821 47.64479
# Shear Modulus (GPa) = 15.67203 25.86554 20.76878
#
# Velocity S-wave (km/s) = 2.86280 3.67781 3.29560
# Velocity P-wave (km/s) = 5.59344 6.89257 6.27671
#
# Compressibility (1/GPa) = 0.02568623
#
# Stress axis : x y z
#
# Youngs Moduli (GPa) = 103.94944 103.94461 29.71187
#
# Poissons Ratio (x) = 0.17954 0.17646
# Poissons Ratio (y) = 0.17955 0.17647
# Poissons Ratio (z) = 0.61735 0.61736
#
# Static dielectric constant tensor:
#      x y z
#    x 3.774920 0.000000 0.000000 
#    y 0.000000 3.774920 0.000000 
#    z 0.000000 0.000000 2.999200 
# 
# 
# High freq. dielectric constant tensor:
#      x y z
#    x 1.766160 0.000000 0.000000 
#    y 0.000000 1.766160 0.000000 
#    z 0.000000 0.000000 1.665600 
# 
# From -- ./inp_files/2028.got.cif
#   From: 2010.03.12/outbox.cif.g09.slc.cpg/sg175_2_cif.got.tgz:2028.got - 2010.04.02 06:55:29.
