data_PCOD8325428
_publ_section_title
;
Structure prediction by ZEFSAII (Michael W. Deem and Ramdas Pophale) SiO2 
 PCOD8325428
Probable space group: P 63/M
;
_chemical_formula_sum "Si O2"
_cell_formula_units_Z 84
_cell_length_a 21.189832
_cell_length_b 21.189832
_cell_length_c 12.102401
_cell_angle_alpha 90.000000
_cell_angle_beta 90.000000
_cell_angle_gamma 120.000000
_cell_volume 4706.057155
_symmetry_space_group_name_H-M "P 63/M"
_symmetry_group_IT_number 176
_symmetry_cell_setting 'hexagonal'
loop_
_space_group_symop_operation_xyz
x,y,z
x-y,x,1/2+z
-y,x-y,z
-x,-y,1/2+z
-x+y,-x,z
y,-x+y,1/2+z
-x,-y,-z
-x+y,-x,1/2-z
y,-x+y,-z
x,y,1/2-z
x-y,x,-z
-y,x-y,1/2-z
loop_
_atom_site_type_symbol
_atom_site_label
_atom_site_fract_x
_atom_site_fract_y
_atom_site_fract_z
Si Si1 0.594257 0.674198 0.014754
Si Si2 0.312356 0.517018 0.053748
Si Si3 0.188305 0.544936 0.374817
Si Si4 0.944405 0.331456 0.874689
Si Si5 0.053785 0.259567 0.119353
Si Si6 0.090833 0.807750 0.001213
Si Si7 0.209505 0.419333 0.621108
O O1 0.521410 0.631704 0.087475
O O2 0.659393 0.727911 0.095624
O O3 0.609858 0.614654 0.957979
O O4 0.581092 0.718412 0.918500
O O5 0.249267 0.521231 0.120989
O O6 0.384821 0.595976 0.047501
O O7 0.332257 0.462674 0.116437
O O8 0.282009 0.486653 0.931857
O O9 0.181332 0.566280 0.250000
O O10 0.973500 0.350762 0.750000
O O11 0.933301 0.252404 0.902871
O O12 0.053310 0.247461 0.250000
O O13 0.114741 0.247004 0.061384
O O14 0.977861 0.199346 0.065530
O O15 0.139815 0.796228 0.911448
O O16 0.218263 0.431086 0.750000
#
# Coordination Sequence:
#
# PCOD8325428 Si02
#       7
#    12  12  12  12  12  12  12
#     4   9  20  31  51  78 101 131 171 202 254 318
#     4  10  22  34  52  76  98 129 176 209 249 304
#     4  11  20  35  53  74 100 131 168 214 252 290
#     4  10  18  33  51  74 103 131 160 208 259 304
#     4  10  18  33  51  76 109 138 167 214 257 300
#     4   9  19  30  52  80 102 132 175 205 249 310
#     4   9  17  34  52  73 103 134 163 208 254 301
#
# _framework density 17.849337999999999
#
# number of rings (size 3 to 8) (size 9 to 14) (size 15 to 20)
#    0.000    2.286    0.000    4.143    0.000    0.571 
#    0.000    6.429    0.000    0.286    0.000    0.000 
#    0.000    0.000    0.000    0.000    0.000    0.000 
#
# Total GULP energy -1041708.738002 kJ/mol
# GULP energy per Si atom -12401.294500 kJ/mol
# Density = 1.780871 g / cm^3
# Si number density = 17.849338 Si / 1000 Ang^3
#
#
#
# Elastic Constant Matrix: (Units=GPa)
#
#
# Indices 1 2 3 4 5 6 
#
# 1 98.7651 44.1622 43.4822 0.0000 0.0000 0.0000
# 2 44.1622 98.7651 43.4822 0.0000 0.0000 0.0000
# 3 43.4822 43.4822 123.1757 0.0000 0.0000 0.0000
# 4 0.0000 0.0000 0.0000 17.2818 0.0000 0.0000
# 5 0.0000 0.0000 0.0000 0.0000 17.2818 0.0000
# 6 0.0000 0.0000 0.0000 0.0000 0.0000 27.3014
#
#
#
# Elastic Compliance Matrix: (Units=1/GPa)
#
#
# Indices 1 2 3 4 5 6 
#
# 1 0.013612 -0.004702 -0.003145 0.000000 0.000000 0.000000
# 2 -0.004702 0.013612 -0.003145 0.000000 0.000000 0.000000
# 3 -0.003145 -0.003145 0.010339 0.000000 0.000000 0.000000
# 4 0.000000 0.000000 0.000000 0.057864 0.000000 0.000000
# 5 0.000000 0.000000 0.000000 0.000000 0.057864 0.000000
# 6 0.000000 0.000000 0.000000 0.000000 0.000000 0.036628
#
#
# Mechanical properties :
#
#
# Convention : Reuss Voigt Hill
#
# Bulk Modulus (GPa) = 64.19214 64.77324 64.48269
# Shear Modulus (GPa) = 23.03103 25.01165 24.02134
#
# Velocity S-wave (km/s) = 3.59597 3.74741 3.67247
# Velocity P-wave (km/s) = 7.29950 7.42238 7.36120
#
# Compressibility (1/GPa) = 0.01557823
#
# Stress axis : x y z
#
# Youngs Moduli (GPa) = 73.46331 73.46331 96.71884
#
# Poissons Ratio (x) = 0.34541 0.30423
# Poissons Ratio (y) = 0.34541 0.30423
# Poissons Ratio (z) = 0.23108 0.23108
#
# Static dielectric constant tensor:
#      x y z
#    x 3.284780 0.000000 0.000000 
#    y 0.000000 3.284780 0.000000 
#    z 0.000000 0.000000 3.153190 
# 
# 
# High freq. dielectric constant tensor:
#      x y z
#    x 1.682750 0.000000 0.000000 
#    y 0.000000 1.682750 0.000000 
#    z 0.000000 0.000000 1.687800 
# 
# From -- ./inp_files/2031.got.cif
#   From: 2010.06.25/outbox.cif.g09.slc.cpg/sg176_2_cif.got.tgz:2031.got - 2010.06.28 12:15:01.
