data_PCOD8325391
_publ_section_title
;
Structure prediction by ZEFSAII (Michael W. Deem and Ramdas Pophale) SiO2 
 PCOD8325391
Probable space group: P 6/M
;
_chemical_formula_sum "Si O2"
_cell_formula_units_Z 64
_cell_length_a 21.439694
_cell_length_b 21.439694
_cell_length_c 9.659931
_cell_angle_alpha 90.000000
_cell_angle_beta 90.000000
_cell_angle_gamma 120.000000
_cell_volume 3845.402649
_symmetry_space_group_name_H-M "P 6/M"
_symmetry_group_IT_number 175
_symmetry_cell_setting 'hexagonal'
loop_
_space_group_symop_operation_xyz
x,y,z
x-y,x,z
-y,x-y,z
-x,-y,z
-x+y,-x,z
y,-x+y,z
-x,-y,-z
-x+y,-x,-z
y,-x+y,-z
x,y,-z
x-y,x,-z
-y,x-y,-z
loop_
_atom_site_type_symbol
_atom_site_label
_atom_site_fract_x
_atom_site_fract_y
_atom_site_fract_z
Si Si1 0.699453 0.919641 0.659669
Si Si2 0.666668 0.333334 0.833760
Si Si3 0.587053 0.412945 0.163687
Si Si4 0.146095 0.437018 0.840446
Si Si5 0.699455 0.779812 0.340331
Si Si6 0.290923 0.437021 0.159555
O O1 0.676008 0.910792 0.500000
O O2 0.725051 0.862525 0.700179
O O3 0.631093 0.906421 0.748771
O O4 0.765157 0.999999 0.690051
O O5 0.746613 0.373313 0.771368
O O6 0.666667 0.333334 0.000000
O O7 0.503054 0.368757 0.208355
O O8 0.631246 0.496943 0.208364
O O9 0.591232 0.408775 0.000000
O O10 0.093577 0.368906 0.748768
O O11 0.229533 0.459069 0.819442
O O12 0.123603 0.417087 0.000000
O O13 0.676009 0.765215 0.500000
O O14 0.293487 0.417092 0.000000
#
# Coordination Sequence:
#
# PCOD8325391 Si02
#       6
#    12   4  12  12  12  12
#     4   9  18  33  51  68  87 113 143 174 213 264
#     4   9  12  18  36  60  88 119 154 192 229 263
#     4   9  14  22  38  64  93 120 152 192 232 259
#     4   9  16  26  43  67  92 118 151 189 223 255
#     4   9  18  33  51  68  87 113 143 174 213 264
#     4   9  16  26  43  67  92 118 151 189 223 255
#
# _framework density 16.643250999999999
#
# number of rings (size 3 to 8) (size 9 to 14) (size 15 to 20)
#    0.000    3.000    1.875    0.000    0.000    0.750 
#    0.000    1.875    0.000    6.000    0.000    2.625 
#    0.000    0.000    0.000    9.375    0.000    9.750 
#
# Total GULP energy -793146.188662 kJ/mol
# GULP energy per Si atom -12392.909198 kJ/mol
# Density = 1.660537 g / cm^3
# Si number density = 16.643251 Si / 1000 Ang^3
#
#
#
# Elastic Constant Matrix: (Units=GPa)
#
#
# Indices 1 2 3 4 5 6 
#
# 1 106.2967 66.2484 37.3528 0.0000 0.0000 0.0001
# 2 66.2484 106.2961 37.3528 0.0000 0.0000 0.0000
# 3 37.3528 37.3528 40.9598 0.0000 0.0000 0.0000
# 4 0.0000 0.0000 0.0000 19.8302 0.0000 0.0000
# 5 0.0000 0.0000 0.0000 0.0000 19.8302 0.0000
# 6 0.0001 0.0000 0.0000 0.0000 0.0000 20.0242
#
#
#
# Elastic Compliance Matrix: (Units=1/GPa)
#
#
# Indices 1 2 3 4 5 6 
#
# 1 0.017273 -0.007697 -0.008733 0.000000 0.000000 0.000000
# 2 -0.007697 0.017274 -0.008734 0.000000 0.000000 0.000000
# 3 -0.008733 -0.008734 0.040343 0.000000 0.000000 0.000000
# 4 0.000000 0.000000 0.000000 0.050428 0.000000 0.000000
# 5 0.000000 0.000000 0.000000 0.000000 0.050428 0.000000
# 6 0.000000 0.000000 0.000000 0.000000 0.000000 0.049939
#
#
# Mechanical properties :
#
#
# Convention : Reuss Voigt Hill
#
# Bulk Modulus (GPa) = 40.71212 59.49563 50.10387
# Shear Modulus (GPa) = 17.59322 19.44351 18.51836
#
# Velocity S-wave (km/s) = 3.25480 3.42168 3.33928
# Velocity P-wave (km/s) = 6.21609 7.17187 6.71101
#
# Compressibility (1/GPa) = 0.02456271
#
# Stress axis : x y z
#
# Youngs Moduli (GPa) = 57.89251 57.89198 24.78742
#
# Poissons Ratio (x) = 0.44557 0.21648
# Poissons Ratio (y) = 0.44557 0.21648
# Poissons Ratio (z) = 0.50560 0.50561
#
# Static dielectric constant tensor:
#      x y z
#    x 3.129700 0.000000 0.000000 
#    y 0.000000 3.129700 0.000000 
#    z 0.000000 0.000000 2.903400 
# 
# 
# High freq. dielectric constant tensor:
#      x y z
#    x 1.628460 0.000000 0.000000 
#    y 0.000000 1.628460 0.000000 
#    z 0.000000 0.000000 1.611720 
# 
# From -- ./inp_files/1917.got.cif
#   From: 2010.03.12/outbox.cif.g09.slc.cpg/sg175_1_cif.got.tgz:1917.got - 2010.04.02 06:55:29.
