data_PCOD8325579
_publ_section_title
;
Structure prediction by ZEFSAII (Michael W. Deem and Ramdas Pophale) SiO2 
 PCOD8325579
Probable space group: P 63/M
;
_chemical_formula_sum "Si O2"
_cell_formula_units_Z 66
_cell_length_a 11.593932
_cell_length_b 11.593932
_cell_length_c 27.710338
_cell_angle_alpha 90.000000
_cell_angle_beta 90.000000
_cell_angle_gamma 120.000000
_cell_volume 3225.774115
_symmetry_space_group_name_H-M "P 63/M"
_symmetry_group_IT_number 176
_symmetry_cell_setting 'hexagonal'
loop_
_space_group_symop_operation_xyz
x,y,z
x-y,x,1/2+z
-y,x-y,z
-x,-y,1/2+z
-x+y,-x,z
y,-x+y,1/2+z
-x,-y,-z
-x+y,-x,1/2-z
y,-x+y,-z
x,y,1/2-z
x-y,x,-z
-y,x-y,1/2-z
loop_
_atom_site_type_symbol
_atom_site_label
_atom_site_fract_x
_atom_site_fract_y
_atom_site_fract_z
Si Si1 0.090480 0.697725 0.197382
Si Si2 0.350368 0.524688 0.750000
Si Si3 0.307529 0.918096 0.896040
Si Si4 0.429549 0.068525 0.414218
Si Si5 0.632324 0.065155 0.820376
Si Si6 0.980414 0.259143 0.992566
O O1 0.021750 0.679468 0.250000
O O2 0.217446 0.845943 0.197560
O O3 0.138741 0.589498 0.191990
O O4 0.985747 0.672112 0.155153
O O5 0.470679 0.682293 0.750000
O O6 0.362224 0.446386 0.796682
O O7 0.413269 0.868373 0.905086
O O8 0.164837 0.789544 0.898399
O O9 0.330092 0.022125 0.938581
O O10 0.388963 0.026725 0.469709
O O11 0.358224 0.943003 0.378225
O O12 0.112856 0.254562 0.002449
#
# Coordination Sequence:
#
# PCOD8325579 Si02
#       6
#    12   6  12  12  12  12
#     4  11  21  37  56  87 116 161 203 246 302 350
#     4  10  24  36  60  94 124 158 208 254 312 356
#     4  10  22  37  59  85 121 155 199 252 309 378
#     4  10  22  36  57  87 117 155 195 252 312 367
#     4  11  22  38  60  88 123 161 204 260 296 367
#     4  10  20  38  59  83 110 151 199 250 306 371
#
# _framework density 20.460204000000001
#
# number of rings (size 3 to 8) (size 9 to 14) (size 15 to 20)
#    0.182    1.455    1.818    2.545    5.091    0.000 
#    0.000    0.000    0.000   12.364    0.000    0.000 
#    0.000    0.000    0.000    0.000    0.000    0.000 
#
# Total GULP energy -817926.998156 kJ/mol
# GULP energy per Si atom -12392.833305 kJ/mol
# Density = 2.041364 g / cm^3
# Si number density = 20.460204 Si / 1000 Ang^3
#
#
#
# Elastic Constant Matrix: (Units=GPa)
#
#
# Indices 1 2 3 4 5 6 
#
# 1 42.5770 60.2998 42.9678 0.0000 0.0000 0.0000
# 2 60.2998 42.5770 42.9678 0.0000 0.0000 0.0000
# 3 42.9678 42.9678 172.3179 0.0000 0.0000 0.0000
# 4 0.0000 0.0000 0.0000 -0.3975 0.0000 0.0000
# 5 0.0000 0.0000 0.0000 0.0000 -0.3975 0.0000
# 6 0.0000 0.0000 0.0000 0.0000 0.0000 -8.8614
#
#
#
# Elastic Compliance Matrix: (Units=1/GPa)
#
#
# Indices 1 2 3 4 5 6 
#
# 1 -0.022073 0.034351 -0.003061 0.000000 0.000000 0.000000
# 2 0.034351 -0.022073 -0.003061 0.000000 0.000000 0.000000
# 3 -0.003061 -0.003061 0.007330 0.000000 0.000000 0.000000
# 4 0.000000 0.000000 0.000000 -2.515643 0.000001 0.000000
# 5 0.000000 0.000000 0.000000 0.000001 -2.515641 0.000000
# 6 0.000000 0.000000 0.000000 0.000000 0.000000 -0.112849
#
#
# Mechanical properties :
#
#
# Convention : Reuss Voigt Hill
#
# Bulk Modulus (GPa) = 50.91780 61.10474 56.01127
# Shear Modulus (GPa) = -0.95587 5.48447 2.26430
#
# Velocity S-wave (km/s) = -0.68425 1.63902 1.05313
# Velocity P-wave (km/s) = 4.93113 5.78894 5.37717
#
# Compressibility (1/GPa) = 0.01963950
#
# Stress axis : x y z
#
# Youngs Moduli (GPa) = -45.30353 -45.30353 136.42579
#
# Poissons Ratio (x) = 1.55622 0.41766
# Poissons Ratio (y) = 1.55622 0.41766
# Poissons Ratio (z) = -0.13870 -0.13870
#
# Static dielectric constant tensor:
#      x y z
#    x 3.511680 0.000000 0.000000 
#    y 0.000000 3.511680 0.000000 
#    z 0.000000 0.000000 4.128430 
# 
# 
# High freq. dielectric constant tensor:
#      x y z
#    x 1.785510 0.000000 0.000000 
#    y 0.000000 1.785510 0.000000 
#    z 0.000000 0.000000 1.824910 
# 
# From -- ./inp_files/4480.got.cif
#   From: 2010.06.25/outbox.cif.g09.slc.cpg/sg176_3_cif.got.tgz:4480.got - 2010.06.28 12:15:01.
