data_PCOD8325449
_publ_section_title
;
Structure prediction by ZEFSAII (Michael W. Deem and Ramdas Pophale) SiO2 
 PCOD8325449
Probable space group: P 63/M
;
_chemical_formula_sum "Si O2"
_cell_formula_units_Z 40
_cell_length_a 19.015936
_cell_length_b 19.015936
_cell_length_c 8.919619
_cell_angle_alpha 90.000000
_cell_angle_beta 90.000000
_cell_angle_gamma 120.000000
_cell_volume 2793.266352
_symmetry_space_group_name_H-M "P 63/M"
_symmetry_group_IT_number 176
_symmetry_cell_setting 'hexagonal'
loop_
_space_group_symop_operation_xyz
x,y,z
x-y,x,1/2+z
-y,x-y,z
-x,-y,1/2+z
-x+y,-x,z
y,-x+y,1/2+z
-x,-y,-z
-x+y,-x,1/2-z
y,-x+y,-z
x,y,1/2-z
x-y,x,-z
-y,x-y,1/2-z
loop_
_atom_site_type_symbol
_atom_site_label
_atom_site_fract_x
_atom_site_fract_y
_atom_site_fract_z
Si Si1 0.666668 0.333334 0.427462
Si Si2 0.091709 0.479858 0.422910
Si Si3 0.742781 0.504236 0.575633
Si Si4 0.089162 0.625864 0.924054
O O1 0.666667 0.333334 0.250000
O O2 0.690269 0.421156 0.487344
O O3 0.094854 0.506475 0.250000
O O4 0.161182 0.456623 0.456410
O O5 0.106706 0.554712 0.526025
O O6 0.004529 0.401189 0.458953
O O7 0.723279 0.487132 0.750000
O O8 0.709363 0.562402 0.514373
O O9 0.109425 0.642613 0.750000
#
# Coordination Sequence:
#
# PCOD8325449 Si02
#       4
#     4  12  12  12
#     4  12  22  29  40  63  82 104 145 186 208 239
#     4   9  19  32  44  58  81 110 139 172 212 251
#     4  11  20  31  45  60  82 112 139 172 216 256
#     4  10  19  30  44  62  81 105 140 178 209 243
#
# _framework density 14.320152999999999
#
# number of rings (size 3 to 8) (size 9 to 14) (size 15 to 20)
#    0.000    1.800    3.000    2.700    0.000    2.400 
#    0.000    0.000    0.000    0.000    0.000    0.000 
#    0.000    0.000    0.000    0.900    0.000   10.800 
#
# Total GULP energy -495928.202763 kJ/mol
# GULP energy per Si atom -12398.205069 kJ/mol
# Density = 1.428756 g / cm^3
# Si number density = 14.320153 Si / 1000 Ang^3
#
#
#
# Elastic Constant Matrix: (Units=GPa)
#
#
# Indices 1 2 3 4 5 6 
#
# 1 84.9533 42.2112 39.1218 0.0000 0.0000 0.0005
# 2 42.2112 84.9518 39.1221 0.0000 0.0000 -0.0004
# 3 39.1218 39.1221 85.9058 0.0000 0.0000 -0.0002
# 4 0.0000 0.0000 0.0000 20.7974 -0.0002 0.0000
# 5 0.0000 0.0000 0.0000 -0.0002 20.7972 0.0000
# 6 0.0005 -0.0004 -0.0002 0.0000 0.0000 21.3703
#
#
#
# Elastic Compliance Matrix: (Units=1/GPa)
#
#
# Indices 1 2 3 4 5 6 
#
# 1 0.017161 -0.006236 -0.004975 0.000000 0.000000 -0.000001
# 2 -0.006236 0.017161 -0.004976 0.000000 0.000000 0.000000
# 3 -0.004975 -0.004976 0.016172 0.000000 0.000000 0.000000
# 4 0.000000 0.000000 0.000000 0.048083 0.000000 0.000000
# 5 0.000000 0.000000 0.000000 0.000000 0.048083 0.000000
# 6 -0.000001 0.000000 0.000000 0.000000 0.000000 0.046794
#
#
# Mechanical properties :
#
#
# Convention : Reuss Voigt Hill
#
# Bulk Modulus (GPa) = 55.18409 55.19120 55.18764
# Shear Modulus (GPa) = 21.56403 21.61671 21.59037
#
# Velocity S-wave (km/s) = 3.88474 3.88948 3.88711
# Velocity P-wave (km/s) = 7.66428 7.66781 7.66605
#
# Compressibility (1/GPa) = 0.01812117
#
# Stress axis : x y z
#
# Youngs Moduli (GPa) = 58.27279 58.27124 61.83404
#
# Poissons Ratio (x) = 0.36336 0.30764
# Poissons Ratio (y) = 0.36337 0.30766
# Poissons Ratio (z) = 0.28992 0.28993
#
# Static dielectric constant tensor:
#      x y z
#    x 2.830620 0.000010 0.000000 
#    y 0.000010 2.830620 0.000000 
#    z 0.000000 0.000000 2.930030 
# 
# 
# High freq. dielectric constant tensor:
#      x y z
#    x 1.520710 0.000000 0.000000 
#    y 0.000000 1.520710 0.000000 
#    z 0.000000 0.000000 1.564640 
# 
# From -- ./inp_files/503.got.cif
#   From: 2010.06.25/outbox.cif.g09.slc.cpg/sg176_1_cif.got.tgz:503.got - 2010.06.28 12:15:01.
