data_PCOD8325930
_publ_section_title
;
Structure prediction by ZEFSAII (Michael W. Deem and Ramdas Pophale) SiO2 
 PCOD8325930
Probable space group: P 61 2 2
;
_chemical_formula_sum "Si O2"
_cell_formula_units_Z 60
_cell_length_a 14.002448
_cell_length_b 14.002448
_cell_length_c 14.332545
_cell_angle_alpha 90.000000
_cell_angle_beta 90.000000
_cell_angle_gamma 120.000000
_cell_volume 2433.671088
_symmetry_space_group_name_H-M "P 61 2 2"
_symmetry_group_IT_number 178
_symmetry_cell_setting 'hexagonal'
loop_
_space_group_symop_operation_xyz
x,y,z
x-y,x,1/6+z
-y,x-y,1/3+z
-x,-y,1/2+z
-x+y,-x,2/3+z
y,-x+y,5/6+z
x-y,-y,-z
-x,-x+y,2/3-z
y,x,1/3-z
-y,-x,5/6-z
-x+y,y,1/2-z
x,x-y,1/6-z
loop_
_atom_site_type_symbol
_atom_site_label
_atom_site_fract_x
_atom_site_fract_y
_atom_site_fract_z
Si Si1 0.883044 0.256830 0.998834
Si Si2 0.215954 0.673468 0.009066
Si Si3 0.767789 0.139236 0.625760
Si Si4 0.498550 0.508197 0.772160
Si Si5 0.964052 0.117550 0.650842
O O1 0.795506 0.204495 0.916667
O O2 0.926169 0.386968 0.997729
O O3 0.823754 0.214625 0.098961
O O4 0.978508 0.224674 0.984999
O O5 0.283643 0.641822 0.083334
O O6 0.186259 0.759949 0.053952
O O7 0.285978 0.714023 0.916667
O O8 0.107363 0.560707 0.986979
O O9 0.843403 0.082975 0.607052
O O10 0.639644 0.060236 0.604421
O O11 0.466538 0.466538 0.666667
O O12 0.040714 0.099064 0.576477
#
# Coordination Sequence:
#
# PCOD8325930 Si02
#       5
#    12  12  12  12  12
#     4  11  27  47  82 115 153 203 275 331 399 466
#     4  12  26  46  70 104 156 201 255 316 387 467
#     4  11  24  47  75 111 153 203 255 320 395 480
#     4  12  26  48  77 113 155 209 255 328 401 473
#     4  10  23  46  82 114 159 208 266 337 401 479
#
# _framework density 24.654112000000001
#
# number of rings (size 3 to 8) (size 9 to 14) (size 15 to 20)
#    0.000    0.800    2.000    5.400    8.400    2.400 
#    0.000    0.000   13.200    0.000    0.000    0.000 
#    0.000    0.000    0.000    0.000    0.000    0.000 
#
# Total GULP energy -743909.355951 kJ/mol
# GULP energy per Si atom -12398.489266 kJ/mol
# Density = 2.459800 g / cm^3
# Si number density = 24.654112 Si / 1000 Ang^3
#
#
#
# Elastic Constant Matrix: (Units=GPa)
#
#
# Indices 1 2 3 4 5 6 
#
# 1 120.3105 44.2331 47.3484 0.0000 0.0000 0.0000
# 2 44.2331 120.3105 47.3484 0.0000 0.0000 0.0000
# 3 47.3484 47.3484 180.9788 0.0000 0.0000 0.0000
# 4 0.0000 0.0000 0.0000 49.8966 0.0000 0.0000
# 5 0.0000 0.0000 0.0000 0.0000 49.8966 0.0000
# 6 0.0000 0.0000 0.0000 0.0000 0.0000 38.0387
#
#
#
# Elastic Compliance Matrix: (Units=1/GPa)
#
#
# Indices 1 2 3 4 5 6 
#
# 1 0.010150 -0.002995 -0.001872 0.000000 0.000000 0.000000
# 2 -0.002995 0.010150 -0.001872 0.000000 0.000000 0.000000
# 3 -0.001872 -0.001872 0.006505 0.000000 0.000000 0.000000
# 4 0.000000 0.000000 0.000000 0.020041 0.000000 0.000000
# 5 0.000000 0.000000 0.000000 0.000000 0.020041 0.000000
# 6 0.000000 0.000000 0.000000 0.000000 0.000000 0.026289
#
#
# Mechanical properties :
#
#
# Convention : Reuss Voigt Hill
#
# Bulk Modulus (GPa) = 75.03586 77.71771 76.37679
# Shear Modulus (GPa) = 45.00631 46.41104 45.70868
#
# Velocity S-wave (km/s) = 4.27723 4.34347 4.31048
# Velocity P-wave (km/s) = 7.40908 7.53299 7.47129
#
# Compressibility (1/GPa) = 0.01332696
#
# Stress axis : x y z
#
# Youngs Moduli (GPa) = 98.52613 98.52613 153.72926
#
# Poissons Ratio (x) = 0.29508 0.28776
# Poissons Ratio (y) = 0.29508 0.28776
# Poissons Ratio (z) = 0.18442 0.18442
#
# Static dielectric constant tensor:
#      x y z
#    x 4.360630 0.000000 0.000000 
#    y 0.000000 4.360630 0.000000 
#    z 0.000000 0.000000 4.821300 
# 
# 
# High freq. dielectric constant tensor:
#      x y z
#    x 1.980590 0.000000 0.000000 
#    y 0.000000 1.980590 0.000000 
#    z 0.000000 0.000000 1.999450 
# 
# From -- ./inp_files/5682.got.cif
#   From: 2010.03.12/outbox.cif.g09.slc.cpg/sg178_3_cif.got.tgz:5682.got - 2010.04.02 07:02:38.
