data_PCOD8325256
_publ_section_title
;
Structure prediction by ZEFSAII (Michael W. Deem and Ramdas Pophale) SiO2 
 PCOD8325256
Probable space group: P 6/M
;
_chemical_formula_sum "Si O2"
_cell_formula_units_Z 90
_cell_length_a 25.778895
_cell_length_b 25.778895
_cell_length_c 9.634721
_cell_angle_alpha 90.000000
_cell_angle_beta 90.000000
_cell_angle_gamma 120.000000
_cell_volume 5544.959390
_symmetry_space_group_name_H-M "P 6/M"
_symmetry_group_IT_number 175
_symmetry_cell_setting 'hexagonal'
loop_
_space_group_symop_operation_xyz
x,y,z
x-y,x,z
-y,x-y,z
-x,-y,z
-x+y,-x,z
y,-x+y,z
-x,-y,-z
-x+y,-x,-z
y,-x+y,-z
x,y,-z
x-y,x,-z
-y,x-y,-z
loop_
_atom_site_type_symbol
_atom_site_label
_atom_site_fract_x
_atom_site_fract_y
_atom_site_fract_z
Si Si1 0.063058 0.646328 0.835415
Si Si2 0.646673 0.884636 0.343269
Si Si3 0.778309 0.937623 0.249426
Si Si4 0.909193 0.861412 0.500000
Si Si5 0.879149 0.640240 0.339145
Si Si6 0.571916 0.647509 0.165029
Si Si7 0.815522 0.064288 0.151507
Si Si8 0.532450 0.070615 0.151226
O O1 0.102620 0.709079 0.761136
O O2 0.084850 0.600576 0.775183
O O3 0.993235 0.620638 0.802422
O O4 0.073966 0.654824 0.000000
O O5 0.634333 0.897037 0.500000
O O6 0.716213 0.927912 0.310482
O O7 0.627569 0.815522 0.324301
O O8 0.819378 0.935218 0.368439
O O9 0.767036 0.884303 0.145763
O O10 0.812070 0.000891 0.172073
O O11 0.892493 0.912600 0.500000
O O12 0.897098 0.641266 0.500000
O O13 0.882200 0.588401 0.253882
O O14 0.925550 0.704418 0.272782
O O15 0.505679 0.596866 0.222245
O O16 0.570126 0.658373 0.000000
O O17 0.787760 0.063927 0.000000
O O18 0.500000 0.000000 0.130577
O O19 0.546173 0.101110 0.000000
#
# Coordination Sequence:
#
# PCOD8325256 Si02
#       8
#    12  12  12   6  12  12  12  12
#     4   9  17  29  47  71  98 128 161 195 230 282
#     4  10  21  33  46  66  96 130 163 193 239 289
#     4  11  22  35  56  71  94 123 157 199 252 307
#     4  12  23  40  62  80  92 120 163 213 263 329
#     4  10  22  34  47  67  96 131 166 201 242 290
#     4   9  16  29  49  71  96 125 160 198 236 280
#     4  11  23  37  52  71  94 121 158 201 252 306
#     4   7  12  25  45  68  95 126 154 183 224 270
#
# _framework density 16.230958999999999
#
# number of rings (size 3 to 8) (size 9 to 14) (size 15 to 20)
#    0.000    2.267    2.000    3.267    1.867    5.867 
#    0.000    0.667    0.000    2.400    0.000    1.867 
#    1.333    0.000    0.800    0.000    1.067    0.000 
#
# Total GULP energy -1115336.674258 kJ/mol
# GULP energy per Si atom -12392.629714 kJ/mol
# Density = 1.619402 g / cm^3
# Si number density = 16.230959 Si / 1000 Ang^3
#
#
#
# Elastic Constant Matrix: (Units=GPa)
#
#
# Indices 1 2 3 4 5 6 
#
# 1 64.5204 49.4051 30.5986 0.0000 0.0000 0.0000
# 2 49.4051 64.5204 30.5986 0.0000 0.0000 0.0000
# 3 30.5986 30.5986 79.5498 0.0000 0.0000 0.0000
# 4 0.0000 0.0000 0.0000 19.8605 0.0000 0.0000
# 5 0.0000 0.0000 0.0000 0.0000 19.8605 0.0000
# 6 0.0000 0.0000 0.0000 0.0000 0.0000 7.5576
#
#
#
# Elastic Compliance Matrix: (Units=1/GPa)
#
#
# Indices 1 2 3 4 5 6 
#
# 1 0.038611 -0.027547 -0.004256 0.000000 0.000000 0.000000
# 2 -0.027547 0.038611 -0.004256 0.000000 0.000000 0.000000
# 3 -0.004256 -0.004256 0.015845 0.000000 0.000000 0.000000
# 4 0.000000 0.000000 0.000000 0.050351 0.000000 0.000000
# 5 0.000000 0.000000 0.000000 0.000000 0.050351 0.000000
# 6 0.000000 0.000000 0.000000 0.000000 0.000000 0.132316
#
#
# Mechanical properties :
#
#
# Convention : Reuss Voigt Hill
#
# Bulk Modulus (GPa) = 47.73399 47.75504 47.74451
# Shear Modulus (GPa) = 12.34004 15.98829 14.16417
#
# Velocity S-wave (km/s) = 2.76031 3.14195 2.95729
# Velocity P-wave (km/s) = 6.29540 6.53059 6.41407
#
# Compressibility (1/GPa) = 0.02094943
#
# Stress axis : x y z
#
# Youngs Moduli (GPa) = 25.89941 25.89941 63.11316
#
# Poissons Ratio (x) = 0.71346 0.26858
# Poissons Ratio (y) = 0.71346 0.26858
# Poissons Ratio (z) = 0.11022 0.11022
#
# Static dielectric constant tensor:
#      x y z
#    x 3.084770 0.000000 0.000000 
#    y 0.000000 3.084770 0.000000 
#    z 0.000000 0.000000 2.974390 
# 
# 
# High freq. dielectric constant tensor:
#      x y z
#    x 1.611170 0.000000 0.000000 
#    y 0.000000 1.611170 0.000000 
#    z 0.000000 0.000000 1.616740 
# 
# From -- ./inp_files/1480.got.cif
#   From: 2010.03.12/outbox.cif.g09.slc.cpg/sg175_1_cif.got.tgz:1480.got - 2010.04.02 06:55:29.
