data_PCOD8325770
_publ_section_title
;
Structure prediction by ZEFSAII (Michael W. Deem and Ramdas Pophale) SiO2 
 PCOD8325770
Probable space group: P 61 2 2
;
_chemical_formula_sum "Si O2"
_cell_formula_units_Z 84
_cell_length_a 14.352919
_cell_length_b 14.352919
_cell_length_c 25.097558
_cell_angle_alpha 90.000000
_cell_angle_beta 90.000000
_cell_angle_gamma 120.000000
_cell_volume 4477.571877
_symmetry_space_group_name_H-M "P 61 2 2"
_symmetry_group_IT_number 178
_symmetry_cell_setting 'hexagonal'
loop_
_space_group_symop_operation_xyz
x,y,z
x-y,x,1/6+z
-y,x-y,1/3+z
-x,-y,1/2+z
-x+y,-x,2/3+z
y,-x+y,5/6+z
x-y,-y,-z
-x,-x+y,2/3-z
y,x,1/3-z
-y,-x,5/6-z
-x+y,y,1/2-z
x,x-y,1/6-z
loop_
_atom_site_type_symbol
_atom_site_label
_atom_site_fract_x
_atom_site_fract_y
_atom_site_fract_z
Si Si1 0.459614 0.745243 0.906849
Si Si2 0.038367 0.653756 0.977207
Si Si3 0.915000 0.215346 0.618244
Si Si4 0.613450 0.464164 0.969882
Si Si5 0.206694 0.319582 0.951210
Si Si6 0.089880 0.591205 0.868694
Si Si7 0.120048 0.330051 0.350560
O O1 0.380903 0.619098 0.916667
O O2 0.444595 0.758894 0.844657
O O3 0.583859 0.784856 0.918729
O O4 0.428326 0.817318 0.943381
O O5 0.031519 0.624411 0.914777
O O6 0.074840 0.578759 0.006742
O O7 0.111422 0.783136 0.985076
O O8 0.926648 0.623400 0.005690
O O9 0.922047 0.330991 0.622715
O O10 0.900802 0.164704 0.677832
O O11 0.815918 0.133995 0.580410
O O12 0.024482 0.234314 0.589490
O O13 0.602935 0.397066 0.916667
O O14 0.140123 0.691039 0.828016
O O15 0.000000 0.490689 0.833334
O O16 0.000000 0.235708 0.333334
#
# Coordination Sequence:
#
# PCOD8325770 Si02
#       7
#    12  12  12  12  12  12  12
#     4  10  22  32  50  80 106 143 186 233 273 323
#     4  10  19  32  53  76 109 147 181 218 267 329
#     4  10  21  33  53  81 109 148 187 229 276 341
#     4  10  17  33  53  74 108 151 184 222 261 332
#     4  10  20  34  53  78 107 144 187 228 284 323
#     4  10  19  32  49  74 108 143 176 212 275 334
#     4  10  18  29  50  77 114 143 173 204 273 327
#
# _framework density 18.760166999999999
#
# number of rings (size 3 to 8) (size 9 to 14) (size 15 to 20)
#    0.000    2.000    2.857    3.857    2.000    1.143 
#    0.000    0.000    0.000    0.000    0.000   12.000 
#    0.000    0.000    0.000    0.000    0.000    0.000 
#
# Total GULP energy -1040682.033209 kJ/mol
# GULP energy per Si atom -12389.071824 kJ/mol
# Density = 1.871747 g / cm^3
# Si number density = 18.760167 Si / 1000 Ang^3
#
#
#
# Elastic Constant Matrix: (Units=GPa)
#
#
# Indices 1 2 3 4 5 6 
#
# 1 59.9366 31.7353 31.2494 0.0000 0.0000 0.0000
# 2 31.7353 59.9366 31.2494 0.0000 0.0000 0.0000
# 3 31.2494 31.2494 79.3654 0.0000 0.0000 0.0000
# 4 0.0000 0.0000 0.0000 26.9370 0.0000 0.0000
# 5 0.0000 0.0000 0.0000 0.0000 26.9370 0.0000
# 6 0.0000 0.0000 0.0000 0.0000 0.0000 14.1006
#
#
#
# Elastic Compliance Matrix: (Units=1/GPa)
#
#
# Indices 1 2 3 4 5 6 
#
# 1 0.025185 -0.010274 -0.005871 0.000000 0.000000 0.000000
# 2 -0.010274 0.025185 -0.005871 0.000000 0.000000 0.000000
# 3 -0.005871 -0.005871 0.017223 0.000000 0.000000 0.000000
# 4 0.000000 0.000000 0.000000 0.037124 0.000000 0.000000
# 5 0.000000 0.000000 0.000000 0.000000 0.037124 0.000000
# 6 0.000000 0.000000 0.000000 0.000000 0.000000 0.070919
#
#
# Mechanical properties :
#
#
# Convention : Reuss Voigt Hill
#
# Bulk Modulus (GPa) = 42.44269 43.07856 42.76062
# Shear Modulus (GPa) = 18.89309 20.59520 19.74414
#
# Velocity S-wave (km/s) = 3.17690 3.31692 3.24767
# Velocity P-wave (km/s) = 6.01082 6.13856 6.07502
#
# Compressibility (1/GPa) = 0.02356118
#
# Stress axis : x y z
#
# Youngs Moduli (GPa) = 39.70563 39.70563 58.06058
#
# Poissons Ratio (x) = 0.40794 0.34088
# Poissons Ratio (y) = 0.40794 0.34088
# Poissons Ratio (z) = 0.23312 0.23312
#
# Static dielectric constant tensor:
#      x y z
#    x 3.351360 0.000000 0.000000 
#    y 0.000000 3.351360 0.000000 
#    z 0.000000 0.000000 3.766710 
# 
# 
# High freq. dielectric constant tensor:
#      x y z
#    x 1.705600 0.000000 0.000000 
#    y 0.000000 1.705600 0.000000 
#    z 0.000000 0.000000 1.739240 
# 
# From -- ./inp_files/8327.got.cif
#   From: 2010.03.12/outbox.cif.g09.slc.cpg/sg178_5_cif.got.tgz:8327.got - 2010.04.02 07:02:38.
