data_PCOD8325438
_publ_section_title
;
Structure prediction by ZEFSAII (Michael W. Deem and Ramdas Pophale) SiO2 
 PCOD8325438
Probable space group: P 63/M
;
_chemical_formula_sum "Si O2"
_cell_formula_units_Z 58
_cell_length_a 13.304920
_cell_length_b 13.304920
_cell_length_c 22.487795
_cell_angle_alpha 90.000000
_cell_angle_beta 90.000000
_cell_angle_gamma 120.000000
_cell_volume 3447.482263
_symmetry_space_group_name_H-M "P 63/M"
_symmetry_group_IT_number 176
_symmetry_cell_setting 'hexagonal'
loop_
_space_group_symop_operation_xyz
x,y,z
x-y,x,1/2+z
-y,x-y,z
-x,-y,1/2+z
-x+y,-x,z
y,-x+y,1/2+z
-x,-y,-z
-x+y,-x,1/2-z
y,-x+y,-z
x,y,1/2-z
x-y,x,-z
-y,x-y,1/2-z
loop_
_atom_site_type_symbol
_atom_site_label
_atom_site_fract_x
_atom_site_fract_y
_atom_site_fract_z
Si Si1 0.662288 0.105508 0.582493
Si Si2 0.435665 0.329324 0.053083
Si Si3 0.666676 0.519886 0.397518
Si Si4 0.333335 0.666668 0.680790
Si Si5 0.123174 0.668422 0.378164
Si Si6 0.341312 0.540558 0.250000
O O1 0.667261 0.068558 0.514808
O O2 0.788328 0.199173 0.604975
O O3 0.576761 0.158334 0.589824
O O4 0.612256 0.986081 0.620629
O O5 0.571581 0.423207 0.058802
O O6 0.413178 0.201674 0.067944
O O7 0.359854 0.357009 0.099187
O O8 0.678309 0.454762 0.339980
O O9 0.333334 0.666668 0.750000
O O10 0.124211 0.653187 0.307116
O O11 0.450508 0.673613 0.250000
#
# Coordination Sequence:
#
# PCOD8325438 Si02
#       6
#    12  12  12   4  12   6
#     4  11  18  32  51  77 101 131 165 209 260 301
#     4  10  19  32  51  75 102 132 166 208 256 302
#     4   9  19  33  46  72 100 127 170 199 244 300
#     4   9  18  36  48  66  96 138 168 205 239 286
#     4  11  20  31  51  74 102 137 165 210 257 301
#     4  10  18  36  46  70 110 136 170 202 252 316
#
# _framework density 16.823872999999999
#
# number of rings (size 3 to 8) (size 9 to 14) (size 15 to 20)
#    0.207    1.655    2.069    5.793    0.000    0.000 
#   18.621    0.000    0.000    0.828    0.000    2.897 
#    0.000    0.000    0.000    0.000    0.000    0.000 
#
# Total GULP energy -719071.916494 kJ/mol
# GULP energy per Si atom -12397.791664 kJ/mol
# Density = 1.678558 g / cm^3
# Si number density = 16.823873 Si / 1000 Ang^3
#
#
#
# Elastic Constant Matrix: (Units=GPa)
#
#
# Indices 1 2 3 4 5 6 
#
# 1 94.4522 45.2172 33.1838 0.0000 0.0000 0.0001
# 2 45.2172 94.4521 33.1837 0.0000 0.0000 0.0003
# 3 33.1838 33.1837 126.2633 0.0000 0.0000 0.0002
# 4 0.0000 0.0000 0.0000 17.5447 0.0001 0.0000
# 5 0.0000 0.0000 0.0000 0.0001 17.5447 0.0000
# 6 0.0001 0.0003 0.0002 0.0000 0.0000 24.6174
#
#
#
# Elastic Compliance Matrix: (Units=1/GPa)
#
#
# Indices 1 2 3 4 5 6 
#
# 1 0.014246 -0.006065 -0.002150 0.000000 0.000000 0.000000
# 2 -0.006065 0.014246 -0.002150 0.000000 0.000000 0.000000
# 3 -0.002150 -0.002150 0.009050 0.000000 0.000000 0.000000
# 4 0.000000 0.000000 0.000000 0.056997 0.000000 0.000000
# 5 0.000000 0.000000 0.000000 0.000000 0.056997 0.000000
# 6 0.000000 0.000000 0.000000 0.000000 0.000000 0.040622
#
#
# Mechanical properties :
#
#
# Convention : Reuss Voigt Hill
#
# Bulk Modulus (GPa) = 59.48018 59.81519 59.64769
# Shear Modulus (GPa) = 22.88406 25.51357 24.19882
#
# Velocity S-wave (km/s) = 3.69211 3.89846 3.79669
# Velocity P-wave (km/s) = 7.32168 7.47629 7.39939
#
# Compressibility (1/GPa) = 0.01681232
#
# Stress axis : x y z
#
# Youngs Moduli (GPa) = 70.19446 70.19445 110.49518
#
# Poissons Ratio (x) = 0.42570 0.23759
# Poissons Ratio (y) = 0.42570 0.23759
# Poissons Ratio (z) = 0.15093 0.15093
#
# Static dielectric constant tensor:
#      x y z
#    x 3.076510 0.000000 0.000000 
#    y 0.000000 3.076510 0.000000 
#    z 0.000000 0.000000 3.064190 
# 
# 
# High freq. dielectric constant tensor:
#      x y z
#    x 1.629320 0.000000 0.000000 
#    y 0.000000 1.629320 0.000000 
#    z 0.000000 0.000000 1.643780 
# 
# From -- ./inp_files/3765.got.cif
#   From: 2010.06.25/outbox.cif.g09.slc.cpg/sg176_2_cif.got.tgz:3765.got - 2010.06.28 12:15:01.
