data_PCOD8325064
_publ_section_title
;
Structure prediction by ZEFSAII (Michael W. Deem and Ramdas Pophale) SiO2 
 PCOD8325064
Probable space group: P 6/M
;
_chemical_formula_sum "Si O2"
_cell_formula_units_Z 52
_cell_length_a 23.530951
_cell_length_b 23.530951
_cell_length_c 8.716803
_cell_angle_alpha 90.000000
_cell_angle_beta 90.000000
_cell_angle_gamma 120.000000
_cell_volume 4179.908949
_symmetry_space_group_name_H-M "P 6/M"
_symmetry_group_IT_number 175
_symmetry_cell_setting 'hexagonal'
loop_
_space_group_symop_operation_xyz
x,y,z
x-y,x,z
-y,x-y,z
-x,-y,z
-x+y,-x,z
y,-x+y,z
-x,-y,-z
-x+y,-x,-z
y,-x+y,-z
x,y,-z
x-y,x,-z
-y,x-y,-z
loop_
_atom_site_type_symbol
_atom_site_label
_atom_site_fract_x
_atom_site_fract_y
_atom_site_fract_z
Si Si1 0.568499 0.002161 0.327193
Si Si2 0.333334 0.666668 0.181680
Si Si3 0.630657 0.136456 0.819526
Si Si4 0.260183 0.733354 0.681040
Si Si5 0.636027 0.503814 0.819727
O O1 0.592775 0.002275 0.500000
O O2 0.621381 0.067599 0.239847
O O3 0.500000 0.000000 0.328272
O O4 0.560281 0.939118 0.236243
O O5 0.404170 0.718821 0.240899
O O6 0.333334 0.666668 0.000000
O O7 0.695783 0.192757 0.739345
O O8 0.568137 0.143963 0.775492
O O9 0.641751 0.141391 0.000000
O O10 0.266151 0.731623 0.500000
O O11 0.184627 0.702431 0.732827
O O12 0.648433 0.510446 0.000000
#
# Coordination Sequence:
#
# PCOD8325064 Si02
#       5
#    12   4  12  12  12
#     4   9  17  29  43  57  73  91 119 149 176 211
#     4  12  22  32  40  51  73  98 118 144 184 230
#     4  10  19  30  43  56  74  96 120 146 180 221
#     4  12  22  30  42  58  75  95 120 150 184 221
#     4  10  19  30  43  56  74  96 120 146 180 221
#
# _framework density 12.440462999999999
#
# number of rings (size 3 to 8) (size 9 to 14) (size 15 to 20)
#    0.000    1.615    2.308    4.846    0.000    4.615 
#    0.000    0.000    0.000    0.000    0.000    0.000 
#    0.000    0.000    0.000    0.000    0.000    0.000 
#
# Total GULP energy -644869.087616 kJ/mol
# GULP energy per Si atom -12401.328608 kJ/mol
# Density = 1.241215 g / cm^3
# Si number density = 12.440463 Si / 1000 Ang^3
#
#
#
# Elastic Constant Matrix: (Units=GPa)
#
#
# Indices 1 2 3 4 5 6 
#
# 1 65.8985 30.8376 34.8745 0.0000 0.0000 0.0002
# 2 30.8376 65.8990 34.8752 0.0000 0.0000 0.0008
# 3 34.8745 34.8752 99.6185 0.0000 0.0000 -0.0002
# 4 0.0000 0.0000 0.0000 20.2694 0.0001 0.0000
# 5 0.0000 0.0000 0.0000 0.0001 20.2695 0.0000
# 6 0.0002 0.0008 -0.0002 0.0000 0.0000 17.5300
#
#
#
# Elastic Compliance Matrix: (Units=1/GPa)
#
#
# Indices 1 2 3 4 5 6 
#
# 1 0.021175 -0.007347 -0.004841 0.000000 0.000000 0.000000
# 2 -0.007347 0.021175 -0.004841 0.000000 0.000000 -0.000001
# 3 -0.004841 -0.004841 0.013428 0.000000 0.000000 0.000000
# 4 0.000000 0.000000 0.000000 0.049335 0.000000 0.000000
# 5 0.000000 0.000000 0.000000 0.000000 0.049335 0.000000
# 6 0.000000 -0.000001 0.000000 0.000000 0.000000 0.057045
#
#
# Mechanical properties :
#
#
# Convention : Reuss Voigt Hill
#
# Bulk Modulus (GPa) = 46.04103 48.06563 47.05333
# Shear Modulus (GPa) = 19.77925 20.33569 20.05747
#
# Velocity S-wave (km/s) = 3.99170 4.04745 4.01967
# Velocity P-wave (km/s) = 7.63769 7.78222 7.71029
#
# Compressibility (1/GPa) = 0.02171976
#
# Stress axis : x y z
#
# Youngs Moduli (GPa) = 47.22619 47.22622 74.47269
#
# Poissons Ratio (x) = 0.34697 0.36051
# Poissons Ratio (y) = 0.34697 0.36052
# Poissons Ratio (z) = 0.22861 0.22862
#
# Static dielectric constant tensor:
#      x y z
#    x 2.434690 0.000000 0.000000 
#    y 0.000000 2.434690 0.000000 
#    z 0.000000 0.000000 2.691650 
# 
# 
# High freq. dielectric constant tensor:
#      x y z
#    x 1.438920 0.000000 0.000000 
#    y 0.000000 1.438920 0.000000 
#    z 0.000000 0.000000 1.496170 
# 
# From -- ./inp_files/1089.got.cif
#   From: 2010.03.12/outbox.cif.g09.slc.cpg/sg175_1_cif.got.tgz:1089.got - 2010.04.02 06:55:29.
