data_PCOD8325767
_publ_section_title
;
Structure prediction by ZEFSAII (Michael W. Deem and Ramdas Pophale) SiO2 
 PCOD8325767
Probable space group: P 61 2 2
;
_chemical_formula_sum "Si O2"
_cell_formula_units_Z 60
_cell_length_a 18.167894
_cell_length_b 18.167894
_cell_length_c 10.211273
_cell_angle_alpha 90.000000
_cell_angle_beta 90.000000
_cell_angle_gamma 120.000000
_cell_volume 2918.903207
_symmetry_space_group_name_H-M "P 61 2 2"
_symmetry_group_IT_number 178
_symmetry_cell_setting 'hexagonal'
loop_
_space_group_symop_operation_xyz
x,y,z
x-y,x,1/6+z
-y,x-y,1/3+z
-x,-y,1/2+z
-x+y,-x,2/3+z
y,-x+y,5/6+z
x-y,-y,-z
-x,-x+y,2/3-z
y,x,1/3-z
-y,-x,5/6-z
-x+y,y,1/2-z
x,x-y,1/6-z
loop_
_atom_site_type_symbol
_atom_site_label
_atom_site_fract_x
_atom_site_fract_y
_atom_site_fract_z
Si Si1 0.993108 0.696844 0.179441
Si Si2 0.143010 0.015957 0.699066
Si Si3 0.688014 0.522026 0.328228
Si Si4 0.609713 0.067800 0.311903
Si Si5 0.880804 0.391010 0.250048
O O1 0.066703 0.678689 0.121501
O O2 0.000000 0.709489 0.333334
O O3 0.004315 0.781303 0.109363
O O4 0.898114 0.621549 0.154468
O O5 0.126849 0.056076 0.829560
O O6 0.170612 0.085306 0.583334
O O7 0.751072 0.502144 0.250000
O O8 0.673801 0.485125 0.478164
O O9 0.601458 0.476929 0.242840
O O10 0.550682 0.101364 0.250000
O O11 0.651563 0.127773 0.440495
O O12 0.552861 0.971846 0.357041
#
# Coordination Sequence:
#
# PCOD8325767 Si02
#       5
#    12  12  12  12  12
#     4  11  19  31  55  92 116 152 206 262 312 371
#     4  10  20  37  60  90 123 159 209 267 321 391
#     4  10  19  31  57  86 114 153 199 253 299 356
#     4  10  17  31  56  84 118 153 193 255 318 379
#     4   9  18  34  50  85 113 154 200 236 302 368
#
# _framework density 20.555667
#
# number of rings (size 3 to 8) (size 9 to 14) (size 15 to 20)
#    0.000    2.000    6.000    1.800    0.000    0.000 
#    0.000    0.000    0.000   50.400    5.200    0.000 
#    0.000    0.000    0.000    0.000    0.000    0.000 
#
# Total GULP energy -743467.003263 kJ/mol
# GULP energy per Si atom -12391.116721 kJ/mol
# Density = 2.050888 g / cm^3
# Si number density = 20.555667 Si / 1000 Ang^3
#
#
#
# Elastic Constant Matrix: (Units=GPa)
#
#
# Indices 1 2 3 4 5 6 
#
# 1 88.3197 47.1667 45.3553 0.0000 0.0000 0.0000
# 2 47.1667 88.3197 45.3553 0.0000 0.0000 0.0000
# 3 45.3553 45.3553 102.3992 0.0000 0.0000 0.0000
# 4 0.0000 0.0000 0.0000 24.7651 0.0000 0.0000
# 5 0.0000 0.0000 0.0000 0.0000 24.7651 0.0000
# 6 0.0000 0.0000 0.0000 0.0000 0.0000 20.5765
#
#
#
# Elastic Compliance Matrix: (Units=1/GPa)
#
#
# Indices 1 2 3 4 5 6 
#
# 1 0.017396 -0.006904 -0.004647 0.000000 0.000000 0.000000
# 2 -0.006904 0.017396 -0.004647 0.000000 0.000000 0.000000
# 3 -0.004647 -0.004647 0.013883 0.000000 0.000000 0.000000
# 4 0.000000 0.000000 0.000000 0.040379 0.000000 0.000000
# 5 0.000000 0.000000 0.000000 0.000000 0.040379 0.000000
# 6 0.000000 0.000000 0.000000 0.000000 0.000000 0.048599
#
#
# Mechanical properties :
#
#
# Convention : Reuss Voigt Hill
#
# Bulk Modulus (GPa) = 61.43318 61.64371 61.53844
# Shear Modulus (GPa) = 23.16369 23.43206 23.29788
#
# Velocity S-wave (km/s) = 3.36054 3.37995 3.37026
# Velocity P-wave (km/s) = 6.70886 6.72948 6.71917
#
# Compressibility (1/GPa) = 0.01627785
#
# Stress axis : x y z
#
# Youngs Moduli (GPa) = 57.48470 57.48470 72.03292
#
# Poissons Ratio (x) = 0.39685 0.33476
# Poissons Ratio (y) = 0.39685 0.33476
# Poissons Ratio (z) = 0.26715 0.26715
#
# Static dielectric constant tensor:
#      x y z
#    x 3.631300 0.000000 0.000000 
#    y 0.000000 3.631300 0.000000 
#    z 0.000000 0.000000 4.217230 
# 
# 
# High freq. dielectric constant tensor:
#      x y z
#    x 1.778750 0.000000 0.000000 
#    y 0.000000 1.778750 0.000000 
#    z 0.000000 0.000000 1.799670 
# 
# From -- ./inp_files/4511.got.cif
#   From: 2010.03.12/outbox.cif.g09.slc.cpg/sg178_3_cif.got.tgz:4511.got - 2010.04.02 07:02:38.
