data_PCOD8326092
_publ_section_title
;
Structure prediction by ZEFSAII (Michael W. Deem and Ramdas Pophale) SiO2 
 PCOD8326092
Probable space group: P 65 2 2
;
_chemical_formula_sum "Si O2"
_cell_formula_units_Z 48
_cell_length_a 18.303600
_cell_length_b 18.303600
_cell_length_c 7.275004
_cell_angle_alpha 90.000000
_cell_angle_beta 90.000000
_cell_angle_gamma 120.000000
_cell_volume 2110.750500
_symmetry_space_group_name_H-M "P 65 2 2"
_symmetry_group_IT_number 179
_symmetry_cell_setting 'hexagonal'
loop_
_space_group_symop_operation_xyz
x,y,z
x-y,x,5/6+z
-y,x-y,2/3+z
-x,-y,1/2+z
-x+y,-x,1/3+z
y,-x+y,1/6+z
x-y,-y,-z
-x,-x+y,1/3-z
y,x,2/3-z
-y,-x,1/6-z
-x+y,y,1/2-z
x,x-y,5/6-z
loop_
_atom_site_type_symbol
_atom_site_label
_atom_site_fract_x
_atom_site_fract_y
_atom_site_fract_z
Si Si1 0.592351 0.407650 0.083334
Si Si2 0.910326 0.197379 0.238300
Si Si3 0.183150 0.091575 0.916667
Si Si4 0.228166 0.773852 0.877533
Si Si5 0.917330 0.513707 0.074413
O O1 0.692194 0.451340 0.038271
O O2 0.578137 0.447935 0.263910
O O3 0.916419 0.157971 0.429609
O O4 0.850020 0.238341 0.254914
O O5 0.000000 0.271659 0.166667
O O6 0.874944 0.125057 0.083334
O O7 0.123089 0.123089 0.833334
O O8 0.313524 0.856895 0.812554
O O9 0.209384 0.790617 0.083334
O O10 0.000000 0.592375 0.166667
O O11 0.947420 0.473710 0.916667
#
# Coordination Sequence:
#
# PCOD8326092 Si02
#       5
#     6  12   6  12  12
#     4  10  24  46  66 102 139 184 237 286 354 422
#     4  12  26  44  73 107 143 190 239 290 361 430
#     4  12  26  48  74 104 149 186 237 294 358 430
#     4  10  25  46  71 103 145 188 235 304 353 424
#     4  11  24  43  71 101 140 184 236 288 356 415
#
# _framework density 22.740728000000001
#
# number of rings (size 3 to 8) (size 9 to 14) (size 15 to 20)
#    0.000    1.000    5.000    0.000    3.500   10.000 
#    0.000    0.000    0.000    0.000    0.000    0.000 
#    0.000    0.000    0.000    0.000    0.000    0.000 
#
# Total GULP energy -595152.842219 kJ/mol
# GULP energy per Si atom -12399.017546 kJ/mol
# Density = 2.268897 g / cm^3
# Si number density = 22.740728 Si / 1000 Ang^3
#
#
#
# Elastic Constant Matrix: (Units=GPa)
#
#
# Indices 1 2 3 4 5 6 
#
# 1 160.1722 89.5755 36.3165 0.0000 0.0000 0.0000
# 2 89.5755 160.1722 36.3165 0.0000 0.0000 0.0000
# 3 36.3165 36.3165 95.5362 0.0000 0.0000 0.0000
# 4 0.0000 0.0000 0.0000 30.7726 0.0000 0.0000
# 5 0.0000 0.0000 0.0000 0.0000 30.7726 0.0000
# 6 0.0000 0.0000 0.0000 0.0000 0.0000 35.2983
#
#
#
# Elastic Compliance Matrix: (Units=1/GPa)
#
#
# Indices 1 2 3 4 5 6 
#
# 1 0.009333 -0.004832 -0.001711 0.000000 0.000000 0.000000
# 2 -0.004832 0.009333 -0.001711 0.000000 0.000000 0.000000
# 3 -0.001711 -0.001711 0.011768 0.000000 0.000000 0.000000
# 4 0.000000 0.000000 0.000000 0.032496 0.000000 0.000000
# 5 0.000000 0.000000 0.000000 0.000000 0.032496 0.000000
# 6 0.000000 0.000000 0.000000 0.000000 0.000000 0.028330
#
#
# Mechanical properties :
#
#
# Convention : Reuss Voigt Hill
#
# Bulk Modulus (GPa) = 71.80468 82.25530 77.02999
# Shear Modulus (GPa) = 34.50458 36.28017 35.39237
#
# Velocity S-wave (km/s) = 3.89948 3.99856 3.94933
# Velocity P-wave (km/s) = 7.20545 7.58732 7.39885
#
# Compressibility (1/GPa) = 0.01392667
#
# Stress axis : x y z
#
# Youngs Moduli (GPa) = 107.14274 107.14274 84.97439
#
# Poissons Ratio (x) = 0.51767 0.14541
# Poissons Ratio (y) = 0.51767 0.14541
# Poissons Ratio (z) = 0.18335 0.18335
#
# Static dielectric constant tensor:
#      x y z
#    x 4.038910 0.000000 0.000000 
#    y 0.000000 4.038910 0.000000 
#    z 0.000000 0.000000 4.367650 
# 
# 
# High freq. dielectric constant tensor:
#      x y z
#    x 1.890980 0.000000 0.000000 
#    y 0.000000 1.890980 0.000000 
#    z 0.000000 0.000000 1.916490 
# 
# From -- ./inp_files/2853.got.cif
#   From: 2010.03.12/outbox.cif.g09.slc.cpg/sg179_2_cif.got.tgz:2853.got - 2010.04.02 07:08:42.
