data_PCOD8326397
_publ_section_title
;
Structure prediction by ZEFSAII (Michael W. Deem and Ramdas Pophale) SiO2 
 PCOD8326397
Probable space group: P 64 2 2
;
_chemical_formula_sum "Si O2"
_cell_formula_units_Z 30
_cell_length_a 16.750538
_cell_length_b 16.750538
_cell_length_c 5.183324
_cell_angle_alpha 90.000000
_cell_angle_beta 90.000000
_cell_angle_gamma 120.000000
_cell_volume 1259.495178
_symmetry_space_group_name_H-M "P 64 2 2"
_symmetry_group_IT_number 181
_symmetry_cell_setting 'hexagonal'
loop_
_space_group_symop_operation_xyz
x,y,z
x-y,x,2/3+z
-y,x-y,1/3+z
-x,-y,z
-x+y,-x,2/3+z
y,-x+y,1/3+z
x-y,-y,-z
-x,-x+y,2/3-z
y,x,1/3-z
-y,-x,1/3-z
-x+y,y,-z
x,x-y,2/3-z
loop_
_atom_site_type_symbol
_atom_site_label
_atom_site_fract_x
_atom_site_fract_y
_atom_site_fract_z
Si Si1 0.091124 0.908877 0.666667
Si Si2 0.055641 0.336537 0.097934
Si Si3 0.641694 0.455220 0.930282
O O1 0.177705 0.923224 0.841510
O O2 0.115767 0.000000 0.500000
O O3 0.145616 0.435587 0.082908
O O4 0.000000 0.346957 0.333334
O O5 0.000000 0.311104 0.833334
O O6 0.586685 0.413315 0.666667
O O7 0.569490 0.430511 0.166667
O O8 0.706133 0.412266 0.000000
#
# Coordination Sequence:
#
# PCOD8326397 Si02
#       3
#     6  12  12
#     4  10  24  50  79 110 152 198 252 308 379 448
#     4  11  25  46  73 106 145 192 243 306 376 441
#     4  12  25  44  71 104 145 191 248 307 370 442
#
# _framework density 23.819068000000001
#
# number of rings (size 3 to 8) (size 9 to 14) (size 15 to 20)
#    0.000    0.800    2.000    4.800    0.000   11.200 
#    0.000    7.000    0.000    0.000    0.000    0.000 
#    0.000    0.000    0.000    0.000    0.000    0.000 
#
# Total GULP energy -371771.997513 kJ/mol
# GULP energy per Si atom -12392.399917 kJ/mol
# Density = 2.376485 g / cm^3
# Si number density = 23.819068 Si / 1000 Ang^3
#
#
#
# Elastic Constant Matrix: (Units=GPa)
#
#
# Indices 1 2 3 4 5 6 
#
# 1 141.0142 71.9012 64.0134 0.0000 0.0000 0.0000
# 2 71.9012 141.0142 64.0134 0.0000 0.0000 0.0000
# 3 64.0134 64.0134 185.5776 0.0000 0.0000 0.0000
# 4 0.0000 0.0000 0.0000 54.9164 0.0000 0.0000
# 5 0.0000 0.0000 0.0000 0.0000 54.9164 0.0000
# 6 0.0000 0.0000 0.0000 0.0000 0.0000 34.5565
#
#
#
# Elastic Compliance Matrix: (Units=1/GPa)
#
#
# Indices 1 2 3 4 5 6 
#
# 1 0.010197 -0.004272 -0.002044 0.000000 0.000000 0.000000
# 2 -0.004272 0.010197 -0.002044 0.000000 0.000000 0.000000
# 3 -0.002044 -0.002044 0.006799 0.000000 0.000000 0.000000
# 4 0.000000 0.000000 0.000000 0.018210 0.000000 0.000000
# 5 0.000000 0.000000 0.000000 0.000000 0.018210 0.000000
# 6 0.000000 0.000000 0.000000 0.000000 0.000000 0.028938
#
#
# Mechanical properties :
#
#
# Convention : Reuss Voigt Hill
#
# Bulk Modulus (GPa) = 95.47340 96.38466 95.92903
# Shear Modulus (GPa) = 44.34133 46.72304 45.53219
#
# Velocity S-wave (km/s) = 4.31930 4.43378 4.37691
# Velocity P-wave (km/s) = 8.06504 8.17095 8.11817
#
# Compressibility (1/GPa) = 0.01047412
#
# Stress axis : x y z
#
# Youngs Moduli (GPa) = 98.06388 98.06388 147.08612
#
# Poissons Ratio (x) = 0.41889 0.30065
# Poissons Ratio (y) = 0.41889 0.30065
# Poissons Ratio (z) = 0.20045 0.20045
#
# Static dielectric constant tensor:
#      x y z
#    x 4.432480 0.000000 0.000000 
#    y 0.000000 4.432480 0.000000 
#    z 0.000000 0.000000 3.936530 
# 
# 
# High freq. dielectric constant tensor:
#      x y z
#    x 1.954630 0.000000 0.000000 
#    y 0.000000 1.954630 0.000000 
#    z 0.000000 0.000000 1.942320 
# 
# From -- ./inp_files/380.got.cif
#   From: 2010.03.12/outbox.cif.g09.slc.cpg/sg181_1_cif.got.tgz:380.got - 2010.04.01 11:42:41.
