data_PCOD8326728
_publ_section_title
;
Structure prediction by ZEFSAII (Michael W. Deem and Ramdas Pophale) SiO2 
 PCOD8326728
Probable space group: P 63 M C
;
_chemical_formula_sum "Si O2"
_cell_formula_units_Z 72
_cell_length_a 24.443664
_cell_length_b 24.443664
_cell_length_c 8.578759
_cell_angle_alpha 90.000000
_cell_angle_beta 90.000000
_cell_angle_gamma 120.000000
_cell_volume 4439.026216
_symmetry_space_group_name_H-M "P 63 M C"
_symmetry_group_IT_number 186
_symmetry_cell_setting 'hexagonal'
loop_
_space_group_symop_operation_xyz
x,y,z
x-y,x,1/2+z
-y,x-y,z
-x,-y,1/2+z
-x+y,-x,z
y,-x+y,1/2+z
-x+y,y,z
x,x-y,z
-y,-x,z
y,x,1/2+z
x-y,-y,1/2+z
-x,-x+y,1/2+z
loop_
_atom_site_type_symbol
_atom_site_label
_atom_site_fract_x
_atom_site_fract_y
_atom_site_fract_z
Si Si1 0.265610 0.861594 0.542170
Si Si2 0.815971 0.754226 0.354317
Si Si3 0.190988 0.929747 0.493989
Si Si4 0.023772 0.410184 0.128384
Si Si5 0.696415 0.069476 0.340168
Si Si6 0.603333 0.516990 0.919190
O O1 0.206103 0.793898 0.513820
O O2 0.250685 0.917102 0.486355
O O3 0.284174 0.870744 0.726020
O O4 0.322592 0.863795 0.443208
O O5 0.883243 0.766485 0.426175
O O6 0.793625 0.802510 0.409678
O O7 0.760017 0.685855 0.404842
O O8 0.823239 0.759664 0.170996
O O9 0.130509 0.869492 0.418258
O O10 0.062175 0.469363 0.241343
O O11 0.993508 0.346706 0.235690
O O12 0.070773 0.410711 0.995171
O O13 0.969308 0.417553 0.044772
O O14 0.558444 0.441557 0.945241
#
# Coordination Sequence:
#
# PCOD8326728 Si02
#       6
#    12  12  12  12  12  12
#     4   9  18  32  48  66  91 121 153 189 227 268
#     4  10  18  28  44  66  89 114 146 181 223 269
#     4   9  18  31  45  63  89 117 146 185 227 266
#     4   9  17  27  44  68  94 123 152 178 217 271
#     4   9  15  27  44  64  93 121 146 182 221 266
#     4  10  18  29  45  67  96 124 151 183 221 268
#
# _framework density 16.219774000000001
#
# number of rings (size 3 to 8) (size 9 to 14) (size 15 to 20)
#    0.000    2.667    0.000    6.000    0.000    0.667 
#    0.000    4.167    0.000    0.667    0.000    0.000 
#    0.000    1.333    0.000    0.000    0.000    0.000 
#
# Total GULP energy -892030.514439 kJ/mol
# GULP energy per Si atom -12389.312701 kJ/mol
# Density = 1.618286 g / cm^3
# Si number density = 16.219774 Si / 1000 Ang^3
#
#
#
# Elastic Constant Matrix: (Units=GPa)
#
#
# Indices 1 2 3 4 5 6 
#
# 1 92.4217 47.8873 28.3576 0.0000 0.0000 0.0000
# 2 47.8873 92.4217 28.3576 0.0000 0.0000 0.0000
# 3 28.3576 28.3576 61.5824 0.0000 0.0000 0.0000
# 4 0.0000 0.0000 0.0000 17.2246 0.0000 0.0000
# 5 0.0000 0.0000 0.0000 0.0000 17.2246 0.0000
# 6 0.0000 0.0000 0.0000 0.0000 0.0000 22.2672
#
#
#
# Elastic Compliance Matrix: (Units=1/GPa)
#
#
# Indices 1 2 3 4 5 6 
#
# 1 0.015606 -0.006849 -0.004033 0.000000 0.000000 0.000000
# 2 -0.006849 0.015606 -0.004033 0.000000 0.000000 0.000000
# 3 -0.004033 -0.004033 0.019952 0.000000 0.000000 0.000000
# 4 0.000000 0.000000 0.000000 0.058057 0.000000 0.000000
# 5 0.000000 0.000000 0.000000 0.000000 0.058057 0.000000
# 6 0.000000 0.000000 0.000000 0.000000 0.000000 0.044909
#
#
# Mechanical properties :
#
#
# Convention : Reuss Voigt Hill
#
# Bulk Modulus (GPa) = 46.86815 50.62563 48.74689
# Shear Modulus (GPa) = 20.07020 20.79817 20.43419
#
# Velocity S-wave (km/s) = 3.52147 3.58477 3.55326
# Velocity P-wave (km/s) = 6.74483 6.95803 6.85226
#
# Compressibility (1/GPa) = 0.02133645
#
# Stress axis : x y z
#
# Youngs Moduli (GPa) = 64.07860 64.07860 50.11979
#
# Poissons Ratio (x) = 0.43886 0.20211
# Poissons Ratio (y) = 0.43886 0.20211
# Poissons Ratio (z) = 0.25840 0.25840
#
# Static dielectric constant tensor:
#      x y z
#    x 3.027700 0.000000 0.000000 
#    y 0.000000 3.027700 0.000000 
#    z 0.000000 0.000000 3.127440 
# 
# 
# High freq. dielectric constant tensor:
#      x y z
#    x 1.596070 0.000000 0.000000 
#    y 0.000000 1.596070 0.000000 
#    z 0.000000 0.000000 1.626610 
# 
# From -- ./inp_files/1201.got.cif
#   From: 2010.03.12/outbox.cif.g09.slc.cpg/sg186_1_cif.got.tgz:1201.got - 2010.04.01 11:56:34.
