data_PCOD8326675
_publ_section_title
;
Structure prediction by ZEFSAII (Michael W. Deem and Ramdas Pophale) SiO2 
 PCOD8326675
Probable space group: P 63 C M
;
_chemical_formula_sum "Si O2"
_cell_formula_units_Z 84
_cell_length_a 14.566061
_cell_length_b 14.566061
_cell_length_c 23.588134
_cell_angle_alpha 90.000000
_cell_angle_beta 90.000000
_cell_angle_gamma 120.000000
_cell_volume 4334.195199
_symmetry_space_group_name_H-M "P 63 C M"
_symmetry_group_IT_number 185
_symmetry_cell_setting 'hexagonal'
loop_
_space_group_symop_operation_xyz
x,y,z
x-y,x,1/2+z
-y,x-y,z
-x,-y,1/2+z
-x+y,-x,z
y,-x+y,1/2+z
-x+y,y,1/2+z
x,x-y,1/2+z
-y,-x,1/2+z
y,x,z
x-y,-y,z
-x,-x+y,z
loop_
_atom_site_type_symbol
_atom_site_label
_atom_site_fract_x
_atom_site_fract_y
_atom_site_fract_z
Si Si1 0.551937 0.122788 0.890180
Si Si2 0.554314 0.431514 0.765179
Si Si3 0.531171 0.248740 0.567633
Si Si4 0.660096 0.878170 0.757077
Si Si5 0.123032 0.423571 0.676036
Si Si6 0.773620 0.215140 0.946884
Si Si7 0.755166 0.875787 0.375550
O O1 0.556489 0.165682 0.826301
O O2 0.667003 0.191754 0.916188
O O3 0.468026 0.136000 0.927976
O O4 0.520998 0.000000 0.889488
O O5 0.514917 0.514917 0.763961
O O6 0.460096 0.313290 0.756207
O O7 0.639985 0.469515 0.714604
O O8 0.621935 0.214008 0.567570
O O9 0.454843 0.196779 0.620916
O O10 0.453725 0.206033 0.513780
O O11 0.666846 0.801569 0.710093
O O12 0.686227 0.849460 0.818336
O O13 0.741927 0.000000 0.741298
O O14 0.000000 0.375438 0.658806
O O15 0.814056 0.134917 0.928579
O O16 0.849888 0.849888 0.374208
O O17 0.803149 0.000000 0.382543
#
# Coordination Sequence:
#
# PCOD8326675 Si02
#       7
#    12  12  12  12  12  12  12
#     4  11  21  36  57  86 121 152 192 244 298 364
#     4   9  19  34  53  85 119 151 190 239 303 360
#     4  10  22  42  58  82 119 160 204 244 297 368
#     4  10  20  38  59  84 121 159 199 249 308 370
#     4  11  22  37  59  87 119 156 204 254 303 360
#     4  12  21  39  60  86 119 160 202 249 299 367
#     4  11  23  40  63  92 126 164 206 255 309 365
#
# _framework density 19.380759999999999
#
# number of rings (size 3 to 8) (size 9 to 14) (size 15 to 20)
#    0.286    1.143    2.857    3.429    0.000    2.286 
#    0.857    1.429    0.000    0.286    0.000    0.000 
#    0.000    0.000    0.000    0.000    0.000    0.000 
#
# Total GULP energy -1041581.644315 kJ/mol
# GULP energy per Si atom -12399.781480 kJ/mol
# Density = 1.933665 g / cm^3
# Si number density = 19.380760 Si / 1000 Ang^3
#
#
#
# Elastic Constant Matrix: (Units=GPa)
#
#
# Indices 1 2 3 4 5 6 
#
# 1 63.3412 8.1285 34.4537 0.0000 0.0000 0.0000
# 2 8.1285 63.3412 34.4537 0.0000 0.0000 0.0000
# 3 34.4537 34.4537 145.9216 0.0000 0.0000 0.0000
# 4 0.0000 0.0000 0.0000 20.2268 0.0000 0.0000
# 5 0.0000 0.0000 0.0000 0.0000 20.2268 0.0000
# 6 0.0000 0.0000 0.0000 0.0000 0.0000 27.6064
#
#
#
# Elastic Compliance Matrix: (Units=1/GPa)
#
#
# Indices 1 2 3 4 5 6 
#
# 1 0.018114 0.000002 -0.004277 0.000000 0.000000 0.000000
# 2 0.000002 0.018114 -0.004277 0.000000 0.000000 0.000000
# 3 -0.004277 -0.004277 0.008873 0.000000 0.000000 0.000000
# 4 0.000000 0.000000 0.000000 0.049439 0.000000 0.000000
# 5 0.000000 0.000000 0.000000 0.000000 0.049439 0.000000
# 6 0.000000 0.000000 0.000000 0.000000 0.000000 0.036224
#
#
# Mechanical properties :
#
#
# Convention : Reuss Voigt Hill
#
# Bulk Modulus (GPa) = 35.72033 47.40846 41.56439
# Shear Modulus (GPa) = 24.19667 26.64986 25.42327
#
# Velocity S-wave (km/s) = 3.53723 3.71221 3.62578
# Velocity P-wave (km/s) = 5.92904 6.54895 6.24669
#
# Compressibility (1/GPa) = 0.02799526
#
# Stress axis : x y z
#
# Youngs Moduli (GPa) = 55.20633 55.20633 112.70309
#
# Poissons Ratio (x) = -0.00012 0.48207
# Poissons Ratio (y) = -0.00012 0.48207
# Poissons Ratio (z) = 0.23614 0.23614
#
# Static dielectric constant tensor:
#      x y z
#    x 3.420980 0.000000 0.000000 
#    y 0.000000 3.420980 0.000000 
#    z 0.000000 0.000000 3.530050 
# 
# 
# High freq. dielectric constant tensor:
#      x y z
#    x 1.746190 0.000000 0.000000 
#    y 0.000000 1.746190 0.000000 
#    z 0.000000 0.000000 1.747230 
# 
# From -- ./inp_files/2087.got.cif
#   From: 2010.03.12/outbox.cif.g09.slc.cpg/sg185_cif.got.tgz:2087.got - 2010.04.01 11:55:19.
