data_PCOD8326067
_publ_section_title
;
Structure prediction by ZEFSAII (Michael W. Deem and Ramdas Pophale) SiO2 
 PCOD8326067
Probable space group: P 65 2 2
;
_chemical_formula_sum "Si O2"
_cell_formula_units_Z 48
_cell_length_a 16.103800
_cell_length_b 16.103800
_cell_length_c 8.906727
_cell_angle_alpha 90.000000
_cell_angle_beta 90.000000
_cell_angle_gamma 120.000000
_cell_volume 2000.347783
_symmetry_space_group_name_H-M "P 65 2 2"
_symmetry_group_IT_number 179
_symmetry_cell_setting 'hexagonal'
loop_
_space_group_symop_operation_xyz
x,y,z
x-y,x,5/6+z
-y,x-y,2/3+z
-x,-y,1/2+z
-x+y,-x,1/3+z
y,-x+y,1/6+z
x-y,-y,-z
-x,-x+y,1/3-z
y,x,2/3-z
-y,-x,1/6-z
-x+y,y,1/2-z
x,x-y,5/6-z
loop_
_atom_site_type_symbol
_atom_site_label
_atom_site_fract_x
_atom_site_fract_y
_atom_site_fract_z
Si Si1 0.827027 0.972807 0.776075
Si Si2 0.650472 0.171429 0.640685
Si Si3 0.346889 0.347637 0.152009
Si Si4 0.358088 0.534737 0.207816
O O1 0.845346 0.921869 0.634040
O O2 0.736461 0.986529 0.745191
O O3 0.804070 0.902035 0.916667
O O4 0.756639 0.243362 0.583334
O O5 0.613202 0.226403 0.750000
O O6 0.572941 0.134194 0.505390
O O7 0.654168 0.089228 0.738053
O O8 0.339470 0.339470 0.333334
O O9 0.359004 0.449751 0.114700
O O10 0.248561 0.497122 0.250000
O O11 0.383488 0.616513 0.083334
#
# Coordination Sequence:
#
# PCOD8326067 Si02
#       4
#    12  12  12  12
#     4  10  21  42  71 100 137 190 250 301 373 454
#     4  12  26  48  73 109 153 197 255 315 378 459
#     4  12  25  44  73 105 147 195 250 315 385 450
#     4  12  27  46  75 107 150 204 254 309 382 457
#
# _framework density 23.995830000000002
#
# number of rings (size 3 to 8) (size 9 to 14) (size 15 to 20)
#    0.000    0.500    5.000    4.500    0.000    0.000 
#    0.000    6.250    0.000    0.000    0.000    0.000 
#    0.000    0.000    0.000    0.000    0.000    0.000 
#
# Total GULP energy -594839.594648 kJ/mol
# GULP energy per Si atom -12392.491555 kJ/mol
# Density = 2.394121 g / cm^3
# Si number density = 23.995830 Si / 1000 Ang^3
#
#
#
# Elastic Constant Matrix: (Units=GPa)
#
#
# Indices 1 2 3 4 5 6 
#
# 1 169.8028 88.1866 57.7968 0.0000 0.0000 0.0000
# 2 88.1866 169.8028 57.7968 0.0000 0.0000 0.0000
# 3 57.7968 57.7968 90.0071 0.0000 0.0000 0.0000
# 4 0.0000 0.0000 0.0000 34.0398 0.0000 0.0000
# 5 0.0000 0.0000 0.0000 0.0000 34.0398 0.0000
# 6 0.0000 0.0000 0.0000 0.0000 0.0000 40.8081
#
#
#
# Elastic Compliance Matrix: (Units=1/GPa)
#
#
# Indices 1 2 3 4 5 6 
#
# 1 0.008847 -0.003405 -0.003494 0.000000 0.000000 0.000000
# 2 -0.003405 0.008847 -0.003494 0.000000 0.000000 0.000000
# 3 -0.003494 -0.003494 0.015598 0.000000 0.000000 0.000000
# 4 0.000000 0.000000 0.000000 0.029377 0.000000 0.000000
# 5 0.000000 0.000000 0.000000 0.000000 0.029377 0.000000
# 6 0.000000 0.000000 0.000000 0.000000 0.000000 0.024505
#
#
# Mechanical properties :
#
#
# Convention : Reuss Voigt Hill
#
# Bulk Modulus (GPa) = 79.97398 93.01921 86.49660
# Shear Modulus (GPa) = 35.33368 36.83306 36.08337
#
# Velocity S-wave (km/s) = 3.84147 3.92213 3.88201
# Velocity P-wave (km/s) = 7.28536 7.70452 7.49787
#
# Compressibility (1/GPa) = 0.01250407
#
# Stress axis : x y z
#
# Youngs Moduli (GPa) = 113.03099 113.03099 64.11093
#
# Poissons Ratio (x) = 0.38491 0.22403
# Poissons Ratio (y) = 0.38491 0.22403
# Poissons Ratio (z) = 0.39497 0.39497
#
# Static dielectric constant tensor:
#      x y z
#    x 4.411430 0.000000 0.000000 
#    y 0.000000 4.411430 0.000000 
#    z 0.000000 0.000000 4.415540 
# 
# 
# High freq. dielectric constant tensor:
#      x y z
#    x 1.959540 0.000000 0.000000 
#    y 0.000000 1.959540 0.000000 
#    z 0.000000 0.000000 1.944260 
# 
# From -- ./inp_files/2580.got.cif
#   From: 2010.03.12/outbox.cif.g09.slc.cpg/sg179_2_cif.got.tgz:2580.got - 2010.04.02 07:08:42.
