data_PCOD8326168
_publ_section_title
;
Structure prediction by ZEFSAII (Michael W. Deem and Ramdas Pophale) SiO2 
 PCOD8326168
Probable space group: P 62 2 2
;
_chemical_formula_sum "Si O2"
_cell_formula_units_Z 84
_cell_length_a 18.021697
_cell_length_b 18.021697
_cell_length_c 14.931947
_cell_angle_alpha 90.000000
_cell_angle_beta 90.000000
_cell_angle_gamma 120.000000
_cell_volume 4199.895055
_symmetry_space_group_name_H-M "P 62 2 2"
_symmetry_group_IT_number 180
_symmetry_cell_setting 'hexagonal'
loop_
_space_group_symop_operation_xyz
x,y,z
x-y,x,1/3+z
-y,x-y,2/3+z
-x,-y,z
-x+y,-x,1/3+z
y,-x+y,2/3+z
x-y,-y,-z
-x,-x+y,1/3-z
y,x,2/3-z
-y,-x,2/3-z
-x+y,y,-z
x,x-y,1/3-z
loop_
_atom_site_type_symbol
_atom_site_label
_atom_site_fract_x
_atom_site_fract_y
_atom_site_fract_z
Si Si1 0.306659 0.231368 0.778603
Si Si2 0.490992 0.688419 0.537027
Si Si3 0.155615 0.661339 0.666842
Si Si4 0.524076 0.329452 0.052080
Si Si5 0.251950 0.925186 0.244043
Si Si6 0.489902 0.142946 0.483986
Si Si7 0.100754 0.729916 0.819430
O O1 0.228859 0.228859 0.833334
O O2 0.287890 0.241815 0.675679
O O3 0.302822 0.142092 0.798762
O O4 0.393997 0.312887 0.815593
O O5 0.521436 0.685363 0.436487
O O6 0.408440 0.610456 0.579203
O O7 0.570739 0.698154 0.594657
O O8 0.474515 0.768488 0.540808
O O9 0.118053 0.559027 0.666667
O O10 0.246702 0.709635 0.720549
O O11 0.096763 0.693089 0.718321
O O12 0.451388 0.323446 0.117020
O O13 0.491877 0.335452 0.954919
O O14 0.296411 0.006021 0.178100
O O15 0.551685 0.103370 0.500000
O O16 0.168582 0.831419 0.833334
#
# Coordination Sequence:
#
# PCOD8326168 Si02
#       7
#    12  12  12  12  12  12  12
#     4  10  21  41  64  86 116 145 191 242 301 371
#     4  10  21  34  51  81 117 157 204 246 294 341
#     4  10  20  34  51  79 113 159 207 245 288 340
#     4  10  20  32  53  77 116 160 202 249 285 338
#     4  10  22  40  62  88 116 151 189 244 305 362
#     4  10  21  32  52  83 113 154 198 247 292 340
#     4  10  21  38  59  85 117 154 199 243 295 361
#
# _framework density 20.000501
#
# number of rings (size 3 to 8) (size 9 to 14) (size 15 to 20)
#    0.000    2.000    1.429    1.714    4.000    3.714 
#    0.000    3.571    0.000    0.429    0.000    2.000 
#    0.000    0.000    0.000    0.000    0.000    0.000 
#
# Total GULP energy -1041161.651387 kJ/mol
# GULP energy per Si atom -12394.781564 kJ/mol
# Density = 1.995498 g / cm^3
# Si number density = 20.000501 Si / 1000 Ang^3
#
#
#
# Elastic Constant Matrix: (Units=GPa)
#
#
# Indices 1 2 3 4 5 6 
#
# 1 81.9140 53.2511 29.5047 0.0000 0.0000 0.0000
# 2 53.2511 81.9140 29.5047 0.0000 0.0000 0.0000
# 3 29.5047 29.5047 70.2799 0.0000 0.0000 0.0000
# 4 0.0000 0.0000 0.0000 27.7681 0.0000 0.0000
# 5 0.0000 0.0000 0.0000 0.0000 27.7681 0.0000
# 6 0.0000 0.0000 0.0000 0.0000 0.0000 14.3315
#
#
#
# Elastic Compliance Matrix: (Units=1/GPa)
#
#
# Indices 1 2 3 4 5 6 
#
# 1 0.021973 -0.012915 -0.003803 0.000000 0.000000 0.000000
# 2 -0.012915 0.021973 -0.003803 0.000000 0.000000 0.000000
# 3 -0.003803 -0.003803 0.017422 0.000000 0.000000 0.000000
# 4 0.000000 0.000000 0.000000 0.036013 0.000000 0.000000
# 5 0.000000 0.000000 0.000000 0.000000 0.036013 0.000000
# 6 0.000000 0.000000 0.000000 0.000000 0.000000 0.069777
#
#
# Mechanical properties :
#
#
# Convention : Reuss Voigt Hill
#
# Bulk Modulus (GPa) = 49.19492 50.95878 50.07685
# Shear Modulus (GPa) = 19.92129 22.09669 21.00899
#
# Velocity S-wave (km/s) = 3.15943 3.32747 3.24454
# Velocity P-wave (km/s) = 6.16114 6.34798 6.25525
#
# Compressibility (1/GPa) = 0.02032730
#
# Stress axis : x y z
#
# Youngs Moduli (GPa) = 45.50946 45.50946 57.39893
#
# Poissons Ratio (x) = 0.58775 0.21829
# Poissons Ratio (y) = 0.58775 0.21829
# Poissons Ratio (z) = 0.17307 0.17307
#
# Static dielectric constant tensor:
#      x y z
#    x 3.479020 0.000000 0.000000 
#    y 0.000000 3.479020 0.000000 
#    z 0.000000 0.000000 3.866390 
# 
# 
# High freq. dielectric constant tensor:
#      x y z
#    x 1.756250 0.000000 0.000000 
#    y 0.000000 1.756250 0.000000 
#    z 0.000000 0.000000 1.800610 
# 
# From -- ./inp_files/6484.got.cif
#   From: 2010.03.12/outbox.cif.g09.slc.cpg/sg180_4_cif.got.tgz:6484.got - 2010.04.01 11:35:50.
