data_PCOD8326555
_publ_section_title
;
Structure prediction by ZEFSAII (Michael W. Deem and Ramdas Pophale) SiO2 
 PCOD8326555
Probable space group: P 6 M M
;
_chemical_formula_sum "Si O2"
_cell_formula_units_Z 84
_cell_length_a 21.195855
_cell_length_b 21.195855
_cell_length_c 18.122109
_cell_angle_alpha 90.000000
_cell_angle_beta 90.000000
_cell_angle_gamma 120.000000
_cell_volume 7050.846332
_symmetry_space_group_name_H-M "P 6 M M"
_symmetry_group_IT_number 183
_symmetry_cell_setting 'hexagonal'
loop_
_space_group_symop_operation_xyz
x,y,z
x-y,x,z
-y,x-y,z
-x,-y,z
-x+y,-x,z
y,-x+y,z
-x+y,y,z
x,x-y,z
-y,-x,z
y,x,z
x-y,-y,z
-x,-x+y,z
loop_
_atom_site_type_symbol
_atom_site_label
_atom_site_fract_x
_atom_site_fract_y
_atom_site_fract_z
Si Si1 0.666577 0.186763 0.872810
Si Si2 0.384657 0.465757 0.167805
Si Si3 0.185862 0.517483 0.296747
Si Si4 0.615343 0.534243 0.745758
Si Si5 0.191596 0.523854 0.456781
Si Si6 0.520186 0.333423 0.040754
Si Si7 0.331621 0.517482 0.616815
O O1 0.602258 0.204516 0.858494
O O2 0.741022 0.258979 0.853583
O O3 0.658535 0.122367 0.819705
O O4 0.665315 0.161371 0.956782
O O5 0.462091 0.537910 0.168706
O O6 0.395586 0.395586 0.168290
O O7 0.339493 0.463678 0.240062
O O8 0.341466 0.463831 0.093858
O O9 0.262100 0.524200 0.273347
O O10 0.196693 0.598347 0.295055
O O11 0.160730 0.480900 0.379107
O O12 0.537911 0.462090 0.744857
O O13 0.604414 0.604414 0.745273
O O14 0.660507 0.536322 0.673500
O O15 0.278875 0.557750 0.456781
O O16 0.171263 0.585632 0.456782
O O17 0.160730 0.480899 0.534454
O O18 0.517957 0.258979 0.059981
O O19 0.602259 0.397742 0.055071
O O20 0.262101 0.524201 0.640214
O O21 0.401655 0.598346 0.618506
#
# Coordination Sequence:
#
# PCOD8326555 Si02
#       7
#    12  12  12  12  12  12  12
#     4   9  16  25  37  51  64  77  96 125 159 190
#     4   9  17  26  33  43  61  83 103 121 145 183
#     4   9  15  23  35  49  63  78  99 128 160 190
#     4   9  17  26  33  43  61  83 103 121 145 183
#     4   8  13  20  31  47  63  77  94 121 158 194
#     4   9  16  25  37  51  64  77  96 125 159 190
#     4   9  15  23  35  49  63  78  99 128 160 190
#
# _framework density 11.913463
#
# number of rings (size 3 to 8) (size 9 to 14) (size 15 to 20)
#    0.000    3.143    0.000    1.571    0.000    4.000 
#    0.000    6.429    0.000    4.286    0.000    0.000 
#    0.000    0.000    0.000    0.000    0.000    0.000 
#
# Total GULP energy -1040686.816362 kJ/mol
# GULP energy per Si atom -12389.128766 kJ/mol
# Density = 1.188635 g / cm^3
# Si number density = 11.913463 Si / 1000 Ang^3
#
#
#
# Elastic Constant Matrix: (Units=GPa)
#
#
# Indices 1 2 3 4 5 6 
#
# 1 45.6241 28.3211 43.2385 0.0000 0.0000 0.0000
# 2 28.3211 45.6241 43.2385 0.0000 0.0000 0.0000
# 3 43.2385 43.2385 114.4205 0.0000 0.0000 0.0000
# 4 0.0000 0.0000 0.0000 12.3481 0.0000 0.0000
# 5 0.0000 0.0000 0.0000 0.0000 12.3481 0.0000
# 6 0.0000 0.0000 0.0000 0.0000 0.0000 8.6515
#
#
#
# Elastic Compliance Matrix: (Units=1/GPa)
#
#
# Indices 1 2 3 4 5 6 
#
# 1 0.041013 -0.016780 -0.009157 0.000000 0.000000 0.000000
# 2 -0.016780 0.041013 -0.009157 0.000000 0.000000 0.000000
# 3 -0.009157 -0.009157 0.015661 0.000000 0.000000 0.000000
# 4 0.000000 0.000000 0.000000 0.080984 0.000000 0.000000
# 5 0.000000 0.000000 0.000000 0.000000 0.080984 0.000000
# 6 0.000000 0.000000 0.000000 0.000000 0.000000 0.115587
#
#
# Mechanical properties :
#
#
# Convention : Reuss Voigt Hill
#
# Bulk Modulus (GPa) = 36.36780 48.36278 42.36529
# Shear Modulus (GPa) = 10.99870 12.72756 11.86313
#
# Velocity S-wave (km/s) = 3.04174 3.27208 3.15901
# Velocity P-wave (km/s) = 6.55204 7.41340 6.99599
#
# Compressibility (1/GPa) = 0.02749685
#
# Stress axis : x y z
#
# Youngs Moduli (GPa) = 24.38237 24.38237 63.85420
#
# Poissons Ratio (x) = 0.40915 0.58474
# Poissons Ratio (y) = 0.40915 0.58474
# Poissons Ratio (z) = 0.22328 0.22328
#
# Static dielectric constant tensor:
#      x y z
#    x 2.262340 0.000000 0.000000 
#    y 0.000000 2.262340 0.000000 
#    z 0.000000 0.000000 2.885840 
# 
# 
# High freq. dielectric constant tensor:
#      x y z
#    x 1.406190 0.000000 0.000000 
#    y 0.000000 1.406190 0.000000 
#    z 0.000000 0.000000 1.478760 
# 
# From -- ./inp_files/2826.got.cif
#   From: 2010.03.12/outbox.cif.g09.slc.cpg/sg183_2_cif.got.tgz:2826.got - 2010.04.01 11:53:02.
