data_PCOD8326980
_publ_section_title
;
Structure prediction by ZEFSAII (Michael W. Deem and Ramdas Pophale) SiO2 
 PCOD8326980
Probable space group: P -6 M 2
;
_chemical_formula_sum "Si O2"
_cell_formula_units_Z 66
_cell_length_a 22.403697
_cell_length_b 22.403697
_cell_length_c 7.648291
_cell_angle_alpha 90.000000
_cell_angle_beta 90.000000
_cell_angle_gamma 120.000000
_cell_volume 3324.561843
_symmetry_space_group_name_H-M "P -6 M 2"
_symmetry_group_IT_number 187
_symmetry_cell_setting 'hexagonal'
loop_
_space_group_symop_operation_xyz
x,y,z
-x+y,-x,-z
-y,x-y,z
x,y,-z
-x+y,-x,z
-y,x-y,-z
-y,-x,-z
-x+y,y,-z
x,x-y,-z
-x+y,y,z
x,x-y,z
-y,-x,z
loop_
_atom_site_type_symbol
_atom_site_label
_atom_site_fract_x
_atom_site_fract_y
_atom_site_fract_z
Si Si1 0.867139 0.868137 0.207998
Si Si2 0.475204 0.666397 0.500000
Si Si3 0.944128 0.348475 0.794315
Si Si4 0.283191 0.074886 0.791836
Si Si5 0.087256 0.473287 0.198174
Si Si6 0.799548 0.466130 0.704901
O O1 0.851727 0.925864 0.287099
O O2 0.807989 0.792543 0.271056
O O3 0.941274 0.882548 0.275957
O O4 0.868425 0.871239 0.000000
O O5 0.397373 0.602628 0.500000
O O6 0.473065 0.736533 0.500000
O O7 0.516021 0.664772 0.326937
O O8 0.939650 0.280260 0.710142
O O9 0.876569 0.351262 0.745315
O O10 0.014399 0.413417 0.725159
O O11 0.948810 0.346719 0.000000
O O12 0.297591 0.148796 0.722315
O O13 0.286605 0.076350 0.000000
O O14 0.081062 0.540531 0.196929
O O15 0.102237 0.457268 0.000000
O O16 0.789546 0.458267 0.500000
O O17 0.740575 0.481149 0.784178
O O18 0.789436 0.394718 0.784790
#
# Coordination Sequence:
#
# PCOD8326980 Si02
#       6
#    12   6  12  12  12  12
#     4   8  12  18  30  50  78 113 152 192 235 285
#     4  10  21  38  62  88 115 146 180 220 270 328
#     4  10  19  32  51  74 100 135 177 217 264 324
#     4   8  14  24  38  59  89 124 163 208 255 305
#     4   9  19  35  55  82 114 145 181 226 270 317
#     4  10  21  35  51  72 100 134 174 222 275 327
#
# _framework density 19.852239999999998
#
# number of rings (size 3 to 8) (size 9 to 14) (size 15 to 20)
#    0.000    2.909    0.000    2.636    1.273    4.000 
#    0.000    0.909    0.000    5.455    0.000    0.000 
#    0.000    0.000    0.000    0.000    0.000    0.364 
#
# Total GULP energy -817890.866354 kJ/mol
# GULP energy per Si atom -12392.285854 kJ/mol
# Density = 1.980706 g / cm^3
# Si number density = 19.852240 Si / 1000 Ang^3
#
#
#
# Elastic Constant Matrix: (Units=GPa)
#
#
# Indices 1 2 3 4 5 6 
#
# 1 134.5488 61.8711 28.8968 0.0000 0.0000 0.0000
# 2 61.8711 134.5488 28.8968 0.0000 0.0000 0.0000
# 3 28.8968 28.8968 47.2198 0.0000 0.0000 0.0000
# 4 0.0000 0.0000 0.0000 14.5253 0.0000 0.0000
# 5 0.0000 0.0000 0.0000 0.0000 14.5253 0.0000
# 6 0.0000 0.0000 0.0000 0.0000 0.0000 36.3389
#
#
#
# Elastic Compliance Matrix: (Units=1/GPa)
#
#
# Indices 1 2 3 4 5 6 
#
# 1 0.009984 -0.003775 -0.003800 0.000000 0.000000 0.000000
# 2 -0.003775 0.009984 -0.003800 0.000000 0.000000 0.000000
# 3 -0.003800 -0.003800 0.025828 0.000000 0.000000 0.000000
# 4 0.000000 0.000000 0.000000 0.068846 0.000000 0.000000
# 5 0.000000 0.000000 0.000000 0.000000 0.068846 0.000000
# 6 0.000000 0.000000 0.000000 0.000000 0.000000 0.027519
#
#
# Mechanical properties :
#
#
# Convention : Reuss Voigt Hill
#
# Bulk Modulus (GPa) = 43.38885 61.73854 52.56369
# Shear Modulus (GPa) = 20.70922 26.18807 23.44864
#
# Velocity S-wave (km/s) = 3.23331 3.63595 3.44053
# Velocity P-wave (km/s) = 5.98686 6.98523 6.50522
#
# Compressibility (1/GPa) = 0.02304740
#
# Stress axis : x y z
#
# Youngs Moduli (GPa) = 100.15758 100.15758 38.71736
#
# Poissons Ratio (x) = 0.37811 0.14712
# Poissons Ratio (y) = 0.37811 0.14712
# Poissons Ratio (z) = 0.38058 0.38058
#
# Static dielectric constant tensor:
#      x y z
#    x 3.858820 0.000000 0.000000 
#    y 0.000000 3.858820 0.000000 
#    z 0.000000 0.000000 3.419770 
# 
# 
# High freq. dielectric constant tensor:
#      x y z
#    x 1.770690 0.000000 0.000000 
#    y 0.000000 1.770690 0.000000 
#    z 0.000000 0.000000 1.748940 
# 
# From -- ./inp_files/743.got.cif
#   From: 2010.03.12/outbox.cif.g09.slc.cpg/sg187_1_cif.got.tgz:743.got - 2010.04.01 11:58:23.
