data_PCOD8326892
_publ_section_title
;
Structure prediction by ZEFSAII (Michael W. Deem and Ramdas Pophale) SiO2 
 PCOD8326892
Probable space group: P -6 M 2
;
_chemical_formula_sum "Si O2"
_cell_formula_units_Z 54
_cell_length_a 18.139478
_cell_length_b 18.139478
_cell_length_c 12.564603
_cell_angle_alpha 90.000000
_cell_angle_beta 90.000000
_cell_angle_gamma 120.000000
_cell_volume 3580.378767
_symmetry_space_group_name_H-M "P -6 M 2"
_symmetry_group_IT_number 187
_symmetry_cell_setting 'hexagonal'
loop_
_space_group_symop_operation_xyz
x,y,z
-x+y,-x,-z
-y,x-y,z
x,y,-z
-x+y,-x,z
-y,x-y,-z
-y,-x,-z
-x+y,y,-z
x,x-y,-z
-x+y,y,z
x,x-y,z
-y,-x,z
loop_
_atom_site_type_symbol
_atom_site_label
_atom_site_fract_x
_atom_site_fract_y
_atom_site_fract_z
Si Si1 0.492230 0.157979 0.500000
Si Si2 0.161305 0.160595 0.626391
Si Si3 0.648489 0.741218 0.373867
Si Si4 0.836767 0.333265 0.877908
Si Si5 0.604716 0.566540 0.695486
O O1 0.589934 0.179867 0.500000
O O2 0.490512 0.245256 0.500000
O O3 0.441537 0.102671 0.602238
O O4 0.160907 0.158510 0.500000
O O5 0.066976 0.133951 0.667272
O O6 0.227020 0.255311 0.664150
O O7 0.187315 0.093658 0.673239
O O8 0.637964 0.729087 0.500000
O O9 0.620542 0.810271 0.338449
O O10 0.595658 0.650633 0.315650
O O11 0.812204 0.406102 0.857726
O O12 0.755537 0.244464 0.844171
O O13 0.917957 0.351396 0.807017
O O14 0.862085 0.331949 0.000000
O O15 0.509084 0.490917 0.688552
#
# Coordination Sequence:
#
# PCOD8326892 Si02
#       5
#     6  12  12  12  12
#     4  10  19  28  39  60  92 126 152 174 209 260
#     4   8  13  20  31  48  71  99 130 161 193 231
#     4   9  17  29  42  58  81 111 143 175 216 268
#     4   9  17  29  45  65  91 125 162 194 220 250
#     4  10  19  30  44  63  86 114 148 187 228 268
#
# _framework density 15.082202000000001
#
# number of rings (size 3 to 8) (size 9 to 14) (size 15 to 20)
#    0.000    2.889    1.111    2.556    0.000    3.556 
#    0.000    2.222    0.000    1.111    0.000    0.000 
#    0.000    0.000    0.000    0.000    0.000    0.000 
#
# Total GULP energy -669218.580100 kJ/mol
# GULP energy per Si atom -12392.936669 kJ/mol
# Density = 1.504787 g / cm^3
# Si number density = 15.082202 Si / 1000 Ang^3
#
#
#
# Elastic Constant Matrix: (Units=GPa)
#
#
# Indices 1 2 3 4 5 6 
#
# 1 85.0084 49.6853 33.9238 0.0000 0.0000 0.0000
# 2 49.6853 85.0084 33.9238 0.0000 0.0000 0.0000
# 3 33.9238 33.9238 56.5409 0.0000 0.0000 0.0000
# 4 0.0000 0.0000 0.0000 15.1790 0.0000 0.0000
# 5 0.0000 0.0000 0.0000 0.0000 15.1790 0.0000
# 6 0.0000 0.0000 0.0000 0.0000 0.0000 17.6616
#
#
#
# Elastic Compliance Matrix: (Units=1/GPa)
#
#
# Indices 1 2 3 4 5 6 
#
# 1 0.019475 -0.008835 -0.006384 0.000000 0.000000 0.000000
# 2 -0.008835 0.019475 -0.006384 0.000000 0.000000 0.000000
# 3 -0.006384 -0.006384 0.025347 0.000000 0.000000 0.000000
# 4 0.000000 0.000000 0.000000 0.065881 0.000000 0.000000
# 5 0.000000 0.000000 0.000000 0.000000 0.065881 0.000000
# 6 0.000000 0.000000 0.000000 0.000000 0.000000 0.056620
#
#
# Mechanical properties :
#
#
# Convention : Reuss Voigt Hill
#
# Bulk Modulus (GPa) = 47.41292 51.29150 49.35221
# Shear Modulus (GPa) = 16.50634 16.87221 16.68928
#
# Velocity S-wave (km/s) = 3.31180 3.34830 3.33010
# Velocity P-wave (km/s) = 6.79180 7.00214 6.89777
#
# Compressibility (1/GPa) = 0.02109130
#
# Stress axis : x y z
#
# Youngs Moduli (GPa) = 51.34792 51.34792 39.45285
#
# Poissons Ratio (x) = 0.45366 0.25186
# Poissons Ratio (y) = 0.45366 0.25186
# Poissons Ratio (z) = 0.32779 0.32779
#
# Static dielectric constant tensor:
#      x y z
#    x 2.915650 0.000000 0.000000 
#    y 0.000000 2.915650 0.000000 
#    z 0.000000 0.000000 2.668360 
# 
# 
# High freq. dielectric constant tensor:
#      x y z
#    x 1.568500 0.000000 0.000000 
#    y 0.000000 1.568500 0.000000 
#    z 0.000000 0.000000 1.535350 
# 
# From -- ./inp_files/1527.got.cif
#   From: 2010.03.12/outbox.cif.g09.slc.cpg/sg187_1_cif.got.tgz:1527.got - 2010.04.01 11:58:23.
