data_PCOD8326491
_publ_section_title
;
Structure prediction by ZEFSAII (Michael W. Deem and Ramdas Pophale) SiO2 
 PCOD8326491
Probable space group: P 63 2 2
;
_chemical_formula_sum "Si O2"
_cell_formula_units_Z 36
_cell_length_a 8.184683
_cell_length_b 8.184683
_cell_length_c 29.126319
_cell_angle_alpha 90.000000
_cell_angle_beta 90.000000
_cell_angle_gamma 120.000000
_cell_volume 1689.740293
_symmetry_space_group_name_H-M "P 63 2 2"
_symmetry_group_IT_number 182
_symmetry_cell_setting 'hexagonal'
loop_
_space_group_symop_operation_xyz
x,y,z
x-y,x,1/2+z
-y,x-y,z
-x,-y,1/2+z
-x+y,-x,z
y,-x+y,1/2+z
x-y,-y,-z
-x,-x+y,-z
y,x,-z
-y,-x,1/2-z
-x+y,y,1/2-z
x,x-y,1/2-z
loop_
_atom_site_type_symbol
_atom_site_label
_atom_site_fract_x
_atom_site_fract_y
_atom_site_fract_z
Si Si1 0.006242 0.792388 0.869180
Si Si2 0.667707 0.666860 0.269984
Si Si3 0.876637 0.544310 0.043256
O O1 0.011217 0.673150 0.912195
O O2 0.817500 0.811643 0.869623
O O3 0.005389 0.674800 0.825030
O O4 0.457405 0.542596 0.250000
O O5 0.754181 0.877091 0.250000
O O6 0.789671 0.579341 0.250000
O O7 0.665761 0.518399 0.042722
O O8 0.000000 0.663887 0.000000
#
# Coordination Sequence:
#
# PCOD8326491 Si02
#       3
#    12  12  12
#     4  10  23  42  71  92 129 179 225 274 339 405
#     4  12  24  44  67 100 142 183 226 284 347 420
#     4  10  26  42  67  97 134 169 226 282 348 414
#
# _framework density 21.305049
#
# number of rings (size 3 to 8) (size 9 to 14) (size 15 to 20)
#    1.333    0.000    3.333    1.000    9.333    0.000 
#    0.000    0.000    0.000    0.000    0.000    0.000 
#    0.000    0.000    0.000    0.000    0.000    0.000 
#
# Total GULP energy -446196.426168 kJ/mol
# GULP energy per Si atom -12394.345171 kJ/mol
# Density = 2.125656 g / cm^3
# Si number density = 21.305049 Si / 1000 Ang^3
#
#
#
# Elastic Constant Matrix: (Units=GPa)
#
#
# Indices 1 2 3 4 5 6 
#
# 1 78.6470 34.6198 63.3863 0.0000 0.0000 0.0000
# 2 34.6198 78.6470 63.3863 0.0000 0.0000 0.0000
# 3 63.3863 63.3863 240.5736 0.0000 0.0000 0.0000
# 4 0.0000 0.0000 0.0000 38.2146 0.0000 0.0000
# 5 0.0000 0.0000 0.0000 0.0000 38.2146 0.0000
# 6 0.0000 0.0000 0.0000 0.0000 0.0000 22.0136
#
#
#
# Elastic Compliance Matrix: (Units=1/GPa)
#
#
# Indices 1 2 3 4 5 6 
#
# 1 0.017617 -0.005096 -0.003299 0.000000 0.000000 0.000000
# 2 -0.005096 0.017617 -0.003299 0.000000 0.000000 0.000000
# 3 -0.003299 -0.003299 0.005895 0.000000 0.000000 0.000000
# 4 0.000000 0.000000 0.000000 0.026168 0.000000 0.000000
# 5 0.000000 0.000000 0.000000 0.000000 0.026168 0.000000
# 6 0.000000 0.000000 0.000000 0.000000 0.000000 0.045426
#
#
# Mechanical properties :
#
#
# Convention : Reuss Voigt Hill
#
# Bulk Modulus (GPa) = 56.36584 80.07249 68.21916
# Shear Modulus (GPa) = 29.72758 35.45361 32.59060
#
# Velocity S-wave (km/s) = 3.73946 4.08376 3.91540
# Velocity P-wave (km/s) = 6.72003 7.73961 7.24777
#
# Compressibility (1/GPa) = 0.01774124
#
# Stress axis : x y z
#
# Youngs Moduli (GPa) = 56.76280 56.76280 169.62926
#
# Poissons Ratio (x) = 0.28926 0.55962
# Poissons Ratio (y) = 0.28926 0.55962
# Poissons Ratio (z) = 0.18726 0.18726
#
# Static dielectric constant tensor:
#      x y z
#    x 3.508520 0.000000 0.000000 
#    y 0.000000 3.508520 0.000000 
#    z 0.000000 0.000000 3.695640 
# 
# 
# High freq. dielectric constant tensor:
#      x y z
#    x 1.819530 0.000000 0.000000 
#    y 0.000000 1.819530 0.000000 
#    z 0.000000 0.000000 1.843510 
# 
# From -- ./inp_files/5381.got.cif
#   From: 2010.03.12/outbox.cif.g09.slc.cpg/sg182_3_cif.got.tgz:5381.got - 2010.04.01 11:49:36.
