data_PCOD8326952
_publ_section_title
;
Structure prediction by ZEFSAII (Michael W. Deem and Ramdas Pophale) SiO2 
 PCOD8326952
Probable space group: P -6 M 2
;
_chemical_formula_sum "Si O2"
_cell_formula_units_Z 42
_cell_length_a 15.261095
_cell_length_b 15.261095
_cell_length_c 12.551910
_cell_angle_alpha 90.000000
_cell_angle_beta 90.000000
_cell_angle_gamma 120.000000
_cell_volume 2531.697659
_symmetry_space_group_name_H-M "P -6 M 2"
_symmetry_group_IT_number 187
_symmetry_cell_setting 'hexagonal'
loop_
_space_group_symop_operation_xyz
x,y,z
-x+y,-x,-z
-y,x-y,z
x,y,-z
-x+y,-x,z
-y,x-y,-z
-y,-x,-z
-x+y,y,-z
x,x-y,-z
-x+y,y,z
x,x-y,z
-y,-x,z
loop_
_atom_site_type_symbol
_atom_site_label
_atom_site_fract_x
_atom_site_fract_y
_atom_site_fract_z
Si Si1 0.334192 0.461739 0.000000
Si Si2 0.609501 0.015651 0.806561
Si Si3 0.131427 0.666654 0.622102
Si Si4 0.824606 0.649212 0.872044
Si Si5 0.125554 0.062777 0.125050
O O1 0.339165 0.402851 0.897041
O O2 0.422342 0.577659 0.000000
O O3 0.229133 0.458265 0.000000
O O4 0.521969 0.043938 0.814384
O O5 0.712969 0.119670 0.823274
O O6 0.608659 0.965467 0.693283
O O7 0.100807 0.668121 0.500000
O O8 0.162174 0.581087 0.641550
O O9 0.227126 0.772875 0.655812
O O10 0.881871 0.763742 0.823886
O O11 0.821635 0.643269 0.000000
O O12 0.057460 0.114919 0.156565
O O13 0.143043 0.071522 0.000000
#
# Coordination Sequence:
#
# PCOD8326952 Si02
#       5
#     6  12  12   6   6
#     4  10  19  31  48  74 108 138 160 197 255 328
#     4  10  21  35  49  73 104 131 178 223 259 309
#     4   9  17  31  53  81 111 141 170 205 250 312
#     4  11  20  34  53  69  97 141 176 219 273 314
#     4   7  14  28  42  65  93 117 159 208 243 296
#
# _framework density 16.589659000000001
#
# number of rings (size 3 to 8) (size 9 to 14) (size 15 to 20)
#    0.286    2.286    1.429    1.286    0.000    3.429 
#    0.857    3.571    0.000    0.000    0.000    0.000 
#    0.000    0.000    0.000    0.000    0.000    0.000 
#
# Total GULP energy -520607.591006 kJ/mol
# GULP energy per Si atom -12395.418833 kJ/mol
# Density = 1.655190 g / cm^3
# Si number density = 16.589659 Si / 1000 Ang^3
#
#
#
# Elastic Constant Matrix: (Units=GPa)
#
#
# Indices 1 2 3 4 5 6 
#
# 1 102.3222 61.5159 46.7812 0.0000 -0.0001 0.0000
# 2 61.5159 102.3222 46.7812 0.0000 0.0001 0.0000
# 3 46.7812 46.7812 85.3965 0.0000 0.0000 0.0000
# 4 0.0000 0.0000 0.0000 14.6057 0.0000 0.0001
# 5 -0.0001 0.0001 0.0000 0.0000 14.6057 0.0000
# 6 0.0000 0.0000 0.0000 0.0001 0.0000 20.4031
#
#
#
# Elastic Compliance Matrix: (Units=1/GPa)
#
#
# Indices 1 2 3 4 5 6 
#
# 1 0.016694 -0.007812 -0.004866 0.000000 0.000000 0.000000
# 2 -0.007812 0.016694 -0.004866 0.000000 0.000000 0.000000
# 3 -0.004866 -0.004866 0.017041 0.000000 0.000000 0.000000
# 4 0.000000 0.000000 0.000000 0.068466 0.000000 0.000000
# 5 0.000000 0.000000 0.000000 0.000000 0.068466 0.000000
# 6 0.000000 0.000000 0.000000 0.000000 0.000000 0.049012
#
#
# Mechanical properties :
#
#
# Convention : Reuss Voigt Hill
#
# Bulk Modulus (GPa) = 65.17849 66.68860 65.93355
# Shear Modulus (GPa) = 18.07827 18.92043 18.49935
#
# Velocity S-wave (km/s) = 3.30469 3.38079 3.34295
# Velocity P-wave (km/s) = 7.34406 7.45156 7.39801
#
# Compressibility (1/GPa) = 0.01534248
#
# Stress axis : x y z
#
# Youngs Moduli (GPa) = 59.90119 59.90119 58.68137
#
# Poissons Ratio (x) = 0.46794 0.28553
# Poissons Ratio (y) = 0.46794 0.28553
# Poissons Ratio (z) = 0.29147 0.29147
#
# Static dielectric constant tensor:
#      x y z
#    x 3.071150 0.000000 0.000000 
#    y 0.000000 3.071150 0.000000 
#    z 0.000000 0.000000 3.121280 
# 
# 
# High freq. dielectric constant tensor:
#      x y z
#    x 1.628680 0.000000 0.000000 
#    y 0.000000 1.628680 0.000000 
#    z 0.000000 0.000000 1.622990 
# 
# From -- ./inp_files/1414.got.cif
#   From: 2010.03.12/outbox.cif.g09.slc.cpg/sg187_1_cif.got.tgz:1414.got - 2010.04.01 11:58:23.
