data_PCOD8326065
_publ_section_title
;
Structure prediction by ZEFSAII (Michael W. Deem and Ramdas Pophale) SiO2 
 PCOD8326065
Probable space group: P 65 2 2
;
_chemical_formula_sum "Si O2"
_cell_formula_units_Z 42
_cell_length_a 13.119516
_cell_length_b 13.119516
_cell_length_c 13.257806
_cell_angle_alpha 90.000000
_cell_angle_beta 90.000000
_cell_angle_gamma 120.000000
_cell_volume 1976.231960
_symmetry_space_group_name_H-M "P 65 2 2"
_symmetry_group_IT_number 179
_symmetry_cell_setting 'hexagonal'
loop_
_space_group_symop_operation_xyz
x,y,z
x-y,x,5/6+z
-y,x-y,2/3+z
-x,-y,1/2+z
-x+y,-x,1/3+z
y,-x+y,1/6+z
x-y,-y,-z
-x,-x+y,1/3-z
y,x,2/3-z
-y,-x,1/6-z
-x+y,y,1/2-z
x,x-y,5/6-z
loop_
_atom_site_type_symbol
_atom_site_label
_atom_site_fract_x
_atom_site_fract_y
_atom_site_fract_z
Si Si1 0.794277 0.397139 0.416667
Si Si2 0.630944 0.776246 0.027207
Si Si3 0.768919 0.655203 0.063619
Si Si4 0.164552 0.164552 0.833334
Si Si5 0.381734 0.763468 0.750000
O O1 0.867539 0.332630 0.450396
O O2 0.716229 0.396681 0.506942
O O3 0.730815 0.752624 0.070751
O O4 0.627763 0.862865 0.110852
O O5 0.503483 0.657156 0.024073
O O6 0.664989 0.832495 0.916667
O O7 0.897378 0.711248 0.118145
O O8 0.061208 0.122415 0.750000
#
# Coordination Sequence:
#
# PCOD8326065 Si02
#       5
#     6  12  12   6   6
#     4  10  23  40  66  98 130 173 224 286 354 426
#     4  11  22  41  63  96 132 174 225 283 347 418
#     4  11  24  42  67  96 136 176 231 280 350 415
#     4  12  26  48  68 100 138 190 240 292 344 424
#     4  10  21  40  64  92 132 169 222 284 354 426
#
# _framework density 21.252566000000002
#
# number of rings (size 3 to 8) (size 9 to 14) (size 15 to 20)
#    0.000    1.143    4.286    1.714    2.000    1.143 
#    0.000    0.000    0.000    0.000    0.000    0.000 
#    0.000    0.000    0.000    0.000    0.000    0.000 
#
# Total GULP energy -520456.136537 kJ/mol
# GULP energy per Si atom -12391.812775 kJ/mol
# Density = 2.120419 g / cm^3
# Si number density = 21.252566 Si / 1000 Ang^3
#
#
#
# Elastic Constant Matrix: (Units=GPa)
#
#
# Indices 1 2 3 4 5 6 
#
# 1 106.3915 42.4836 25.1619 0.0000 0.0000 0.0000
# 2 42.4836 106.3915 25.1619 0.0000 0.0000 0.0000
# 3 25.1619 25.1619 92.7458 0.0000 0.0000 0.0000
# 4 0.0000 0.0000 0.0000 31.7516 0.0000 0.0000
# 5 0.0000 0.0000 0.0000 0.0000 31.7516 0.0000
# 6 0.0000 0.0000 0.0000 0.0000 0.0000 31.9540
#
#
#
# Elastic Compliance Matrix: (Units=1/GPa)
#
#
# Indices 1 2 3 4 5 6 
#
# 1 0.011521 -0.004126 -0.002006 0.000000 0.000000 0.000000
# 2 -0.004126 0.011521 -0.002006 0.000000 0.000000 0.000000
# 3 -0.002006 -0.002006 0.011871 0.000000 0.000000 0.000000
# 4 0.000000 0.000000 0.000000 0.031494 0.000000 0.000000
# 5 0.000000 0.000000 0.000000 0.000000 0.031494 0.000000
# 6 0.000000 0.000000 0.000000 0.000000 0.000000 0.031295
#
#
# Mechanical properties :
#
#
# Convention : Reuss Voigt Hill
#
# Bulk Modulus (GPa) = 53.65970 54.57150 54.11560
# Shear Modulus (GPa) = 32.96260 33.27286 33.11773
#
# Velocity S-wave (km/s) = 3.94254 3.96105 3.95181
# Velocity P-wave (km/s) = 6.78441 6.83032 6.80740
#
# Compressibility (1/GPa) = 0.01863596
#
# Stress axis : x y z
#
# Youngs Moduli (GPa) = 86.79519 86.79519 84.24036
#
# Poissons Ratio (x) = 0.35813 0.16901
# Poissons Ratio (y) = 0.35813 0.16901
# Poissons Ratio (z) = 0.17414 0.17414
#
# Static dielectric constant tensor:
#      x y z
#    x 4.185950 0.000000 0.000000 
#    y 0.000000 4.185950 0.000000 
#    z 0.000000 0.000000 3.736180 
# 
# 
# High freq. dielectric constant tensor:
#      x y z
#    x 1.831400 0.000000 0.000000 
#    y 0.000000 1.831400 0.000000 
#    z 0.000000 0.000000 1.836060 
# 
# From -- ./inp_files/4145.got.cif
#   From: 2010.03.12/outbox.cif.g09.slc.cpg/sg179_3_cif.got.tgz:4145.got - 2010.04.02 07:08:42.
