data_PCOD8326865
_publ_section_title
;
Structure prediction by ZEFSAII (Michael W. Deem and Ramdas Pophale) SiO2 
 PCOD8326865
Probable space group: P -6 M 2
;
_chemical_formula_sum "Si O2"
_cell_formula_units_Z 66
_cell_length_a 17.127679
_cell_length_b 17.127679
_cell_length_c 18.089527
_cell_angle_alpha 90.000000
_cell_angle_beta 90.000000
_cell_angle_gamma 120.000000
_cell_volume 4595.733884
_symmetry_space_group_name_H-M "P -6 M 2"
_symmetry_group_IT_number 187
_symmetry_cell_setting 'hexagonal'
loop_
_space_group_symop_operation_xyz
x,y,z
-x+y,-x,-z
-y,x-y,z
x,y,-z
-x+y,-x,z
-y,x-y,-z
-y,-x,-z
-x+y,y,-z
x,x-y,-z
-x+y,y,z
x,x-y,z
-y,-x,z
loop_
_atom_site_type_symbol
_atom_site_label
_atom_site_fract_x
_atom_site_fract_y
_atom_site_fract_z
Si Si1 0.999719 0.177974 0.179343
Si Si2 0.147802 0.481459 0.000000
Si Si3 0.094329 0.720405 0.856414
Si Si4 0.999568 0.822289 0.354024
Si Si5 0.516473 0.851108 0.284364
Si Si6 0.089117 0.363941 0.582324
O O1 0.904883 0.095118 0.152035
O O2 0.078764 0.157528 0.156088
O O3 0.013770 0.269875 0.141667
O O4 0.001225 0.191517 0.266734
O O5 0.090774 0.425887 0.928902
O O6 0.247230 0.494459 0.000000
O O7 0.158630 0.579315 0.000000
O O8 0.186566 0.813435 0.852491
O O9 0.087191 0.662555 0.784032
O O10 0.079380 0.920621 0.377578
O O11 0.009261 0.743738 0.393982
O O12 0.906418 0.812836 0.381162
O O13 0.416618 0.833236 0.277881
O O14 0.510725 0.755363 0.282602
O O15 0.561150 0.904282 0.360426
O O16 0.070735 0.387688 0.500000
O O17 0.181043 0.362086 0.585451
#
# Coordination Sequence:
#
# PCOD8326865 Si02
#       6
#    12   6  12  12  12  12
#     4   9  15  25  42  63  86 114 146 174 197 231
#     4  10  19  30  45  64  86 112 142 176 211 248
#     4   9  17  29  43  61  85 110 136 169 211 247
#     4   9  15  24  39  59  82 110 143 174 202 236
#     4  10  18  29  43  58  76 103 140 177 210 247
#     4   9  17  28  39  53  78 108 136 171 212 245
#
# _framework density 14.361145
#
# number of rings (size 3 to 8) (size 9 to 14) (size 15 to 20)
#    0.000    2.727    1.818    1.182    0.000    2.182 
#    0.000    2.273    0.000    2.182    0.000    1.273 
#    0.000    0.000    0.000   13.091    0.000    4.727 
#
# Total GULP energy -818191.478478 kJ/mol
# GULP energy per Si atom -12396.840583 kJ/mol
# Density = 1.432846 g / cm^3
# Si number density = 14.361145 Si / 1000 Ang^3
#
#
#
# Elastic Constant Matrix: (Units=GPa)
#
#
# Indices 1 2 3 4 5 6 
#
# 1 69.1770 27.8898 39.5914 0.0000 0.0001 0.0000
# 2 27.8898 69.1770 39.5914 0.0000 -0.0001 0.0000
# 3 39.5914 39.5914 88.8519 0.0000 0.0000 0.0000
# 4 0.0000 0.0000 0.0000 14.5402 0.0000 -0.0001
# 5 0.0001 -0.0001 0.0000 0.0000 14.5402 0.0000
# 6 0.0000 0.0000 0.0000 -0.0001 0.0000 20.6436
#
#
#
# Elastic Compliance Matrix: (Units=1/GPa)
#
#
# Indices 1 2 3 4 5 6 
#
# 1 0.020203 -0.004018 -0.007212 0.000000 0.000000 0.000000
# 2 -0.004018 0.020203 -0.007212 0.000000 0.000000 0.000000
# 3 -0.007212 -0.007212 0.017682 0.000000 0.000000 0.000000
# 4 0.000000 0.000000 0.000000 0.068775 0.000000 0.000000
# 5 0.000000 0.000000 0.000000 0.000000 0.068775 0.000000
# 6 0.000000 0.000000 0.000000 0.000000 0.000000 0.048441
#
#
# Mechanical properties :
#
#
# Convention : Reuss Voigt Hill
#
# Bulk Modulus (GPa) = 47.15960 49.03902 48.09931
# Shear Modulus (GPa) = 17.35926 17.95368 17.65647
#
# Velocity S-wave (km/s) = 3.48050 3.53959 3.51017
# Velocity P-wave (km/s) = 7.00439 7.13625 7.07063
#
# Compressibility (1/GPa) = 0.02120459
#
# Stress axis : x y z
#
# Youngs Moduli (GPa) = 49.49760 49.49760 56.55498
#
# Poissons Ratio (x) = 0.19886 0.40788
# Poissons Ratio (y) = 0.19886 0.40788
# Poissons Ratio (z) = 0.35698 0.35698
#
# Static dielectric constant tensor:
#      x y z
#    x 2.649230 0.000000 0.000000 
#    y 0.000000 2.649230 0.000000 
#    z 0.000000 0.000000 2.968320 
# 
# 
# High freq. dielectric constant tensor:
#      x y z
#    x 1.520480 0.000000 0.000000 
#    y 0.000000 1.520480 0.000000 
#    z 0.000000 0.000000 1.552660 
# 
# From -- ./inp_files/2479.got.cif
#   From: 2010.03.12/outbox.cif.g09.slc.cpg/sg187_2_cif.got.tgz:2479.got - 2010.04.01 11:58:23.
