data_PCOD8326468
_publ_section_title
;
Structure prediction by ZEFSAII (Michael W. Deem and Ramdas Pophale) SiO2 
 PCOD8326468
Probable space group: P 63 2 2
;
_chemical_formula_sum "Si O2"
_cell_formula_units_Z 70
_cell_length_a 14.072858
_cell_length_b 14.072858
_cell_length_c 19.402091
_cell_angle_alpha 90.000000
_cell_angle_beta 90.000000
_cell_angle_gamma 120.000000
_cell_volume 3327.697036
_symmetry_space_group_name_H-M "P 63 2 2"
_symmetry_group_IT_number 182
_symmetry_cell_setting 'hexagonal'
loop_
_space_group_symop_operation_xyz
x,y,z
x-y,x,1/2+z
-y,x-y,z
-x,-y,1/2+z
-x+y,-x,z
y,-x+y,1/2+z
x-y,-y,-z
-x,-x+y,-z
y,x,-z
-y,-x,1/2-z
-x+y,y,1/2-z
x,x-y,1/2-z
loop_
_atom_site_type_symbol
_atom_site_label
_atom_site_fract_x
_atom_site_fract_y
_atom_site_fract_z
Si Si1 0.000000 0.000000 0.418538
Si Si2 0.437430 0.204704 0.101798
Si Si3 0.218016 0.006047 0.917770
Si Si4 0.447416 0.536928 0.172174
Si Si5 0.084567 0.556882 0.937977
Si Si6 0.264137 0.735864 0.750000
Si Si7 0.785267 0.196875 0.670173
O O1 0.006242 0.895962 0.391293
O O2 0.000000 0.000000 0.500000
O O3 0.449750 0.311650 0.062406
O O4 0.521447 0.177507 0.060905
O O5 0.457896 0.231967 0.181733
O O6 0.314956 0.105782 0.105935
O O7 0.318287 0.113639 0.882542
O O8 0.224874 0.000000 0.000000
O O9 0.474984 0.525016 0.250000
O O10 0.522130 0.502467 0.130516
O O11 0.483975 0.664081 0.162058
O O12 0.322328 0.457193 0.147845
O O13 0.000000 0.505484 0.000000
O O14 0.207756 0.603878 0.750000
O O15 0.814923 0.185078 0.750000
#
# Coordination Sequence:
#
# PCOD8326468 Si02
#       7
#     4  12  12  12  12   6  12
#     4   9  24  48  67  86 121 183 229 281 346 411
#     4  12  25  44  70 103 141 184 232 291 361 426
#     4  11  25  46  71  95 137 182 238 294 358 427
#     4  10  23  41  68 101 139 182 235 288 361 429
#     4  12  27  42  68 105 143 184 236 297 367 437
#     4  10  20  42  70  98 140 188 224 274 352 434
#     4  10  22  43  69 101 139 181 230 289 351 428
#
# _framework density 21.035568999999999
#
# number of rings (size 3 to 8) (size 9 to 14) (size 15 to 20)
#    0.171    1.029    3.429    1.200    7.200    2.057 
#    0.000    0.000    0.000    0.000    0.000    0.000 
#    0.000    0.000    0.000    0.000    0.000    0.000 
#
# Total GULP energy -867673.872177 kJ/mol
# GULP energy per Si atom -12395.341031 kJ/mol
# Density = 2.098769 g / cm^3
# Si number density = 21.035569 Si / 1000 Ang^3
#
#
#
# Elastic Constant Matrix: (Units=GPa)
#
#
# Indices 1 2 3 4 5 6 
#
# 1 166.2904 -3.1416 63.9966 0.0000 0.0000 0.0000
# 2 -3.1416 166.2904 63.9966 0.0000 0.0000 0.0000
# 3 63.9966 63.9966 111.5727 0.0000 0.0000 0.0000
# 4 0.0000 0.0000 0.0000 -40.9784 0.0000 0.0000
# 5 0.0000 0.0000 0.0000 0.0000 -40.9784 0.0000
# 6 0.0000 0.0000 0.0000 0.0000 0.0000 84.7160
#
#
#
# Elastic Compliance Matrix: (Units=1/GPa)
#
#
# Indices 1 2 3 4 5 6 
#
# 1 0.008523 0.002621 -0.006392 0.000000 0.000000 0.000000
# 2 0.002621 0.008523 -0.006392 0.000000 0.000000 0.000000
# 3 -0.006392 -0.006392 0.016296 0.000000 0.000000 0.000000
# 4 0.000000 0.000000 0.000000 -0.024403 0.000000 0.000000
# 5 0.000000 0.000000 0.000000 0.000000 -0.024403 0.000000
# 6 0.000000 0.000000 0.000000 0.000000 0.000000 0.011804
#
#
# Mechanical properties :
#
#
# Convention : Reuss Voigt Hill
#
# Bulk Modulus (GPa) = 76.83210 77.09518 76.96364
# Shear Modulus (GPa) = 238.04429 21.83865 129.94147
#
# Velocity S-wave (km/s) = 10.64934 3.22557 7.86806
# Velocity P-wave (km/s) = 13.70457 7.11350 10.91827
#
# Compressibility (1/GPa) = 0.01301539
#
# Stress axis : x y z
#
# Youngs Moduli (GPa) = 117.32851 117.32851 61.36625
#
# Poissons Ratio (x) = -0.30752 0.39226
# Poissons Ratio (y) = -0.30752 0.39226
# Poissons Ratio (z) = 0.74997 0.74997
#
# Static dielectric constant tensor:
#      x y z
#    x 4.460630 0.000000 0.000000 
#    y 0.000000 4.460630 0.000000 
#    z 0.000000 0.000000 3.770200 
# 
# 
# High freq. dielectric constant tensor:
#      x y z
#    x 1.830870 0.000000 0.000000 
#    y 0.000000 1.830870 0.000000 
#    z 0.000000 0.000000 1.823270 
# 
# From -- ./inp_files/4363.got.cif
#   From: 2010.03.12/outbox.cif.g09.slc.cpg/sg182_3_cif.got.tgz:4363.got - 2010.04.01 11:49:36.
