data_PCOD8326831
_publ_section_title
;
Structure prediction by ZEFSAII (Michael W. Deem and Ramdas Pophale) SiO2 
 PCOD8326831
Probable space group: P -6 M 2
;
_chemical_formula_sum "Si O2"
_cell_formula_units_Z 96
_cell_length_a 23.684620
_cell_length_b 23.684620
_cell_length_c 14.199261
_cell_angle_alpha 90.000000
_cell_angle_beta 90.000000
_cell_angle_gamma 120.000000
_cell_volume 6898.095717
_symmetry_space_group_name_H-M "P -6 M 2"
_symmetry_group_IT_number 187
_symmetry_cell_setting 'hexagonal'
loop_
_space_group_symop_operation_xyz
x,y,z
-x+y,-x,-z
-y,x-y,z
x,y,-z
-x+y,-x,z
-y,x-y,-z
-y,-x,-z
-x+y,y,-z
x,x-y,-z
-x+y,y,z
x,x-y,z
-y,-x,z
loop_
_atom_site_type_symbol
_atom_site_label
_atom_site_fract_x
_atom_site_fract_y
_atom_site_fract_z
Si Si1 0.924134 0.524534 0.108929
Si Si2 0.870771 0.999311 0.776427
Si Si3 0.333332 0.233751 0.283555
Si Si4 0.742532 0.933733 0.108929
Si Si5 0.665978 0.461874 0.776425
Si Si6 0.829556 0.790415 0.396332
Si Si7 0.333333 0.309423 0.891724
Si Si8 0.705809 0.542921 0.603668
O O1 0.948563 0.474282 0.143074
O O2 0.857755 0.509140 0.160691
O O3 0.979513 0.600362 0.127367
O O4 0.906125 0.512863 0.000000
O O5 0.929522 0.070478 0.804602
O O6 0.851657 0.996790 0.666319
O O7 0.893390 0.946695 0.793237
O O8 0.808911 0.984718 0.839309
O O9 0.333331 0.166666 0.275539
O O10 0.271228 0.226790 0.340485
O O11 0.333333 0.256004 0.176983
O O12 0.395436 0.288893 0.340485
O O13 0.718103 0.859052 0.143074
O O14 0.687153 0.954181 0.127367
O O15 0.760541 0.940071 0.000000
O O16 0.737145 0.474289 0.804599
O O17 0.613362 0.386639 0.793233
O O18 0.663457 0.478469 0.666318
O O19 0.805337 0.798632 0.500000
O O20 0.888507 0.777013 0.410444
O O21 0.333333 0.287718 0.000000
O O22 0.673373 0.534705 0.500000
O O23 0.778161 0.556322 0.589557
#
# Coordination Sequence:
#
# PCOD8326831 Si02
#       8
#    12  12  12  12  12  12  12  12
#     4   9  18  31  45  62  84 107 130 159 195 236
#     4  10  19  30  42  56  76 103 136 173 213 254
#     4  10  17  27  40  59  81 100 127 162 199 242
#     4   9  18  31  45  62  84 107 130 159 195 236
#     4  10  19  30  42  56  76 103 136 173 213 254
#     4   9  17  28  41  55  72  96 127 166 208 246
#     4  10  18  28  45  66  84 103 126 153 191 234
#     4   9  17  28  41  55  72  96 127 166 208 246
#
# _framework density 13.916885000000001
#
# number of rings (size 3 to 8) (size 9 to 14) (size 15 to 20)
#    0.000    2.500    2.500    0.625    0.000    2.750 
#    0.000    2.500    0.000    3.000    0.000    0.000 
#    0.000    0.000    0.000    0.375    0.000   12.000 
#
# Total GULP energy -1189385.018581 kJ/mol
# GULP energy per Si atom -12389.427277 kJ/mol
# Density = 1.388521 g / cm^3
# Si number density = 13.916885 Si / 1000 Ang^3
#
#
#
# Elastic Constant Matrix: (Units=GPa)
#
#
# Indices 1 2 3 4 5 6 
#
# 1 68.4018 46.2482 23.1761 0.0000 0.0001 0.0000
# 2 46.2482 68.4018 23.1761 0.0000 -0.0001 0.0000
# 3 23.1761 23.1761 60.2976 0.0000 0.0000 0.0000
# 4 0.0000 0.0000 0.0000 14.5055 0.0000 -0.0001
# 5 0.0001 -0.0001 0.0000 0.0000 14.5055 0.0000
# 6 0.0000 0.0000 0.0000 -0.0001 0.0000 11.0768
#
#
#
# Elastic Compliance Matrix: (Units=1/GPa)
#
#
# Indices 1 2 3 4 5 6 
#
# 1 0.027733 -0.017406 -0.003969 0.000000 0.000000 0.000000
# 2 -0.017406 0.027733 -0.003969 0.000000 0.000000 0.000000
# 3 -0.003969 -0.003969 0.019636 0.000000 0.000000 0.000000
# 4 0.000000 0.000000 0.000000 0.068939 0.000000 0.000000
# 5 0.000000 0.000000 0.000000 0.000000 0.068939 0.000000
# 6 0.000000 0.000000 0.000000 0.000000 0.000000 0.090279
#
#
# Mechanical properties :
#
#
# Convention : Reuss Voigt Hill
#
# Bulk Modulus (GPa) = 40.96272 42.47802 41.72037
# Shear Modulus (GPa) = 13.80884 14.98427 14.39655
#
# Velocity S-wave (km/s) = 3.15340 3.28487 3.21980
# Velocity P-wave (km/s) = 6.53883 6.70642 6.62315
#
# Compressibility (1/GPa) = 0.02441244
#
# Stress axis : x y z
#
# Youngs Moduli (GPa) = 36.05786 36.05786 50.92762
#
# Poissons Ratio (x) = 0.62763 0.20215
# Poissons Ratio (y) = 0.62763 0.20215
# Poissons Ratio (z) = 0.14312 0.14312
#
# Static dielectric constant tensor:
#      x y z
#    x 2.709940 0.000000 0.000000 
#    y 0.000000 2.709940 0.000000 
#    z 0.000000 0.000000 2.958220 
# 
# 
# High freq. dielectric constant tensor:
#      x y z
#    x 1.502180 0.000000 0.000000 
#    y 0.000000 1.502180 0.000000 
#    z 0.000000 0.000000 1.542610 
# 
# From -- ./inp_files/2125.got.cif
#   From: 2010.03.12/outbox.cif.g09.slc.cpg/sg187_2_cif.got.tgz:2125.got - 2010.04.01 11:58:23.
