data_PCOD8326064
_publ_section_title
;
Structure prediction by ZEFSAII (Michael W. Deem and Ramdas Pophale) SiO2 
 PCOD8326064
Probable space group: P 65 2 2
;
_chemical_formula_sum "Si O2"
_cell_formula_units_Z 30
_cell_length_a 17.866237
_cell_length_b 17.866237
_cell_length_c 4.912834
_cell_angle_alpha 90.000000
_cell_angle_beta 90.000000
_cell_angle_gamma 120.000000
_cell_volume 1358.091100
_symmetry_space_group_name_H-M "P 65 2 2"
_symmetry_group_IT_number 179
_symmetry_cell_setting 'hexagonal'
loop_
_space_group_symop_operation_xyz
x,y,z
x-y,x,5/6+z
-y,x-y,2/3+z
-x,-y,1/2+z
-x+y,-x,1/3+z
y,-x+y,1/6+z
x-y,-y,-z
-x,-x+y,1/3-z
y,x,2/3-z
-y,-x,1/6-z
-x+y,y,1/2-z
x,x-y,5/6-z
loop_
_atom_site_type_symbol
_atom_site_label
_atom_site_fract_x
_atom_site_fract_y
_atom_site_fract_z
Si Si1 0.382448 0.764896 0.750000
Si Si2 0.905138 0.651719 0.637896
Si Si3 0.352488 0.903383 0.965031
O O1 0.294081 0.705920 0.583334
O O2 0.374329 0.826169 0.980666
O O3 0.841607 0.683214 0.750000
O O4 0.886694 0.613053 0.332246
O O5 0.000000 0.735319 0.666667
O O6 0.897585 0.574650 0.821614
O O7 0.435741 0.000000 0.000000
#
# Coordination Sequence:
#
# PCOD8326064 Si02
#       3
#     6  12  12
#     4  12  30  44  64  96 134 166 210 268 340 376
#     4  10  21  39  66  94 125 165 215 267 315 378
#     4  10  24  44  65  88 123 172 217 263 314 384
#
# _framework density 22.089827
#
# number of rings (size 3 to 8) (size 9 to 14) (size 15 to 20)
#    0.000    1.600    0.000    2.400   11.200    4.800 
#    0.000    0.000    0.000    0.000    0.000    8.400 
#    0.000    0.000    0.000    0.000    0.000    0.000 
#
# Total GULP energy -371853.896346 kJ/mol
# GULP energy per Si atom -12395.129878 kJ/mol
# Density = 2.203955 g / cm^3
# Si number density = 22.089827 Si / 1000 Ang^3
#
#
#
# Elastic Constant Matrix: (Units=GPa)
#
#
# Indices 1 2 3 4 5 6 
#
# 1 154.3151 86.9108 35.5883 0.0000 0.0000 0.0000
# 2 86.9108 154.3151 35.5883 0.0000 0.0000 0.0000
# 3 35.5883 35.5883 83.4604 0.0000 0.0000 0.0000
# 4 0.0000 0.0000 0.0000 30.6880 0.0000 0.0000
# 5 0.0000 0.0000 0.0000 0.0000 30.6880 0.0000
# 6 0.0000 0.0000 0.0000 0.0000 0.0000 33.7022
#
#
#
# Elastic Compliance Matrix: (Units=1/GPa)
#
#
# Indices 1 2 3 4 5 6 
#
# 1 0.009789 -0.005047 -0.002022 0.000000 0.000000 0.000000
# 2 -0.005047 0.009789 -0.002022 0.000000 0.000000 0.000000
# 3 -0.002022 -0.002022 0.013706 0.000000 0.000000 0.000000
# 4 0.000000 0.000000 0.000000 0.032586 0.000000 0.000000
# 5 0.000000 0.000000 0.000000 0.000000 0.032586 0.000000
# 6 0.000000 0.000000 0.000000 0.000000 0.000000 0.029672
#
#
# Mechanical properties :
#
#
# Convention : Reuss Voigt Hill
#
# Bulk Modulus (GPa) = 66.21594 78.69619 72.45606
# Shear Modulus (GPa) = 33.03731 34.61585 33.82658
#
# Velocity S-wave (km/s) = 3.87148 3.96289 3.91745
# Velocity P-wave (km/s) = 7.07286 7.52610 7.30300
#
# Compressibility (1/GPa) = 0.01510210
#
# Stress axis : x y z
#
# Youngs Moduli (GPa) = 102.15558 102.15558 72.95968
#
# Poissons Ratio (x) = 0.51556 0.14753
# Poissons Ratio (y) = 0.51556 0.14753
# Poissons Ratio (z) = 0.20657 0.20657
#
# Static dielectric constant tensor:
#      x y z
#    x 4.036470 0.000000 0.000000 
#    y 0.000000 4.036470 0.000000 
#    z 0.000000 0.000000 4.209890 
# 
# 
# High freq. dielectric constant tensor:
#      x y z
#    x 1.852070 0.000000 0.000000 
#    y 0.000000 1.852070 0.000000 
#    z 0.000000 0.000000 1.890180 
# 
# From -- ./inp_files/355.got.cif
#   From: 2010.03.12/outbox.cif.g09.slc.cpg/sg179_1_cif.got.tgz:355.got - 2010.04.02 07:08:42.
