data_PCOD8326598
_publ_section_title
;
Structure prediction by ZEFSAII (Michael W. Deem and Ramdas Pophale) SiO2 
 PCOD8326598
Probable space group: P 6 C C
;
_chemical_formula_sum "Si O2"
_cell_formula_units_Z 72
_cell_length_a 20.900067
_cell_length_b 20.900067
_cell_length_c 9.520563
_cell_angle_alpha 90.000000
_cell_angle_beta 90.000000
_cell_angle_gamma 120.000000
_cell_volume 3601.543127
_symmetry_space_group_name_H-M "P 6 C C"
_symmetry_group_IT_number 184
_symmetry_cell_setting 'hexagonal'
loop_
_space_group_symop_operation_xyz
x,y,z
x-y,x,z
-y,x-y,z
-x,-y,z
-x+y,-x,z
y,-x+y,z
-x+y,y,1/2+z
x,x-y,1/2+z
-y,-x,1/2+z
y,x,1/2+z
x-y,-y,1/2+z
-x,-x+y,1/2+z
loop_
_atom_site_type_symbol
_atom_site_label
_atom_site_fract_x
_atom_site_fract_y
_atom_site_fract_z
Si Si1 0.717483 0.643981 0.637900
Si Si2 0.877959 0.747702 0.248466
Si Si3 0.363551 0.288630 0.811474
Si Si4 0.471732 0.239193 0.702934
Si Si5 0.889133 0.053233 0.498792
Si Si6 0.721656 0.294976 0.951206
O O1 0.799533 0.715303 0.643456
O O2 0.658328 0.657264 0.726491
O O3 0.689673 0.626751 0.476744
O O4 0.730568 0.580516 0.706962
O O5 0.795062 0.697164 0.293466
O O6 0.925344 0.768408 0.391471
O O7 0.876197 0.813287 0.161991
O O8 0.436494 0.289538 0.751715
O O9 0.543978 0.259930 0.793019
O O10 0.500628 0.264452 0.545722
O O11 0.972913 0.103767 0.458228
O O12 0.750288 0.382382 0.973370
#
# Coordination Sequence:
#
# PCOD8326598 Si02
#       6
#    12  12  12  12  12  12
#     4  11  24  39  63  92 127 171 210 259 327 385
#     4  11  24  38  57  78 109 148 216 262 309 376
#     4  11  24  39  63  92 127 171 210 259 327 385
#     4  11  22  42  64 104 139 164 220 278 321 376
#     4  12  23  37  50  70  97 142 192 266 327 386
#     4  10  22  41  74 104 126 172 220 270 306 368
#
# _framework density 19.991430000000001
#
# number of rings (size 3 to 8) (size 9 to 14) (size 15 to 20)
#    0.333    0.667    3.333    4.167    4.667    0.000 
#    0.000    1.667    0.000    6.000    0.000    0.000 
#    0.000    0.000    0.000    0.000    0.000    0.000 
#
# Total GULP energy -892239.568303 kJ/mol
# GULP energy per Si atom -12392.216226 kJ/mol
# Density = 1.994593 g / cm^3
# Si number density = 19.991430 Si / 1000 Ang^3
#
#
#
# Elastic Constant Matrix: (Units=GPa)
#
#
# Indices 1 2 3 4 5 6 
#
# 1 89.6080 20.2202 26.6710 0.0000 0.0000 0.0000
# 2 20.2202 89.6080 26.6710 0.0000 0.0000 0.0000
# 3 26.6710 26.6710 98.6738 0.0000 0.0000 0.0000
# 4 0.0000 0.0000 0.0000 36.7863 0.0000 0.0000
# 5 0.0000 0.0000 0.0000 0.0000 36.7863 0.0000
# 6 0.0000 0.0000 0.0000 0.0000 0.0000 34.6939
#
#
#
# Elastic Compliance Matrix: (Units=1/GPa)
#
#
# Indices 1 2 3 4 5 6 
#
# 1 0.012446 -0.001965 -0.002833 0.000000 0.000000 0.000000
# 2 -0.001965 0.012446 -0.002833 0.000000 0.000000 0.000000
# 3 -0.002833 -0.002833 0.011666 0.000000 0.000000 0.000000
# 4 0.000000 0.000000 0.000000 0.027184 0.000000 0.000000
# 5 0.000000 0.000000 0.000000 0.000000 0.027184 0.000000
# 6 0.000000 0.000000 0.000000 0.000000 0.000000 0.028823
#
#
# Mechanical properties :
#
#
# Convention : Reuss Voigt Hill
#
# Bulk Modulus (GPa) = 46.95692 47.22378 47.09035
# Shear Modulus (GPa) = 35.18364 35.27516 35.22940
#
# Velocity S-wave (km/s) = 4.19971 4.20517 4.20244
# Velocity P-wave (km/s) = 6.85976 6.87395 6.86686
#
# Compressibility (1/GPa) = 0.02129612
#
# Stress axis : x y z
#
# Youngs Moduli (GPa) = 80.34448 80.34448 85.72013
#
# Poissons Ratio (x) = 0.15790 0.24284
# Poissons Ratio (y) = 0.15790 0.24284
# Poissons Ratio (z) = 0.22761 0.22761
#
# Static dielectric constant tensor:
#      x y z
#    x 3.581830 0.000000 0.000000 
#    y 0.000000 3.581830 0.000000 
#    z 0.000000 0.000000 3.735740 
# 
# 
# High freq. dielectric constant tensor:
#      x y z
#    x 1.763540 0.000000 0.000000 
#    y 0.000000 1.763540 0.000000 
#    z 0.000000 0.000000 1.799270 
# 
# From -- ./inp_files/359.got.cif
#   From: 2010.03.12/outbox.cif.g09.slc.cpg/sg184_cif.got.tgz:359.got - 2010.04.01 11:54:36.
