data_PCOD8326271
_publ_section_title
;
Structure prediction by ZEFSAII (Michael W. Deem and Ramdas Pophale) SiO2 
 PCOD8326271
Probable space group: P 62 2 2
;
_chemical_formula_sum "Si O2"
_cell_formula_units_Z 72
_cell_length_a 14.953128
_cell_length_b 14.953128
_cell_length_c 17.722902
_cell_angle_alpha 90.000000
_cell_angle_beta 90.000000
_cell_angle_gamma 120.000000
_cell_volume 3431.860053
_symmetry_space_group_name_H-M "P 62 2 2"
_symmetry_group_IT_number 180
_symmetry_cell_setting 'hexagonal'
loop_
_space_group_symop_operation_xyz
x,y,z
x-y,x,1/3+z
-y,x-y,2/3+z
-x,-y,z
-x+y,-x,1/3+z
y,-x+y,2/3+z
x-y,-y,-z
-x,-x+y,1/3-z
y,x,2/3-z
-y,-x,2/3-z
-x+y,y,-z
x,x-y,1/3-z
loop_
_atom_site_type_symbol
_atom_site_label
_atom_site_fract_x
_atom_site_fract_y
_atom_site_fract_z
Si Si1 0.000000 0.500000 0.309936
Si Si2 0.365772 0.520603 0.443028
Si Si3 0.524362 0.181035 0.565903
Si Si4 0.764545 0.112394 0.998710
Si Si5 0.673222 0.336611 0.666667
Si Si6 0.081527 0.393932 0.417743
Si Si7 0.576359 0.701168 0.493868
O O1 0.060599 0.599585 0.254191
O O2 0.068262 0.468890 0.360670
O O3 0.339543 0.432394 0.379441
O O4 0.330068 0.594884 0.404854
O O5 0.302974 0.466698 0.519246
O O6 0.485862 0.587957 0.467497
O O7 0.603928 0.207856 0.500000
O O8 0.597178 0.221713 0.639252
O O9 0.456641 0.235155 0.549941
O O10 0.867635 0.200687 0.957135
O O11 0.768686 0.148214 0.084926
O O12 0.757284 0.000000 0.000000
O O13 0.974429 0.313558 0.459458
#
# Coordination Sequence:
#
# PCOD8326271 Si02
#       7
#     6  12  12  12   6  12  12
#     4  12  25  44  64  95 132 176 222 278 342 411
#     4  12  22  38  60  91 127 173 224 278 331 404
#     4  12  25  41  63  93 133 181 226 274 332 409
#     4  12  26  41  63  94 129 181 231 289 347 405
#     4  12  24  36  63  92 134 182 223 266 330 400
#     4  12  26  42  62  94 135 175 233 286 341 410
#     4  12  24  42  63  93 132 182 231 279 346 407
#
# _framework density 20.979877999999999
#
# number of rings (size 3 to 8) (size 9 to 14) (size 15 to 20)
#    0.000    0.000    6.667    3.750    4.667    0.667 
#    0.000    0.000    0.000    0.000    0.000    2.333 
#    0.000    5.333    0.000    0.000    0.000    0.000 
#
# Total GULP energy -891982.788234 kJ/mol
# GULP energy per Si atom -12388.649837 kJ/mol
# Density = 2.093213 g / cm^3
# Si number density = 20.979878 Si / 1000 Ang^3
#
#
#
# Elastic Constant Matrix: (Units=GPa)
#
#
# Indices 1 2 3 4 5 6 
#
# 1 102.4918 66.4617 66.2845 0.0000 0.0000 0.0000
# 2 66.4617 102.4918 66.2845 0.0000 0.0000 0.0000
# 3 66.2845 66.2845 118.8665 0.0000 0.0000 0.0000
# 4 0.0000 0.0000 0.0000 37.0323 0.0000 0.0000
# 5 0.0000 0.0000 0.0000 0.0000 37.0323 0.0000
# 6 0.0000 0.0000 0.0000 0.0000 0.0000 18.0151
#
#
#
# Elastic Compliance Matrix: (Units=1/GPa)
#
#
# Indices 1 2 3 4 5 6 
#
# 1 0.019139 -0.008616 -0.005868 0.000000 0.000000 0.000000
# 2 -0.008616 0.019139 -0.005868 0.000000 0.000000 0.000000
# 3 -0.005868 -0.005868 0.014957 0.000000 0.000000 0.000000
# 4 0.000000 0.000000 0.000000 0.027003 0.000000 0.000000
# 5 0.000000 0.000000 0.000000 0.000000 0.027003 0.000000
# 6 0.000000 0.000000 0.000000 0.000000 0.000000 0.055509
#
#
# Mechanical properties :
#
#
# Convention : Reuss Voigt Hill
#
# Bulk Modulus (GPa) = 79.80050 80.21238 80.00644
# Shear Modulus (GPa) = 24.08104 26.73722 25.40913
#
# Velocity S-wave (km/s) = 3.39162 3.57378 3.48389
# Velocity P-wave (km/s) = 7.31141 7.43944 7.37570
#
# Compressibility (1/GPa) = 0.01253125
#
# Stress axis : x y z
#
# Youngs Moduli (GPa) = 52.24966 52.24966 66.85653
#
# Poissons Ratio (x) = 0.45017 0.39232
# Poissons Ratio (y) = 0.45017 0.39232
# Poissons Ratio (z) = 0.30661 0.30661
#
# Static dielectric constant tensor:
#      x y z
#    x 3.634480 0.000000 0.000000 
#    y 0.000000 3.634480 0.000000 
#    z 0.000000 0.000000 4.021190 
# 
# 
# High freq. dielectric constant tensor:
#      x y z
#    x 1.794510 0.000000 0.000000 
#    y 0.000000 1.794510 0.000000 
#    z 0.000000 0.000000 1.856190 
# 
# From -- ./inp_files/7856.got.cif
#   From: 2010.03.12/outbox.cif.g09.slc.cpg/sg180_4_cif.got.tgz:7856.got - 2010.04.01 11:35:50.
