data_PCOD8326495
_publ_section_title
;
Structure prediction by ZEFSAII (Michael W. Deem and Ramdas Pophale) SiO2 
 PCOD8326495
Probable space group: P 63 2 2
;
_chemical_formula_sum "Si O2"
_cell_formula_units_Z 60
_cell_length_a 11.804172
_cell_length_b 11.804172
_cell_length_c 28.095204
_cell_angle_alpha 90.000000
_cell_angle_beta 90.000000
_cell_angle_gamma 120.000000
_cell_volume 3390.266823
_symmetry_space_group_name_H-M "P 63 2 2"
_symmetry_group_IT_number 182
_symmetry_cell_setting 'hexagonal'
loop_
_space_group_symop_operation_xyz
x,y,z
x-y,x,1/2+z
-y,x-y,z
-x,-y,1/2+z
-x+y,-x,z
y,-x+y,1/2+z
x-y,-y,-z
-x,-x+y,-z
y,x,-z
-y,-x,1/2-z
-x+y,y,1/2-z
x,x-y,1/2-z
loop_
_atom_site_type_symbol
_atom_site_label
_atom_site_fract_x
_atom_site_fract_y
_atom_site_fract_z
Si Si1 0.667608 0.574378 0.041263
Si Si2 0.594154 0.427249 0.303572
Si Si3 0.333334 0.666668 0.387960
Si Si4 0.000000 0.000000 0.943747
Si Si5 0.959551 0.514922 0.884941
Si Si6 0.964487 0.236429 0.444937
Si Si7 0.333334 0.666668 0.501070
O O1 0.568647 0.564687 0.081390
O O2 0.810510 0.635732 0.063227
O O3 0.618246 0.430141 0.020312
O O4 0.670546 0.670546 0.000000
O O5 0.519398 0.269233 0.311842
O O6 0.555845 0.444156 0.250000
O O7 0.555628 0.508272 0.338222
O O8 0.392292 0.812392 0.368031
O O9 0.333334 0.666667 0.444854
O O10 0.992679 0.866347 0.926304
O O11 0.000000 0.000000 0.000000
O O12 0.962265 0.635941 0.912361
O O13 0.000000 0.275378 0.500000
#
# Coordination Sequence:
#
# PCOD8326495 Si02
#       7
#    12  12   4   4  12  12   4
#     4  12  22  33  55  76 113 154 199 239 277 328
#     4   8  18  39  66  90 105 127 181 247 285 323
#     4  12  27  36  49  82 132 160 184 219 291 346
#     4   9  21  36  54  72 108 157 200 244 285 315
#     4  12  23  36  55  84 114 152 190 229 282 349
#     4  11  22  37  53  77 111 152 203 241 277 326
#     4  12  21  36  45  82 116 163 195 234 276 325
#
# _framework density 17.697723
#
# number of rings (size 3 to 8) (size 9 to 14) (size 15 to 20)
#    0.400    0.800    4.000    4.800    2.800    0.000 
#    0.000    1.000    0.000    0.000    0.000    0.000 
#    0.000    0.000    0.000    0.000    0.000    0.000 
#
# Total GULP energy -743992.107853 kJ/mol
# GULP energy per Si atom -12399.868464 kJ/mol
# Density = 1.765744 g / cm^3
# Si number density = 17.697723 Si / 1000 Ang^3
#
#
#
# Elastic Constant Matrix: (Units=GPa)
#
#
# Indices 1 2 3 4 5 6 
#
# 1 102.7513 45.9228 42.0972 0.0000 -0.0001 0.0001
# 2 45.9228 102.7522 42.0974 -0.0001 -0.0001 0.0001
# 3 42.0972 42.0974 87.9217 0.0001 -0.0001 0.0001
# 4 0.0000 -0.0001 0.0001 18.4758 0.0000 0.0000
# 5 -0.0001 -0.0001 -0.0001 0.0000 18.4761 -0.0001
# 6 0.0001 0.0001 0.0001 0.0000 -0.0001 28.4142
#
#
#
# Elastic Compliance Matrix: (Units=1/GPa)
#
#
# Indices 1 2 3 4 5 6 
#
# 1 0.013413 -0.004184 -0.004419 0.000000 0.000000 0.000000
# 2 -0.004184 0.013412 -0.004419 0.000000 0.000000 0.000000
# 3 -0.004419 -0.004419 0.015605 0.000000 0.000000 0.000000
# 4 0.000000 0.000000 0.000000 0.054125 0.000000 0.000000
# 5 0.000000 0.000000 0.000000 0.000000 0.054124 0.000000
# 6 0.000000 0.000000 0.000000 0.000000 0.000000 0.035194
#
#
# Mechanical properties :
#
#
# Convention : Reuss Voigt Hill
#
# Bulk Modulus (GPa) = 61.02243 61.51779 61.27011
# Shear Modulus (GPa) = 23.00145 23.96041 23.48093
#
# Velocity S-wave (km/s) = 3.60902 3.68349 3.64645
# Velocity P-wave (km/s) = 7.20569 7.27506 7.24046
#
# Compressibility (1/GPa) = 0.01638742
#
# Stress axis : x y z
#
# Youngs Moduli (GPa) = 74.55696 74.55764 64.08193
#
# Poissons Ratio (x) = 0.31196 0.28315
# Poissons Ratio (y) = 0.31196 0.28315
# Poissons Ratio (z) = 0.32944 0.32944
#
# Static dielectric constant tensor:
#      x y z
#    x 3.391350 0.000000 0.000000 
#    y 0.000000 3.391340 0.000000 
#    z 0.000000 0.000000 2.926980 
# 
# 
# High freq. dielectric constant tensor:
#      x y z
#    x 1.690570 0.000000 0.000000 
#    y 0.000000 1.690570 0.000000 
#    z 0.000000 0.000000 1.642310 
# 
# From -- ./inp_files/5505.got.cif
#   From: 2010.03.12/outbox.cif.g09.slc.cpg/sg182_3_cif.got.tgz:5505.got - 2010.04.01 11:49:36.
