data_PCOD8326920
_publ_section_title
;
Structure prediction by ZEFSAII (Michael W. Deem and Ramdas Pophale) SiO2 
 PCOD8326920
Probable space group: P -6 M 2
;
_chemical_formula_sum "Si O2"
_cell_formula_units_Z 90
_cell_length_a 17.457050
_cell_length_b 17.457050
_cell_length_c 19.923896
_cell_angle_alpha 90.000000
_cell_angle_beta 90.000000
_cell_angle_gamma 120.000000
_cell_volume 5258.315126
_symmetry_space_group_name_H-M "P -6 M 2"
_symmetry_group_IT_number 187
_symmetry_cell_setting 'hexagonal'
loop_
_space_group_symop_operation_xyz
x,y,z
-x+y,-x,-z
-y,x-y,z
x,y,-z
-x+y,-x,z
-y,x-y,-z
-y,-x,-z
-x+y,y,-z
x,x-y,-z
-x+y,y,z
x,x-y,z
-y,-x,z
loop_
_atom_site_type_symbol
_atom_site_label
_atom_site_fract_x
_atom_site_fract_y
_atom_site_fract_z
Si Si1 0.302708 0.241734 0.124522
Si Si2 0.175853 0.999651 0.392596
Si Si3 0.174653 0.999233 0.762466
Si Si4 0.354532 0.333518 0.425140
Si Si5 0.841629 0.508208 0.674553
Si Si6 0.332983 0.838209 0.420156
Si Si7 0.489211 0.333861 0.169906
Si Si8 0.184570 0.184299 0.000000
O O1 0.307452 0.153726 0.120037
O O2 0.257558 0.245205 0.193998
O O3 0.404846 0.321745 0.126376
O O4 0.243441 0.242217 0.062968
O O5 0.089494 0.910507 0.415403
O O6 0.197644 0.997387 0.314672
O O7 0.258211 0.009697 0.434063
O O8 0.158691 0.079346 0.409286
O O9 0.090486 0.909514 0.786078
O O10 0.152058 0.076029 0.777250
O O11 0.397658 0.356061 0.500000
O O12 0.410424 0.310958 0.373881
O O13 0.346206 0.414794 0.395117
O O14 0.740072 0.480143 0.663936
O O15 0.853805 0.426903 0.652550
O O16 0.868734 0.534102 0.751819
O O17 0.330000 0.834767 0.500000
O O18 0.413652 0.827303 0.392707
O O19 0.241632 0.758369 0.390614
O O20 0.509741 0.254871 0.156003
O O21 0.574528 0.425473 0.148030
O O22 0.089521 0.179041 0.000000
O O23 0.168522 0.084261 0.000000
#
# Coordination Sequence:
#
# PCOD8326920 Si02
#       8
#    12  12  12  12  12  12  12   6
#     4   9  17  28  43  66  96 128 161 195 228 264
#     4  10  20  33  48  65  86 116 157 203 246 286
#     4   9  16  27  44  65  89 118 154 195 236 276
#     4  11  22  34  47  65  91 121 151 187 237 297
#     4  10  20  34  52  72  93 119 154 196 241 290
#     4   9  17  30  48  67  85 106 135 173 218 271
#     4   9  17  31  51  72  93 120 157 200 243 285
#     4  10  19  30  45  68 102 142 176 200 225 264
#
# _framework density 17.115748
#
# number of rings (size 3 to 8) (size 9 to 14) (size 15 to 20)
#    0.000    2.400    0.000    3.133    0.000    7.467 
#    0.000    1.667    0.000    1.600    0.000    0.933 
#    0.000    0.000    0.000    5.600    0.000    2.133 
#
# Total GULP energy -1115800.263023 kJ/mol
# GULP energy per Si atom -12397.780700 kJ/mol
# Density = 1.707679 g / cm^3
# Si number density = 17.115748 Si / 1000 Ang^3
#
#
#
# Elastic Constant Matrix: (Units=GPa)
#
#
# Indices 1 2 3 4 5 6 
#
# 1 94.8562 32.2121 28.4948 0.0000 -0.0001 0.0000
# 2 32.2121 94.8562 28.4948 0.0000 0.0001 0.0000
# 3 28.4948 28.4948 48.3517 0.0000 0.0000 0.0000
# 4 0.0000 0.0000 0.0000 19.0288 0.0000 0.0001
# 5 -0.0001 0.0001 0.0000 0.0000 19.0288 0.0000
# 6 0.0000 0.0000 0.0000 0.0001 0.0000 31.3221
#
#
#
# Elastic Compliance Matrix: (Units=1/GPa)
#
#
# Indices 1 2 3 4 5 6 
#
# 1 0.013330 -0.002633 -0.006304 0.000000 0.000000 0.000000
# 2 -0.002633 0.013330 -0.006304 0.000000 0.000000 0.000000
# 3 -0.006304 -0.006304 0.028112 0.000000 0.000000 0.000000
# 4 0.000000 0.000000 0.000000 0.052552 0.000000 0.000000
# 5 0.000000 0.000000 0.000000 0.000000 0.052552 0.000000
# 6 0.000000 0.000000 0.000000 0.000000 0.000000 0.031926
#
#
# Mechanical properties :
#
#
# Convention : Reuss Voigt Hill
#
# Bulk Modulus (GPa) = 41.16913 46.27417 43.72165
# Shear Modulus (GPa) = 21.70312 23.80010 22.75161
#
# Velocity S-wave (km/s) = 3.56479 3.73304 3.64988
# Velocity P-wave (km/s) = 6.40697 6.75836 6.58501
#
# Compressibility (1/GPa) = 0.02429004
#
# Stress axis : x y z
#
# Youngs Moduli (GPa) = 75.01787 75.01787 35.57195
#
# Poissons Ratio (x) = 0.19752 0.22425
# Poissons Ratio (y) = 0.19752 0.22425
# Poissons Ratio (z) = 0.47292 0.47292
#
# Static dielectric constant tensor:
#      x y z
#    x 3.217530 0.000000 0.000000 
#    y 0.000000 3.217530 0.000000 
#    z 0.000000 0.000000 3.085600 
# 
# 
# High freq. dielectric constant tensor:
#      x y z
#    x 1.655100 0.000000 0.000000 
#    y 0.000000 1.655100 0.000000 
#    z 0.000000 0.000000 1.635530 
# 
# From -- ./inp_files/3270.got.cif
#   From: 2010.03.12/outbox.cif.g09.slc.cpg/sg187_2_cif.got.tgz:3270.got - 2010.04.01 11:58:23.
