data_PCOD8326281
_publ_section_title
;
Structure prediction by ZEFSAII (Michael W. Deem and Ramdas Pophale) SiO2 
 PCOD8326281
Probable space group: P 64 2 2
;
_chemical_formula_sum "Si O2"
_cell_formula_units_Z 72
_cell_length_a 32.941289
_cell_length_b 32.941289
_cell_length_c 5.211232
_cell_angle_alpha 90.000000
_cell_angle_beta 90.000000
_cell_angle_gamma 120.000000
_cell_volume 4897.249360
_symmetry_space_group_name_H-M "P 64 2 2"
_symmetry_group_IT_number 181
_symmetry_cell_setting 'hexagonal'
loop_
_space_group_symop_operation_xyz
x,y,z
x-y,x,2/3+z
-y,x-y,1/3+z
-x,-y,z
-x+y,-x,2/3+z
y,-x+y,1/3+z
x-y,-y,-z
-x,-x+y,2/3-z
y,x,1/3-z
-y,-x,1/3-z
-x+y,y,-z
x,x-y,2/3-z
loop_
_atom_site_type_symbol
_atom_site_label
_atom_site_fract_x
_atom_site_fract_y
_atom_site_fract_z
Si Si1 0.358309 0.482234 0.909144
Si Si2 0.983349 0.550810 0.081793
Si Si3 0.024046 0.363582 0.583335
Si Si4 0.260206 0.739795 0.666667
Si Si5 0.567090 0.696574 0.922446
Si Si6 0.543698 0.771849 0.833334
Si Si7 0.791297 0.421578 0.079708
O O1 0.397042 0.467798 0.940631
O O2 0.336983 0.468489 0.626440
O O3 0.384036 0.538247 0.928037
O O4 0.319211 0.457071 0.130848
O O5 0.000000 0.534412 0.333334
O O6 0.014477 0.607625 0.084372
O O7 0.000000 0.533816 0.833334
O O8 0.080077 0.384202 0.582499
O O9 0.000000 0.331267 0.333334
O O10 0.000000 0.331297 0.833334
O O11 0.248488 0.760034 0.416768
O O12 0.314256 0.760636 0.729254
O O13 0.576918 0.748538 0.847280
O O14 0.779646 0.389823 0.333334
O O15 0.778468 0.389234 0.833334
#
# Coordination Sequence:
#
# PCOD8326281 Si02
#       7
#    12  12  12   6  12   6  12
#     4  12  20  34  56  76  96 124 146 178 217 254
#     4  10  16  27  48  77  95 122 156 180 202 240
#     4  10  16  27  44  75  99 124 157 182 206 243
#     4  12  24  44  64  74  94 114 142 180 212 272
#     4  12  19  31  52  78 103 123 147 185 216 256
#     4  12  22  36  56  86 100 120 148 176 228 268
#     4  12  26  44  60  77  96 116 143 176 223 269
#
# _framework density 14.702132000000001
#
# number of rings (size 3 to 8) (size 9 to 14) (size 15 to 20)
#    0.000    0.667   10.000    2.000    0.000    0.000 
#    1.500    0.000    0.000    3.000    0.000    0.000 
#    0.000    0.000    0.000    0.000    0.000    0.000 
#
# Total GULP energy -892310.632347 kJ/mol
# GULP energy per Si atom -12393.203227 kJ/mol
# Density = 1.466867 g / cm^3
# Si number density = 14.702132 Si / 1000 Ang^3
#
#
#
# Elastic Constant Matrix: (Units=GPa)
#
#
# Indices 1 2 3 4 5 6 
#
# 1 64.8857 50.5418 23.4836 0.0000 0.0000 0.0000
# 2 50.5418 64.8857 23.4836 0.0000 0.0000 0.0000
# 3 23.4836 23.4836 132.0553 0.0000 0.0000 0.0000
# 4 0.0000 0.0000 0.0000 18.6273 0.0000 0.0000
# 5 0.0000 0.0000 0.0000 0.0000 18.6273 0.0000
# 6 0.0000 0.0000 0.0000 0.0000 0.0000 7.1719
#
#
#
# Elastic Compliance Matrix: (Units=1/GPa)
#
#
# Indices 1 2 3 4 5 6 
#
# 1 0.039528 -0.030189 -0.001661 0.000000 0.000000 0.000000
# 2 -0.030189 0.039528 -0.001661 0.000000 0.000000 0.000000
# 3 -0.001661 -0.001661 0.008163 0.000000 0.000000 0.000000
# 4 0.000000 0.000000 0.000000 0.053685 0.000000 0.000000
# 5 0.000000 0.000000 0.000000 0.000000 0.053685 0.000000
# 6 0.000000 0.000000 0.000000 0.000000 0.000000 0.139433
#
#
# Mechanical properties :
#
#
# Convention : Reuss Voigt Hill
#
# Bulk Modulus (GPa) = 49.50867 50.76054 50.13460
# Shear Modulus (GPa) = 12.26168 19.83979 16.05074
#
# Velocity S-wave (km/s) = 2.89105 3.67747 3.30772
# Velocity P-wave (km/s) = 6.70014 7.25484 6.98300
#
# Compressibility (1/GPa) = 0.02019848
#
# Stress axis : x y z
#
# Youngs Moduli (GPa) = 25.29865 25.29865 122.49979
#
# Poissons Ratio (x) = 0.76373 0.20345
# Poissons Ratio (y) = 0.76373 0.20345
# Poissons Ratio (z) = 0.04202 0.04202
#
# Static dielectric constant tensor:
#      x y z
#    x 2.725170 0.000000 0.000000 
#    y 0.000000 2.725170 0.000000 
#    z 0.000000 0.000000 1.673100 
# 
# 
# High freq. dielectric constant tensor:
#      x y z
#    x 1.526120 0.000000 0.000000 
#    y 0.000000 1.526120 0.000000 
#    z 0.000000 0.000000 1.602580 
# 
# From -- ./inp_files/1672.got.cif
#   From: 2010.03.12/outbox.cif.g09.slc.cpg/sg181_1_cif.got.tgz:1672.got - 2010.04.01 11:42:41.
