data_PCOD8326523
_publ_section_title
;
Structure prediction by ZEFSAII (Michael W. Deem and Ramdas Pophale) SiO2 
 PCOD8326523
Probable space group: P 6 M M
;
_chemical_formula_sum "Si O2"
_cell_formula_units_Z 96
_cell_length_a 22.100209
_cell_length_b 22.100209
_cell_length_c 15.513931
_cell_angle_alpha 90.000000
_cell_angle_beta 90.000000
_cell_angle_gamma 120.000000
_cell_volume 6562.136332
_symmetry_space_group_name_H-M "P 6 M M"
_symmetry_group_IT_number 183
_symmetry_cell_setting 'hexagonal'
loop_
_space_group_symop_operation_xyz
x,y,z
x-y,x,z
-y,x-y,z
-x,-y,z
-x+y,-x,z
y,-x+y,z
-x+y,y,z
x,x-y,z
-y,-x,z
y,x,z
x-y,-y,z
-x,-x+y,z
loop_
_atom_site_type_symbol
_atom_site_label
_atom_site_fract_x
_atom_site_fract_y
_atom_site_fract_z
Si Si1 0.924046 0.716329 0.064320
Si Si2 0.333694 0.805723 0.462837
Si Si3 0.527971 0.333694 0.665807
Si Si4 0.920129 0.215510 0.564322
Si Si5 0.920423 0.217546 0.876542
Si Si6 0.303408 0.920239 0.722377
Si Si7 0.079761 0.696594 0.406265
Si Si8 0.702877 0.920423 0.252099
O O1 0.874916 0.749832 0.064320
O O2 0.912702 0.673149 0.153454
O O3 0.000000 0.783652 0.064320
O O4 0.912702 0.673149 0.975186
O O5 0.399790 0.799579 0.433026
O O6 0.264575 0.735426 0.434750
O O7 0.334846 0.817979 0.564322
O O8 0.337249 0.871439 0.414612
O O9 0.529148 0.264574 0.693895
O O10 0.600213 0.399788 0.695617
O O11 0.465812 0.337251 0.714032
O O12 0.868105 0.131895 0.564323
O O13 0.903554 0.246934 0.648010
O O14 0.903555 0.246931 0.480630
O O15 0.000000 0.231699 0.564323
O O16 0.864709 0.135292 0.860402
O O17 0.903914 0.264983 0.814187
O O18 0.000000 0.233402 0.859631
O O19 0.365613 0.000000 0.715663
O O20 0.096086 0.735018 0.314454
O O21 0.000000 0.634388 0.412978
O O22 0.729418 0.864709 0.268237
O O23 0.766598 0.000000 0.269009
#
# Coordination Sequence:
#
# PCOD8326523 Si02
#       8
#    12  12  12  12  12  12  12  12
#     4   8  14  24  38  57  79 103 131 167 209 251
#     4  10  19  30  44  61  85 115 144 170 198 239
#     4  10  19  30  44  61  85 115 144 170 198 239
#     4  10  18  28  41  58  81 107 137 169 204 242
#     4   9  16  26  41  60  82 107 137 172 211 252
#     4  10  19  29  43  63  84 109 138 171 207 242
#     4  10  19  29  43  63  84 109 138 171 207 242
#     4   9  16  26  41  60  82 107 137 172 211 252
#
# _framework density 14.629383000000001
#
# number of rings (size 3 to 8) (size 9 to 14) (size 15 to 20)
#    0.000    2.500    1.250    2.500    0.000    1.500 
#    0.000    1.250    0.000    0.500    0.000    4.375 
#    0.000   11.000    0.000    2.750    0.000    1.750 
#
# Total GULP energy -1189654.963839 kJ/mol
# GULP energy per Si atom -12392.239207 kJ/mol
# Density = 1.459609 g / cm^3
# Si number density = 14.629383 Si / 1000 Ang^3
#
#
#
# Elastic Constant Matrix: (Units=GPa)
#
#
# Indices 1 2 3 4 5 6 
#
# 1 95.5012 61.3678 37.8901 0.0000 0.0000 0.0000
# 2 61.3678 95.5012 37.8901 0.0000 0.0000 0.0000
# 3 37.8901 37.8901 86.3621 0.0000 0.0000 0.0000
# 4 0.0000 0.0000 0.0000 15.6589 0.0000 0.0000
# 5 0.0000 0.0000 0.0000 0.0000 15.6589 0.0000
# 6 0.0000 0.0000 0.0000 0.0000 0.0000 17.0667
#
#
#
# Elastic Compliance Matrix: (Units=1/GPa)
#
#
# Indices 1 2 3 4 5 6 
#
# 1 0.018693 -0.010604 -0.003549 0.000000 0.000000 0.000000
# 2 -0.010604 0.018693 -0.003549 0.000000 0.000000 0.000000
# 3 -0.003549 -0.003549 0.014693 0.000000 0.000000 0.000000
# 4 0.000000 0.000000 0.000000 0.063862 0.000000 0.000000
# 5 0.000000 0.000000 0.000000 0.000000 0.063862 0.000000
# 6 0.000000 0.000000 0.000000 0.000000 0.000000 0.058594
#
#
# Mechanical properties :
#
#
# Convention : Reuss Voigt Hill
#
# Bulk Modulus (GPa) = 59.96769 61.29560 60.63164
# Shear Modulus (GPa) = 17.89816 19.02466 18.46141
#
# Velocity S-wave (km/s) = 3.50156 3.61008 3.55623
# Velocity P-wave (km/s) = 7.57814 7.70498 7.64182
#
# Compressibility (1/GPa) = 0.01667565
#
# Stress axis : x y z
#
# Youngs Moduli (GPa) = 53.49595 53.49595 68.05825
#
# Poissons Ratio (x) = 0.56726 0.24154
# Poissons Ratio (y) = 0.56726 0.24154
# Poissons Ratio (z) = 0.18986 0.18986
#
# Static dielectric constant tensor:
#      x y z
#    x 2.781400 0.000000 0.000000 
#    y 0.000000 2.781400 0.000000 
#    z 0.000000 0.000000 3.062050 
# 
# 
# High freq. dielectric constant tensor:
#      x y z
#    x 1.546110 0.000000 0.000000 
#    y 0.000000 1.546110 0.000000 
#    z 0.000000 0.000000 1.557970 
# 
# From -- ./inp_files/2810.got.cif
#   From: 2010.03.12/outbox.cif.g09.slc.cpg/sg183_2_cif.got.tgz:2810.got - 2010.04.01 11:53:02.
