data_PCOD8326565
_publ_section_title
;
Structure prediction by ZEFSAII (Michael W. Deem and Ramdas Pophale) SiO2 
 PCOD8326565
Probable space group: P 6 C C
;
_chemical_formula_sum "Si O2"
_cell_formula_units_Z 72
_cell_length_a 17.168494
_cell_length_b 17.168494
_cell_length_c 15.967440
_cell_angle_alpha 90.000000
_cell_angle_beta 90.000000
_cell_angle_gamma 120.000000
_cell_volume 4075.963879
_symmetry_space_group_name_H-M "P 6 C C"
_symmetry_group_IT_number 184
_symmetry_cell_setting 'hexagonal'
loop_
_space_group_symop_operation_xyz
x,y,z
x-y,x,z
-y,x-y,z
-x,-y,z
-x+y,-x,z
y,-x+y,z
-x+y,y,1/2+z
x,x-y,1/2+z
-y,-x,1/2+z
y,x,1/2+z
x-y,-y,1/2+z
-x,-x+y,1/2+z
loop_
_atom_site_type_symbol
_atom_site_label
_atom_site_fract_x
_atom_site_fract_y
_atom_site_fract_z
Si Si1 0.331335 0.840752 0.071170
Si Si2 0.840752 0.509417 0.603057
Si Si3 0.758661 0.643498 0.431895
Si Si4 0.249800 0.940110 0.510754
Si Si5 0.241339 0.356502 0.242332
Si Si6 0.309690 0.059890 0.663472
O O1 0.432587 0.865175 0.087113
O O2 0.264811 0.735189 0.087113
O O3 0.315515 0.903434 0.135324
O O4 0.311263 0.860898 0.976740
O O5 0.903434 0.587919 0.538903
O O6 0.860898 0.549635 0.697487
O O7 0.715176 0.707987 0.431983
O O8 0.853058 0.696407 0.483420
O O9 0.774602 0.623355 0.337113
O O10 0.243029 0.000000 0.587113
O O11 0.284824 0.292013 0.242244
O O12 0.146942 0.303593 0.190807
#
# Coordination Sequence:
#
# PCOD8326565 Si02
#       6
#    12  12  12  12  12  12
#     4   9  18  33  51  69  95 133 171 204 247 305
#     4   9  18  33  51  69  95 133 171 204 247 305
#     4  10  19  32  50  75 101 128 165 212 255 297
#     4   9  18  32  51  73  99 133 168 202 251 311
#     4  10  19  32  50  75 101 128 165 212 255 297
#     4   9  18  32  51  73  99 133 168 202 251 311
#
# _framework density 17.664534
#
# number of rings (size 3 to 8) (size 9 to 14) (size 15 to 20)
#    0.000    2.667    0.000    4.333    0.000    6.000 
#    0.000   10.000    0.000    0.667    0.000   14.000 
#    0.000    0.000    0.000    0.000    0.000    0.000 
#
# Total GULP energy -891947.280935 kJ/mol
# GULP energy per Si atom -12388.156680 kJ/mol
# Density = 1.762433 g / cm^3
# Si number density = 17.664534 Si / 1000 Ang^3
#
#
#
# Elastic Constant Matrix: (Units=GPa)
#
#
# Indices 1 2 3 4 5 6 
#
# 1 88.2654 57.0052 46.0735 0.0000 0.0000 0.0000
# 2 57.0052 88.2654 46.0735 0.0000 0.0000 0.0000
# 3 46.0735 46.0735 105.7844 0.0000 0.0000 0.0000
# 4 0.0000 0.0000 0.0000 19.7979 0.0000 0.0000
# 5 0.0000 0.0000 0.0000 0.0000 19.7979 0.0000
# 6 0.0000 0.0000 0.0000 0.0000 0.0000 15.6301
#
#
#
# Elastic Compliance Matrix: (Units=1/GPa)
#
#
# Indices 1 2 3 4 5 6 
#
# 1 0.020750 -0.011239 -0.004143 0.000000 0.000000 0.000000
# 2 -0.011239 0.020750 -0.004143 0.000000 0.000000 0.000000
# 3 -0.004143 -0.004143 0.013062 0.000000 0.000000 0.000000
# 4 0.000000 0.000000 0.000000 0.050510 0.000000 0.000000
# 5 0.000000 0.000000 0.000000 0.000000 0.050510 0.000000
# 6 0.000000 0.000000 0.000000 0.000000 0.000000 0.063979
#
#
# Mechanical properties :
#
#
# Convention : Reuss Voigt Hill
#
# Bulk Modulus (GPa) = 64.45741 64.51329 64.48535
# Shear Modulus (GPa) = 18.95503 19.92274 19.43888
#
# Velocity S-wave (km/s) = 3.27931 3.36197 3.32090
# Velocity P-wave (km/s) = 7.13494 7.18826 7.16165
#
# Compressibility (1/GPa) = 0.01551412
#
# Stress axis : x y z
#
# Youngs Moduli (GPa) = 48.19170 48.19170 76.55935
#
# Poissons Ratio (x) = 0.54163 0.31716
# Poissons Ratio (y) = 0.54163 0.31716
# Poissons Ratio (z) = 0.19964 0.19964
#
# Static dielectric constant tensor:
#      x y z
#    x 3.244430 0.000000 0.000000 
#    y 0.000000 3.244430 0.000000 
#    z 0.000000 0.000000 3.366710 
# 
# 
# High freq. dielectric constant tensor:
#      x y z
#    x 1.674060 0.000000 0.000000 
#    y 0.000000 1.674060 0.000000 
#    z 0.000000 0.000000 1.673540 
# 
# From -- ./inp_files/1124.got.cif
#   From: 2010.03.12/outbox.cif.g09.slc.cpg/sg184_cif.got.tgz:1124.got - 2010.04.01 11:54:36.
