data_PCOD8326393
_publ_section_title
;
Structure prediction by ZEFSAII (Michael W. Deem and Ramdas Pophale) SiO2 
 PCOD8326393
Probable space group: P 64 2 2
;
_chemical_formula_sum "Si O2"
_cell_formula_units_Z 48
_cell_length_a 14.902806
_cell_length_b 14.902806
_cell_length_c 11.965431
_cell_angle_alpha 90.000000
_cell_angle_beta 90.000000
_cell_angle_gamma 120.000000
_cell_volume 2301.415715
_symmetry_space_group_name_H-M "P 64 2 2"
_symmetry_group_IT_number 181
_symmetry_cell_setting 'hexagonal'
loop_
_space_group_symop_operation_xyz
x,y,z
x-y,x,2/3+z
-y,x-y,1/3+z
-x,-y,z
-x+y,-x,2/3+z
y,-x+y,1/3+z
x-y,-y,-z
-x,-x+y,2/3-z
y,x,1/3-z
-y,-x,1/3-z
-x+y,y,-z
x,x-y,2/3-z
loop_
_atom_site_type_symbol
_atom_site_label
_atom_site_fract_x
_atom_site_fract_y
_atom_site_fract_z
Si Si1 0.989602 0.176919 0.463982
Si Si2 0.000000 0.239504 0.833334
Si Si3 0.576097 0.417804 0.431624
Si Si4 0.992952 0.347265 0.609087
Si Si5 0.267879 0.633940 0.333334
O O1 0.874961 0.098068 0.507491
O O2 0.017839 0.286350 0.515665
O O3 0.000000 0.192699 0.333334
O O4 0.069383 0.138766 0.500000
O O5 0.007842 0.308563 0.728238
O O6 0.604344 0.534666 0.418956
O O7 0.457173 0.336497 0.396653
O O8 0.655762 0.411763 0.346738
O O9 0.586605 0.390217 0.558826
#
# Coordination Sequence:
#
# PCOD8326393 Si02
#       5
#    12   6  12  12   6
#     4  12  27  45  71 101 136 178 234 291 345 423
#     4  12  27  45  72  98 142 184 228 289 361 424
#     4  10  26  44  68 105 137 186 233 293 352 424
#     4  11  27  45  71 103 138 186 234 291 349 430
#     4  10  24  43  74  96 148 177 232 294 356 420
#
# _framework density 20.856726999999999
#
# number of rings (size 3 to 8) (size 9 to 14) (size 15 to 20)
#    0.000    1.000    2.500    1.125   14.000    6.000 
#    0.000    0.000    0.000    0.000    0.000    0.000 
#    0.000    0.000    0.000    0.000    0.000    0.000 
#
# Total GULP energy -595162.618874 kJ/mol
# GULP energy per Si atom -12399.221227 kJ/mol
# Density = 2.080926 g / cm^3
# Si number density = 20.856727 Si / 1000 Ang^3
#
#
#
# Elastic Constant Matrix: (Units=GPa)
#
#
# Indices 1 2 3 4 5 6 
#
# 1 118.8300 46.1941 60.1265 0.0000 0.0000 0.0000
# 2 46.1941 118.8300 60.1265 0.0000 0.0000 0.0000
# 3 60.1265 60.1265 165.3628 0.0000 0.0000 0.0000
# 4 0.0000 0.0000 0.0000 21.9680 0.0000 0.0000
# 5 0.0000 0.0000 0.0000 0.0000 21.9680 0.0000
# 6 0.0000 0.0000 0.0000 0.0000 0.0000 36.3180
#
#
#
# Elastic Compliance Matrix: (Units=1/GPa)
#
#
# Indices 1 2 3 4 5 6 
#
# 1 0.011006 -0.002762 -0.002998 0.000000 0.000000 0.000000
# 2 -0.002762 0.011006 -0.002998 0.000000 0.000000 0.000000
# 3 -0.002998 -0.002998 0.008227 0.000000 0.000000 0.000000
# 4 0.000000 0.000000 0.000000 0.045521 0.000000 0.000000
# 5 0.000000 0.000000 0.000000 0.000000 0.045521 0.000000
# 6 0.000000 0.000000 0.000000 0.000000 0.000000 0.027535
#
#
# Mechanical properties :
#
#
# Convention : Reuss Voigt Hill
#
# Bulk Modulus (GPa) = 78.58549 81.76854 80.17702
# Shear Modulus (GPa) = 29.31350 31.82250 30.56800
#
# Velocity S-wave (km/s) = 3.75303 3.91034 3.83249
# Velocity P-wave (km/s) = 7.51936 7.72513 7.62294
#
# Compressibility (1/GPa) = 0.01272499
#
# Stress axis : x y z
#
# Youngs Moduli (GPa) = 90.86227 90.86227 121.54868
#
# Poissons Ratio (x) = 0.25093 0.36435
# Poissons Ratio (y) = 0.25093 0.36435
# Poissons Ratio (z) = 0.27237 0.27237
#
# Static dielectric constant tensor:
#      x y z
#    x 3.815170 0.000000 0.000000 
#    y 0.000000 3.815170 0.000000 
#    z 0.000000 0.000000 3.713540 
# 
# 
# High freq. dielectric constant tensor:
#      x y z
#    x 1.833210 0.000000 0.000000 
#    y 0.000000 1.833210 0.000000 
#    z 0.000000 0.000000 1.825930 
# 
# From -- ./inp_files/4447.got.cif
#   From: 2010.03.12/outbox.cif.g09.slc.cpg/sg181_3_cif.got.tgz:4447.got - 2010.04.01 11:42:41.
