data_PCOD8326187
_publ_section_title
;
Structure prediction by ZEFSAII (Michael W. Deem and Ramdas Pophale) SiO2 
 PCOD8326187
Probable space group: P 62 2 2
;
_chemical_formula_sum "Si O2"
_cell_formula_units_Z 60
_cell_length_a 20.426616
_cell_length_b 20.426616
_cell_length_c 8.038220
_cell_angle_alpha 90.000000
_cell_angle_beta 90.000000
_cell_angle_gamma 120.000000
_cell_volume 2904.580179
_symmetry_space_group_name_H-M "P 62 2 2"
_symmetry_group_IT_number 180
_symmetry_cell_setting 'hexagonal'
loop_
_space_group_symop_operation_xyz
x,y,z
x-y,x,1/3+z
-y,x-y,2/3+z
-x,-y,z
-x+y,-x,1/3+z
y,-x+y,2/3+z
x-y,-y,-z
-x,-x+y,1/3-z
y,x,2/3-z
-y,-x,2/3-z
-x+y,y,-z
x,x-y,1/3-z
loop_
_atom_site_type_symbol
_atom_site_label
_atom_site_fract_x
_atom_site_fract_y
_atom_site_fract_z
Si Si1 0.897571 0.279681 0.046907
Si Si2 0.311873 0.543649 0.662753
Si Si3 0.377142 0.315115 0.589327
Si Si4 0.138878 0.277755 0.500000
Si Si5 0.818141 0.363878 0.504843
Si Si6 0.753337 0.753337 0.333334
O O1 0.894900 0.268599 0.245849
O O2 0.839551 0.302112 0.976820
O O3 0.871777 0.197815 0.975635
O O4 0.976175 0.348582 0.978259
O O5 0.283642 0.567283 0.500000
O O6 0.403197 0.601091 0.663228
O O7 0.260105 0.543736 0.812980
O O8 0.462971 0.354861 0.520671
O O9 0.319400 0.263428 0.445748
O O10 0.169956 0.224972 0.429658
O O11 0.835049 0.417525 0.666667
#
# Coordination Sequence:
#
# PCOD8326187 Si02
#       6
#    12  12  12   6  12   6
#     4  10  21  41  64  88 125 155 210 262 332 381
#     4  10  21  41  55  80 115 162 206 263 315 384
#     4  10  23  40  62  93 117 162 208 271 325 380
#     4  10  20  38  64  94 132 163 198 258 306 383
#     4  10  23  41  57  82 116 162 212 264 321 387
#     4  10  22  38  65  94 130 167 208 256 316 374
#
# _framework density 20.657029000000001
#
# number of rings (size 3 to 8) (size 9 to 14) (size 15 to 20)
#    0.000    2.000    1.000    1.200    8.400    4.800 
#   21.600    2.000    0.000    0.000    0.000    0.000 
#    0.000   65.600    0.000    0.000    0.000    0.000 
#
# Total GULP energy -743292.240186 kJ/mol
# GULP energy per Si atom -12388.204003 kJ/mol
# Density = 2.061001 g / cm^3
# Si number density = 20.657029 Si / 1000 Ang^3
#
#
#
# Elastic Constant Matrix: (Units=GPa)
#
#
# Indices 1 2 3 4 5 6 
#
# 1 122.0569 59.2216 34.7946 0.0000 0.0000 0.0000
# 2 59.2216 122.0569 34.7946 0.0000 0.0000 0.0000
# 3 34.7946 34.7946 78.9162 0.0000 0.0000 0.0000
# 4 0.0000 0.0000 0.0000 12.9503 0.0000 0.0000
# 5 0.0000 0.0000 0.0000 0.0000 12.9503 0.0000
# 6 0.0000 0.0000 0.0000 0.0000 0.0000 31.4176
#
#
#
# Elastic Compliance Matrix: (Units=1/GPa)
#
#
# Indices 1 2 3 4 5 6 
#
# 1 0.011277 -0.004637 -0.002928 0.000000 0.000000 0.000000
# 2 -0.004637 0.011277 -0.002928 0.000000 0.000000 0.000000
# 3 -0.002928 -0.002928 0.015253 0.000000 0.000000 0.000000
# 4 0.000000 0.000000 0.000000 0.077218 0.000000 0.000000
# 5 0.000000 0.000000 0.000000 0.000000 0.077218 0.000000
# 6 0.000000 0.000000 0.000000 0.000000 0.000000 0.031829
#
#
# Mechanical properties :
#
#
# Convention : Reuss Voigt Hill
#
# Bulk Modulus (GPa) = 59.44245 64.51682 61.97964
# Shear Modulus (GPa) = 19.94680 24.41159 22.17920
#
# Velocity S-wave (km/s) = 3.11081 3.44140 3.28027
# Velocity P-wave (km/s) = 6.46074 6.86230 6.66455
#
# Compressibility (1/GPa) = 0.01682300
#
# Stress axis : x y z
#
# Youngs Moduli (GPa) = 88.67249 88.67249 65.55924
#
# Poissons Ratio (x) = 0.41119 0.19194
# Poissons Ratio (y) = 0.41119 0.19194
# Poissons Ratio (z) = 0.25961 0.25961
#
# Static dielectric constant tensor:
#      x y z
#    x 3.773870 0.000000 0.000000 
#    y 0.000000 3.773870 0.000000 
#    z 0.000000 0.000000 4.028100 
# 
# 
# High freq. dielectric constant tensor:
#      x y z
#    x 1.798540 0.000000 0.000000 
#    y 0.000000 1.798540 0.000000 
#    z 0.000000 0.000000 1.822690 
# 
# From -- ./inp_files/3157.got.cif
#   From: 2010.03.12/outbox.cif.g09.slc.cpg/sg180_2_cif.got.tgz:3157.got - 2010.04.01 11:35:50.
