data_PCOD8327469
_publ_section_title
;
Structure prediction by ZEFSAII (Michael W. Deem and Ramdas Pophale) SiO2 
 PCOD8327469
Probable space group: P -6 C 2
;
_chemical_formula_sum "Si O2"
_cell_formula_units_Z 72
_cell_length_a 24.051614
_cell_length_b 24.051614
_cell_length_c 8.800990
_cell_angle_alpha 90.000000
_cell_angle_beta 90.000000
_cell_angle_gamma 120.000000
_cell_volume 4409.106710
_symmetry_space_group_name_H-M "P -6 C 2"
_symmetry_group_IT_number 188
_symmetry_cell_setting 'hexagonal'
loop_
_space_group_symop_operation_xyz
x,y,z
-x+y,-x,1/2-z
-y,x-y,z
x,y,1/2-z
-x+y,-x,z
-y,x-y,1/2-z
-y,-x,-z
-x+y,y,-z
x,x-y,-z
-x+y,y,1/2+z
x,x-y,1/2+z
-y,-x,1/2+z
loop_
_atom_site_type_symbol
_atom_site_label
_atom_site_fract_x
_atom_site_fract_y
_atom_site_fract_z
Si Si1 0.332742 0.547784 0.432436
Si Si2 0.339641 0.345889 0.430953
Si Si3 0.189215 0.041366 0.916777
Si Si4 0.402178 0.480654 0.569014
Si Si5 0.728776 0.806620 0.930011
Si Si6 0.882496 0.658571 0.416259
O O1 0.332928 0.550278 0.250000
O O2 0.382764 0.617237 0.500000
O O3 0.263177 0.526353 0.500000
O O4 0.350555 0.495317 0.489836
O O5 0.349822 0.357143 0.250000
O O6 0.385067 0.409293 0.525499
O O7 0.266041 0.322662 0.474950
O O8 0.357675 0.292450 0.487851
O O9 0.158823 0.026818 0.750000
O O10 0.265343 0.086012 0.907446
O O11 0.174183 0.974040 0.994786
O O12 0.158316 0.079158 0.000000
O O13 0.402347 0.489739 0.750000
O O14 0.471994 0.528007 0.500000
O O15 0.733184 0.813396 0.750000
O O16 0.705203 0.852602 0.000000
O O17 0.865786 0.628107 0.250000
O O18 0.813880 0.627760 0.500000
#
# Coordination Sequence:
#
# PCOD8327469 Si02
#       6
#    12  12  12  12  12  12
#     4  11  21  35  52  70  90 114 148 194 247 300
#     4   9  18  33  48  65  92 124 152 186 229 275
#     4   8  14  25  40  59  80 106 137 171 210 256
#     4  11  22  36  52  70  91 121 158 195 235 284
#     4   9  18  30  44  63  89 116 146 185 232 278
#     4   8  14  25  43  65  90 115 140 171 211 253
#
# _framework density 16.329837999999999
#
# number of rings (size 3 to 8) (size 9 to 14) (size 15 to 20)
#    0.000    2.667    0.000    6.167    0.000    2.667 
#    0.000    5.000    0.000    0.333    0.000    0.000 
#    0.000    0.000    0.000    0.500    0.000    8.000 
#
# Total GULP energy -892232.124047 kJ/mol
# GULP energy per Si atom -12392.112834 kJ/mol
# Density = 1.629267 g / cm^3
# Si number density = 16.329838 Si / 1000 Ang^3
#
#
#
# Elastic Constant Matrix: (Units=GPa)
#
#
# Indices 1 2 3 4 5 6 
#
# 1 83.5335 53.7159 38.2284 0.0000 0.0000 0.0000
# 2 53.7159 83.5335 38.2284 0.0000 0.0000 0.0000
# 3 38.2284 38.2284 90.2374 0.0000 0.0000 0.0000
# 4 0.0000 0.0000 0.0000 23.8152 0.0000 0.0000
# 5 0.0000 0.0000 0.0000 0.0000 23.8152 0.0000
# 6 0.0000 0.0000 0.0000 0.0000 0.0000 14.9088
#
#
#
# Elastic Compliance Matrix: (Units=1/GPa)
#
#
# Indices 1 2 3 4 5 6 
#
# 1 0.021537 -0.012000 -0.004040 0.000000 0.000000 0.000000
# 2 -0.012000 0.021537 -0.004040 0.000000 0.000000 0.000000
# 3 -0.004040 -0.004040 0.014505 0.000000 0.000000 0.000000
# 4 0.000000 0.000000 0.000000 0.041990 0.000000 0.000000
# 5 0.000000 0.000000 0.000000 0.000000 0.041990 0.000000
# 6 0.000000 0.000000 0.000000 0.000000 0.000000 0.067075
#
#
# Mechanical properties :
#
#
# Convention : Reuss Voigt Hill
#
# Bulk Modulus (GPa) = 57.41261 57.51664 57.46463
# Shear Modulus (GPa) = 19.63862 20.98329 20.31096
#
# Velocity S-wave (km/s) = 3.47165 3.58853 3.53057
# Velocity P-wave (km/s) = 7.16269 7.24350 7.20321
#
# Compressibility (1/GPa) = 0.01741778
#
# Stress axis : x y z
#
# Youngs Moduli (GPa) = 46.43188 46.43188 68.94173
#
# Poissons Ratio (x) = 0.55720 0.27853
# Poissons Ratio (y) = 0.55720 0.27853
# Poissons Ratio (z) = 0.18759 0.18759
#
# Static dielectric constant tensor:
#      x y z
#    x 3.017150 0.000000 0.000000 
#    y 0.000000 3.017150 0.000000 
#    z 0.000000 0.000000 3.179550 
# 
# 
# High freq. dielectric constant tensor:
#      x y z
#    x 1.603310 0.000000 0.000000 
#    y 0.000000 1.603310 0.000000 
#    z 0.000000 0.000000 1.629350 
# 
# From -- ./inp_files/1046.got.cif
#   From: 2010.03.12/outbox.cif.g09.slc.cpg/sg188_1_cif.got.tgz:1046.got - 2010.04.01 12:01:06.
