data_PCOD8327009
_publ_section_title
;
Structure prediction by ZEFSAII (Michael W. Deem and Ramdas Pophale) SiO2 
 PCOD8327009
Probable space group: P -6 M 2
;
_chemical_formula_sum "Si O2"
_cell_formula_units_Z 66
_cell_length_a 17.402145
_cell_length_b 17.402145
_cell_length_c 14.289845
_cell_angle_alpha 90.000000
_cell_angle_beta 90.000000
_cell_angle_gamma 120.000000
_cell_volume 3747.690482
_symmetry_space_group_name_H-M "P -6 M 2"
_symmetry_group_IT_number 187
_symmetry_cell_setting 'hexagonal'
loop_
_space_group_symop_operation_xyz
x,y,z
-x+y,-x,-z
-y,x-y,z
x,y,-z
-x+y,-x,z
-y,x-y,-z
-y,-x,-z
-x+y,y,-z
x,x-y,-z
-x+y,y,z
x,x-y,z
-y,-x,z
loop_
_atom_site_type_symbol
_atom_site_label
_atom_site_fract_x
_atom_site_fract_y
_atom_site_fract_z
Si Si1 0.699050 0.761160 0.264743
Si Si2 0.912744 0.266542 0.394383
Si Si3 0.503764 0.665521 0.000000
Si Si4 0.843750 0.332103 0.765550
Si Si5 0.748509 0.072389 0.893287
Si Si6 0.156694 0.491686 0.798181
O O1 0.727971 0.863985 0.272884
O O2 0.735648 0.733695 0.354178
O O3 0.738712 0.748311 0.167817
O O4 0.592221 0.698175 0.269021
O O5 0.930792 0.303470 0.500000
O O6 0.833672 0.166329 0.389579
O O7 0.889606 0.328990 0.331480
O O8 0.538265 0.647071 0.901542
O O9 0.396591 0.603410 0.000000
O O10 0.535849 0.767925 0.000000
O O11 0.857686 0.428843 0.779077
O O12 0.739408 0.260592 0.763445
O O13 0.891470 0.313552 0.851698
O O14 0.850605 0.149396 0.887754
O O15 0.719604 0.041212 0.000000
O O16 0.260591 0.521182 0.807257
O O17 0.148886 0.574443 0.758228
#
# Coordination Sequence:
#
# PCOD8327009 Si02
#       6
#    12  12   6  12  12  12
#     4  10  20  31  50  78  99 120 158 207 252 292
#     4   9  19  37  57  73  95 128 159 193 248 314
#     4   8  13  22  36  54  81 120 162 198 228 260
#     4   9  17  30  49  75 104 134 170 209 246 282
#     4   9  19  35  51  67  96 138 174 200 239 296
#     4   9  17  28  42  63  95 133 169 200 234 272
#
# _framework density 17.610845999999999
#
# number of rings (size 3 to 8) (size 9 to 14) (size 15 to 20)
#    0.000    2.909    0.000    2.091    1.273    5.818 
#    0.000    0.000    0.000    5.091    0.000    0.000 
#    0.000    1.455    0.000    0.000    0.000    0.000 
#
# Total GULP energy -818004.007021 kJ/mol
# GULP energy per Si atom -12394.000106 kJ/mol
# Density = 1.757076 g / cm^3
# Si number density = 17.610846 Si / 1000 Ang^3
#
#
#
# Elastic Constant Matrix: (Units=GPa)
#
#
# Indices 1 2 3 4 5 6 
#
# 1 55.8214 22.2920 9.7065 0.0000 -0.0003 0.0000
# 2 22.2920 55.8214 9.7065 0.0000 0.0003 0.0000
# 3 9.7065 9.7065 69.4840 0.0000 0.0000 0.0000
# 4 0.0000 0.0000 0.0000 16.4831 0.0000 0.0003
# 5 -0.0003 0.0003 0.0000 0.0000 16.4831 0.0000
# 6 0.0000 0.0000 0.0000 0.0003 0.0000 16.7647
#
#
#
# Elastic Compliance Matrix: (Units=1/GPa)
#
#
# Indices 1 2 3 4 5 6 
#
# 1 0.021543 -0.008281 -0.001853 0.000000 0.000001 0.000000
# 2 -0.008281 0.021543 -0.001853 0.000000 -0.000001 0.000000
# 3 -0.001853 -0.001853 0.014909 0.000000 0.000000 0.000000
# 4 0.000000 0.000000 0.000000 0.060668 0.000000 -0.000001
# 5 0.000001 -0.000001 0.000000 0.000000 0.060668 0.000000
# 6 0.000000 0.000000 0.000000 -0.000001 0.000000 0.059649
#
#
# Mechanical properties :
#
#
# Convention : Reuss Voigt Hill
#
# Bulk Modulus (GPa) = 29.39151 29.39295 29.39223
# Shear Modulus (GPa) = 18.22848 19.24096 18.73472
#
# Velocity S-wave (km/s) = 3.22074 3.30898 3.26516
# Velocity P-wave (km/s) = 5.52780 5.59693 5.56247
#
# Compressibility (1/GPa) = 0.03402344
#
# Stress axis : x y z
#
# Youngs Moduli (GPa) = 46.41779 46.41779 67.07172
#
# Poissons Ratio (x) = 0.38439 0.12426
# Poissons Ratio (y) = 0.38439 0.12426
# Poissons Ratio (z) = 0.08600 0.08600
#
# Static dielectric constant tensor:
#      x y z
#    x 3.153810 0.000000 0.000000 
#    y 0.000000 3.153810 0.000000 
#    z 0.000000 0.000000 3.450970 
# 
# 
# High freq. dielectric constant tensor:
#      x y z
#    x 1.670770 0.000000 0.000000 
#    y 0.000000 1.670770 0.000000 
#    z 0.000000 0.000000 1.668720 
# 
# From -- ./inp_files/2473.got.cif
#   From: 2010.03.12/outbox.cif.g09.slc.cpg/sg187_2_cif.got.tgz:2473.got - 2010.04.01 11:58:23.
