data_PCOD8327106
_publ_section_title
;
Structure prediction by ZEFSAII (Michael W. Deem and Ramdas Pophale) SiO2 
 PCOD8327106
Probable space group: P -6 M 2
;
_chemical_formula_sum "Si O2"
_cell_formula_units_Z 72
_cell_length_a 12.447315
_cell_length_b 12.447315
_cell_length_c 31.040595
_cell_angle_alpha 90.000000
_cell_angle_beta 90.000000
_cell_angle_gamma 120.000000
_cell_volume 4164.971458
_symmetry_space_group_name_H-M "P -6 M 2"
_symmetry_group_IT_number 187
_symmetry_cell_setting 'hexagonal'
loop_
_space_group_symop_operation_xyz
x,y,z
-x+y,-x,-z
-y,x-y,z
x,y,-z
-x+y,-x,z
-y,x-y,-z
-y,-x,-z
-x+y,y,-z
x,x-y,-z
-x+y,y,z
x,x-y,z
-y,-x,z
loop_
_atom_site_type_symbol
_atom_site_label
_atom_site_fract_x
_atom_site_fract_y
_atom_site_fract_z
Si Si1 0.413139 0.082498 0.906571
Si Si2 0.583291 0.918039 0.663763
Si Si3 0.750333 0.749741 0.172471
Si Si4 0.916654 0.583703 0.254595
Si Si5 0.999128 0.251599 0.500000
Si Si6 0.918799 0.585432 0.581947
Si Si7 0.422219 0.091196 0.000000
O O1 0.537506 0.075011 0.902212
O O2 0.448230 0.224115 0.897354
O O3 0.311638 0.992642 0.872306
O O4 0.350021 0.037648 0.954550
O O5 0.439825 0.879650 0.661023
O O6 0.594029 0.797015 0.659788
O O7 0.643013 0.984325 0.708556
O O8 0.661160 0.009753 0.625389
O O9 0.894069 0.788138 0.170579
O O10 0.678350 0.651165 0.209741
O O11 0.741565 0.870782 0.181553
O O12 0.790411 0.580821 0.266396
O O13 0.886969 0.443485 0.251060
O O14 0.889654 0.110347 0.500000
O O15 0.994029 0.323386 0.458052
O O16 0.126697 0.253394 0.500000
O O17 0.781899 0.563797 0.584784
O O18 0.906740 0.453370 0.575313
O O19 0.531114 0.062228 0.000000
O O20 0.478002 0.239001 0.000000
#
# Coordination Sequence:
#
# PCOD8327106 Si02
#       7
#    12  12  12  12   6  12   6
#     4   9  16  27  46  71  97 122 150 190 239 289
#     4  10  20  34  52  74 102 136 171 204 238 281
#     4  10  20  33  48  66  92 127 164 199 234 277
#     4  10  20  34  54  78 102 126 154 195 245 294
#     4  10  20  34  52  74 102 136 172 210 252 300
#     4  10  20  34  54  78 104 134 168 210 256 300
#     4   8  13  22  39  66  96 122 148 182 232 288
#
# _framework density 17.287032
#
# number of rings (size 3 to 8) (size 9 to 14) (size 15 to 20)
#    0.000    2.333    0.000    3.250    0.000    1.333 
#    0.000    4.583    0.000   10.667    0.000    1.167 
#    0.000    0.000    0.000    0.000    0.000    0.000 
#
# Total GULP energy -892646.140623 kJ/mol
# GULP energy per Si atom -12397.863064 kJ/mol
# Density = 1.724769 g / cm^3
# Si number density = 17.287032 Si / 1000 Ang^3
#
#
#
# Elastic Constant Matrix: (Units=GPa)
#
#
# Indices 1 2 3 4 5 6 
#
# 1 70.0160 35.2319 33.3776 0.0000 0.0000 0.0000
# 2 35.2319 70.0160 33.3776 0.0000 0.0000 0.0000
# 3 33.3776 33.3776 116.6880 0.0000 0.0000 0.0000
# 4 0.0000 0.0000 0.0000 9.4303 0.0000 0.0000
# 5 0.0000 0.0000 0.0000 0.0000 9.4303 0.0000
# 6 0.0000 0.0000 0.0000 0.0000 0.0000 17.3921
#
#
#
# Elastic Compliance Matrix: (Units=1/GPa)
#
#
# Indices 1 2 3 4 5 6 
#
# 1 0.020178 -0.008571 -0.003320 0.000000 0.000000 0.000000
# 2 -0.008571 0.020178 -0.003320 0.000000 0.000000 0.000000
# 3 -0.003320 -0.003320 0.010469 0.000000 0.000000 0.000000
# 4 0.000000 0.000000 0.000000 0.106041 0.000000 0.000000
# 5 0.000000 0.000000 0.000000 0.000000 0.106041 0.000000
# 6 0.000000 0.000000 0.000000 0.000000 0.000000 0.057498
#
#
# Mechanical properties :
#
#
# Convention : Reuss Voigt Hill
#
# Bulk Modulus (GPa) = 49.01208 51.18824 50.10016
# Shear Modulus (GPa) = 13.98099 17.56606 15.77352
#
# Velocity S-wave (km/s) = 2.84695 3.19115 3.02395
# Velocity P-wave (km/s) = 6.26261 6.57670 6.42158
#
# Compressibility (1/GPa) = 0.02040313
#
# Stress axis : x y z
#
# Youngs Moduli (GPa) = 49.55893 49.55893 95.51777
#
# Poissons Ratio (x) = 0.42476 0.31713
# Poissons Ratio (y) = 0.42476 0.31713
# Poissons Ratio (z) = 0.16454 0.16454
#
# Static dielectric constant tensor:
#      x y z
#    x 3.065670 0.000000 0.000000 
#    y 0.000000 3.065670 0.000000 
#    z 0.000000 0.000000 3.669100 
# 
# 
# High freq. dielectric constant tensor:
#      x y z
#    x 1.656020 0.000000 0.000000 
#    y 0.000000 1.656020 0.000000 
#    z 0.000000 0.000000 1.692730 
# 
# From -- ./inp_files/4539.got.cif
#   From: 2010.03.12/outbox.cif.g09.slc.cpg/sg187_3_cif.got.tgz:4539.got - 2010.04.01 11:58:23.
