data_PCOD8327485
_publ_section_title
;
Structure prediction by ZEFSAII (Michael W. Deem and Ramdas Pophale) SiO2 
 PCOD8327485
Probable space group: P -6 2 M
;
_chemical_formula_sum "Si O2"
_cell_formula_units_Z 30
_cell_length_a 13.548366
_cell_length_b 13.548366
_cell_length_c 11.427096
_cell_angle_alpha 90.000000
_cell_angle_beta 90.000000
_cell_angle_gamma 120.000000
_cell_volume 1816.520688
_symmetry_space_group_name_H-M "P -6 2 M"
_symmetry_group_IT_number 189
_symmetry_cell_setting 'hexagonal'
loop_
_space_group_symop_operation_xyz
x,y,z
-x+y,-x,-z
-y,x-y,z
x,y,-z
-x+y,-x,z
-y,x-y,-z
x-y,-y,-z
-x,-x+y,-z
y,x,-z
y,x,z
x-y,-y,z
-x,-x+y,z
loop_
_atom_site_type_symbol
_atom_site_label
_atom_site_fract_x
_atom_site_fract_y
_atom_site_fract_z
Si Si1 0.786382 0.320365 0.500000
Si Si2 0.869842 0.327326 0.750920
Si Si3 0.869303 0.534169 0.863938
O O1 0.655304 0.215623 0.500000
O O2 0.852855 0.312993 0.612000
O O3 0.834454 0.417709 0.795806
O O4 0.792489 0.207540 0.815653
O O5 0.000000 0.368130 0.783301
O O6 0.000000 0.628424 0.840214
O O7 0.845745 0.504574 0.000000
#
# Coordination Sequence:
#
# PCOD8327485 Si02
#       3
#     6  12  12
#     4  10  17  32  52  70 103 136 162 204 250 294
#     4  11  20  33  52  74 102 134 167 206 251 299
#     4  10  20  33  50  73 101 133 168 207 250 296
#
# _framework density 16.515089
#
# number of rings (size 3 to 8) (size 9 to 14) (size 15 to 20)
#    0.400    1.200    4.000    2.600    0.000    2.400 
#    0.000    1.000    0.000    0.800    0.000    0.000 
#    0.000    0.000    0.000    0.000    0.000    0.000 
#
# Total GULP energy -372089.421141 kJ/mol
# GULP energy per Si atom -12402.980705 kJ/mol
# Density = 1.647750 g / cm^3
# Si number density = 16.515089 Si / 1000 Ang^3
#
#
#
# Elastic Constant Matrix: (Units=GPa)
#
#
# Indices 1 2 3 4 5 6 
#
# 1 79.9173 35.0297 32.3893 0.0000 0.0000 0.0000
# 2 35.0297 79.9173 32.3893 0.0000 0.0000 0.0000
# 3 32.3893 32.3893 108.7261 0.0000 0.0000 0.0000
# 4 0.0000 0.0000 0.0000 20.8014 0.0000 0.0000
# 5 0.0000 0.0000 0.0000 0.0000 20.8014 0.0000
# 6 0.0000 0.0000 0.0000 0.0000 0.0000 22.4438
#
#
#
# Elastic Compliance Matrix: (Units=1/GPa)
#
#
# Indices 1 2 3 4 5 6 
#
# 1 0.016366 -0.005912 -0.003114 0.000000 0.000000 0.000000
# 2 -0.005912 0.016366 -0.003114 0.000000 0.000000 0.000000
# 3 -0.003114 -0.003114 0.011053 0.000000 0.000000 0.000000
# 4 0.000000 0.000000 0.000000 0.048074 0.000000 0.000000
# 5 0.000000 0.000000 0.000000 0.000000 0.048074 0.000000
# 6 0.000000 0.000000 0.000000 0.000000 0.000000 0.044556
#
#
# Mechanical properties :
#
#
# Convention : Reuss Voigt Hill
#
# Bulk Modulus (GPa) = 51.26950 52.01971 51.64460
# Shear Modulus (GPa) = 23.22649 24.05948 23.64298
#
# Velocity S-wave (km/s) = 3.75424 3.82097 3.78775
# Velocity P-wave (km/s) = 7.06427 7.14374 7.10412
#
# Compressibility (1/GPa) = 0.01950477
#
# Stress axis : x y z
#
# Youngs Moduli (GPa) = 61.10099 61.10099 90.47313
#
# Poissons Ratio (x) = 0.36120 0.28178
# Poissons Ratio (y) = 0.36120 0.28178
# Poissons Ratio (z) = 0.19030 0.19030
#
# Static dielectric constant tensor:
#      x y z
#    x 2.915820 0.000000 0.000000 
#    y 0.000000 2.915820 0.000000 
#    z 0.000000 0.000000 3.173050 
# 
# 
# High freq. dielectric constant tensor:
#      x y z
#    x 1.611980 0.000000 0.000000 
#    y 0.000000 1.611980 0.000000 
#    z 0.000000 0.000000 1.657550 
# 
# From -- ./inp_files/352.got.cif
#   From: 2010.03.12/outbox.cif.g09.slc.cpg/sg189_1_cif.got.tgz:352.got - 2010.04.01 12:03:36.
