data_PCOD8327865
_publ_section_title
;
Structure prediction by ZEFSAII (Michael W. Deem and Ramdas Pophale) SiO2 
 PCOD8327865
Probable space group: P -6 2 M
;
_chemical_formula_sum "Si O2"
_cell_formula_units_Z 96
_cell_length_a 15.012027
_cell_length_b 15.012027
_cell_length_c 25.746066
_cell_angle_alpha 90.000000
_cell_angle_beta 90.000000
_cell_angle_gamma 120.000000
_cell_volume 5024.816235
_symmetry_space_group_name_H-M "P -6 2 M"
_symmetry_group_IT_number 189
_symmetry_cell_setting 'hexagonal'
loop_
_space_group_symop_operation_xyz
x,y,z
-x+y,-x,-z
-y,x-y,z
x,y,-z
-x+y,-x,z
-y,x-y,-z
x-y,-y,-z
-x,-x+y,-z
y,x,-z
y,x,z
x-y,-y,z
-x,-x+y,z
loop_
_atom_site_type_symbol
_atom_site_label
_atom_site_fract_x
_atom_site_fract_y
_atom_site_fract_z
Si Si1 0.201731 0.764040 0.661457
Si Si2 0.241556 0.119605 0.732918
Si Si3 0.338164 0.216305 0.162529
Si Si4 0.118166 0.590062 0.189986
Si Si5 0.465278 0.743358 0.442097
Si Si6 0.543126 0.118803 0.701156
Si Si7 0.792853 0.578269 0.056093
Si Si8 0.550814 0.117169 0.078371
O O1 0.165182 0.837011 0.688051
O O2 0.198609 0.759225 0.598334
O O3 0.129312 0.649568 0.682179
O O4 0.321421 0.805979 0.671456
O O5 0.177020 0.177020 0.727616
O O6 0.285531 0.131627 0.791889
O O7 0.168140 0.000000 0.721997
O O8 0.279071 0.279071 0.154846
O O9 0.456041 0.288018 0.180569
O O10 0.341386 0.173294 0.104651
O O11 0.162069 0.560830 0.239679
O O12 0.133897 0.537275 0.139448
O O13 0.000000 0.550454 0.202992
O O14 0.381814 0.782385 0.434951
O O15 0.513297 0.770833 0.500000
O O16 0.452953 0.000000 0.695838
O O17 0.818418 0.487202 0.062369
O O18 0.670460 0.521851 0.048868
O O19 0.837541 0.634659 0.000000
O O20 0.516925 0.000000 0.066067
#
# Coordination Sequence:
#
# PCOD8327865 Si02
#       8
#    12  12  12  12  12  12  12  12
#     4  12  20  34  57  90 121 160 197 231 283 348
#     4  11  24  42  63  85 112 149 198 254 308 358
#     4   9  19  37  56  77 103 137 181 234 295 353
#     4   8  16  32  50  73 106 143 175 215 272 334
#     4   8  15  31  54  83 125 171 203 229 266 324
#     4  11  21  32  51  83 121 150 183 230 281 338
#     4  11  22  35  54  79 107 146 192 231 279 343
#     4  10  22  37  54  75 108 148 187 229 271 327
#
# _framework density 19.105174999999999
#
# number of rings (size 3 to 8) (size 9 to 14) (size 15 to 20)
#    0.250    1.750    2.500    2.875    1.750    2.250 
#    0.000    0.000    0.000    3.750    0.000    0.000 
#    0.000    2.000    0.000    0.000    0.000    0.000 
#
# Total GULP energy -1189379.102173 kJ/mol
# GULP energy per Si atom -12389.365648 kJ/mol
# Density = 1.906169 g / cm^3
# Si number density = 19.105175 Si / 1000 Ang^3
#
#
#
# Elastic Constant Matrix: (Units=GPa)
#
#
# Indices 1 2 3 4 5 6 
#
# 1 58.3193 13.1637 34.6487 0.0000 0.0000 0.0000
# 2 13.1637 58.3193 34.6487 0.0000 0.0000 0.0000
# 3 34.6487 34.6487 171.9221 0.0000 0.0000 0.0000
# 4 0.0000 0.0000 0.0000 46.7689 0.0000 0.0000
# 5 0.0000 0.0000 0.0000 0.0000 46.7689 0.0000
# 6 0.0000 0.0000 0.0000 0.0000 0.0000 22.5778
#
#
#
# Elastic Compliance Matrix: (Units=1/GPa)
#
#
# Indices 1 2 3 4 5 6 
#
# 1 0.019766 -0.002380 -0.003504 0.000000 0.000000 0.000000
# 2 -0.002380 0.019766 -0.003504 0.000000 0.000000 0.000000
# 3 -0.003504 -0.003504 0.007229 0.000000 0.000000 0.000000
# 4 0.000000 0.000000 0.000000 0.021382 0.000000 0.000000
# 5 0.000000 0.000000 0.000000 0.000000 0.021382 0.000000
# 6 0.000000 0.000000 0.000000 0.000000 0.000000 0.044291
#
#
# Mechanical properties :
#
#
# Convention : Reuss Voigt Hill
#
# Bulk Modulus (GPa) = 35.73285 50.38699 43.05992
# Shear Modulus (GPa) = 30.87957 36.96310 33.92134
#
# Velocity S-wave (km/s) = 4.02468 4.40331 4.21825
# Velocity P-wave (km/s) = 6.35147 7.23070 6.80530
#
# Compressibility (1/GPa) = 0.02798545
#
# Stress axis : x y z
#
# Youngs Moduli (GPa) = 50.59214 50.59214 138.33269
#
# Poissons Ratio (x) = 0.12040 0.48471
# Poissons Ratio (y) = 0.12040 0.48471
# Poissons Ratio (z) = 0.17727 0.17727
#
# Static dielectric constant tensor:
#      x y z
#    x 3.196300 0.000000 0.000000 
#    y 0.000000 3.196300 0.000000 
#    z 0.000000 0.000000 3.789340 
# 
# 
# High freq. dielectric constant tensor:
#      x y z
#    x 1.714570 0.000000 0.000000 
#    y 0.000000 1.714570 0.000000 
#    z 0.000000 0.000000 1.754040 
# 
# From -- ./inp_files/3707.got.cif
#   From: 2010.03.12/outbox.cif.g09.slc.cpg/sg189_2_cif.got.tgz:3707.got - 2010.04.01 12:03:36.
