data_PCOD8327408
_publ_section_title
;
Structure prediction by ZEFSAII (Michael W. Deem and Ramdas Pophale) SiO2 
 PCOD8327408
Probable space group: P -6 C 2
;
_chemical_formula_sum "Si O2"
_cell_formula_units_Z 64
_cell_length_a 16.131286
_cell_length_b 16.131286
_cell_length_c 16.168888
_cell_angle_alpha 90.000000
_cell_angle_beta 90.000000
_cell_angle_gamma 120.000000
_cell_volume 3643.751632
_symmetry_space_group_name_H-M "P -6 C 2"
_symmetry_group_IT_number 188
_symmetry_cell_setting 'hexagonal'
loop_
_space_group_symop_operation_xyz
x,y,z
-x+y,-x,1/2-z
-y,x-y,z
x,y,1/2-z
-x+y,-x,z
-y,x-y,1/2-z
-y,-x,-z
-x+y,y,-z
x,x-y,-z
-x+y,y,1/2+z
x,x-y,1/2+z
-y,-x,1/2+z
loop_
_atom_site_type_symbol
_atom_site_label
_atom_site_fract_x
_atom_site_fract_y
_atom_site_fract_z
Si Si1 0.292724 0.370265 0.846210
Si Si2 0.119593 0.562854 0.097204
Si Si3 0.333334 0.666667 0.401238
Si Si4 0.144370 0.969173 0.582240
Si Si5 0.840659 0.027619 0.656215
Si Si6 0.630401 0.735604 0.653247
O O1 0.290328 0.355604 0.750000
O O2 0.397860 0.452800 0.873737
O O3 0.264586 0.264729 0.881238
O O4 0.215038 0.402052 0.871332
O O5 0.226174 0.607577 0.134466
O O6 0.076878 0.627703 0.129808
O O7 0.122200 0.561100 0.000000
O O8 0.333334 0.666667 0.500000
O O9 0.083131 0.916870 0.500000
O O10 0.238696 0.960304 0.595443
O O11 0.071437 0.914828 0.658187
O O12 0.180925 0.081842 0.589858
O O13 0.858309 0.069186 0.750000
O O14 0.655354 0.740263 0.750000
#
# Coordination Sequence:
#
# PCOD8327408 Si02
#       6
#    12  12   4  12  12  12
#     4   9  19  33  49  71 101 141 181 218 266 324
#     4  11  20  31  50  72 101 141 178 226 263 314
#     4   9  18  27  43  65  97 132 172 200 256 300
#     4  11  22  34  55  79 104 138 183 228 275 327
#     4  10  20  36  54  72 105 142 179 221 272 332
#     4  10  21  34  50  73 106 141 177 223 274 330
#
# _framework density 17.564316000000002
#
# number of rings (size 3 to 8) (size 9 to 14) (size 15 to 20)
#    0.000    1.875    1.875    4.312    5.250    0.000 
#    0.000    0.000    0.000    0.000    0.000    0.000 
#    1.875    0.000    2.250    0.000    0.750    0.000 
#
# Total GULP energy -793087.385564 kJ/mol
# GULP energy per Si atom -12391.990399 kJ/mol
# Density = 1.752434 g / cm^3
# Si number density = 17.564316 Si / 1000 Ang^3
#
#
#
# Elastic Constant Matrix: (Units=GPa)
#
#
# Indices 1 2 3 4 5 6 
#
# 1 120.9507 58.9662 29.2562 0.0000 0.0000 0.0000
# 2 58.9662 120.9507 29.2561 0.0000 0.0000 0.0000
# 3 29.2562 29.2561 58.6391 0.0000 0.0000 0.0000
# 4 0.0000 0.0000 0.0000 24.6595 0.0000 0.0000
# 5 0.0000 0.0000 0.0000 0.0000 24.6595 0.0000
# 6 0.0000 0.0000 0.0000 0.0000 0.0000 30.9921
#
#
#
# Elastic Compliance Matrix: (Units=1/GPa)
#
#
# Indices 1 2 3 4 5 6 
#
# 1 0.011384 -0.004749 -0.003310 0.000000 0.000000 0.000000
# 2 -0.004749 0.011384 -0.003310 0.000000 0.000000 0.000000
# 3 -0.003310 -0.003310 0.020356 0.000000 0.000000 0.000000
# 4 0.000000 0.000000 0.000000 0.040552 0.000000 0.000000
# 5 0.000000 0.000000 0.000000 0.000000 0.040552 0.000000
# 6 0.000000 0.000000 0.000000 0.000000 0.000000 0.032266
#
#
# Mechanical properties :
#
#
# Convention : Reuss Voigt Hill
#
# Bulk Modulus (GPa) = 49.05528 59.49969 54.27749
# Shear Modulus (GPa) = 26.87752 28.26637 27.57194
#
# Velocity S-wave (km/s) = 3.91606 4.01597 3.96633
# Velocity P-wave (km/s) = 6.95967 7.44667 7.20728
#
# Compressibility (1/GPa) = 0.02038516
#
# Stress axis : x y z
#
# Youngs Moduli (GPa) = 87.84366 87.84377 49.12445
#
# Poissons Ratio (x) = 0.41719 0.16261
# Poissons Ratio (y) = 0.41719 0.16261
# Poissons Ratio (z) = 0.29078 0.29077
#
# Static dielectric constant tensor:
#      x y z
#    x 2.339590 -0.000010 0.000000 
#    y -0.000010 2.339520 0.000000 
#    z 0.000000 0.000000 3.188110 
# 
# 
# High freq. dielectric constant tensor:
#      x y z
#    x 1.650630 0.000000 0.000000 
#    y 0.000000 1.650630 0.000000 
#    z 0.000000 0.000000 1.686760 
# 
# From -- ./inp_files/3075.got.cif
#   From: 2010.03.12/outbox.cif.g09.slc.cpg/sg188_2_cif.got.tgz:3075.got - 2010.04.01 12:01:06.
