data_PCOD8327074
_publ_section_title
;
Structure prediction by ZEFSAII (Michael W. Deem and Ramdas Pophale) SiO2 
 PCOD8327074
Probable space group: P -6 M 2
;
_chemical_formula_sum "Si O2"
_cell_formula_units_Z 72
_cell_length_a 23.652524
_cell_length_b 23.652524
_cell_length_c 9.013381
_cell_angle_alpha 90.000000
_cell_angle_beta 90.000000
_cell_angle_gamma 120.000000
_cell_volume 4366.900983
_symmetry_space_group_name_H-M "P -6 M 2"
_symmetry_group_IT_number 187
_symmetry_cell_setting 'hexagonal'
loop_
_space_group_symop_operation_xyz
x,y,z
-x+y,-x,-z
-y,x-y,z
x,y,-z
-x+y,-x,z
-y,x-y,-z
-y,-x,-z
-x+y,y,-z
x,x-y,-z
-x+y,y,z
x,x-y,z
-y,-x,z
loop_
_atom_site_type_symbol
_atom_site_label
_atom_site_fract_x
_atom_site_fract_y
_atom_site_fract_z
Si Si1 0.135600 0.733928 0.326876
Si Si2 0.465818 0.058951 0.673183
Si Si3 0.077156 0.474081 0.173237
Si Si4 0.068663 0.267270 0.826958
Si Si5 0.401331 0.262126 0.675806
Si Si6 0.253708 0.062095 0.672209
O O1 0.120524 0.722619 0.500000
O O2 0.208523 0.791478 0.293866
O O3 0.129385 0.669119 0.254104
O O4 0.082869 0.749633 0.255541
O O5 0.448733 0.043081 0.500000
O O6 0.541946 0.083892 0.703954
O O7 0.450820 0.115052 0.729641
O O8 0.419867 0.994333 0.764158
O O9 0.097617 0.548809 0.206370
O O10 0.076931 0.460710 0.000000
O O11 0.125139 0.250277 0.791910
O O12 0.001414 0.207398 0.767221
O O13 0.063422 0.277689 0.000000
O O14 0.400862 0.258284 0.500000
O O15 0.423836 0.211918 0.739392
O O16 0.327771 0.238715 0.728368
O O17 0.246628 0.042696 0.500000
O O18 0.232855 0.116428 0.699999
#
# Coordination Sequence:
#
# PCOD8327074 Si02
#       6
#    12  12  12  12  12  12
#     4  10  20  33  50  71  94 122 155 190 227 268
#     4   9  16  26  43  66  89 117 154 190 224 268
#     4  10  20  32  47  69  96 123 149 183 230 278
#     4  10  20  32  47  69  96 124 152 185 230 282
#     4   8  14  25  41  61  86 115 146 182 223 263
#     4   9  17  29  46  67  89 117 154 192 230 272
#
# _framework density 16.487665
#
# number of rings (size 3 to 8) (size 9 to 14) (size 15 to 20)
#    0.000    2.667    0.000    3.500    0.000    4.667 
#    0.000    0.000    0.000    2.500    0.000    2.333 
#    0.000    0.000    0.000    0.000    0.000    0.167 
#
# Total GULP energy -892744.501059 kJ/mol
# GULP energy per Si atom -12399.229181 kJ/mol
# Density = 1.645014 g / cm^3
# Si number density = 16.487665 Si / 1000 Ang^3
#
#
#
# Elastic Constant Matrix: (Units=GPa)
#
#
# Indices 1 2 3 4 5 6 
#
# 1 108.9903 60.8774 48.6043 0.0000 0.0001 0.0000
# 2 60.8774 108.9903 48.6043 0.0000 -0.0001 0.0000
# 3 48.6043 48.6043 73.6619 0.0000 0.0000 0.0000
# 4 0.0000 0.0000 0.0000 21.4060 0.0000 -0.0001
# 5 0.0001 -0.0001 0.0000 0.0000 21.4060 0.0000
# 6 0.0000 0.0000 0.0000 -0.0001 0.0000 24.0565
#
#
#
# Elastic Compliance Matrix: (Units=1/GPa)
#
#
# Indices 1 2 3 4 5 6 
#
# 1 0.015121 -0.005663 -0.006241 0.000000 0.000000 0.000000
# 2 -0.005663 0.015121 -0.006241 0.000000 0.000000 0.000000
# 3 -0.006241 -0.006241 0.021811 0.000000 0.000000 0.000000
# 4 0.000000 0.000000 0.000000 0.046716 0.000000 0.000000
# 5 0.000000 0.000000 0.000000 0.000000 0.046716 0.000000
# 6 0.000000 0.000000 0.000000 0.000000 0.000000 0.041569
#
#
# Mechanical properties :
#
#
# Convention : Reuss Voigt Hill
#
# Bulk Modulus (GPa) = 63.43366 67.53495 65.48430
# Shear Modulus (GPa) = 21.87235 22.27748 22.07492
#
# Velocity S-wave (km/s) = 3.64619 3.67980 3.66303
# Velocity P-wave (km/s) = 7.50221 7.68794 7.59564
#
# Compressibility (1/GPa) = 0.01576450
#
# Stress axis : x y z
#
# Youngs Moduli (GPa) = 66.13152 66.13152 45.84760
#
# Poissons Ratio (x) = 0.37450 0.28613
# Poissons Ratio (y) = 0.37450 0.28613
# Poissons Ratio (z) = 0.41272 0.41272
#
# Static dielectric constant tensor:
#      x y z
#    x 3.166510 0.000000 0.000000 
#    y 0.000000 3.166510 0.000000 
#    z 0.000000 0.000000 3.001290 
# 
# 
# High freq. dielectric constant tensor:
#      x y z
#    x 1.625500 0.000000 0.000000 
#    y 0.000000 1.625500 0.000000 
#    z 0.000000 0.000000 1.627070 
# 
# From -- ./inp_files/940.got.cif
#   From: 2010.03.12/outbox.cif.g09.slc.cpg/sg187_1_cif.got.tgz:940.got - 2010.04.01 11:58:23.
