data_PCOD8327509
_publ_section_title
;
Structure prediction by ZEFSAII (Michael W. Deem and Ramdas Pophale) SiO2 
 PCOD8327509
Probable space group: P -6 2 M
;
_chemical_formula_sum "Si O2"
_cell_formula_units_Z 36
_cell_length_a 18.275672
_cell_length_b 18.275672
_cell_length_c 8.324551
_cell_angle_alpha 90.000000
_cell_angle_beta 90.000000
_cell_angle_gamma 120.000000
_cell_volume 2407.898411
_symmetry_space_group_name_H-M "P -6 2 M"
_symmetry_group_IT_number 189
_symmetry_cell_setting 'hexagonal'
loop_
_space_group_symop_operation_xyz
x,y,z
-x+y,-x,-z
-y,x-y,z
x,y,-z
-x+y,-x,z
-y,x-y,-z
x-y,-y,-z
-x,-x+y,-z
y,x,-z
y,x,z
x-y,-y,z
-x,-x+y,z
loop_
_atom_site_type_symbol
_atom_site_label
_atom_site_fract_x
_atom_site_fract_y
_atom_site_fract_z
Si Si1 0.326867 0.504066 0.685646
Si Si2 0.491719 0.662678 0.813677
Si Si3 0.423713 0.000000 0.311214
Si Si4 0.000000 0.584573 0.186257
O O1 0.303398 0.498887 0.500000
O O2 0.408202 0.594760 0.720491
O O3 0.248752 0.493045 0.790114
O O4 0.341718 0.426378 0.730887
O O5 0.573842 0.660197 0.742202
O O6 0.479562 0.638968 0.000000
O O7 0.440270 0.000000 0.500000
O O8 0.497903 0.000000 0.208915
O O9 0.000000 0.605549 0.000000
#
# Coordination Sequence:
#
# PCOD8327509 Si02
#       4
#    12  12   6   6
#     4  11  20  31  44  61  82 108 139 174 209 246
#     4  11  20  31  44  61  82 108 139 174 209 246
#     4  10  18  30  44  60  80 106 135 168 207 248
#     4  10  18  30  44  60  80 106 135 168 207 248
#
# _framework density 14.950797
#
# number of rings (size 3 to 8) (size 9 to 14) (size 15 to 20)
#    0.000    1.333    0.000   13.667    0.000    0.000 
#    0.000    0.000    0.000    0.000    0.000    0.000 
#    0.000    0.000    0.000    1.000    0.000   14.000 
#
# Total GULP energy -446356.602868 kJ/mol
# GULP energy per Si atom -12398.794524 kJ/mol
# Density = 1.491677 g / cm^3
# Si number density = 14.950797 Si / 1000 Ang^3
#
#
#
# Elastic Constant Matrix: (Units=GPa)
#
#
# Indices 1 2 3 4 5 6 
#
# 1 68.0484 37.8447 8.0307 0.0000 0.0000 0.0000
# 2 37.8447 68.0484 8.0307 0.0000 0.0000 0.0000
# 3 8.0307 8.0307 88.7269 0.0000 0.0000 0.0000
# 4 0.0000 0.0000 0.0000 22.8584 0.0000 0.0000
# 5 0.0000 0.0000 0.0000 0.0000 22.8584 0.0000
# 6 0.0000 0.0000 0.0000 0.0000 0.0000 15.1018
#
#
#
# Elastic Compliance Matrix: (Units=1/GPa)
#
#
# Indices 1 2 3 4 5 6 
#
# 1 0.021342 -0.011767 -0.000867 0.000000 0.000000 0.000000
# 2 -0.011767 0.021342 -0.000867 0.000000 0.000000 0.000000
# 3 -0.000867 -0.000867 0.011427 0.000000 0.000000 0.000000
# 4 0.000000 0.000000 0.000000 0.043748 0.000000 0.000000
# 5 0.000000 0.000000 0.000000 0.000000 0.043748 0.000000
# 6 0.000000 0.000000 0.000000 0.000000 0.000000 0.066217
#
#
# Mechanical properties :
#
#
# Convention : Reuss Voigt Hill
#
# Bulk Modulus (GPa) = 36.88570 36.95953 36.92262
# Shear Modulus (GPa) = 20.50354 23.55822 22.03088
#
# Velocity S-wave (km/s) = 3.70726 3.97384 3.84286
# Velocity P-wave (km/s) = 6.56125 6.76976 6.66632
#
# Compressibility (1/GPa) = 0.02711077
#
# Stress axis : x y z
#
# Youngs Moduli (GPa) = 46.85653 46.85653 87.50884
#
# Poissons Ratio (x) = 0.55135 0.07584
# Poissons Ratio (y) = 0.55135 0.07584
# Poissons Ratio (z) = 0.04061 0.04061
#
# Static dielectric constant tensor:
#      x y z
#    x 2.986670 0.000000 0.000000 
#    y 0.000000 2.986670 0.000000 
#    z 0.000000 0.000000 2.973060 
# 
# 
# High freq. dielectric constant tensor:
#      x y z
#    x 1.543010 0.000000 0.000000 
#    y 0.000000 1.543010 0.000000 
#    z 0.000000 0.000000 1.600810 
# 
# From -- ./inp_files/438.got.cif
#   From: 2010.03.12/outbox.cif.g09.slc.cpg/sg189_1_cif.got.tgz:438.got - 2010.04.01 12:03:36.
