data_PCOD8327708
_publ_section_title
;
Structure prediction by ZEFSAII (Michael W. Deem and Ramdas Pophale) SiO2 
 PCOD8327708
Probable space group: P -6 2 M
;
_chemical_formula_sum "Si O2"
_cell_formula_units_Z 72
_cell_length_a 23.551256
_cell_length_b 23.551256
_cell_length_c 8.870682
_cell_angle_alpha 90.000000
_cell_angle_beta 90.000000
_cell_angle_gamma 120.000000
_cell_volume 4261.041744
_symmetry_space_group_name_H-M "P -6 2 M"
_symmetry_group_IT_number 189
_symmetry_cell_setting 'hexagonal'
loop_
_space_group_symop_operation_xyz
x,y,z
-x+y,-x,-z
-y,x-y,z
x,y,-z
-x+y,-x,z
-y,x-y,-z
x-y,-y,-z
-x,-x+y,-z
y,x,-z
y,x,z
x-y,-y,z
-x,-x+y,z
loop_
_atom_site_type_symbol
_atom_site_label
_atom_site_fract_x
_atom_site_fract_y
_atom_site_fract_z
Si Si1 0.805820 0.400784 0.177937
Si Si2 0.074714 0.926078 0.321804
Si Si3 0.513043 0.924924 0.674720
Si Si4 0.264266 0.189682 0.176633
Si Si5 0.600038 0.864190 0.327927
Si Si6 0.531154 0.265176 0.324769
O O1 0.881116 0.449840 0.223251
O O2 0.787769 0.328985 0.233767
O O3 0.757755 0.420875 0.259020
O O4 0.797075 0.401547 0.000000
O O5 0.079252 0.923754 0.500000
O O6 0.101902 0.881353 0.252061
O O7 0.000000 0.899433 0.269585
O O8 0.118719 0.000000 0.261176
O O9 0.494206 0.905629 0.500000
O O10 0.571748 0.911592 0.718233
O O11 0.535358 0.000000 0.706952
O O12 0.238791 0.238791 0.230618
O O13 0.339258 0.218699 0.222822
O O14 0.257942 0.179572 0.000000
O O15 0.624340 0.877045 0.500000
O O16 0.544312 0.789174 0.302098
O O17 0.548067 0.265302 0.500000
#
# Coordination Sequence:
#
# PCOD8327708 Si02
#       6
#    12  12  12  12  12  12
#     4  11  21  32  49  75 103 128 158 198 245 289
#     4   9  17  30  49  71  94 122 158 198 236 276
#     4   9  18  33  52  73  98 130 165 197 234 284
#     4  10  20  31  45  69 100 130 156 187 234 287
#     4   9  18  32  51  72  93 123 162 200 234 272
#     4  10  20  35  52  70  96 130 165 198 237 286
#
# _framework density 16.897276999999999
#
# number of rings (size 3 to 8) (size 9 to 14) (size 15 to 20)
#    0.000    2.333    0.000    4.500    0.000    6.333 
#    0.000    0.000    0.000    2.000    0.000    7.000 
#    0.000    0.000    0.000    0.000    0.000    0.000 
#
# Total GULP energy -893008.766936 kJ/mol
# GULP energy per Si atom -12402.899541 kJ/mol
# Density = 1.685882 g / cm^3
# Si number density = 16.897277 Si / 1000 Ang^3
#
#
#
# Elastic Constant Matrix: (Units=GPa)
#
#
# Indices 1 2 3 4 5 6 
#
# 1 89.2614 42.3939 31.1529 0.0000 0.0000 0.0000
# 2 42.3939 89.2614 31.1529 0.0000 0.0000 0.0000
# 3 31.1529 31.1529 58.1071 0.0000 0.0000 0.0000
# 4 0.0000 0.0000 0.0000 20.7135 0.0000 0.0000
# 5 0.0000 0.0000 0.0000 0.0000 20.7135 0.0000
# 6 0.0000 0.0000 0.0000 0.0000 0.0000 23.4338
#
#
#
# Elastic Compliance Matrix: (Units=1/GPa)
#
#
# Indices 1 2 3 4 5 6 
#
# 1 0.015757 -0.005579 -0.005457 0.000000 0.000000 0.000000
# 2 -0.005579 0.015757 -0.005457 0.000000 0.000000 0.000000
# 3 -0.005457 -0.005457 0.023061 0.000000 0.000000 0.000000
# 4 0.000000 0.000000 0.000000 0.048278 0.000000 0.000000
# 5 0.000000 0.000000 0.000000 0.000000 0.048278 0.000000
# 6 0.000000 0.000000 0.000000 0.000000 0.000000 0.042673
#
#
# Mechanical properties :
#
#
# Convention : Reuss Voigt Hill
#
# Bulk Modulus (GPa) = 46.31832 49.55880 47.93856
# Shear Modulus (GPa) = 21.36879 21.76752 21.56816
#
# Velocity S-wave (km/s) = 3.56002 3.59308 3.57659
# Velocity P-wave (km/s) = 6.66105 6.82692 6.74449
#
# Compressibility (1/GPa) = 0.02158973
#
# Stress axis : x y z
#
# Youngs Moduli (GPa) = 63.46243 63.46243 43.36402
#
# Poissons Ratio (x) = 0.35408 0.23662
# Poissons Ratio (y) = 0.35408 0.23662
# Poissons Ratio (z) = 0.34630 0.34630
#
# Static dielectric constant tensor:
#      x y z
#    x 3.109090 0.000000 0.000000 
#    y 0.000000 3.109090 0.000000 
#    z 0.000000 0.000000 3.127230 
# 
# 
# High freq. dielectric constant tensor:
#      x y z
#    x 1.640830 0.000000 0.000000 
#    y 0.000000 1.640830 0.000000 
#    z 0.000000 0.000000 1.655020 
# 
# From -- ./inp_files/1246.got.cif
#   From: 2010.03.12/outbox.cif.g09.slc.cpg/sg189_1_cif.got.tgz:1246.got - 2010.04.01 12:03:36.
