data_PCOD8327240
_publ_section_title
;
Structure prediction by ZEFSAII (Michael W. Deem and Ramdas Pophale) SiO2 
 PCOD8327240
Probable space group: P -6 M 2
;
_chemical_formula_sum "Si O2"
_cell_formula_units_Z 48
_cell_length_a 18.574722
_cell_length_b 18.574722
_cell_length_c 9.249864
_cell_angle_alpha 90.000000
_cell_angle_beta 90.000000
_cell_angle_gamma 120.000000
_cell_volume 2763.825530
_symmetry_space_group_name_H-M "P -6 M 2"
_symmetry_group_IT_number 187
_symmetry_cell_setting 'hexagonal'
loop_
_space_group_symop_operation_xyz
x,y,z
-x+y,-x,-z
-y,x-y,z
x,y,-z
-x+y,-x,z
-y,x-y,-z
-y,-x,-z
-x+y,y,-z
x,x-y,-z
-x+y,y,z
x,x-y,z
-y,-x,z
loop_
_atom_site_type_symbol
_atom_site_label
_atom_site_fract_x
_atom_site_fract_y
_atom_site_fract_z
Si Si1 0.333670 0.507440 0.171874
Si Si2 0.666292 0.167883 0.832494
Si Si3 0.915298 0.251384 0.668578
Si Si4 0.243981 0.321200 0.168371
O O1 0.263936 0.527871 0.231048
O O2 0.423946 0.576055 0.233548
O O3 0.310411 0.414987 0.219629
O O4 0.333253 0.510551 0.000000
O O5 0.579627 0.159253 0.783139
O O6 0.737874 0.262127 0.802739
O O7 0.680962 0.103671 0.739926
O O8 0.664194 0.144441 0.000000
O O9 0.929256 0.270393 0.500000
O O10 0.841057 0.158944 0.700721
O O11 0.997602 0.258233 0.738734
O O12 0.150829 0.301658 0.199807
O O13 0.255232 0.308907 0.000000
#
# Coordination Sequence:
#
# PCOD8327240 Si02
#       4
#    12  12  12  12
#     4   8  13  22  39  65  96 127 157 188 221 257
#     4   9  17  30  49  72  98 130 168 207 244 282
#     4  10  21  35  50  70  96 126 160 197 240 293
#     4   9  18  32  50  73  98 123 155 196 239 283
#
# _framework density 17.367232999999999
#
# number of rings (size 3 to 8) (size 9 to 14) (size 15 to 20)
#    0.000    3.000    0.000    2.750    0.000    5.500 
#    0.000    2.500    0.000    2.000    0.000    0.000 
#    0.000    2.000    0.000    0.000    0.000    0.000 
#
# Total GULP energy -595100.370569 kJ/mol
# GULP energy per Si atom -12397.924387 kJ/mol
# Density = 1.732770 g / cm^3
# Si number density = 17.367233 Si / 1000 Ang^3
#
#
#
# Elastic Constant Matrix: (Units=GPa)
#
#
# Indices 1 2 3 4 5 6 
#
# 1 97.5578 62.8123 51.7942 0.0000 0.0001 0.0000
# 2 62.8123 97.5578 51.7942 0.0000 -0.0001 0.0000
# 3 51.7942 51.7942 65.8976 0.0000 0.0000 0.0000
# 4 0.0000 0.0000 0.0000 18.5159 0.0000 -0.0001
# 5 0.0001 -0.0001 0.0000 0.0000 18.5159 0.0000
# 6 0.0000 0.0000 0.0000 -0.0001 0.0000 17.3727
#
#
#
# Elastic Compliance Matrix: (Units=1/GPa)
#
#
# Indices 1 2 3 4 5 6 
#
# 1 0.020723 -0.008057 -0.009955 0.000000 0.000000 0.000000
# 2 -0.008057 0.020723 -0.009955 0.000000 0.000000 0.000000
# 3 -0.009955 -0.009955 0.030824 0.000000 0.000000 0.000000
# 4 0.000000 0.000000 0.000000 0.054008 0.000000 0.000000
# 5 0.000000 0.000000 0.000000 0.000000 0.054008 0.000000
# 6 0.000000 0.000000 0.000000 0.000000 0.000000 0.057561
#
#
# Mechanical properties :
#
#
# Convention : Reuss Voigt Hill
#
# Bulk Modulus (GPa) = 61.21682 65.97939 63.59811
# Shear Modulus (GPa) = 16.70966 17.18842 16.94904
#
# Velocity S-wave (km/s) = 3.10520 3.14937 3.12736
# Velocity P-wave (km/s) = 6.94128 7.16226 7.05263
#
# Compressibility (1/GPa) = 0.01633538
#
# Stress axis : x y z
#
# Youngs Moduli (GPa) = 48.25478 48.25478 32.44203
#
# Poissons Ratio (x) = 0.38881 0.32297
# Poissons Ratio (y) = 0.38881 0.32297
# Poissons Ratio (z) = 0.48039 0.48039
#
# Static dielectric constant tensor:
#      x y z
#    x 3.232040 0.000000 0.000000 
#    y 0.000000 3.232040 0.000000 
#    z 0.000000 0.000000 2.928280 
# 
# 
# High freq. dielectric constant tensor:
#      x y z
#    x 1.665170 0.000000 0.000000 
#    y 0.000000 1.665170 0.000000 
#    z 0.000000 0.000000 1.639360 
# 
# From -- ./inp_files/347.got.cif
#   From: 2010.03.12/outbox.cif.g09.slc.cpg/sg187_1_cif.got.tgz:347.got - 2010.04.01 11:58:23.
