data_PCOD8327053
_publ_section_title
;
Structure prediction by ZEFSAII (Michael W. Deem and Ramdas Pophale) SiO2 
 PCOD8327053
Probable space group: P -6 M 2
;
_chemical_formula_sum "Si O2"
_cell_formula_units_Z 66
_cell_length_a 13.028502
_cell_length_b 13.028502
_cell_length_c 28.015789
_cell_angle_alpha 90.000000
_cell_angle_beta 90.000000
_cell_angle_gamma 120.000000
_cell_volume 4118.342461
_symmetry_space_group_name_H-M "P -6 M 2"
_symmetry_group_IT_number 187
_symmetry_cell_setting 'hexagonal'
loop_
_space_group_symop_operation_xyz
x,y,z
-x+y,-x,-z
-y,x-y,z
x,y,-z
-x+y,-x,z
-y,x-y,-z
-y,-x,-z
-x+y,y,-z
x,x-y,-z
-x+y,y,z
x,x-y,z
-y,-x,z
loop_
_atom_site_type_symbol
_atom_site_label
_atom_site_fract_x
_atom_site_fract_y
_atom_site_fract_z
Si Si1 0.241951 0.001413 0.633252
Si Si2 0.760771 0.002145 0.103284
Si Si3 0.429315 0.095740 0.178559
Si Si4 0.430529 0.097237 0.554849
Si Si5 0.903636 0.332935 0.287464
Si Si6 0.233928 0.231717 0.000000
O O1 0.124465 0.875536 0.633410
O O2 0.206700 0.103350 0.633467
O O3 0.317229 0.010407 0.586307
O O4 0.318613 0.010628 0.679710
O O5 0.893670 0.106331 0.114087
O O6 0.672806 0.001664 0.143428
O O7 0.717146 0.020518 0.050358
O O8 0.759075 0.879538 0.106211
O O9 0.548153 0.096305 0.166213
O O10 0.453239 0.226620 0.168366
O O11 0.389600 0.057197 0.233044
O O12 0.395750 0.060846 0.500000
O O13 0.541921 0.083842 0.570194
O O14 0.466444 0.233222 0.563856
O O15 0.916081 0.458041 0.301474
O O16 0.767171 0.232830 0.295651
O O17 0.180823 0.090412 0.000000
O O18 0.129640 0.259279 0.000000
#
# Coordination Sequence:
#
# PCOD8327053 Si02
#       6
#    12  12  12  12  12   6
#     4  10  20  32  46  66  94 126 154 179 212 259
#     4   9  16  26  42  64  88 113 142 178 219 260
#     4   9  17  29  45  65  89 116 144 175 214 262
#     4   9  17  30  50  75  98 118 144 184 231 268
#     4   9  17  30  49  70  88 109 142 185 228 264
#     4   8  13  22  37  58  84 112 142 176 214 254
#
# _framework density 16.025865
#
# number of rings (size 3 to 8) (size 9 to 14) (size 15 to 20)
#    0.000    2.909    0.000    1.545    0.000    4.727 
#    0.000    2.273    0.000    6.545    0.000    1.273 
#    0.000    0.000    0.000    0.000    0.000    0.000 
#
# Total GULP energy -818022.184162 kJ/mol
# GULP energy per Si atom -12394.275518 kJ/mol
# Density = 1.598939 g / cm^3
# Si number density = 16.025865 Si / 1000 Ang^3
#
#
#
# Elastic Constant Matrix: (Units=GPa)
#
#
# Indices 1 2 3 4 5 6 
#
# 1 94.5655 48.1523 63.4426 0.0000 0.0001 0.0000
# 2 48.1523 94.5655 63.4426 0.0000 -0.0001 0.0000
# 3 63.4426 63.4426 123.2357 0.0000 0.0000 0.0000
# 4 0.0000 0.0000 0.0000 24.3096 0.0000 -0.0001
# 5 0.0001 -0.0001 0.0000 0.0000 24.3096 0.0000
# 6 0.0000 0.0000 0.0000 -0.0001 0.0000 23.2066
#
#
#
# Elastic Compliance Matrix: (Units=1/GPa)
#
#
# Indices 1 2 3 4 5 6 
#
# 1 0.017233 -0.004313 -0.006652 0.000000 0.000000 0.000000
# 2 -0.004313 0.017233 -0.006652 0.000000 0.000000 0.000000
# 3 -0.006652 -0.006652 0.014963 0.000000 0.000000 0.000000
# 4 0.000000 0.000000 0.000000 0.041136 0.000000 0.000000
# 5 0.000000 0.000000 0.000000 0.000000 0.041136 0.000000
# 6 0.000000 0.000000 0.000000 0.000000 0.000000 0.043091
#
#
# Mechanical properties :
#
#
# Convention : Reuss Voigt Hill
#
# Bulk Modulus (GPa) = 70.43339 73.60467 72.01903
# Shear Modulus (GPa) = 23.28222 23.52046 23.40134
#
# Velocity S-wave (km/s) = 3.81568 3.83516 3.82543
# Velocity P-wave (km/s) = 7.96604 8.10183 8.03422
#
# Compressibility (1/GPa) = 0.01419781
#
# Stress axis : x y z
#
# Youngs Moduli (GPa) = 58.02806 58.02806 66.83113
#
# Poissons Ratio (x) = 0.25025 0.44453
# Poissons Ratio (y) = 0.25025 0.44453
# Poissons Ratio (z) = 0.38598 0.38598
#
# Static dielectric constant tensor:
#      x y z
#    x 2.813500 0.000000 0.000000 
#    y 0.000000 2.813500 0.000000 
#    z 0.000000 0.000000 3.511530 
# 
# 
# High freq. dielectric constant tensor:
#      x y z
#    x 1.591290 0.000000 0.000000 
#    y 0.000000 1.591290 0.000000 
#    z 0.000000 0.000000 1.638100 
# 
# From -- ./inp_files/4407.got.cif
#   From: 2010.03.12/outbox.cif.g09.slc.cpg/sg187_3_cif.got.tgz:4407.got - 2010.04.01 11:58:23.
