data_PCOD8327760
_publ_section_title
;
Structure prediction by ZEFSAII (Michael W. Deem and Ramdas Pophale) SiO2 
 PCOD8327760
Probable space group: P -6 2 M
;
_chemical_formula_sum "Si O2"
_cell_formula_units_Z 48
_cell_length_a 19.141034
_cell_length_b 19.141034
_cell_length_c 7.811739
_cell_angle_alpha 90.000000
_cell_angle_beta 90.000000
_cell_angle_gamma 120.000000
_cell_volume 2478.615411
_symmetry_space_group_name_H-M "P -6 2 M"
_symmetry_group_IT_number 189
_symmetry_cell_setting 'hexagonal'
loop_
_space_group_symop_operation_xyz
x,y,z
-x+y,-x,-z
-y,x-y,z
x,y,-z
-x+y,-x,z
-y,x-y,-z
x-y,-y,-z
-x,-x+y,-z
y,x,-z
y,x,z
x-y,-y,z
-x,-x+y,z
loop_
_atom_site_type_symbol
_atom_site_label
_atom_site_fract_x
_atom_site_fract_y
_atom_site_fract_z
Si Si1 0.457504 0.841961 0.500000
Si Si2 0.279006 0.805544 0.500000
Si Si3 0.556568 0.908121 0.814410
Si Si4 0.092599 0.184501 0.298953
Si Si5 0.166977 0.365596 0.806168
O O1 0.363998 0.810070 0.500000
O O2 0.485563 0.776198 0.500000
O O3 0.490921 0.894244 0.672059
O O4 0.268349 0.851043 0.333784
O O5 0.608476 0.866915 0.767617
O O6 0.622868 0.000000 0.822038
O O7 0.513088 0.878006 0.000000
O O8 0.105044 0.198899 0.500000
O O9 0.148252 0.148252 0.229905
O O10 0.114501 0.269442 0.214146
O O11 0.000000 0.120624 0.253572
O O12 0.153699 0.387676 0.000000
#
# Coordination Sequence:
#
# PCOD8327760 Si02
#       5
#     6   6  12  12  12
#     4  10  20  34  56  79 106 140 172 215 268 324
#     4  10  21  38  56  83 111 142 181 225 272 332
#     4   9  18  33  54  81 107 132 171 221 269 318
#     4  10  20  35  56  83 115 151 193 239 283 326
#     4  10  20  36  58  82 110 146 185 227 275 329
#
# _framework density 19.365651
#
# number of rings (size 3 to 8) (size 9 to 14) (size 15 to 20)
#    0.000    2.250    1.250    1.625    0.000    4.000 
#    0.000    2.500    0.000    4.500    0.000    0.000 
#    0.000    0.000    0.000    0.000    0.000    0.000 
#
# Total GULP energy -594817.349608 kJ/mol
# GULP energy per Si atom -12392.028117 kJ/mol
# Density = 1.932157 g / cm^3
# Si number density = 19.365651 Si / 1000 Ang^3
#
#
#
# Elastic Constant Matrix: (Units=GPa)
#
#
# Indices 1 2 3 4 5 6 
#
# 1 67.7357 8.9078 35.7845 0.0000 0.0000 0.0000
# 2 8.9078 67.7357 35.7845 0.0000 0.0000 0.0000
# 3 35.7845 35.7845 129.9301 0.0000 0.0000 0.0000
# 4 0.0000 0.0000 0.0000 29.4162 0.0000 0.0000
# 5 0.0000 0.0000 0.0000 0.0000 29.4162 0.0000
# 6 0.0000 0.0000 0.0000 0.0000 0.0000 29.4139
#
#
#
# Elastic Compliance Matrix: (Units=1/GPa)
#
#
# Indices 1 2 3 4 5 6 
#
# 1 0.017282 0.000283 -0.004838 0.000000 0.000000 0.000000
# 2 0.000283 0.017282 -0.004838 0.000000 0.000000 0.000000
# 3 -0.004838 -0.004838 0.010361 0.000000 0.000000 0.000000
# 4 0.000000 0.000000 0.000000 0.033995 0.000000 0.000000
# 5 0.000000 0.000000 0.000000 0.000000 0.033995 0.000000
# 6 0.000000 0.000000 0.000000 0.000000 0.000000 0.033997
#
#
# Mechanical properties :
#
#
# Convention : Reuss Voigt Hill
#
# Bulk Modulus (GPa) = 38.25517 47.37278 42.81398
# Shear Modulus (GPa) = 28.66817 29.97757 29.32287
#
# Velocity S-wave (km/s) = 3.85172 3.93870 3.89545
# Velocity P-wave (km/s) = 6.29111 6.72308 6.51068
#
# Compressibility (1/GPa) = 0.02614025
#
# Stress axis : x y z
#
# Youngs Moduli (GPa) = 57.86466 57.86466 96.51492
#
# Poissons Ratio (x) = -0.01637 0.46689
# Poissons Ratio (y) = -0.01637 0.46689
# Poissons Ratio (z) = 0.27992 0.27992
#
# Static dielectric constant tensor:
#      x y z
#    x 3.361400 0.000000 0.000000 
#    y 0.000000 3.361400 0.000000 
#    z 0.000000 0.000000 6.208970 
# 
# 
# High freq. dielectric constant tensor:
#      x y z
#    x 1.737110 0.000000 0.000000 
#    y 0.000000 1.737110 0.000000 
#    z 0.000000 0.000000 1.769490 
# 
# From -- ./inp_files/635.got.cif
#   From: 2010.03.12/outbox.cif.g09.slc.cpg/sg189_1_cif.got.tgz:635.got - 2010.04.01 12:03:36.
