data_PCOD8327023
_publ_section_title
;
Structure prediction by ZEFSAII (Michael W. Deem and Ramdas Pophale) SiO2 
 PCOD8327023
Probable space group: P -6 M 2
;
_chemical_formula_sum "Si O2"
_cell_formula_units_Z 60
_cell_length_a 12.893956
_cell_length_b 12.893956
_cell_length_c 25.555716
_cell_angle_alpha 90.000000
_cell_angle_beta 90.000000
_cell_angle_gamma 120.000000
_cell_volume 3679.519024
_symmetry_space_group_name_H-M "P -6 M 2"
_symmetry_group_IT_number 187
_symmetry_cell_setting 'hexagonal'
loop_
_space_group_symop_operation_xyz
x,y,z
-x+y,-x,-z
-y,x-y,z
x,y,-z
-x+y,-x,z
-y,x-y,-z
-y,-x,-z
-x+y,y,-z
x,x-y,-z
-x+y,y,z
x,x-y,z
-y,-x,z
loop_
_atom_site_type_symbol
_atom_site_label
_atom_site_fract_x
_atom_site_fract_y
_atom_site_fract_z
Si Si1 0.091227 0.421962 0.386416
Si Si2 0.757750 0.756742 0.000000
Si Si3 0.666727 0.571957 0.088048
Si Si4 0.999375 0.243691 0.296189
Si Si5 0.666829 0.095076 0.792332
Si Si6 0.331119 0.430875 0.500000
O O1 0.227873 0.455746 0.375695
O O2 0.083324 0.541662 0.380530
O O3 0.003527 0.323805 0.345260
O O4 0.048020 0.361420 0.444784
O O5 0.690439 0.682523 0.051661
O O6 0.750813 0.875407 0.000000
O O7 0.895545 0.791090 0.000000
O O8 0.767924 0.535847 0.078790
O O9 0.541292 0.458709 0.072117
O O10 0.666104 0.610338 0.147879
O O11 0.115475 0.230950 0.292142
O O12 0.990910 0.306521 0.243357
O O13 0.886674 0.113326 0.303919
O O14 0.540188 0.080375 0.776202
O O15 0.766726 0.233275 0.783830
O O16 0.464179 0.535822 0.500000
O O17 0.242413 0.484825 0.500000
#
# Coordination Sequence:
#
# PCOD8327023 Si02
#       6
#    12   6  12  12  12   6
#     4   9  16  27  45  68  91 113 140 179 227 274
#     4  10  20  32  46  66  94 128 162 192 220 252
#     4   9  17  30  50  74  95 114 140 181 232 278
#     4  10  20  32  45  62  88 123 159 190 218 254
#     4   9  17  30  49  72  94 114 140 180 231 280
#     4   8  13  22  39  64  90 112 136 172 222 274
#
# _framework density 16.306480000000001
#
# number of rings (size 3 to 8) (size 9 to 14) (size 15 to 20)
#    0.000    2.800    0.000    1.900    0.000    4.000 
#    0.000    1.500    0.000    4.800    0.000    1.400 
#    0.000    0.000    0.000    0.000    0.000    0.000 
#
# Total GULP energy -743676.372550 kJ/mol
# GULP energy per Si atom -12394.606209 kJ/mol
# Density = 1.626937 g / cm^3
# Si number density = 16.306480 Si / 1000 Ang^3
#
#
#
# Elastic Constant Matrix: (Units=GPa)
#
#
# Indices 1 2 3 4 5 6 
#
# 1 93.4462 51.5885 64.6972 0.0000 -0.0002 0.0000
# 2 51.5885 93.4462 64.6972 0.0000 0.0002 0.0000
# 3 64.6972 64.6972 127.7553 0.0000 0.0000 0.0000
# 4 0.0000 0.0000 0.0000 23.7718 0.0000 0.0002
# 5 -0.0002 0.0002 0.0000 0.0000 23.7718 0.0000
# 6 0.0000 0.0000 0.0000 0.0002 0.0000 20.9288
#
#
#
# Elastic Compliance Matrix: (Units=1/GPa)
#
#
# Indices 1 2 3 4 5 6 
#
# 1 0.018234 -0.005657 -0.006369 0.000000 0.000000 0.000000
# 2 -0.005657 0.018234 -0.006369 0.000000 0.000000 0.000000
# 3 -0.006369 -0.006369 0.014279 0.000000 0.000000 0.000000
# 4 0.000000 0.000000 0.000000 0.042067 0.000000 0.000000
# 5 0.000000 0.000000 0.000000 0.000000 0.042067 0.000000
# 6 0.000000 0.000000 0.000000 0.000000 0.000000 0.047781
#
#
# Mechanical properties :
#
#
# Convention : Reuss Voigt Hill
#
# Bulk Modulus (GPa) = 71.65454 75.17928 73.41691
# Shear Modulus (GPa) = 22.31114 22.60548 22.45831
#
# Velocity S-wave (km/s) = 3.70298 3.72733 3.71518
# Velocity P-wave (km/s) = 7.89434 8.04537 7.97021
#
# Compressibility (1/GPa) = 0.01395585
#
# Stress axis : x y z
#
# Youngs Moduli (GPa) = 54.84275 54.84275 70.03500
#
# Poissons Ratio (x) = 0.31022 0.44608
# Poissons Ratio (y) = 0.31022 0.44608
# Poissons Ratio (z) = 0.34932 0.34932
#
# Static dielectric constant tensor:
#      x y z
#    x 2.888590 0.000000 0.000000 
#    y 0.000000 2.888590 0.000000 
#    z 0.000000 0.000000 3.520830 
# 
# 
# High freq. dielectric constant tensor:
#      x y z
#    x 1.609410 0.000000 0.000000 
#    y 0.000000 1.609410 0.000000 
#    z 0.000000 0.000000 1.647190 
# 
# From -- ./inp_files/4201.got.cif
#   From: 2010.03.12/outbox.cif.g09.slc.cpg/sg187_3_cif.got.tgz:4201.got - 2010.04.01 11:58:23.
