data_PCOD8327500
_publ_section_title
;
Structure prediction by ZEFSAII (Michael W. Deem and Ramdas Pophale) SiO2 
 PCOD8327500
Probable space group: P -6 2 M
;
_chemical_formula_sum "Si O2"
_cell_formula_units_Z 72
_cell_length_a 22.931526
_cell_length_b 22.931526
_cell_length_c 9.206215
_cell_angle_alpha 90.000000
_cell_angle_beta 90.000000
_cell_angle_gamma 120.000000
_cell_volume 4192.544271
_symmetry_space_group_name_H-M "P -6 2 M"
_symmetry_group_IT_number 189
_symmetry_cell_setting 'hexagonal'
loop_
_space_group_symop_operation_xyz
x,y,z
-x+y,-x,-z
-y,x-y,z
x,y,-z
-x+y,-x,z
-y,x-y,-z
x-y,-y,-z
-x,-x+y,-z
y,x,-z
y,x,z
x-y,-y,z
-x,-x+y,z
loop_
_atom_site_type_symbol
_atom_site_label
_atom_site_fract_x
_atom_site_fract_y
_atom_site_fract_z
Si Si1 0.435932 0.356083 0.835695
Si Si2 0.710512 0.710512 0.160680
Si Si3 0.173874 0.000000 0.328497
Si Si4 0.426470 0.136368 0.166155
Si Si5 0.778381 0.924488 0.327080
Si Si6 0.155502 0.780317 0.327953
Si Si7 0.074635 0.511820 0.828163
O O1 0.391356 0.391356 0.826687
O O2 0.407241 0.295996 0.722155
O O3 0.512666 0.409861 0.789234
O O4 0.433853 0.329857 0.000000
O O5 0.759465 0.759465 0.281943
O O6 0.702655 0.638538 0.182544
O O7 0.739224 0.739224 0.000000
O O8 0.173738 0.000000 0.500000
O O9 0.177065 0.068497 0.272005
O O10 0.420044 0.190101 0.264520
O O11 0.488373 0.127188 0.224828
O O12 0.437732 0.161988 0.000000
O O13 0.778000 0.927305 0.500000
O O14 0.701903 0.879660 0.269814
O O15 0.812031 0.000000 0.262388
O O16 0.159923 0.782810 0.500000
O O17 0.000000 0.465668 0.759023
O O18 0.066826 0.501894 0.000000
#
# Coordination Sequence:
#
# PCOD8327500 Si02
#       7
#    12   6   6  12  12  12  12
#     4   9  18  33  53  75  99 127 165 208 249 297
#     4  10  18  28  48  76 104 124 151 198 250 301
#     4  10  18  32  50  66  94 130 167 208 256 305
#     4  10  18  30  51  77 102 128 161 200 246 300
#     4   9  18  31  46  66  92 126 167 210 253 296
#     4  11  21  32  48  70 103 139 168 204 250 298
#     4   8  14  28  51  76  99 123 151 193 246 293
#
# _framework density 17.173344
#
# number of rings (size 3 to 8) (size 9 to 14) (size 15 to 20)
#    0.000    2.500    2.500    2.000    0.000    1.000 
#    0.500    0.833    0.000    3.167    0.000    2.333 
#    0.000    0.000    0.000    0.000    0.000    0.000 
#
# Total GULP energy -892441.083895 kJ/mol
# GULP energy per Si atom -12395.015054 kJ/mol
# Density = 1.713426 g / cm^3
# Si number density = 17.173344 Si / 1000 Ang^3
#
#
#
# Elastic Constant Matrix: (Units=GPa)
#
#
# Indices 1 2 3 4 5 6 
#
# 1 99.4596 59.5343 28.4924 0.0000 0.0000 0.0000
# 2 59.5343 99.4596 28.4924 0.0000 0.0000 0.0000
# 3 28.4924 28.4924 36.7321 0.0000 0.0000 0.0000
# 4 0.0000 0.0000 0.0000 13.8808 0.0000 0.0000
# 5 0.0000 0.0000 0.0000 0.0000 13.8808 0.0000
# 6 0.0000 0.0000 0.0000 0.0000 0.0000 19.9627
#
#
#
# Elastic Compliance Matrix: (Units=1/GPa)
#
#
# Indices 1 2 3 4 5 6 
#
# 1 0.016879 -0.008168 -0.006757 0.000000 0.000000 0.000000
# 2 -0.008168 0.016879 -0.006757 0.000000 0.000000 0.000000
# 3 -0.006757 -0.006757 0.037707 0.000000 0.000000 0.000000
# 4 0.000000 0.000000 0.000000 0.072042 0.000000 0.000000
# 5 0.000000 0.000000 0.000000 0.000000 0.072042 0.000000
# 6 0.000000 0.000000 0.000000 0.000000 0.000000 0.050094
#
#
# Mechanical properties :
#
#
# Convention : Reuss Voigt Hill
#
# Bulk Modulus (GPa) = 35.58609 52.07661 43.83135
# Shear Modulus (GPa) = 15.70476 17.48698 16.59587
#
# Velocity S-wave (km/s) = 3.02733 3.19449 3.11203
# Velocity P-wave (km/s) = 5.74337 6.63297 6.20413
#
# Compressibility (1/GPa) = 0.02810087
#
# Stress axis : x y z
#
# Youngs Moduli (GPa) = 59.24489 59.24489 26.52016
#
# Poissons Ratio (x) = 0.48389 0.17920
# Poissons Ratio (y) = 0.48389 0.17920
# Poissons Ratio (z) = 0.40033 0.40033
#
# Static dielectric constant tensor:
#      x y z
#    x 3.439800 0.000000 0.000000 
#    y 0.000000 3.439800 0.000000 
#    z 0.000000 0.000000 2.916650 
# 
# 
# High freq. dielectric constant tensor:
#      x y z
#    x 1.659090 0.000000 0.000000 
#    y 0.000000 1.659090 0.000000 
#    z 0.000000 0.000000 1.627460 
# 
# From -- ./inp_files/1371.got.cif
#   From: 2010.03.12/outbox.cif.g09.slc.cpg/sg189_1_cif.got.tgz:1371.got - 2010.04.01 12:03:36.
