data_PCOD8327993
_publ_section_title
;
Structure prediction by ZEFSAII (Michael W. Deem and Ramdas Pophale) SiO2 
 PCOD8327993
Probable space group: P -6 2 C
;
_chemical_formula_sum "Si O2"
_cell_formula_units_Z 72
_cell_length_a 23.814478
_cell_length_b 23.814478
_cell_length_c 8.513133
_cell_angle_alpha 90.000000
_cell_angle_beta 90.000000
_cell_angle_gamma 120.000000
_cell_volume 4181.211951
_symmetry_space_group_name_H-M "P -6 2 C"
_symmetry_group_IT_number 190
_symmetry_cell_setting 'hexagonal'
loop_
_space_group_symop_operation_xyz
x,y,z
-x+y,-x,1/2-z
-y,x-y,z
x,y,1/2-z
-x+y,-x,z
-y,x-y,1/2-z
x-y,-y,-z
-x,-x+y,-z
y,x,-z
y,x,1/2+z
x-y,-y,1/2+z
-x,-x+y,1/2+z
loop_
_atom_site_type_symbol
_atom_site_label
_atom_site_fract_x
_atom_site_fract_y
_atom_site_fract_z
Si Si1 0.809525 0.069291 0.065362
Si Si2 0.142414 0.743954 0.434080
Si Si3 0.069211 0.602004 0.565257
Si Si4 0.597027 0.192114 0.433529
Si Si5 0.930705 0.070284 0.564674
Si Si6 0.518634 0.257189 0.062476
O O1 0.815008 0.063444 0.250000
O O2 0.790844 0.123302 0.024199
O O3 0.878743 0.090527 0.988817
O O4 0.754392 0.000000 0.000000
O O5 0.137758 0.752139 0.250000
O O6 0.092971 0.670068 0.481046
O O7 0.215899 0.766595 0.483346
O O8 0.066950 0.612985 0.750000
O O9 0.117697 0.574714 0.525898
O O10 0.000000 0.548879 0.500000
O O11 0.598118 0.203671 0.250000
O O12 0.546444 0.212004 0.503690
O O13 0.669839 0.238365 0.496083
O O14 0.932601 0.068208 0.750000
O O15 0.000000 0.123969 0.500000
O O16 0.912543 0.000000 0.500000
O O17 0.509598 0.254648 0.250000
#
# Coordination Sequence:
#
# PCOD8327993 Si02
#       6
#    12  12  12  12  12  12
#     4  11  21  35  53  75 100 130 164 204 248 295
#     4  11  21  33  48  71 100 131 163 203 247 293
#     4  10  19  32  49  72  98 129 163 200 242 290
#     4   8  15  27  48  72  95 122 158 197 238 285
#     4  11  21  35  53  77 105 135 167 203 244 290
#     4   9  16  30  50  73  97 127 163 201 241 291
#
# _framework density 17.219888000000001
#
# number of rings (size 3 to 8) (size 9 to 14) (size 15 to 20)
#    0.000    2.000    0.000    8.000    0.000    1.333 
#    0.000    4.167    0.000    1.000    0.000    4.667 
#    0.000    0.000    0.000    0.000    0.000    0.000 
#
# Total GULP energy -892840.963487 kJ/mol
# GULP energy per Si atom -12400.568937 kJ/mol
# Density = 1.718070 g / cm^3
# Si number density = 17.219888 Si / 1000 Ang^3
#
#
#
# Elastic Constant Matrix: (Units=GPa)
#
#
# Indices 1 2 3 4 5 6 
#
# 1 110.7491 60.3996 27.1900 0.0000 0.0000 0.0000
# 2 60.3996 110.7491 27.1900 0.0000 0.0000 0.0000
# 3 27.1900 27.1900 96.4198 0.0000 0.0000 0.0000
# 4 0.0000 0.0000 0.0000 24.4870 0.0000 0.0000
# 5 0.0000 0.0000 0.0000 0.0000 24.4870 0.0000
# 6 0.0000 0.0000 0.0000 0.0000 0.0000 25.1748
#
#
#
# Elastic Compliance Matrix: (Units=1/GPa)
#
#
# Indices 1 2 3 4 5 6 
#
# 1 0.013140 -0.006722 -0.001810 0.000000 0.000000 0.000000
# 2 -0.006722 0.013140 -0.001810 0.000000 0.000000 0.000000
# 3 -0.001810 -0.001810 0.011392 0.000000 0.000000 0.000000
# 4 0.000000 0.000000 0.000000 0.040838 0.000000 0.000000
# 5 0.000000 0.000000 0.000000 0.000000 0.040838 0.000000
# 6 0.000000 0.000000 0.000000 0.000000 0.000000 0.039722
#
#
# Mechanical properties :
#
#
# Convention : Reuss Voigt Hill
#
# Bulk Modulus (GPa) = 58.86309 60.83078 59.84693
# Shear Modulus (GPa) = 26.96658 28.37233 27.66946
#
# Velocity S-wave (km/s) = 3.96158 4.06353 4.01288
# Velocity P-wave (km/s) = 7.42852 7.57753 7.50339
#
# Compressibility (1/GPa) = 0.01698858
#
# Stress axis : x y z
#
# Youngs Moduli (GPa) = 76.10624 76.10624 87.78055
#
# Poissons Ratio (x) = 0.51156 0.15887
# Poissons Ratio (y) = 0.51156 0.15887
# Poissons Ratio (z) = 0.13774 0.13774
#
# Static dielectric constant tensor:
#      x y z
#    x 3.347090 0.000000 0.000000 
#    y 0.000000 3.347090 0.000000 
#    z 0.000000 0.000000 3.171440 
# 
# 
# High freq. dielectric constant tensor:
#      x y z
#    x 1.656670 0.000000 0.000000 
#    y 0.000000 1.656670 0.000000 
#    z 0.000000 0.000000 1.666210 
# 
# From -- ./inp_files/1258.got.cif
#   From: 2010.06.25/outbox.cif.g09.slc.cpg/sg190_1_cif.got.tgz:1258.got - 2010.06.28 13:08:06.
