data_PCOD8327173
_publ_section_title
;
Structure prediction by ZEFSAII (Michael W. Deem and Ramdas Pophale) SiO2 
 PCOD8327173
Probable space group: P -6 M 2
;
_chemical_formula_sum "Si O2"
_cell_formula_units_Z 72
_cell_length_a 12.585879
_cell_length_b 12.585879
_cell_length_c 30.498962
_cell_angle_alpha 90.000000
_cell_angle_beta 90.000000
_cell_angle_gamma 120.000000
_cell_volume 4183.914441
_symmetry_space_group_name_H-M "P -6 M 2"
_symmetry_group_IT_number 187
_symmetry_cell_setting 'hexagonal'
loop_
_space_group_symop_operation_xyz
x,y,z
-x+y,-x,-z
-y,x-y,z
x,y,-z
-x+y,-x,z
-y,x-y,-z
-y,-x,-z
-x+y,y,-z
x,x-y,-z
-x+y,y,z
x,x-y,z
-y,-x,z
loop_
_atom_site_type_symbol
_atom_site_label
_atom_site_fract_x
_atom_site_fract_y
_atom_site_fract_z
Si Si1 0.250136 0.001506 0.500000
Si Si2 0.668440 0.582618 0.417862
Si Si3 0.668153 0.086419 0.000000
Si Si4 0.333120 0.422639 0.258526
Si Si5 0.999664 0.246865 0.336326
Si Si6 0.088971 0.422274 0.158930
Si Si7 0.752842 0.752387 0.081335
O O1 0.127732 0.872269 0.500000
O O2 0.213490 0.106745 0.500000
O O3 0.328241 0.010367 0.457446
O O4 0.771673 0.543346 0.420820
O O5 0.537261 0.462740 0.420796
O O6 0.677855 0.651596 0.372783
O O7 0.677924 0.019062 0.957120
O O8 0.771393 0.228608 0.000000
O O9 0.537463 0.074925 0.000000
O O10 0.232142 0.464283 0.264062
O O11 0.463095 0.536906 0.272026
O O12 0.302828 0.308221 0.289532
O O13 0.335046 0.380541 0.208770
O O14 0.125339 0.250678 0.348145
O O15 0.893713 0.106287 0.334541
O O16 0.230535 0.461069 0.152836
O O17 0.075842 0.537921 0.145712
O O18 0.002320 0.309682 0.127626
O O19 0.752035 0.876018 0.071514
O O20 0.892181 0.784362 0.083037
#
# Coordination Sequence:
#
# PCOD8327173 Si02
#       7
#     6  12   6  12  12  12  12
#     4  10  20  34  54  78 104 134 166 200 238 284
#     4  10  20  34  53  75  99 128 163 204 247 290
#     4  10  20  34  52  72  94 122 158 200 244 288
#     4   9  17  30  49  72  97 126 161 201 245 292
#     4  10  20  33  50  72  99 131 165 202 244 291
#     4   9  17  30  49  72  97 126 161 202 246 289
#     4  10  20  33  50  72  99 131 164 197 235 282
#
# _framework density 17.208766000000001
#
# number of rings (size 3 to 8) (size 9 to 14) (size 15 to 20)
#    0.000    2.333    0.000    3.000    0.000    2.000 
#    0.000    3.333    0.000   10.667    0.000    0.000 
#    0.000    0.000    0.000    0.000    0.000    0.000 
#
# Total GULP energy -892983.134508 kJ/mol
# GULP energy per Si atom -12402.543535 kJ/mol
# Density = 1.716960 g / cm^3
# Si number density = 17.208766 Si / 1000 Ang^3
#
#
#
# Elastic Constant Matrix: (Units=GPa)
#
#
# Indices 1 2 3 4 5 6 
#
# 1 112.1363 67.9730 59.4019 0.0000 0.0001 0.0000
# 2 67.9730 112.1363 59.4019 0.0000 -0.0001 0.0000
# 3 59.4019 59.4019 113.1449 0.0000 0.0000 0.0000
# 4 0.0000 0.0000 0.0000 22.0884 0.0000 -0.0001
# 5 0.0001 -0.0001 0.0000 0.0000 22.0884 0.0000
# 6 0.0000 0.0000 0.0000 -0.0001 0.0000 22.0816
#
#
#
# Elastic Compliance Matrix: (Units=1/GPa)
#
#
# Indices 1 2 3 4 5 6 
#
# 1 0.015568 -0.007075 -0.004459 0.000000 0.000000 0.000000
# 2 -0.007075 0.015568 -0.004459 0.000000 0.000000 0.000000
# 3 -0.004459 -0.004459 0.013520 0.000000 0.000000 0.000000
# 4 0.000000 0.000000 0.000000 0.045273 0.000000 0.000000
# 5 0.000000 0.000000 0.000000 0.000000 0.045273 0.000000
# 6 0.000000 0.000000 0.000000 0.000000 0.000000 0.045287
#
#
# Mechanical properties :
#
#
# Convention : Reuss Voigt Hill
#
# Bulk Modulus (GPa) = 78.92150 78.99679 78.95914
# Shear Modulus (GPa) = 23.07349 23.29440 23.18395
#
# Velocity S-wave (km/s) = 3.66566 3.68317 3.67443
# Velocity P-wave (km/s) = 7.99230 8.00577 7.99904
#
# Compressibility (1/GPa) = 0.01267082
#
# Stress axis : x y z
#
# Youngs Moduli (GPa) = 64.23265 64.23265 73.96210
#
# Poissons Ratio (x) = 0.45444 0.32981
# Poissons Ratio (y) = 0.45444 0.32981
# Poissons Ratio (z) = 0.28643 0.28643
#
# Static dielectric constant tensor:
#      x y z
#    x 3.116120 0.000000 0.000000 
#    y 0.000000 3.116120 0.000000 
#    z 0.000000 0.000000 3.461970 
# 
# 
# High freq. dielectric constant tensor:
#      x y z
#    x 1.661670 0.000000 0.000000 
#    y 0.000000 1.661670 0.000000 
#    z 0.000000 0.000000 1.679640 
# 
# From -- ./inp_files/4563.got.cif
#   From: 2010.03.12/outbox.cif.g09.slc.cpg/sg187_3_cif.got.tgz:4563.got - 2010.04.01 11:58:23.
