data_PCOD8327542
_publ_section_title
;
Structure prediction by ZEFSAII (Michael W. Deem and Ramdas Pophale) SiO2 
 PCOD8327542
Probable space group: P -6 2 M
;
_chemical_formula_sum "Si O2"
_cell_formula_units_Z 60
_cell_length_a 20.318927
_cell_length_b 20.318927
_cell_length_c 8.861417
_cell_angle_alpha 90.000000
_cell_angle_beta 90.000000
_cell_angle_gamma 120.000000
_cell_volume 3168.366012
_symmetry_space_group_name_H-M "P -6 2 M"
_symmetry_group_IT_number 189
_symmetry_cell_setting 'hexagonal'
loop_
_space_group_symop_operation_xyz
x,y,z
-x+y,-x,-z
-y,x-y,z
x,y,-z
-x+y,-x,z
-y,x-y,-z
x-y,-y,-z
-x,-x+y,-z
y,x,-z
y,x,z
x-y,-y,z
-x,-x+y,z
loop_
_atom_site_type_symbol
_atom_site_label
_atom_site_fract_x
_atom_site_fract_y
_atom_site_fract_z
Si Si1 0.173717 0.087047 0.677290
Si Si2 0.184997 0.857910 0.178270
Si Si3 0.325074 0.000000 0.323494
Si Si4 0.460699 0.000000 0.825968
Si Si5 0.243116 0.748706 0.179452
Si Si6 0.420200 0.585893 0.823769
O O1 0.188256 0.092125 0.500000
O O2 0.114462 0.114462 0.720628
O O3 0.253707 0.143419 0.757623
O O4 0.138884 0.000000 0.733257
O O5 0.189698 0.783510 0.226883
O O6 0.257557 0.927704 0.248248
O O7 0.186447 0.866672 0.000000
O O8 0.310043 0.000000 0.500000
O O9 0.401973 0.000000 0.291970
O O10 0.465509 0.924559 0.793544
O O11 0.434807 0.000000 0.000000
O O12 0.206275 0.663947 0.248788
O O13 0.329047 0.799492 0.244671
O O14 0.246574 0.747196 0.000000
O O15 0.411488 0.594507 0.000000
#
# Coordination Sequence:
#
# PCOD8327542 Si02
#       6
#    12  12   6   6  12  12
#     4  10  21  38  59  82 109 147 188 225 269 331
#     4  11  21  35  56  85 114 140 178 234 285 325
#     4  12  22  34  56  82 108 143 184 225 276 335
#     4  10  18  32  54  80 108 137 176 227 272 313
#     4   9  17  29  49  79 111 139 174 222 275 324
#     4   9  16  28  48  76 107 139 173 216 270 321
#
# _framework density 18.937204999999999
#
# number of rings (size 3 to 8) (size 9 to 14) (size 15 to 20)
#    0.000    2.000    3.000    2.100    0.000    2.800 
#    1.800    0.000    0.000    3.600    0.000    0.000 
#    0.000    0.000    0.000    0.000    0.000    0.000 
#
# Total GULP energy -743783.752531 kJ/mol
# GULP energy per Si atom -12396.395876 kJ/mol
# Density = 1.889410 g / cm^3
# Si number density = 18.937205 Si / 1000 Ang^3
#
#
#
# Elastic Constant Matrix: (Units=GPa)
#
#
# Indices 1 2 3 4 5 6 
#
# 1 138.0971 61.3372 27.7427 0.0000 0.0000 0.0000
# 2 61.3372 138.0971 27.7427 0.0000 0.0000 0.0000
# 3 27.7427 27.7427 26.2649 0.0000 0.0000 0.0000
# 4 0.0000 0.0000 0.0000 18.6563 0.0000 0.0000
# 5 0.0000 0.0000 0.0000 0.0000 18.6563 0.0000
# 6 0.0000 0.0000 0.0000 0.0000 0.0000 38.3800
#
#
#
# Elastic Compliance Matrix: (Units=1/GPa)
#
#
# Indices 1 2 3 4 5 6 
#
# 1 0.010064 -0.002963 -0.007500 0.000000 0.000000 0.000000
# 2 -0.002963 0.010064 -0.007500 0.000000 0.000000 0.000000
# 3 -0.007500 -0.007500 0.053919 0.000000 0.000000 0.000000
# 4 0.000000 0.000000 0.000000 0.053601 0.000000 0.000000
# 5 0.000000 0.000000 0.000000 0.000000 0.053601 0.000000
# 6 0.000000 0.000000 0.000000 0.000000 0.000000 0.026055
#
#
# Mechanical properties :
#
#
# Convention : Reuss Voigt Hill
#
# Bulk Modulus (GPa) = 26.23389 59.56713 42.90051
# Shear Modulus (GPa) = 19.53588 27.51430 23.52509
#
# Velocity S-wave (km/s) = 3.21536 3.81586 3.52841
# Velocity P-wave (km/s) = 5.26003 7.13707 6.26919
#
# Compressibility (1/GPa) = 0.03811864
#
# Stress axis : x y z
#
# Youngs Moduli (GPa) = 99.36144 99.36144 18.54648
#
# Poissons Ratio (x) = 0.29444 0.13911
# Poissons Ratio (y) = 0.29444 0.13911
# Poissons Ratio (z) = 0.74525 0.74525
#
# Static dielectric constant tensor:
#      x y z
#    x 3.690380 0.000000 0.000000 
#    y 0.000000 3.690380 0.000000 
#    z 0.000000 0.000000 3.195180 
# 
# 
# High freq. dielectric constant tensor:
#      x y z
#    x 1.740950 0.000000 0.000000 
#    y 0.000000 1.740950 0.000000 
#    z 0.000000 0.000000 1.688520 
# 
# From -- ./inp_files/937.got.cif
#   From: 2010.03.12/outbox.cif.g09.slc.cpg/sg189_1_cif.got.tgz:937.got - 2010.04.01 12:03:36.
