data_PCOD8327184
_publ_section_title
;
Structure prediction by ZEFSAII (Michael W. Deem and Ramdas Pophale) SiO2 
 PCOD8327184
Probable space group: P -6 M 2
;
_chemical_formula_sum "Si O2"
_cell_formula_units_Z 72
_cell_length_a 22.995650
_cell_length_b 22.995650
_cell_length_c 8.833340
_cell_angle_alpha 90.000000
_cell_angle_beta 90.000000
_cell_angle_gamma 120.000000
_cell_volume 4045.264829
_symmetry_space_group_name_H-M "P -6 M 2"
_symmetry_group_IT_number 187
_symmetry_cell_setting 'hexagonal'
loop_
_space_group_symop_operation_xyz
x,y,z
-x+y,-x,-z
-y,x-y,z
x,y,-z
-x+y,-x,z
-y,x-y,-z
-y,-x,-z
-x+y,y,-z
x,x-y,-z
-x+y,y,z
x,x-y,z
-y,-x,z
loop_
_atom_site_type_symbol
_atom_site_label
_atom_site_fract_x
_atom_site_fract_y
_atom_site_fract_z
Si Si1 0.747760 0.808021 0.677360
Si Si2 0.666563 0.203125 0.319844
Si Si3 0.928032 0.595814 0.321402
Si Si4 0.541895 0.951775 0.174994
Si Si5 0.607713 0.739234 0.173552
Si Si6 0.794526 0.721507 0.178999
O O1 0.754625 0.801548 0.500000
O O2 0.766632 0.883316 0.724193
O O3 0.671275 0.755598 0.723018
O O4 0.798820 0.789987 0.761528
O O5 0.665496 0.204941 0.500000
O O6 0.599058 0.198116 0.253458
O O7 0.729893 0.270108 0.255044
O O8 0.671928 0.139993 0.263350
O O9 0.928165 0.606136 0.500000
O O10 0.933507 0.659977 0.240529
O O11 0.988069 0.583025 0.277703
O O12 0.466914 0.933827 0.221684
O O13 0.548938 0.885932 0.204804
O O14 0.556551 0.973858 0.000000
O O15 0.579794 0.789897 0.211246
O O16 0.632271 0.747958 0.000000
O O17 0.859103 0.718206 0.239087
O O18 0.792479 0.720630 0.000000
#
# Coordination Sequence:
#
# PCOD8327184 Si02
#       6
#    12  12  12  12  12  12
#     4  10  20  34  55  83 110 135 168 214 264 311
#     4   9  17  29  45  65  90 123 165 213 265 319
#     4  11  21  33  50  74 104 136 173 223 276 322
#     4  10  20  33  50  74 106 142 179 219 265 320
#     4   9  17  31  52  75 102 138 176 214 259 313
#     4  11  23  37  54  78 109 145 182 217 259 315
#
# _framework density 17.798589
#
# number of rings (size 3 to 8) (size 9 to 14) (size 15 to 20)
#    0.000    2.000    1.667    2.667    0.000    4.667 
#    0.000    0.000    0.000    0.667    0.000    2.333 
#    0.000    8.000    0.000    3.833    0.000    4.667 
#
# Total GULP energy -892818.473976 kJ/mol
# GULP energy per Si atom -12400.256583 kJ/mol
# Density = 1.775808 g / cm^3
# Si number density = 17.798589 Si / 1000 Ang^3
#
#
#
# Elastic Constant Matrix: (Units=GPa)
#
#
# Indices 1 2 3 4 5 6 
#
# 1 113.3986 56.7823 27.0229 0.0000 0.0000 0.0000
# 2 56.7823 113.3986 27.0229 0.0000 0.0000 0.0000
# 3 27.0229 27.0229 45.6564 0.0000 0.0000 0.0000
# 4 0.0000 0.0000 0.0000 21.0077 0.0000 0.0000
# 5 0.0000 0.0000 0.0000 0.0000 21.0077 0.0000
# 6 0.0000 0.0000 0.0000 0.0000 0.0000 28.3082
#
#
#
# Elastic Compliance Matrix: (Units=1/GPa)
#
#
# Indices 1 2 3 4 5 6 
#
# 1 0.012450 -0.005213 -0.004283 0.000000 0.000000 0.000000
# 2 -0.005213 0.012450 -0.004283 0.000000 0.000000 0.000000
# 3 -0.004283 -0.004283 0.026973 0.000000 0.000000 0.000000
# 4 0.000000 0.000000 0.000000 0.047602 0.000000 0.000000
# 5 0.000000 0.000000 0.000000 0.000000 0.047602 0.000000
# 6 0.000000 0.000000 0.000000 0.000000 0.000000 0.035326
#
#
# Mechanical properties :
#
#
# Convention : Reuss Voigt Hill
#
# Bulk Modulus (GPa) = 41.12966 54.90110 48.01538
# Shear Modulus (GPa) = 22.92911 24.83973 23.88442
#
# Velocity S-wave (km/s) = 3.59312 3.73983 3.66721
# Velocity P-wave (km/s) = 6.35394 7.03997 6.70573
#
# Compressibility (1/GPa) = 0.02431335
#
# Stress axis : x y z
#
# Youngs Moduli (GPa) = 80.32439 80.32439 37.07454
#
# Poissons Ratio (x) = 0.41875 0.15879
# Poissons Ratio (y) = 0.41875 0.15879
# Poissons Ratio (z) = 0.34403 0.34403
#
# Static dielectric constant tensor:
#      x y z
#    x 3.463270 0.000000 0.000000 
#    y 0.000000 3.463270 0.000000 
#    z 0.000000 0.000000 3.183400 
# 
# 
# High freq. dielectric constant tensor:
#      x y z
#    x 1.685340 0.000000 0.000000 
#    y 0.000000 1.685340 0.000000 
#    z 0.000000 0.000000 1.678140 
# 
# From -- ./inp_files/932.got.cif
#   From: 2010.03.12/outbox.cif.g09.slc.cpg/sg187_1_cif.got.tgz:932.got - 2010.04.01 11:58:23.
