data_PCOD8327178
_publ_section_title
;
Structure prediction by ZEFSAII (Michael W. Deem and Ramdas Pophale) SiO2 
 PCOD8327178
Probable space group: P -6 M 2
;
_chemical_formula_sum "Si O2"
_cell_formula_units_Z 66
_cell_length_a 12.457955
_cell_length_b 12.457955
_cell_length_c 28.093747
_cell_angle_alpha 90.000000
_cell_angle_beta 90.000000
_cell_angle_gamma 120.000000
_cell_volume 3776.015900
_symmetry_space_group_name_H-M "P -6 M 2"
_symmetry_group_IT_number 187
_symmetry_cell_setting 'hexagonal'
loop_
_space_group_symop_operation_xyz
x,y,z
-x+y,-x,-z
-y,x-y,z
x,y,-z
-x+y,-x,z
-y,x-y,-z
-y,-x,-z
-x+y,y,-z
x,x-y,-z
-x+y,y,z
x,x-y,z
-y,-x,z
loop_
_atom_site_type_symbol
_atom_site_label
_atom_site_fract_x
_atom_site_fract_y
_atom_site_fract_z
Si Si1 0.918666 0.584254 0.000000
Si Si2 0.332907 0.419498 0.445843
Si Si3 0.000853 0.248987 0.639592
Si Si4 0.001295 0.749834 0.181215
Si Si5 0.081740 0.666790 0.090513
Si Si6 0.084064 0.668228 0.728962
O O1 0.996040 0.655142 0.046327
O O2 0.794416 0.588832 0.000000
O O3 0.884729 0.442365 0.000000
O O4 0.331954 0.376679 0.500000
O O5 0.230015 0.460029 0.438128
O O6 0.464119 0.535882 0.432133
O O7 0.304652 0.304536 0.412076
O O8 0.868458 0.131543 0.649651
O O9 0.103308 0.206615 0.642236
O O10 0.028516 0.353650 0.678401
O O11 0.106742 0.893259 0.179983
O O12 0.016588 0.674415 0.138313
O O13 0.005004 0.686472 0.230253
O O14 0.870423 0.740846 0.176354
O O15 0.103162 0.551581 0.094649
O O16 0.213657 0.786344 0.082419
O O17 0.071264 0.535632 0.734912
O O18 0.228152 0.771849 0.733219
#
# Coordination Sequence:
#
# PCOD8327178 Si02
#       6
#     6  12  12  12  12  12
#     4  10  20  34  52  74 102 136 172 208 248 298
#     4   9  17  30  50  75 100 126 158 200 249 296
#     4  10  20  33  50  72  99 131 165 201 242 290
#     4  10  20  34  53  76 103 135 169 205 245 292
#     4  10  20  34  54  78 104 134 168 210 256 300
#     4  10  20  34  54  78 102 128 160 203 252 298
#
# _framework density 17.478739999999998
#
# number of rings (size 3 to 8) (size 9 to 14) (size 15 to 20)
#    0.000    2.182    0.000    3.455    0.000    1.091 
#    0.000    6.364    0.000   14.909    0.000    0.000 
#    0.000    0.000    0.000    0.000    0.000    0.000 
#
# Total GULP energy -818635.052496 kJ/mol
# GULP energy per Si atom -12403.561401 kJ/mol
# Density = 1.743896 g / cm^3
# Si number density = 17.478740 Si / 1000 Ang^3
#
#
#
# Elastic Constant Matrix: (Units=GPa)
#
#
# Indices 1 2 3 4 5 6 
#
# 1 83.6103 45.1189 34.8702 0.0000 0.0147 0.0000
# 2 45.1189 83.6103 34.8702 0.0000 -0.0147 0.0000
# 3 34.8702 34.8702 103.0100 0.0000 0.0000 0.0000
# 4 0.0000 0.0000 0.0000 87.7803 0.0001 -0.0147
# 5 0.0147 -0.0147 0.0000 0.0001 87.7802 0.0000
# 6 0.0000 0.0000 0.0000 -0.0147 0.0000 19.2457
#
#
#
# Elastic Compliance Matrix: (Units=1/GPa)
#
#
# Indices 1 2 3 4 5 6 
#
# 1 0.017746 -0.008233 -0.003220 0.000000 -0.000004 0.000000
# 2 -0.008233 0.017746 -0.003220 0.000000 0.000004 0.000000
# 3 -0.003220 -0.003220 0.011888 0.000000 0.000000 0.000000
# 4 0.000000 0.000000 0.000000 0.011392 0.000000 0.000009
# 5 -0.000004 0.000004 0.000000 0.000000 0.011392 0.000000
# 6 0.000000 0.000000 0.000000 0.000009 0.000000 0.051960
#
#
# Mechanical properties :
#
#
# Convention : Reuss Voigt Hill
#
# Bulk Modulus (GPa) = 55.45465 55.54995 55.50230
# Shear Modulus (GPa) = 31.74943 49.31933 40.53438
#
# Velocity S-wave (km/s) = 4.26662 5.31771 4.82089
# Velocity P-wave (km/s) = 7.48785 8.33993 7.92535
#
# Compressibility (1/GPa) = 0.01803275
#
# Stress axis : x y z
#
# Youngs Moduli (GPa) = 56.34971 56.34971 84.11871
#
# Poissons Ratio (x) = 0.46395 0.27088
# Poissons Ratio (y) = 0.46395 0.27088
# Poissons Ratio (z) = 0.18146 0.18146
#
# Static dielectric constant tensor:
#      x y z
#    x 3.111700 0.000000 0.000000 
#    y 0.000000 3.111700 0.000000 
#    z 0.000000 0.000000 3.524200 
# 
# 
# High freq. dielectric constant tensor:
#      x y z
#    x 1.669340 0.000000 0.000000 
#    y 0.000000 1.669340 0.000000 
#    z 0.000000 0.000000 1.696400 
# 
# From -- ./inp_files/4421.got.cif
#   From: 2010.03.12/outbox.cif.g09.slc.cpg/sg187_3_cif.got.tgz:4421.got - 2010.04.01 11:58:23.
