data_PCOD8327248
_publ_section_title
;
Structure prediction by ZEFSAII (Michael W. Deem and Ramdas Pophale) SiO2 
 PCOD8327248
Probable space group: P -6 M 2
;
_chemical_formula_sum "Si O2"
_cell_formula_units_Z 84
_cell_length_a 18.365505
_cell_length_b 18.365505
_cell_length_c 14.493546
_cell_angle_alpha 90.000000
_cell_angle_beta 90.000000
_cell_angle_gamma 120.000000
_cell_volume 4233.611814
_symmetry_space_group_name_H-M "P -6 M 2"
_symmetry_group_IT_number 187
_symmetry_cell_setting 'hexagonal'
loop_
_space_group_symop_operation_xyz
x,y,z
-x+y,-x,-z
-y,x-y,z
x,y,-z
-x+y,-x,z
-y,x-y,-z
-y,-x,-z
-x+y,y,-z
x,x-y,-z
-x+y,y,z
x,x-y,z
-y,-x,z
loop_
_atom_site_type_symbol
_atom_site_label
_atom_site_fract_x
_atom_site_fract_y
_atom_site_fract_z
Si Si1 0.505334 0.172134 0.609124
Si Si2 0.005685 0.346744 0.893329
Si Si3 0.837439 0.001202 0.607905
Si Si4 0.576149 0.594099 0.392311
Si Si5 0.675805 0.752188 0.279777
Si Si6 0.490812 0.824573 0.107363
Si Si7 0.502686 0.333584 0.108997
O O1 0.510996 0.177717 0.500000
O O2 0.595803 0.191605 0.648394
O O3 0.483468 0.241734 0.648961
O O4 0.434734 0.078100 0.637190
O O5 0.917068 0.336770 0.863001
O O6 0.032120 0.296825 0.821514
O O7 0.078328 0.442272 0.876700
O O8 0.004046 0.317816 0.000000
O O9 0.825728 0.006169 0.500000
O O10 0.911220 0.088781 0.646860
O O11 0.861349 0.930675 0.632608
O O12 0.751526 0.982150 0.653727
O O13 0.587171 0.621227 0.500000
O O14 0.481554 0.518447 0.375217
O O15 0.594104 0.671711 0.324871
O O16 0.658171 0.829086 0.274205
O O17 0.403422 0.806843 0.153350
O O18 0.517901 0.758951 0.149637
O O19 0.476961 0.807034 0.000000
O O20 0.497170 0.248585 0.148639
O O21 0.584924 0.415077 0.150317
O O22 0.510281 0.335079 0.000000
#
# Coordination Sequence:
#
# PCOD8327248 Si02
#       7
#    12  12  12  12  12  12  12
#     4   8  13  23  43  73 109 148 186 220 257 309
#     4  10  21  36  53  75 107 146 187 231 278 325
#     4   9  18  34  58  88 118 143 168 206 263 330
#     4   9  19  35  53  75 106 144 183 225 278 337
#     4  11  23  37  56  81 107 140 182 227 276 330
#     4   9  16  27  45  69  97 130 171 222 279 334
#     4   9  17  31  53  80 109 143 184 227 267 308
#
# _framework density 19.841214000000001
#
# number of rings (size 3 to 8) (size 9 to 14) (size 15 to 20)
#    0.000    2.714    0.000    2.714    0.000    8.000 
#    0.000    1.429    0.000    0.286    0.000    2.000 
#    0.000    1.143    0.000    0.000    0.000    0.286 
#
# Total GULP energy -1040856.602767 kJ/mol
# GULP energy per Si atom -12391.150033 kJ/mol
# Density = 1.979605 g / cm^3
# Si number density = 19.841214 Si / 1000 Ang^3
#
#
#
# Elastic Constant Matrix: (Units=GPa)
#
#
# Indices 1 2 3 4 5 6 
#
# 1 113.6020 68.0703 26.8788 0.0000 -0.0001 0.0000
# 2 68.0703 113.6020 26.8788 0.0000 0.0001 0.0000
# 3 26.8788 26.8788 59.4557 0.0000 0.0000 0.0000
# 4 0.0000 0.0000 0.0000 11.4060 0.0000 0.0001
# 5 -0.0001 0.0001 0.0000 0.0000 11.4060 0.0000
# 6 0.0000 0.0000 0.0000 0.0001 0.0000 22.7659
#
#
#
# Elastic Compliance Matrix: (Units=1/GPa)
#
#
# Indices 1 2 3 4 5 6 
#
# 1 0.014159 -0.007804 -0.002873 0.000000 0.000000 0.000000
# 2 -0.007804 0.014159 -0.002873 0.000000 0.000000 0.000000
# 3 -0.002873 -0.002873 0.019417 0.000000 0.000000 0.000000
# 4 0.000000 0.000000 0.000000 0.087673 0.000000 0.000000
# 5 0.000000 0.000000 0.000000 0.000000 0.087673 0.000000
# 6 0.000000 0.000000 0.000000 0.000000 0.000000 0.043925
#
#
# Mechanical properties :
#
#
# Convention : Reuss Voigt Hill
#
# Bulk Modulus (GPa) = 48.46214 58.92395 53.69305
# Shear Modulus (GPa) = 16.61226 20.10437 18.35831
#
# Velocity S-wave (km/s) = 2.89668 3.18663 3.04511
# Velocity P-wave (km/s) = 5.97208 6.58040 6.28361
#
# Compressibility (1/GPa) = 0.02063466
#
# Stress axis : x y z
#
# Youngs Moduli (GPa) = 70.62849 70.62849 51.50212
#
# Poissons Ratio (x) = 0.55119 0.14795
# Poissons Ratio (y) = 0.55119 0.14795
# Poissons Ratio (z) = 0.20290 0.20290
#
# Static dielectric constant tensor:
#      x y z
#    x 3.776910 0.000000 0.000000 
#    y 0.000000 3.776910 0.000000 
#    z 0.000000 0.000000 3.554930 
# 
# 
# High freq. dielectric constant tensor:
#      x y z
#    x 1.767870 0.000000 0.000000 
#    y 0.000000 1.767870 0.000000 
#    z 0.000000 0.000000 1.758570 
# 
# From -- ./inp_files/2605.got.cif
#   From: 2010.03.12/outbox.cif.g09.slc.cpg/sg187_2_cif.got.tgz:2605.got - 2010.04.01 11:58:23.
