data_PCOD8327445
_publ_section_title
;
Structure prediction by ZEFSAII (Michael W. Deem and Ramdas Pophale) SiO2 
 PCOD8327445
Probable space group: P -6 C 2
;
_chemical_formula_sum "Si O2"
_cell_formula_units_Z 66
_cell_length_a 19.930429
_cell_length_b 19.930429
_cell_length_c 8.927456
_cell_angle_alpha 90.000000
_cell_angle_beta 90.000000
_cell_angle_gamma 120.000000
_cell_volume 3071.083636
_symmetry_space_group_name_H-M "P -6 C 2"
_symmetry_group_IT_number 188
_symmetry_cell_setting 'hexagonal'
loop_
_space_group_symop_operation_xyz
x,y,z
-x+y,-x,1/2-z
-y,x-y,z
x,y,1/2-z
-x+y,-x,z
-y,x-y,1/2-z
-y,-x,-z
-x+y,y,-z
x,x-y,-z
-x+y,y,1/2+z
x,x-y,1/2+z
-y,-x,1/2+z
loop_
_atom_site_type_symbol
_atom_site_label
_atom_site_fract_x
_atom_site_fract_y
_atom_site_fract_z
Si Si1 0.635346 0.710768 0.923031
Si Si2 0.167463 0.957421 0.418214
Si Si3 0.257227 0.128614 0.500000
Si Si4 0.665174 0.200317 0.924295
Si Si5 0.474503 0.808132 0.570078
Si Si6 0.711922 0.612886 0.910739
O O1 0.622991 0.726582 0.750000
O O2 0.646982 0.636733 0.935817
O O3 0.711254 0.783405 0.989010
O O4 0.562137 0.694331 0.022371
O O5 0.159037 0.926710 0.250000
O O6 0.083380 0.916620 0.500000
O O7 0.203002 0.050037 0.409401
O O8 0.312181 0.109619 0.601936
O O9 0.659067 0.209778 0.750000
O O10 0.716112 0.283889 0.000000
O O11 0.580302 0.160604 0.000000
O O12 0.704561 0.148037 0.954757
O O13 0.467932 0.803775 0.750000
O O14 0.418254 0.836507 0.500000
O O15 0.448865 0.724433 0.500000
O O16 0.697155 0.569477 0.750000
#
# Coordination Sequence:
#
# PCOD8327445 Si02
#       6
#    12  12   6  12  12  12
#     4  10  22  41  65  94 128 165 210 263 316 377
#     4  11  23  40  64  95 129 170 215 265 323 385
#     4  10  22  40  68  94 128 168 220 268 324 392
#     4  12  25  41  62  88 124 165 212 263 321 383
#     4  12  25  43  66  93 127 167 212 260 316 380
#     4  10  21  39  65  95 125 162 212 266 321 381
#
# _framework density 21.490786
#
# number of rings (size 3 to 8) (size 9 to 14) (size 15 to 20)
#    0.000    1.091    0.909    5.818    0.000    6.545 
#    0.545    0.000    0.000    0.000    0.000    0.000 
#    0.000    0.000    0.000    0.000    0.000    0.000 
#
# Total GULP energy -818279.153440 kJ/mol
# GULP energy per Si atom -12398.168992 kJ/mol
# Density = 2.144187 g / cm^3
# Si number density = 21.490786 Si / 1000 Ang^3
#
#
#
# Elastic Constant Matrix: (Units=GPa)
#
#
# Indices 1 2 3 4 5 6 
#
# 1 96.9789 41.0296 46.1677 0.0000 0.0000 0.0000
# 2 41.0296 96.9789 46.1677 0.0000 0.0000 0.0000
# 3 46.1677 46.1677 194.2113 0.0000 0.0000 0.0000
# 4 0.0000 0.0000 0.0000 27.0701 0.0000 0.0000
# 5 0.0000 0.0000 0.0000 0.0000 27.0701 0.0000
# 6 0.0000 0.0000 0.0000 0.0000 0.0000 27.9747
#
#
#
# Elastic Compliance Matrix: (Units=1/GPa)
#
#
# Indices 1 2 3 4 5 6 
#
# 1 0.013245 -0.004628 -0.002048 0.000000 0.000000 0.000000
# 2 -0.004628 0.013245 -0.002048 0.000000 0.000000 0.000000
# 3 -0.002048 -0.002048 0.006123 0.000000 0.000000 0.000000
# 4 0.000000 0.000000 0.000000 0.036941 0.000000 0.000000
# 5 0.000000 0.000000 0.000000 0.000000 0.036941 0.000000
# 6 0.000000 0.000000 0.000000 0.000000 0.000000 0.035747
#
#
# Mechanical properties :
#
#
# Convention : Reuss Voigt Hill
#
# Bulk Modulus (GPa) = 65.95235 72.76656 69.35946
# Shear Modulus (GPa) = 30.34981 33.40991 31.87986
#
# Velocity S-wave (km/s) = 3.76203 3.94714 3.85570
# Velocity P-wave (km/s) = 7.04456 7.39636 7.22260
#
# Compressibility (1/GPa) = 0.01516246
#
# Stress axis : x y z
#
# Youngs Moduli (GPa) = 75.50121 75.50121 163.32257
#
# Poissons Ratio (x) = 0.34946 0.33453
# Poissons Ratio (y) = 0.34946 0.33453
# Poissons Ratio (z) = 0.15465 0.15465
#
# Static dielectric constant tensor:
#      x y z
#    x 3.927810 0.000000 0.000000 
#    y 0.000000 3.927810 0.000000 
#    z 0.000000 0.000000 4.122990 
# 
# 
# High freq. dielectric constant tensor:
#      x y z
#    x 1.842590 0.000000 0.000000 
#    y 0.000000 1.842590 0.000000 
#    z 0.000000 0.000000 1.853710 
# 
# From -- ./inp_files/785.got.cif
#   From: 2010.03.12/outbox.cif.g09.slc.cpg/sg188_1_cif.got.tgz:785.got - 2010.04.01 12:01:06.
