data_PCOD8328398
_publ_section_title
;
Structure prediction by ZEFSAII (Michael W. Deem and Ramdas Pophale) SiO2 
 PCOD8328398
Probable space group: P 6/M M M
;
_chemical_formula_sum "Si O2"
_cell_formula_units_Z 180
_cell_length_a 22.177461
_cell_length_b 22.177461
_cell_length_c 30.383122
_cell_angle_alpha 90.000000
_cell_angle_beta 90.000000
_cell_angle_gamma 120.000000
_cell_volume 12941.561413
_symmetry_space_group_name_H-M "P 6/M M M"
_symmetry_group_IT_number 191
_symmetry_cell_setting 'hexagonal'
loop_
_space_group_symop_operation_xyz
x,y,z
x-y,x,z
-y,x-y,z
-x,-y,z
-x+y,-x,z
y,-x+y,z
x-y,-y,-z
-x,-x+y,-z
y,x,-z
-y,-x,-z
-x+y,y,-z
x,x-y,-z
-x,-y,-z
-x+y,-x,-z
y,-x+y,-z
x,y,-z
x-y,x,-z
-y,x-y,-z
-x+y,y,z
x,x-y,z
-y,-x,z
y,x,z
x-y,-y,z
-x,-x+y,z
loop_
_atom_site_type_symbol
_atom_site_label
_atom_site_fract_x
_atom_site_fract_y
_atom_site_fract_z
Si Si1 0.474170 0.082271 0.871095
Si Si2 0.533007 0.922843 0.549165
Si Si3 0.194815 0.667143 0.386521
Si Si4 0.215496 0.923053 0.000000
Si Si5 0.880218 0.623977 0.087300
Si Si6 0.077606 0.784878 0.824253
Si Si7 0.526284 0.193069 0.715873
Si Si8 0.662743 0.582286 0.779472
O O1 0.554993 0.109986 0.881423
O O2 0.445110 0.114174 0.907210
O O3 0.467426 0.105476 0.822090
O O4 0.429050 0.000000 0.874479
O O5 0.542246 0.900482 0.500000
O O6 0.462343 0.924685 0.551842
O O7 0.531329 0.868685 0.584964
O O8 0.596905 0.000000 0.560105
O O9 0.208034 0.604017 0.397507
O O10 0.263170 0.736831 0.400846
O O11 0.177673 0.667508 0.335474
O O12 0.254342 0.915847 0.957788
O O13 0.133308 0.866693 0.000000
O O14 0.224429 0.000000 0.000000
O O15 0.798859 0.597718 0.086783
O O16 0.918423 0.677189 0.127112
O O17 0.133953 0.866048 0.817332
O O18 0.090618 0.738917 0.788560
O O19 0.000000 0.773462 0.818307
O O20 0.598631 0.197262 0.728836
O O21 0.531725 0.265863 0.729477
O O22 0.461724 0.128845 0.739499
O O23 0.608059 0.608059 0.767860
#
# Coordination Sequence:
#
# PCOD8328398 Si02
#       8
#    24  24  24  12  24  24  24  24
#     4   9  16  27  42  58  77  98 120 151 191 227
#     4   8  14  25  39  53  69  89 114 146 185 225
#     4   9  17  27  38  52  71  96 124 154 187 223
#     4  10  18  28  43  62  83 103 125 153 183 217
#     4   9  17  28  42  59  79 103 128 155 186 221
#     4   9  16  27  43  61  80 102 128 156 188 225
#     4  10  19  29  39  52  74 102 128 153 186 228
#     4   9  17  28  42  59  76  96 126 162 194 224
#
# _framework density 13.908677000000001
#
# number of rings (size 3 to 8) (size 9 to 14) (size 15 to 20)
#    0.000    2.933    0.000    3.467    0.000    3.200 
#    0.000    1.667    0.000    2.467    0.000    0.000 
#    0.000    3.200    0.000    0.000    0.000    0.267 
#
# Total GULP energy -2231490.670967 kJ/mol
# GULP energy per Si atom -12397.170394 kJ/mol
# Density = 1.387702 g / cm^3
# Si number density = 13.908677 Si / 1000 Ang^3
#
#
#
# Elastic Constant Matrix: (Units=GPa)
#
#
# Indices 1 2 3 4 5 6 
#
# 1 88.3901 49.6961 41.3977 0.0000 0.0000 0.0000
# 2 49.6961 88.3901 41.3977 0.0000 0.0000 0.0000
# 3 41.3977 41.3977 65.6740 0.0000 0.0000 0.0000
# 4 0.0000 0.0000 0.0000 18.5730 0.0000 0.0000
# 5 0.0000 0.0000 0.0000 0.0000 18.5730 0.0000
# 6 0.0000 0.0000 0.0000 0.0000 0.0000 19.3470
#
#
#
# Elastic Compliance Matrix: (Units=1/GPa)
#
#
# Indices 1 2 3 4 5 6 
#
# 1 0.018743 -0.007101 -0.007339 0.000000 0.000000 0.000000
# 2 -0.007101 0.018743 -0.007339 0.000000 0.000000 0.000000
# 3 -0.007339 -0.007339 0.024478 0.000000 0.000000 0.000000
# 4 0.000000 0.000000 0.000000 0.053841 0.000000 0.000000
# 5 0.000000 0.000000 0.000000 0.000000 0.053841 0.000000
# 6 0.000000 0.000000 0.000000 0.000000 0.000000 0.051688
#
#
# Mechanical properties :
#
#
# Convention : Reuss Voigt Hill
#
# Bulk Modulus (GPa) = 54.32349 56.38193 55.35271
# Shear Modulus (GPa) = 18.44835 18.62946 18.53890
#
# Velocity S-wave (km/s) = 3.64592 3.66377 3.65485
# Velocity P-wave (km/s) = 7.54093 7.65002 7.59567
#
# Compressibility (1/GPa) = 0.01840824
#
# Stress axis : x y z
#
# Youngs Moduli (GPa) = 53.35354 53.35354 40.85229
#
# Poissons Ratio (x) = 0.37886 0.29980
# Poissons Ratio (y) = 0.37886 0.29980
# Poissons Ratio (z) = 0.39154 0.39154
#
# Static dielectric constant tensor:
#      x y z
#    x 2.721190 0.000000 0.000000 
#    y 0.000000 2.721190 0.000000 
#    z 0.000000 0.000000 2.723430 
# 
# 
# High freq. dielectric constant tensor:
#      x y z
#    x 1.515890 0.000000 0.000000 
#    y 0.000000 1.515890 0.000000 
#    z 0.000000 0.000000 1.523550 
# 
# From -- ./inp_files/10860.got.cif
#   From: 2010.03.12/outbox.cif.g09.slc.cpg/sg191_6_cif.got.tgz:10860.got - 2010.04.01 12:09:02.
