data_PCOD8328342
_publ_section_title
;
Structure prediction by ZEFSAII (Michael W. Deem and Ramdas Pophale) SiO2 
 PCOD8328342
Probable space group: P 6/M M M
;
_chemical_formula_sum "Si O2"
_cell_formula_units_Z 72
_cell_length_a 17.708945
_cell_length_b 17.708945
_cell_length_c 15.571083
_cell_angle_alpha 90.000000
_cell_angle_beta 90.000000
_cell_angle_gamma 120.000000
_cell_volume 4228.972194
_symmetry_space_group_name_H-M "P 6/M M M"
_symmetry_group_IT_number 191
_symmetry_cell_setting 'hexagonal'
loop_
_space_group_symop_operation_xyz
x,y,z
x-y,x,z
-y,x-y,z
-x,-y,z
-x+y,-x,z
y,-x+y,z
x-y,-y,-z
-x,-x+y,-z
y,x,-z
-y,-x,-z
-x+y,y,-z
x,x-y,-z
-x,-y,-z
-x+y,-x,-z
y,-x+y,-z
x,y,-z
x-y,x,-z
-y,x-y,-z
-x+y,y,z
x,x-y,z
-y,-x,z
y,x,z
x-y,-y,z
-x,-x+y,z
loop_
_atom_site_type_symbol
_atom_site_label
_atom_site_fract_x
_atom_site_fract_y
_atom_site_fract_z
Si Si1 0.898230 0.533156 0.179221
Si Si2 0.332002 0.843128 0.500000
Si Si3 0.835714 0.504509 0.000000
Si Si4 0.369378 0.269087 0.660359
O O1 0.854875 0.427438 0.187071
O O2 0.865254 0.570880 0.254579
O O3 0.000000 0.574816 0.188566
O O4 0.875386 0.560062 0.087142
O O5 0.258260 0.741741 0.500000
O O6 0.425790 0.851580 0.500000
O O7 0.324156 0.892459 0.582674
O O8 0.732048 0.464096 0.000000
O O9 0.862193 0.431097 0.000000
O O10 0.329916 0.164958 0.645684
O O11 0.290711 0.290711 0.668142
#
# Coordination Sequence:
#
# PCOD8328342 Si02
#       4
#    24  12  12  24
#     4   9  17  29  45  64  86 114 148 185 225 269
#     4  10  20  33  50  73 100 128 155 184 218 257
#     4  10  18  27  39  57  84 117 151 183 215 254
#     4  10  20  33  49  69  92 119 152 190 231 273
#
# _framework density 17.025414000000001
#
# number of rings (size 3 to 8) (size 9 to 14) (size 15 to 20)
#    0.000    2.333    0.000    3.333    0.000    4.667 
#    0.000    0.000    0.000   11.000    0.000    0.000 
#    0.000    4.000    0.000    0.000    0.000   34.667 
#
# Total GULP energy -892410.786288 kJ/mol
# GULP energy per Si atom -12394.594254 kJ/mol
# Density = 1.698666 g / cm^3
# Si number density = 17.025414 Si / 1000 Ang^3
#
#
#
# Elastic Constant Matrix: (Units=GPa)
#
#
# Indices 1 2 3 4 5 6 
#
# 1 67.2279 39.7133 28.6310 0.0000 0.0000 0.0000
# 2 39.7133 67.2279 28.6310 0.0000 0.0000 0.0000
# 3 28.6310 28.6310 141.4091 0.0000 0.0000 0.0000
# 4 0.0000 0.0000 0.0000 4.3388 0.0000 0.0000
# 5 0.0000 0.0000 0.0000 0.0000 4.3388 0.0000
# 6 0.0000 0.0000 0.0000 0.0000 0.0000 13.7573
#
#
#
# Elastic Compliance Matrix: (Units=1/GPa)
#
#
# Indices 1 2 3 4 5 6 
#
# 1 0.023416 -0.012928 -0.002123 0.000000 0.000000 0.000000
# 2 -0.012928 0.023416 -0.002123 0.000000 0.000000 0.000000
# 3 -0.002123 -0.002123 0.007932 0.000000 0.000000 0.000000
# 4 0.000000 0.000000 0.000000 0.230476 0.000000 0.000000
# 5 0.000000 0.000000 0.000000 0.000000 0.230476 0.000000
# 6 0.000000 0.000000 0.000000 0.000000 0.000000 0.072689
#
#
# Mechanical properties :
#
#
# Convention : Reuss Voigt Hill
#
# Bulk Modulus (GPa) = 48.98715 52.20175 50.59445
# Shear Modulus (GPa) = 7.94206 16.41297 12.17752
#
# Velocity S-wave (km/s) = 2.16216 3.10825 2.67733
# Velocity P-wave (km/s) = 5.92188 6.60373 6.27208
#
# Compressibility (1/GPa) = 0.02041352
#
# Stress axis : x y z
#
# Youngs Moduli (GPa) = 42.70562 42.70562 126.07848
#
# Poissons Ratio (x) = 0.55211 0.26773
# Poissons Ratio (y) = 0.55211 0.26773
# Poissons Ratio (z) = 0.09069 0.09069
#
# Static dielectric constant tensor:
#      x y z
#    x 2.989460 0.000000 0.000000 
#    y 0.000000 2.989460 0.000000 
#    z 0.000000 0.000000 3.580860 
# 
# 
# High freq. dielectric constant tensor:
#      x y z
#    x 1.629730 0.000000 0.000000 
#    y 0.000000 1.629730 0.000000 
#    z 0.000000 0.000000 1.684130 
# 
# From -- ./inp_files/3918.got.cif
#   From: 2010.03.12/outbox.cif.g09.slc.cpg/sg191_2_cif.got.tgz:3918.got - 2010.04.01 12:09:02.
