data_PCOD8328936
_publ_section_title
;
Structure prediction by ZEFSAII (Michael W. Deem and Ramdas Pophale) SiO2 
 PCOD8328936
Probable space group: P 6/M M M
;
_chemical_formula_sum "Si O2"
_cell_formula_units_Z 120
_cell_length_a 22.401192
_cell_length_b 22.401192
_cell_length_c 19.511299
_cell_angle_alpha 90.000000
_cell_angle_beta 90.000000
_cell_angle_gamma 120.000000
_cell_volume 8479.281877
_symmetry_space_group_name_H-M "P 6/M M M"
_symmetry_group_IT_number 191
_symmetry_cell_setting 'hexagonal'
loop_
_space_group_symop_operation_xyz
x,y,z
x-y,x,z
-y,x-y,z
-x,-y,z
-x+y,-x,z
y,-x+y,z
x-y,-y,-z
-x,-x+y,-z
y,x,-z
-y,-x,-z
-x+y,y,-z
x,x-y,-z
-x,-y,-z
-x+y,-x,-z
y,-x+y,-z
x,y,-z
x-y,x,-z
-y,x-y,-z
-x+y,y,z
x,x-y,z
-y,-x,z
y,x,z
x-y,-y,z
-x,-x+y,z
loop_
_atom_site_type_symbol
_atom_site_label
_atom_site_fract_x
_atom_site_fract_y
_atom_site_fract_z
Si Si1 0.528067 0.195470 0.174926
Si Si2 0.666716 0.197142 0.332609
Si Si3 0.282064 0.206782 0.581550
Si Si4 0.580647 0.659512 0.420342
Si Si5 0.609123 0.532670 0.076863
O O1 0.603683 0.207365 0.160193
O O2 0.528509 0.264255 0.152182
O O3 0.507378 0.177932 0.254102
O O4 0.470004 0.132314 0.130406
O O5 0.610661 0.221321 0.341118
O O6 0.740138 0.259863 0.357417
O O7 0.642948 0.129411 0.377725
O O8 0.279972 0.204263 0.500000
O O9 0.267961 0.133981 0.612509
O O10 0.223606 0.223606 0.608658
O O11 0.357047 0.266965 0.604566
O O12 0.564548 0.661899 0.500000
O O13 0.600247 0.600247 0.407007
O O14 0.537881 0.462120 0.080443
O O15 0.594921 0.594921 0.096329
O O16 0.639880 0.543876 0.000000
#
# Coordination Sequence:
#
# PCOD8328936 Si02
#       5
#    24  24  24  24  24
#     4   9  17  28  41  57  77 101 128 157 189 225
#     4  10  20  32  44  57  76 102 128 154 188 234
#     4   8  13  22  37  55  73  93 117 145 178 216
#     4   9  18  31  45  60  75  92 120 161 203 235
#     4   8  14  25  40  57  77 100 125 153 185 221
#
# _framework density 14.152143000000001
#
# number of rings (size 3 to 8) (size 9 to 14) (size 15 to 20)
#    0.000    3.200    0.000    2.800    0.000    4.800 
#    0.000    3.000    0.000    2.600    0.000    1.400 
#    0.000    0.000    0.000    0.000    0.000    0.000 
#
# Total GULP energy -1487415.862032 kJ/mol
# GULP energy per Si atom -12395.132184 kJ/mol
# Density = 1.411993 g / cm^3
# Si number density = 14.152143 Si / 1000 Ang^3
#
#
#
# Elastic Constant Matrix: (Units=GPa)
#
#
# Indices 1 2 3 4 5 6 
#
# 1 74.7968 32.4932 39.7721 0.0000 0.0000 0.0000
# 2 32.4932 74.7968 39.7721 0.0000 0.0000 0.0000
# 3 39.7721 39.7721 55.7873 0.0000 0.0000 0.0000
# 4 0.0000 0.0000 0.0000 18.9964 0.0000 0.0000
# 5 0.0000 0.0000 0.0000 0.0000 18.9964 0.0000
# 6 0.0000 0.0000 0.0000 0.0000 0.0000 21.1518
#
#
#
# Elastic Compliance Matrix: (Units=1/GPa)
#
#
# Indices 1 2 3 4 5 6 
#
# 1 0.021704 -0.001934 -0.014095 0.000000 0.000000 0.000000
# 2 -0.001934 0.021704 -0.014095 0.000000 0.000000 0.000000
# 3 -0.014095 -0.014095 0.038022 0.000000 0.000000 0.000000
# 4 0.000000 0.000000 0.000000 0.052642 0.000000 0.000000
# 5 0.000000 0.000000 0.000000 0.000000 0.052642 0.000000
# 6 0.000000 0.000000 0.000000 0.000000 0.000000 0.047277
#
#
# Mechanical properties :
#
#
# Convention : Reuss Voigt Hill
#
# Bulk Modulus (GPa) = 47.20577 47.71733 47.46155
# Shear Modulus (GPa) = 16.59475 18.05181 17.32328
#
# Velocity S-wave (km/s) = 3.42803 3.57536 3.50247
# Velocity P-wave (km/s) = 7.00692 7.12986 7.06866
#
# Compressibility (1/GPa) = 0.02118385
#
# Stress axis : x y z
#
# Youngs Moduli (GPa) = 46.07348 46.07348 26.30045
#
# Poissons Ratio (x) = 0.08911 0.37070
# Poissons Ratio (y) = 0.08911 0.37070
# Poissons Ratio (z) = 0.64939 0.64939
#
# Static dielectric constant tensor:
#      x y z
#    x 2.817910 0.000000 0.000000 
#    y 0.000000 2.817910 0.000000 
#    z 0.000000 0.000000 2.631110 
# 
# 
# High freq. dielectric constant tensor:
#      x y z
#    x 1.527830 0.000000 0.000000 
#    y 0.000000 1.527830 0.000000 
#    z 0.000000 0.000000 1.516020 
# 
# From -- ./inp_files/4712.got.cif
#   From: 2010.03.12/outbox.cif.g09.slc.cpg/sg191_3_cif.got.tgz:4712.got - 2010.04.01 12:09:02.
