data_PCOD8328365
_publ_section_title
;
Structure prediction by ZEFSAII (Michael W. Deem and Ramdas Pophale) SiO2 
 PCOD8328365
Probable space group: P 6/M M M
;
_chemical_formula_sum "Si O2"
_cell_formula_units_Z 168
_cell_length_a 22.947925
_cell_length_b 22.947925
_cell_length_c 22.950527
_cell_angle_alpha 90.000000
_cell_angle_beta 90.000000
_cell_angle_gamma 120.000000
_cell_volume 10466.708708
_symmetry_space_group_name_H-M "P 6/M M M"
_symmetry_group_IT_number 191
_symmetry_cell_setting 'hexagonal'
loop_
_space_group_symop_operation_xyz
x,y,z
x-y,x,z
-y,x-y,z
-x,-y,z
-x+y,-x,z
y,-x+y,z
x-y,-y,-z
-x,-x+y,-z
y,x,-z
-y,-x,-z
-x+y,y,-z
x,x-y,-z
-x,-y,-z
-x+y,-x,-z
y,-x+y,-z
x,y,-z
x-y,x,-z
-y,x-y,-z
-x+y,y,z
x,x-y,z
-y,-x,z
y,x,z
x-y,-y,z
-x,-x+y,z
loop_
_atom_site_type_symbol
_atom_site_label
_atom_site_fract_x
_atom_site_fract_y
_atom_site_fract_z
Si Si1 0.855781 0.279235 0.841611
Si Si2 0.266282 0.394419 0.435029
Si Si3 0.465583 0.666257 0.249350
Si Si4 0.719936 0.925776 0.652164
Si Si5 0.395237 0.472829 0.067664
Si Si6 0.666043 0.198996 0.615240
Si Si7 0.207050 0.283000 0.785866
O O1 0.784102 0.215899 0.857561
O O2 0.850544 0.318966 0.786100
O O3 0.879242 0.327004 0.897251
O O4 0.908719 0.255234 0.825743
O O5 0.278273 0.375374 0.500000
O O6 0.198753 0.397506 0.431376
O O7 0.260220 0.338837 0.389227
O O8 0.327027 0.468213 0.418458
O O9 0.444943 0.722472 0.237305
O O10 0.404404 0.595597 0.228097
O O11 0.481574 0.664615 0.316780
O O12 0.741351 0.870676 0.634976
O O13 0.693730 0.915310 0.718519
O O14 0.784930 0.000000 0.644280
O O15 0.449130 0.550871 0.081396
O O16 0.427403 0.427403 0.085425
O O17 0.376070 0.464007 0.000000
O O18 0.597494 0.194988 0.594354
O O19 0.726701 0.273300 0.600418
O O20 0.128433 0.256866 0.800118
O O21 0.223210 0.223210 0.798937
#
# Coordination Sequence:
#
# PCOD8328365 Si02
#       7
#    24  24  24  24  24  24  24
#     4  10  18  27  43  66  89 113 142 178 219 259
#     4   9  17  28  41  58  81 108 138 173 211 250
#     4   9  16  25  38  57  82 111 142 177 217 259
#     4   9  17  30  48  68  89 112 138 168 203 246
#     4   9  18  32  47  61  81 113 151 188 223 258
#     4   9  16  26  40  58  81 109 142 180 221 260
#     4   9  17  29  46  68  92 115 138 168 208 252
#
# _framework density 16.050891
#
# number of rings (size 3 to 8) (size 9 to 14) (size 15 to 20)
#    0.000    2.857    0.000    2.429    0.000    5.429 
#    0.000    0.000    0.000    1.857    0.000    7.000 
#    0.000    0.000    0.000    3.571    0.000    3.714 
#
# Total GULP energy -2082732.955817 kJ/mol
# GULP energy per Si atom -12397.219975 kJ/mol
# Density = 1.601436 g / cm^3
# Si number density = 16.050891 Si / 1000 Ang^3
#
#
#
# Elastic Constant Matrix: (Units=GPa)
#
#
# Indices 1 2 3 4 5 6 
#
# 1 86.3840 47.1768 35.2654 0.0000 0.0000 0.0000
# 2 47.1768 86.3840 35.2654 0.0000 0.0000 0.0000
# 3 35.2654 35.2654 57.1200 0.0000 0.0000 0.0000
# 4 0.0000 0.0000 0.0000 19.6069 0.0000 0.0000
# 5 0.0000 0.0000 0.0000 0.0000 19.6069 0.0000
# 6 0.0000 0.0000 0.0000 0.0000 0.0000 19.6036
#
#
#
# Elastic Compliance Matrix: (Units=1/GPa)
#
#
# Indices 1 2 3 4 5 6 
#
# 1 0.018307 -0.007198 -0.006859 0.000000 0.000000 0.000000
# 2 -0.007198 0.018307 -0.006859 0.000000 0.000000 0.000000
# 3 -0.006859 -0.006859 0.025976 0.000000 0.000000 0.000000
# 4 0.000000 0.000000 0.000000 0.051002 0.000000 0.000000
# 5 0.000000 0.000000 0.000000 0.000000 0.051002 0.000000
# 6 0.000000 0.000000 0.000000 0.000000 0.000000 0.051011
#
#
# Mechanical properties :
#
#
# Convention : Reuss Voigt Hill
#
# Bulk Modulus (GPa) = 48.17065 51.70035 49.93550
# Shear Modulus (GPa) = 18.91380 19.24221 19.07800
#
# Velocity S-wave (km/s) = 3.43646 3.46616 3.45134
# Velocity P-wave (km/s) = 6.76919 6.94976 6.86007
#
# Compressibility (1/GPa) = 0.02075953
#
# Stress axis : x y z
#
# Youngs Moduli (GPa) = 54.62294 54.62294 38.49709
#
# Poissons Ratio (x) = 0.39318 0.26404
# Poissons Ratio (y) = 0.39318 0.26404
# Poissons Ratio (z) = 0.37464 0.37464
#
# Static dielectric constant tensor:
#      x y z
#    x 2.964430 0.000000 0.000000 
#    y 0.000000 2.964430 0.000000 
#    z 0.000000 0.000000 2.956730 
# 
# 
# High freq. dielectric constant tensor:
#      x y z
#    x 1.603110 0.000000 0.000000 
#    y 0.000000 1.603110 0.000000 
#    z 0.000000 0.000000 1.608220 
# 
# From -- ./inp_files/7890.got.cif
#   From: 2010.03.12/outbox.cif.g09.slc.cpg/sg191_4_cif.got.tgz:7890.got - 2010.04.01 12:09:02.
