data_PCOD8328902
_publ_section_title
;
Structure prediction by ZEFSAII (Michael W. Deem and Ramdas Pophale) SiO2 
 PCOD8328902
Probable space group: P 6/M M M
;
_chemical_formula_sum "Si O2"
_cell_formula_units_Z 84
_cell_length_a 17.216279
_cell_length_b 17.216279
_cell_length_c 19.213883
_cell_angle_alpha 90.000000
_cell_angle_beta 90.000000
_cell_angle_gamma 120.000000
_cell_volume 4932.014646
_symmetry_space_group_name_H-M "P 6/M M M"
_symmetry_group_IT_number 191
_symmetry_cell_setting 'hexagonal'
loop_
_space_group_symop_operation_xyz
x,y,z
x-y,x,z
-y,x-y,z
-x,-y,z
-x+y,-x,z
y,-x+y,z
x-y,-y,-z
-x,-x+y,-z
y,x,-z
-y,-x,-z
-x+y,y,-z
x,x-y,-z
-x,-y,-z
-x+y,-x,-z
y,-x+y,-z
x,y,-z
x-y,x,-z
-y,x-y,-z
-x+y,y,z
x,x-y,z
-y,-x,z
y,x,z
x-y,-y,z
-x,-x+y,z
loop_
_atom_site_type_symbol
_atom_site_label
_atom_site_fract_x
_atom_site_fract_y
_atom_site_fract_z
Si Si1 0.353300 0.353300 0.101830
Si Si2 0.485158 0.153163 0.361145
Si Si3 0.483517 0.148448 0.000000
Si Si4 0.100072 0.725766 0.500000
Si Si5 0.409310 0.000000 0.255845
Si Si6 0.000000 0.828605 0.919119
O O1 0.345610 0.435010 0.068222
O O2 0.365056 0.365056 0.183640
O O3 0.262486 0.262486 0.090382
O O4 0.580978 0.161956 0.368361
O O5 0.498500 0.249250 0.342786
O O6 0.435050 0.114828 0.433316
O O7 0.428038 0.087400 0.298961
O O8 0.587253 0.174506 0.000000
O O9 0.477714 0.238857 0.000000
O O10 0.167535 0.832466 0.500000
O O11 0.000000 0.710170 0.500000
O O12 0.500000 0.000000 0.240259
O O13 0.911172 0.822343 0.884564
O O14 0.000000 0.847592 0.000000
#
# Coordination Sequence:
#
# PCOD8328902 Si02
#       6
#    12  24  12  12  12  12
#     4  11  21  36  57  78 103 136 179 222 259 316
#     4  10  20  33  52  77 108 142 178 217 262 311
#     4  11  22  37  56  78 104 135 174 221 272 322
#     4  10  19  33  55  82 109 140 176 222 265 311
#     4  10  21  36  52  73 103 142 178 216 262 306
#     4  10  19  33  54  81 106 128 156 201 260 318
#
# _framework density 17.031579000000001
#
# number of rings (size 3 to 8) (size 9 to 14) (size 15 to 20)
#    0.000    1.714    2.857    3.571    0.000    3.429 
#    0.000    1.429    0.000    3.571    0.000    0.000 
#    0.000    0.000    0.000    0.000    0.000    0.000 
#
# Total GULP energy -1041649.392409 kJ/mol
# GULP energy per Si atom -12400.588005 kJ/mol
# Density = 1.699281 g / cm^3
# Si number density = 17.031579 Si / 1000 Ang^3
#
#
#
# Elastic Constant Matrix: (Units=GPa)
#
#
# Indices 1 2 3 4 5 6 
#
# 1 123.7809 64.5608 42.6423 0.0000 0.0000 0.0000
# 2 64.5608 123.7809 42.6423 0.0000 0.0000 0.0000
# 3 42.6423 42.6423 101.4231 0.0000 0.0000 0.0000
# 4 0.0000 0.0000 0.0000 31.0135 0.0000 0.0000
# 5 0.0000 0.0000 0.0000 0.0000 31.0135 0.0000
# 6 0.0000 0.0000 0.0000 0.0000 0.0000 29.6100
#
#
#
# Elastic Compliance Matrix: (Units=1/GPa)
#
#
# Indices 1 2 3 4 5 6 
#
# 1 0.011722 -0.005164 -0.002757 0.000000 0.000000 0.000000
# 2 -0.005164 0.011722 -0.002757 0.000000 0.000000 0.000000
# 3 -0.002757 -0.002757 0.012178 0.000000 0.000000 0.000000
# 4 0.000000 0.000000 0.000000 0.032244 0.000000 0.000000
# 5 0.000000 0.000000 0.000000 0.000000 0.032244 0.000000
# 6 0.000000 0.000000 0.000000 0.000000 0.000000 0.033772
#
#
# Mechanical properties :
#
#
# Convention : Reuss Voigt Hill
#
# Bulk Modulus (GPa) = 70.10046 72.07510 71.08778
# Shear Modulus (GPa) = 31.25097 31.60337 31.42717
#
# Velocity S-wave (km/s) = 4.28820 4.31231 4.30027
# Velocity P-wave (km/s) = 8.10967 8.19787 8.15389
#
# Compressibility (1/GPa) = 0.01426524
#
# Stress axis : x y z
#
# Youngs Moduli (GPa) = 85.30895 85.30895 82.11379
#
# Poissons Ratio (x) = 0.44054 0.22641
# Poissons Ratio (y) = 0.44054 0.22641
# Poissons Ratio (z) = 0.23522 0.23522
#
# Static dielectric constant tensor:
#      x y z
#    x 3.284320 0.000000 0.000000 
#    y 0.000000 3.284320 0.000000 
#    z 0.000000 0.000000 3.194080 
# 
# 
# High freq. dielectric constant tensor:
#      x y z
#    x 1.663480 0.000000 0.000000 
#    y 0.000000 1.663480 0.000000 
#    z 0.000000 0.000000 1.646810 
# 
# From -- ./inp_files/4046.got.cif
#   From: 2010.03.12/outbox.cif.g09.slc.cpg/sg191_3_cif.got.tgz:4046.got - 2010.04.01 12:09:02.
