data_PCOD8328006
_publ_section_title
;
Structure prediction by ZEFSAII (Michael W. Deem and Ramdas Pophale) SiO2 
 PCOD8328006
Probable space group: P -6 2 C
;
_chemical_formula_sum "Si O2"
_cell_formula_units_Z 52
_cell_length_a 12.434392
_cell_length_b 12.434392
_cell_length_c 21.632075
_cell_angle_alpha 90.000000
_cell_angle_beta 90.000000
_cell_angle_gamma 120.000000
_cell_volume 2896.529266
_symmetry_space_group_name_H-M "P -6 2 C"
_symmetry_group_IT_number 190
_symmetry_cell_setting 'hexagonal'
loop_
_space_group_symop_operation_xyz
x,y,z
-x+y,-x,1/2-z
-y,x-y,z
x,y,1/2-z
-x+y,-x,z
-y,x-y,1/2-z
x-y,-y,-z
-x,-x+y,-z
y,x,-z
y,x,1/2+z
x-y,-y,1/2+z
-x,-x+y,1/2+z
loop_
_atom_site_type_symbol
_atom_site_label
_atom_site_fract_x
_atom_site_fract_y
_atom_site_fract_z
Si Si1 0.745128 0.741829 0.683433
Si Si2 0.416494 0.080781 0.938697
Si Si3 0.000000 0.000000 0.070804
Si Si4 0.415712 0.333138 0.940209
Si Si5 0.208370 0.200424 0.146357
O O1 0.688752 0.674116 0.750000
O O2 0.674778 0.659995 0.623601
O O3 0.732594 0.865531 0.685486
O O4 0.889269 0.778577 0.685319
O O5 0.424623 0.210808 0.950510
O O6 0.553240 0.104496 0.926901
O O7 0.354680 0.000000 0.000000
O O8 0.971515 0.864633 0.090561
O O9 0.000000 0.000000 0.000000
O O10 0.329935 0.316989 0.881051
O O11 0.356050 0.356050 0.000000
#
# Coordination Sequence:
#
# PCOD8328006 Si02
#       5
#    12  12   4  12  12
#     4  10  19  33  51  76 104 130 161 204 252 304
#     4  10  21  35  53  76 102 134 173 213 254 301
#     4   9  15  24  43  77 109 126 151 200 250 297
#     4  10  19  33  52  75 102 134 171 212 256 303
#     4   9  18  29  49  74 100 132 163 197 250 305
#
# _framework density 17.952521000000001
#
# number of rings (size 3 to 8) (size 9 to 14) (size 15 to 20)
#    0.000    2.308    0.000    3.692    0.000    6.462 
#    0.000    5.769    0.000    1.385    0.000    0.000 
#    0.000    0.000    0.000    0.000    0.000    0.000 
#
# Total GULP energy -644484.374913 kJ/mol
# GULP energy per Si atom -12393.930287 kJ/mol
# Density = 1.791166 g / cm^3
# Si number density = 17.952521 Si / 1000 Ang^3
#
#
#
# Elastic Constant Matrix: (Units=GPa)
#
#
# Indices 1 2 3 4 5 6 
#
# 1 95.3689 42.4743 42.7678 0.0000 0.0000 0.0000
# 2 42.4743 95.3689 42.7678 0.0000 0.0000 0.0000
# 3 42.7678 42.7678 136.2796 0.0000 0.0000 0.0000
# 4 0.0000 0.0000 0.0000 7.4777 0.0000 0.0000
# 5 0.0000 0.0000 0.0000 0.0000 7.4777 0.0000
# 6 0.0000 0.0000 0.0000 0.0000 0.0000 26.4473
#
#
#
# Elastic Compliance Matrix: (Units=1/GPa)
#
#
# Indices 1 2 3 4 5 6 
#
# 1 0.013957 -0.004948 -0.002827 0.000000 0.000000 0.000000
# 2 -0.004948 0.013957 -0.002827 0.000000 0.000000 0.000000
# 3 -0.002827 -0.002827 0.009112 0.000000 0.000000 0.000000
# 4 0.000000 0.000000 0.000000 0.133731 0.000000 0.000000
# 5 0.000000 0.000000 0.000000 0.000000 0.133731 0.000000
# 6 0.000000 0.000000 0.000000 0.000000 0.000000 0.037811
#
#
# Mechanical properties :
#
#
# Convention : Reuss Voigt Hill
#
# Bulk Modulus (GPa) = 63.20549 64.78191 63.99370
# Shear Modulus (GPa) = 13.55825 21.54769 17.55297
#
# Velocity S-wave (km/s) = 2.75112 3.46824 3.13028
# Velocity P-wave (km/s) = 6.73610 7.22507 6.98487
#
# Compressibility (1/GPa) = 0.01582141
#
# Stress axis : x y z
#
# Youngs Moduli (GPa) = 71.64723 71.64723 109.74090
#
# Poissons Ratio (x) = 0.35453 0.31026
# Poissons Ratio (y) = 0.35453 0.31026
# Poissons Ratio (z) = 0.20256 0.20256
#
# Static dielectric constant tensor:
#      x y z
#    x 3.271730 0.000000 0.000000 
#    y 0.000000 3.271730 0.000000 
#    z 0.000000 0.000000 3.281070 
# 
# 
# High freq. dielectric constant tensor:
#      x y z
#    x 1.685040 0.000000 0.000000 
#    y 0.000000 1.685040 0.000000 
#    z 0.000000 0.000000 1.698150 
# 
# From -- ./inp_files/4188.got.cif
#   From: 2010.06.25/outbox.cif.g09.slc.cpg/sg190_3_cif.got.tgz:4188.got - 2010.06.28 13:08:06.
