data_PCOD8328678
_publ_section_title
;
Structure prediction by ZEFSAII (Michael W. Deem and Ramdas Pophale) SiO2 
 PCOD8328678
Probable space group: P 6/M M M
;
_chemical_formula_sum "Si O2"
_cell_formula_units_Z 168
_cell_length_a 17.885480
_cell_length_b 17.885480
_cell_length_c 35.748136
_cell_angle_alpha 90.000000
_cell_angle_beta 90.000000
_cell_angle_gamma 120.000000
_cell_volume 9903.420809
_symmetry_space_group_name_H-M "P 6/M M M"
_symmetry_group_IT_number 191
_symmetry_cell_setting 'hexagonal'
loop_
_space_group_symop_operation_xyz
x,y,z
x-y,x,z
-y,x-y,z
-x,-y,z
-x+y,-x,z
y,-x+y,z
x-y,-y,-z
-x,-x+y,-z
y,x,-z
-y,-x,-z
-x+y,y,-z
x,x-y,-z
-x,-y,-z
-x+y,-x,-z
y,-x+y,-z
x,y,-z
x-y,x,-z
-y,x-y,-z
-x+y,y,z
x,x-y,z
-y,-x,z
y,x,z
x-y,-y,z
-x,-x+y,z
loop_
_atom_site_type_symbol
_atom_site_label
_atom_site_fract_x
_atom_site_fract_y
_atom_site_fract_z
Si Si1 0.668485 0.159340 0.570865
Si Si2 0.261567 0.905675 0.850628
Si Si3 0.365617 0.898684 0.710850
Si Si4 0.331430 0.836135 0.209384
Si Si5 0.902440 0.640577 0.065107
Si Si6 0.101835 0.468919 0.000000
Si Si7 0.630925 0.900181 0.360258
Si Si8 0.900798 0.271855 0.500000
O O1 0.574083 0.148165 0.568989
O O2 0.739222 0.260779 0.571659
O O3 0.675615 0.110973 0.607202
O O4 0.683009 0.113342 0.535638
O O5 0.162317 0.837684 0.841752
O O6 0.323998 0.896872 0.821338
O O7 0.288761 0.894326 0.892548
O O8 0.272196 0.000000 0.846304
O O9 0.431416 0.862832 0.702110
O O10 0.313588 0.858378 0.749072
O O11 0.296934 0.873336 0.677858
O O12 0.420033 0.000000 0.716098
O O13 0.427239 0.854477 0.206202
O O14 0.263295 0.736705 0.200585
O O15 0.841292 0.682583 0.060081
O O16 0.868813 0.559340 0.037399
O O17 0.000000 0.714241 0.055335
O O18 0.145452 0.572726 0.000000
O O19 0.000000 0.426523 0.000000
O O20 0.667926 0.833963 0.366044
O O21 0.709411 0.000000 0.359667
O O22 0.832030 0.167971 0.500000
O O23 0.000000 0.290661 0.500000
#
# Coordination Sequence:
#
# PCOD8328678 Si02
#       8
#    24  24  24  24  24  12  24  12
#     4  10  20  33  50  73 101 131 160 190 226 271
#     4   9  18  31  47  67  90 117 149 186 227 270
#     4   9  17  29  46  68  92 118 150 187 224 266
#     4  10  19  30  44  64  92 124 156 188 223 264
#     4   9  17  30  48  69  92 118 149 184 223 268
#     4   9  17  28  43  64  88 114 146 183 217 250
#     4  10  20  33  49  69  93 122 156 194 235 276
#     4  10  21  35  51  72  97 127 162 200 241 281
#
# _framework density 16.963835
#
# number of rings (size 3 to 8) (size 9 to 14) (size 15 to 20)
#    0.000    2.500    0.000    2.429    0.000    3.429 
#    0.000    2.143    0.000    6.214    0.000    2.000 
#    0.000    5.143    0.000    4.714    0.000    3.429 
#
# Total GULP energy -2082551.223748 kJ/mol
# GULP energy per Si atom -12396.138237 kJ/mol
# Density = 1.692522 g / cm^3
# Si number density = 16.963835 Si / 1000 Ang^3
#
#
#
# Elastic Constant Matrix: (Units=GPa)
#
#
# Indices 1 2 3 4 5 6 
#
# 1 88.5182 54.4584 49.8153 0.0000 0.0000 0.0000
# 2 54.4584 88.5182 49.8153 0.0000 0.0000 0.0000
# 3 49.8153 49.8153 113.2077 0.0000 0.0000 0.0000
# 4 0.0000 0.0000 0.0000 21.8057 0.0000 0.0000
# 5 0.0000 0.0000 0.0000 0.0000 21.8057 0.0000
# 6 0.0000 0.0000 0.0000 0.0000 0.0000 17.0299
#
#
#
# Elastic Compliance Matrix: (Units=1/GPa)
#
#
# Indices 1 2 3 4 5 6 
#
# 1 0.019724 -0.009636 -0.004439 0.000000 0.000000 0.000000
# 2 -0.009636 0.019724 -0.004439 0.000000 0.000000 0.000000
# 3 -0.004439 -0.004439 0.012740 0.000000 0.000000 0.000000
# 4 0.000000 0.000000 0.000000 0.045859 0.000000 0.000000
# 5 0.000000 0.000000 0.000000 0.000000 0.045859 0.000000
# 6 0.000000 0.000000 0.000000 0.000000 0.000000 0.058720
#
#
# Mechanical properties :
#
#
# Convention : Reuss Voigt Hill
#
# Bulk Modulus (GPa) = 65.96641 66.49131 66.22886
# Shear Modulus (GPa) = 20.43260 21.20529 20.81895
#
# Velocity S-wave (km/s) = 3.47433 3.53941 3.50702
# Velocity P-wave (km/s) = 7.42061 7.48226 7.45150
#
# Compressibility (1/GPa) = 0.01515923
#
# Stress axis : x y z
#
# Youngs Moduli (GPa) = 50.70057 50.70057 78.49485
#
# Poissons Ratio (x) = 0.48857 0.34842
# Poissons Ratio (y) = 0.48857 0.34842
# Poissons Ratio (z) = 0.22504 0.22504
#
# Static dielectric constant tensor:
#      x y z
#    x 3.097280 0.000000 0.000000 
#    y 0.000000 3.097280 0.000000 
#    z 0.000000 0.000000 3.490250 
# 
# 
# High freq. dielectric constant tensor:
#      x y z
#    x 1.637080 0.000000 0.000000 
#    y 0.000000 1.637080 0.000000 
#    z 0.000000 0.000000 1.675060 
# 
# From -- ./inp_files/10771.got.cif
#   From: 2010.03.12/outbox.cif.g09.slc.cpg/sg191_6_cif.got.tgz:10771.got - 2010.04.01 12:09:02.
