data_PCOD8328078
_publ_section_title
;
Structure prediction by ZEFSAII (Michael W. Deem and Ramdas Pophale) SiO2 
 PCOD8328078
Probable space group: P -6 2 C
;
_chemical_formula_sum "Si O2"
_cell_formula_units_Z 52
_cell_length_a 14.266383
_cell_length_b 14.266383
_cell_length_c 14.889896
_cell_angle_alpha 90.000000
_cell_angle_beta 90.000000
_cell_angle_gamma 120.000000
_cell_volume 2624.521013
_symmetry_space_group_name_H-M "P -6 2 C"
_symmetry_group_IT_number 190
_symmetry_cell_setting 'hexagonal'
loop_
_space_group_symop_operation_xyz
x,y,z
-x+y,-x,1/2-z
-y,x-y,z
x,y,1/2-z
-x+y,-x,z
-y,x-y,1/2-z
x-y,-y,-z
-x,-x+y,-z
y,x,-z
y,x,1/2+z
x-y,-y,1/2+z
-x,-x+y,1/2+z
loop_
_atom_site_type_symbol
_atom_site_label
_atom_site_fract_x
_atom_site_fract_y
_atom_site_fract_z
Si Si1 0.235006 0.353912 0.644586
Si Si2 0.000000 0.000000 0.393863
Si Si3 0.310878 0.537249 0.994249
Si Si4 0.003058 0.211719 0.148549
Si Si5 0.764001 0.133936 0.855175
O O1 0.238111 0.379728 0.750000
O O2 0.301747 0.465803 0.591860
O O3 0.286885 0.278839 0.626000
O O4 0.112197 0.291810 0.602963
O O5 0.027416 0.114481 0.355328
O O6 0.000000 0.000000 0.500000
O O7 0.428640 0.646393 0.991081
O O8 0.305025 0.477588 0.087373
O O9 0.991142 0.238212 0.250000
O O10 0.110994 0.315464 0.109831
O O11 0.752989 0.153372 0.750000
#
# Coordination Sequence:
#
# PCOD8328078 Si02
#       5
#    12   4  12  12  12
#     4  10  21  39  66  95 125 159 196 245 306 374
#     4  12  22  26  52  96 127 176 190 225 304 380
#     4  10  25  45  61  79 116 166 206 266 304 332
#     4  10  20  36  58  88 129 164 192 238 305 381
#     4  10  21  39  66  95 125 159 196 245 306 374
#
# _framework density 19.813139
#
# number of rings (size 3 to 8) (size 9 to 14) (size 15 to 20)
#    0.462    1.385    2.308    1.385    3.231    1.846 
#    8.308    0.000    0.000    0.000    0.000    0.000 
#    0.000    0.000    0.000    0.000    0.000    0.000 
#
# Total GULP energy -644428.414779 kJ/mol
# GULP energy per Si atom -12392.854130 kJ/mol
# Density = 1.976804 g / cm^3
# Si number density = 19.813139 Si / 1000 Ang^3
#
#
#
# Elastic Constant Matrix: (Units=GPa)
#
#
# Indices 1 2 3 4 5 6 
#
# 1 88.1779 17.9058 46.9122 0.0000 0.0000 0.0000
# 2 17.9058 88.1779 46.9122 0.0000 0.0000 0.0000
# 3 46.9122 46.9122 86.8022 0.0000 0.0000 0.0000
# 4 0.0000 0.0000 0.0000 31.6722 0.0000 0.0000
# 5 0.0000 0.0000 0.0000 0.0000 31.6722 0.0000
# 6 0.0000 0.0000 0.0000 0.0000 0.0000 35.1360
#
#
#
# Elastic Compliance Matrix: (Units=1/GPa)
#
#
# Indices 1 2 3 4 5 6 
#
# 1 0.016144 0.001914 -0.009760 0.000000 0.000000 0.000000
# 2 0.001914 0.016144 -0.009760 0.000000 0.000000 0.000000
# 3 -0.009760 -0.009760 0.022070 0.000000 0.000000 0.000000
# 4 0.000000 0.000000 0.000000 0.031573 0.000000 0.000000
# 5 0.000000 0.000000 0.000000 0.000000 0.031573 0.000000
# 6 0.000000 0.000000 0.000000 0.000000 0.000000 0.028461
#
#
# Mechanical properties :
#
#
# Convention : Reuss Voigt Hill
#
# Bulk Modulus (GPa) = 52.22540 54.06871 53.14705
# Shear Modulus (GPa) = 26.65828 29.79126 28.22477
#
# Velocity S-wave (km/s) = 3.67206 3.88185 3.77841
# Velocity P-wave (km/s) = 6.66295 6.88769 6.77625
#
# Compressibility (1/GPa) = 0.01914777
#
# Stress axis : x y z
#
# Youngs Moduli (GPa) = 61.94122 61.94122 45.31124
#
# Poissons Ratio (x) = -0.11855 0.44222
# Poissons Ratio (y) = -0.11855 0.44222
# Poissons Ratio (z) = 0.60452 0.60452
#
# Static dielectric constant tensor:
#      x y z
#    x 3.509060 0.000000 0.000000 
#    y 0.000000 3.509060 0.000000 
#    z 0.000000 0.000000 3.503750 
# 
# 
# High freq. dielectric constant tensor:
#      x y z
#    x 1.761060 0.000000 0.000000 
#    y 0.000000 1.761060 0.000000 
#    z 0.000000 0.000000 1.774440 
# 
# From -- ./inp_files/2679.got.cif
#   From: 2010.06.25/outbox.cif.g09.slc.cpg/sg190_2_cif.got.tgz:2679.got - 2010.06.28 13:08:06.
