data_PCOD8328870
_publ_section_title
;
Structure prediction by ZEFSAII (Michael W. Deem and Ramdas Pophale) SiO2 
 PCOD8328870
Probable space group: P 6/M M M
;
_chemical_formula_sum "Si O2"
_cell_formula_units_Z 156
_cell_length_a 22.453806
_cell_length_b 22.453806
_cell_length_c 20.372201
_cell_angle_alpha 90.000000
_cell_angle_beta 90.000000
_cell_angle_gamma 120.000000
_cell_volume 8895.052511
_symmetry_space_group_name_H-M "P 6/M M M"
_symmetry_group_IT_number 191
_symmetry_cell_setting 'hexagonal'
loop_
_space_group_symop_operation_xyz
x,y,z
x-y,x,z
-y,x-y,z
-x,-y,z
-x+y,-x,z
y,-x+y,z
x-y,-y,-z
-x,-x+y,-z
y,x,-z
-y,-x,-z
-x+y,y,-z
x,x-y,-z
-x,-y,-z
-x+y,-x,-z
y,-x+y,-z
x,y,-z
x-y,x,-z
-y,x-y,-z
-x+y,y,z
x,x-y,z
-y,-x,z
y,x,z
x-y,-y,z
-x,-x+y,z
loop_
_atom_site_type_symbol
_atom_site_label
_atom_site_fract_x
_atom_site_fract_y
_atom_site_fract_z
Si Si1 0.467403 0.800988 0.772190
Si Si2 0.081334 0.470780 0.000000
Si Si3 0.209488 0.923394 0.178745
Si Si4 0.571470 0.853829 0.884202
Si Si5 0.666258 0.195457 0.621050
Si Si6 0.922148 0.314687 0.425954
Si Si7 0.209833 0.922692 0.671093
O O1 0.406978 0.813956 0.796053
O O2 0.440780 0.720390 0.780665
O O3 0.533609 0.847216 0.815815
O O4 0.487623 0.822921 0.697315
O O5 0.114621 0.457147 0.063198
O O6 0.099549 0.549775 0.000000
O O7 0.000000 0.419729 0.000000
O O8 0.128544 0.871457 0.166930
O O9 0.253935 0.905531 0.129237
O O10 0.229518 0.917430 0.253720
O O11 0.224834 0.000000 0.162983
O O12 0.559462 0.779731 0.908140
O O13 0.604839 0.209678 0.603086
O O14 0.737463 0.262537 0.600943
O O15 0.655712 0.129391 0.581060
O O16 0.917235 0.287166 0.500000
O O17 0.899637 0.252020 0.375697
O O18 0.000000 0.375089 0.410581
O O19 0.128770 0.871231 0.659073
O O20 0.226887 0.000000 0.654340
#
# Coordination Sequence:
#
# PCOD8328870 Si02
#       7
#    24  12  24  24  24  24  24
#     4   9  17  30  49  71  94 120 153 193 235 277
#     4  11  23  36  48  64  94 133 163 189 228 278
#     4   9  17  30  50  74  98 124 155 193 235 279
#     4  10  19  32  51  72  93 120 157 200 239 274
#     4  10  20  34  52  73  96 122 152 188 232 284
#     4  10  21  35  50  68  91 122 159 199 242 283
#     4   9  17  30  49  73  99 126 158 196 238 283
#
# _framework density 17.537839000000002
#
# number of rings (size 3 to 8) (size 9 to 14) (size 15 to 20)
#    0.000    2.385    0.000    2.846    0.000    5.538 
#    0.000    1.538    0.000    5.231    0.000    2.154 
#    0.000    0.000    0.000    3.846    0.000   20.000 
#
# Total GULP energy -1934306.735918 kJ/mol
# GULP energy per Si atom -12399.402153 kJ/mol
# Density = 1.749792 g / cm^3
# Si number density = 17.537839 Si / 1000 Ang^3
#
#
#
# Elastic Constant Matrix: (Units=GPa)
#
#
# Indices 1 2 3 4 5 6 
#
# 1 111.0032 61.5930 38.1198 0.0000 0.0000 0.0000
# 2 61.5930 111.0032 38.1198 0.0000 0.0000 0.0000
# 3 38.1198 38.1198 59.3441 0.0000 0.0000 0.0000
# 4 0.0000 0.0000 0.0000 21.0667 0.0000 0.0000
# 5 0.0000 0.0000 0.0000 0.0000 21.0667 0.0000
# 6 0.0000 0.0000 0.0000 0.0000 0.0000 24.7051
#
#
#
# Elastic Compliance Matrix: (Units=1/GPa)
#
#
# Indices 1 2 3 4 5 6 
#
# 1 0.014164 -0.006075 -0.005196 0.000000 0.000000 0.000000
# 2 -0.006075 0.014164 -0.005196 0.000000 0.000000 0.000000
# 3 -0.005196 -0.005196 0.023526 0.000000 0.000000 0.000000
# 4 0.000000 0.000000 0.000000 0.047468 0.000000 0.000000
# 5 0.000000 0.000000 0.000000 0.000000 0.047468 0.000000
# 6 0.000000 0.000000 0.000000 0.000000 0.000000 0.040478
#
#
# Mechanical properties :
#
#
# Convention : Reuss Voigt Hill
#
# Bulk Modulus (GPa) = 52.85338 61.89062 57.37200
# Shear Modulus (GPa) = 22.07419 22.93554 22.50486
#
# Velocity S-wave (km/s) = 3.55161 3.62024 3.58609
# Velocity P-wave (km/s) = 6.85717 7.26920 7.06619
#
# Compressibility (1/GPa) = 0.01892027
#
# Stress axis : x y z
#
# Youngs Moduli (GPa) = 70.60195 70.60195 42.50571
#
# Poissons Ratio (x) = 0.42890 0.22086
# Poissons Ratio (y) = 0.42890 0.22086
# Poissons Ratio (z) = 0.36685 0.36685
#
# Static dielectric constant tensor:
#      x y z
#    x 3.229600 0.000000 0.000000 
#    y 0.000000 3.229600 0.000000 
#    z 0.000000 0.000000 3.240510 
# 
# 
# High freq. dielectric constant tensor:
#      x y z
#    x 1.671360 0.000000 0.000000 
#    y 0.000000 1.671360 0.000000 
#    z 0.000000 0.000000 1.673690 
# 
# From -- ./inp_files/7728.got.cif
#   From: 2010.03.12/outbox.cif.g09.slc.cpg/sg191_4_cif.got.tgz:7728.got - 2010.04.01 12:09:02.
