data_PCOD8328892
_publ_section_title
;
Structure prediction by ZEFSAII (Michael W. Deem and Ramdas Pophale) SiO2 
 PCOD8328892
Probable space group: P 6/M M M
;
_chemical_formula_sum "Si O2"
_cell_formula_units_Z 132
_cell_length_a 17.100544
_cell_length_b 17.100544
_cell_length_c 29.657635
_cell_angle_alpha 90.000000
_cell_angle_beta 90.000000
_cell_angle_gamma 120.000000
_cell_volume 7510.813882
_symmetry_space_group_name_H-M "P 6/M M M"
_symmetry_group_IT_number 191
_symmetry_cell_setting 'hexagonal'
loop_
_space_group_symop_operation_xyz
x,y,z
x-y,x,z
-y,x-y,z
-x,-y,z
-x+y,-x,z
y,-x+y,z
x-y,-y,-z
-x,-x+y,-z
y,x,-z
-y,-x,-z
-x+y,y,-z
x,x-y,-z
-x,-y,-z
-x+y,-x,-z
y,-x+y,-z
x,y,-z
x-y,x,-z
-y,x-y,-z
-x+y,y,z
x,x-y,z
-y,-x,z
y,x,z
x-y,-y,z
-x,-x+y,z
loop_
_atom_site_type_symbol
_atom_site_label
_atom_site_fract_x
_atom_site_fract_y
_atom_site_fract_z
Si Si1 0.532958 0.638336 0.804971
Si Si2 0.487947 0.154595 0.635468
Si Si3 0.369979 0.099933 0.720012
Si Si4 0.274243 0.374302 0.449421
Si Si5 0.893616 0.446808 0.050263
Si Si6 0.605742 0.892335 0.898850
O O1 0.424312 0.575689 0.811760
O O2 0.571953 0.571953 0.800951
O O3 0.553014 0.693702 0.758578
O O4 0.580368 0.705899 0.846389
O O5 0.570106 0.140212 0.646839
O O6 0.519765 0.259883 0.638668
O O7 0.411876 0.097677 0.672094
O O8 0.452724 0.117088 0.585469
O O9 0.324509 0.162255 0.716949
O O10 0.291186 0.000000 0.732569
O O11 0.301089 0.415006 0.500000
O O12 0.168809 0.337618 0.439514
O O13 0.289505 0.289505 0.443442
O O14 0.864426 0.512122 0.075186
O O15 0.000000 0.500000 0.047933
O O16 0.851484 0.425742 0.000000
O O17 0.638733 0.819367 0.912510
O O18 0.682338 0.000000 0.907729
#
# Coordination Sequence:
#
# PCOD8328892 Si02
#       6
#    24  24  24  24  12  24
#     4   9  16  29  49  71  96 127 163 202 245 292
#     4  10  20  33  48  68  94 122 152 187 229 276
#     4  10  20  32  48  70  95 125 159 197 240 286
#     4   9  18  32  49  68  90 118 152 189 229 273
#     4   9  18  34  54  74 100 134 170 212 259 305
#     4  10  19  33  53  76 104 139 177 216 258 306
#
# _framework density 17.574659
#
# number of rings (size 3 to 8) (size 9 to 14) (size 15 to 20)
#    0.000    2.455    0.909    1.818    0.000    2.909 
#    0.545    0.909    0.000    3.091    0.000    1.273 
#    0.000    8.727    0.000    4.727    0.000    0.727 
#
# Total GULP energy -1635561.943828 kJ/mol
# GULP energy per Si atom -12390.620787 kJ/mol
# Density = 1.753466 g / cm^3
# Si number density = 17.574659 Si / 1000 Ang^3
#
#
#
# Elastic Constant Matrix: (Units=GPa)
#
#
# Indices 1 2 3 4 5 6 
#
# 1 81.9705 55.4894 21.6756 0.0000 0.0000 0.0000
# 2 55.4894 81.9705 21.6756 0.0000 0.0000 0.0000
# 3 21.6756 21.6756 96.3129 0.0000 0.0000 0.0000
# 4 0.0000 0.0000 0.0000 16.1974 0.0000 0.0000
# 5 0.0000 0.0000 0.0000 0.0000 16.1974 0.0000
# 6 0.0000 0.0000 0.0000 0.0000 0.0000 13.2406
#
#
#
# Elastic Compliance Matrix: (Units=1/GPa)
#
#
# Indices 1 2 3 4 5 6 
#
# 1 0.022797 -0.014966 -0.001762 0.000000 0.000000 0.000000
# 2 -0.014966 0.022797 -0.001762 0.000000 0.000000 0.000000
# 3 -0.001762 -0.001762 0.011176 0.000000 0.000000 0.000000
# 4 0.000000 0.000000 0.000000 0.061738 0.000000 0.000000
# 5 0.000000 0.000000 0.000000 0.000000 0.061738 0.000000
# 6 0.000000 0.000000 0.000000 0.000000 0.000000 0.075525
#
#
# Mechanical properties :
#
#
# Convention : Reuss Voigt Hill
#
# Bulk Modulus (GPa) = 50.53552 50.88169 50.70861
# Shear Modulus (GPa) = 16.70290 19.88794 18.29542
#
# Velocity S-wave (km/s) = 3.08619 3.36761 3.22997
# Velocity P-wave (km/s) = 6.44334 6.64347 6.54417
#
# Compressibility (1/GPa) = 0.01978806
#
# Stress axis : x y z
#
# Youngs Moduli (GPa) = 43.86601 43.86601 89.47694
#
# Poissons Ratio (x) = 0.65650 0.15769
# Poissons Ratio (y) = 0.65650 0.15769
# Poissons Ratio (z) = 0.07731 0.07731
#
# Static dielectric constant tensor:
#      x y z
#    x 3.191190 0.000000 0.000000 
#    y 0.000000 3.191190 0.000000 
#    z 0.000000 0.000000 3.565970 
# 
# 
# High freq. dielectric constant tensor:
#      x y z
#    x 1.656220 0.000000 0.000000 
#    y 0.000000 1.656220 0.000000 
#    z 0.000000 0.000000 1.694980 
# 
# From -- ./inp_files/10508.got.cif
#   From: 2010.03.12/outbox.cif.g09.slc.cpg/sg191_6_cif.got.tgz:10508.got - 2010.04.01 12:09:02.
