data_PCOD8328450
_publ_section_title
;
Structure prediction by ZEFSAII (Michael W. Deem and Ramdas Pophale) SiO2 
 PCOD8328450
Probable space group: P 6/M M M
;
_chemical_formula_sum "Si O2"
_cell_formula_units_Z 180
_cell_length_a 21.687793
_cell_length_b 21.687793
_cell_length_c 31.067345
_cell_angle_alpha 90.000000
_cell_angle_beta 90.000000
_cell_angle_gamma 120.000000
_cell_volume 12655.097365
_symmetry_space_group_name_H-M "P 6/M M M"
_symmetry_group_IT_number 191
_symmetry_cell_setting 'hexagonal'
loop_
_space_group_symop_operation_xyz
x,y,z
x-y,x,z
-y,x-y,z
-x,-y,z
-x+y,-x,z
y,-x+y,z
x-y,-y,-z
-x,-x+y,-z
y,x,-z
-y,-x,-z
-x+y,y,-z
x,x-y,-z
-x,-y,-z
-x+y,-x,-z
y,-x+y,-z
x,y,-z
x-y,x,-z
-y,x-y,-z
-x+y,y,z
x,x-y,z
-y,-x,z
y,x,z
x-y,-y,z
-x,-x+y,z
loop_
_atom_site_type_symbol
_atom_site_label
_atom_site_fract_x
_atom_site_fract_y
_atom_site_fract_z
Si Si1 0.807982 0.474615 0.169241
Si Si2 0.917514 0.530251 0.757833
Si Si3 0.920233 0.387233 0.000000
Si Si4 0.290480 0.077953 0.369259
Si Si5 0.333067 0.523518 0.070506
Si Si6 0.147979 0.710437 0.323047
Si Si7 0.388966 0.470952 0.399159
Si Si8 0.119445 0.740550 0.548323
O O1 0.742371 0.484742 0.183885
O O2 0.783336 0.391668 0.175168
O O3 0.877792 0.523909 0.197328
O O4 0.829443 0.498416 0.120070
O O5 0.910653 0.455327 0.744371
O O6 0.879365 0.553150 0.722627
O O7 0.000000 0.590283 0.762947
O O8 0.876700 0.343926 0.042287
O O9 0.927960 0.463980 0.000000
O O10 0.000000 0.397694 0.000000
O O11 0.255756 0.127878 0.366246
O O12 0.355286 0.104327 0.336265
O O13 0.315501 0.076534 0.418013
O O14 0.229598 0.000000 0.355880
O O15 0.260088 0.520176 0.056857
O O16 0.396441 0.603560 0.061783
O O17 0.232303 0.767698 0.320961
O O18 0.132744 0.650598 0.358619
O O19 0.453963 0.546038 0.413119
O O20 0.415637 0.415637 0.386174
O O21 0.337510 0.443306 0.440455
O O22 0.092183 0.740605 0.500000
O O23 0.203549 0.796452 0.552889
#
# Coordination Sequence:
#
# PCOD8328450 Si02
#       8
#    24  24  12  24  24  24  24  24
#     4   9  17  28  41  57  77 101 129 161 196 233
#     4  10  19  29  42  59  79 103 128 156 192 234
#     4   9  17  26  36  52  74  99 124 156 200 244
#     4   9  17  28  43  62  81 101 123 149 181 215
#     4   9  16  26  40  56  74  97 128 165 201 236
#     4  10  18  29  45  60  76  99 127 159 191 222
#     4  10  19  29  43  62  82 103 125 154 193 233
#     4   9  17  29  44  60  79 103 129 157 187 218
#
# _framework density 14.223516999999999
#
# number of rings (size 3 to 8) (size 9 to 14) (size 15 to 20)
#    0.000    2.600    0.000    4.867    0.000    4.000 
#    0.000    4.000    0.000    5.733    0.000    0.000 
#    0.000    0.000    0.000    3.333    0.000    0.000 
#
# Total GULP energy -2231503.985734 kJ/mol
# GULP energy per Si atom -12397.244365 kJ/mol
# Density = 1.419114 g / cm^3
# Si number density = 14.223517 Si / 1000 Ang^3
#
#
#
# Elastic Constant Matrix: (Units=GPa)
#
#
# Indices 1 2 3 4 5 6 
#
# 1 77.1395 36.9719 30.8063 0.0000 0.0000 0.0000
# 2 36.9719 77.1395 30.8063 0.0000 0.0000 0.0000
# 3 30.8063 30.8063 77.0807 0.0000 0.0000 0.0000
# 4 0.0000 0.0000 0.0000 15.9659 0.0000 0.0000
# 5 0.0000 0.0000 0.0000 0.0000 15.9659 0.0000
# 6 0.0000 0.0000 0.0000 0.0000 0.0000 20.0838
#
#
#
# Elastic Compliance Matrix: (Units=1/GPa)
#
#
# Indices 1 2 3 4 5 6 
#
# 1 0.018035 -0.006860 -0.004466 0.000000 0.000000 0.000000
# 2 -0.006860 0.018035 -0.004466 0.000000 0.000000 0.000000
# 3 -0.004466 -0.004466 0.016543 0.000000 0.000000 0.000000
# 4 0.000000 0.000000 0.000000 0.062633 0.000000 0.000000
# 5 0.000000 0.000000 0.000000 0.000000 0.062633 0.000000
# 6 0.000000 0.000000 0.000000 0.000000 0.000000 0.049791
#
#
# Mechanical properties :
#
#
# Convention : Reuss Voigt Hill
#
# Bulk Modulus (GPa) = 47.55493 47.61428 47.58460
# Shear Modulus (GPa) = 18.77817 19.25483 19.01650
#
# Velocity S-wave (km/s) = 3.63743 3.68330 3.66044
# Velocity P-wave (km/s) = 7.15177 7.18591 7.16886
#
# Compressibility (1/GPa) = 0.02102832
#
# Stress axis : x y z
#
# Youngs Moduli (GPa) = 55.44706 55.44706 60.44742
#
# Poissons Ratio (x) = 0.38039 0.26997
# Poissons Ratio (y) = 0.38039 0.26997
# Poissons Ratio (z) = 0.24763 0.24763
#
# Static dielectric constant tensor:
#      x y z
#    x 2.747190 0.000000 0.000000 
#    y 0.000000 2.747190 0.000000 
#    z 0.000000 0.000000 2.834170 
# 
# 
# High freq. dielectric constant tensor:
#      x y z
#    x 1.525950 0.000000 0.000000 
#    y 0.000000 1.525950 0.000000 
#    z 0.000000 0.000000 1.544980 
# 
# From -- ./inp_files/10849.got.cif
#   From: 2010.03.12/outbox.cif.g09.slc.cpg/sg191_6_cif.got.tgz:10849.got - 2010.04.01 12:09:02.
