data_PCOD8328877
_publ_section_title
;
Structure prediction by ZEFSAII (Michael W. Deem and Ramdas Pophale) SiO2 
 PCOD8328877
Probable space group: P 6/M M M
;
_chemical_formula_sum "Si O2"
_cell_formula_units_Z 150
_cell_length_a 17.478915
_cell_length_b 17.478915
_cell_length_c 32.489478
_cell_angle_alpha 90.000000
_cell_angle_beta 90.000000
_cell_angle_gamma 120.000000
_cell_volume 8596.116767
_symmetry_space_group_name_H-M "P 6/M M M"
_symmetry_group_IT_number 191
_symmetry_cell_setting 'hexagonal'
loop_
_space_group_symop_operation_xyz
x,y,z
x-y,x,z
-y,x-y,z
-x,-y,z
-x+y,-x,z
y,-x+y,z
x-y,-y,-z
-x,-x+y,-z
y,x,-z
-y,-x,-z
-x+y,y,-z
x,x-y,-z
-x,-y,-z
-x+y,-x,-z
y,-x+y,-z
x,y,-z
x-y,x,-z
-y,x-y,-z
-x+y,y,z
x,x-y,z
-y,-x,z
y,x,z
x-y,-y,z
-x,-x+y,z
loop_
_atom_site_type_symbol
_atom_site_label
_atom_site_fract_x
_atom_site_fract_y
_atom_site_fract_z
Si Si1 0.629874 0.901588 0.732844
Si Si2 0.510752 0.668213 0.500000
Si Si3 0.492267 0.331572 0.192053
Si Si4 0.213498 0.106749 0.000000
Si Si5 0.331861 0.841843 0.344392
Si Si6 0.193663 0.806338 0.954672
Si Si7 0.895968 0.533742 0.898639
Si Si8 0.902052 0.270954 0.422023
O O1 0.665943 0.832972 0.728762
O O2 0.587884 0.896618 0.777318
O O3 0.555023 0.880845 0.699201
O O4 0.712372 0.000000 0.726741
O O5 0.428577 0.571424 0.500000
O O6 0.477025 0.738513 0.500000
O O7 0.567109 0.678778 0.540271
O O8 0.529012 0.264506 0.199694
O O9 0.569306 0.430695 0.200355
O O10 0.455354 0.319028 0.145991
O O11 0.151663 0.151663 0.000000
O O12 0.279298 0.139649 0.040204
O O13 0.429128 0.858255 0.350286
O O14 0.262507 0.737494 0.346689
O O15 0.312923 0.892696 0.380061
O O16 0.285996 0.864298 0.932077
O O17 0.215426 0.784575 0.000000
O O18 0.859070 0.429535 0.908209
O O19 0.000000 0.584141 0.899458
O O20 0.833595 0.166406 0.424064
O O21 0.000000 0.284454 0.424097
#
# Coordination Sequence:
#
# PCOD8328877 Si02
#       8
#    24  12  24   6  24  12  24  24
#     4  10  21  35  52  75 102 133 170 212 259 307
#     4  10  20  33  50  73 102 136 173 210 248 297
#     4  10  19  32  51  77 106 139 171 207 244 291
#     4  10  21  38  62  86 110 138 174 224 277 334
#     4  10  20  33  50  74 106 141 173 206 246 296
#     4  10  22  37  54  80 106 140 172 215 260 307
#     4  10  20  35  55  77 104 139 176 213 252 299
#     4  10  21  35  51  72  98 131 170 214 264 310
#
# _framework density 17.449739999999998
#
# number of rings (size 3 to 8) (size 9 to 14) (size 15 to 20)
#    0.240    1.760    0.800    3.080    0.000    4.480 
#    0.480    4.000    0.000    0.320    0.000    0.000 
#    0.000    5.760    0.000    0.000    0.000    0.640 
#
# Total GULP energy -1859917.811634 kJ/mol
# GULP energy per Si atom -12399.452078 kJ/mol
# Density = 1.741002 g / cm^3
# Si number density = 17.449740 Si / 1000 Ang^3
#
#
#
# Elastic Constant Matrix: (Units=GPa)
#
#
# Indices 1 2 3 4 5 6 
#
# 1 105.6231 64.4707 33.4799 0.0000 0.0000 0.0000
# 2 64.4707 105.6231 33.4799 0.0000 0.0000 0.0000
# 3 33.4799 33.4799 87.0039 0.0000 0.0000 0.0000
# 4 0.0000 0.0000 0.0000 47.1833 0.0000 0.0000
# 5 0.0000 0.0000 0.0000 0.0000 47.1833 0.0000
# 6 0.0000 0.0000 0.0000 0.0000 0.0000 20.5762
#
#
#
# Elastic Compliance Matrix: (Units=1/GPa)
#
#
# Indices 1 2 3 4 5 6 
#
# 1 0.015614 -0.008686 -0.002666 0.000000 0.000000 0.000000
# 2 -0.008686 0.015614 -0.002666 0.000000 0.000000 0.000000
# 3 -0.002666 -0.002666 0.013546 0.000000 0.000000 0.000000
# 4 0.000000 0.000000 0.000000 0.021194 0.000000 0.000000
# 5 0.000000 0.000000 0.000000 0.000000 0.021194 0.000000
# 6 0.000000 0.000000 0.000000 0.000000 0.000000 0.048600
#
#
# Mechanical properties :
#
#
# Convention : Reuss Voigt Hill
#
# Bulk Modulus (GPa) = 59.74352 62.34566 61.04459
# Shear Modulus (GPa) = 29.51985 34.10987 31.81486
#
# Velocity S-wave (km/s) = 4.11750 4.42605 4.27456
# Velocity P-wave (km/s) = 7.54433 7.86932 7.70854
#
# Compressibility (1/GPa) = 0.01673822
#
# Stress axis : x y z
#
# Youngs Moduli (GPa) = 64.04382 64.04382 73.82407
#
# Poissons Ratio (x) = 0.55626 0.19683
# Poissons Ratio (y) = 0.55626 0.19683
# Poissons Ratio (z) = 0.17076 0.17076
#
# Static dielectric constant tensor:
#      x y z
#    x 3.183360 0.000000 0.000000 
#    y 0.000000 3.183360 0.000000 
#    z 0.000000 0.000000 3.458440 
# 
# 
# High freq. dielectric constant tensor:
#      x y z
#    x 1.664030 0.000000 0.000000 
#    y 0.000000 1.664030 0.000000 
#    z 0.000000 0.000000 1.689020 
# 
# From -- ./inp_files/10724.got.cif
#   From: 2010.03.12/outbox.cif.g09.slc.cpg/sg191_6_cif.got.tgz:10724.got - 2010.04.01 12:09:02.
