data_PCOD8328100
_publ_section_title
;
Structure prediction by ZEFSAII (Michael W. Deem and Ramdas Pophale) SiO2 
 PCOD8328100
Probable space group: P -6 2 C
;
_chemical_formula_sum "Si O2"
_cell_formula_units_Z 70
_cell_length_a 15.747319
_cell_length_b 15.747319
_cell_length_c 16.544710
_cell_angle_alpha 90.000000
_cell_angle_beta 90.000000
_cell_angle_gamma 120.000000
_cell_volume 3553.064090
_symmetry_space_group_name_H-M "P -6 2 C"
_symmetry_group_IT_number 190
_symmetry_cell_setting 'hexagonal'
loop_
_space_group_symop_operation_xyz
x,y,z
-x+y,-x,1/2-z
-y,x-y,z
x,y,1/2-z
-x+y,-x,z
-y,x-y,1/2-z
x-y,-y,-z
-x,-x+y,-z
y,x,-z
y,x,1/2+z
x-y,-y,1/2+z
-x,-x+y,1/2+z
loop_
_atom_site_type_symbol
_atom_site_label
_atom_site_fract_x
_atom_site_fract_y
_atom_site_fract_z
Si Si1 0.977400 0.176657 0.157561
Si Si2 0.888450 0.378301 0.525353
Si Si3 0.831922 0.209860 0.844502
Si Si4 0.000000 0.000000 0.405553
Si Si5 0.222334 0.812681 0.900046
Si Si6 0.104705 0.673270 0.034131
Si Si7 0.258909 0.718267 0.750000
O O1 0.946477 0.155539 0.250000
O O2 0.906531 0.210900 0.117813
O O3 0.088123 0.263957 0.145838
O O4 0.966872 0.076930 0.122548
O O5 0.864037 0.308248 0.603716
O O6 0.836525 0.322484 0.443608
O O7 0.846132 0.451055 0.544268
O O8 0.000000 0.429463 0.500000
O O9 0.818910 0.228296 0.750000
O O10 0.729748 0.120605 0.880271
O O11 0.000000 0.000000 0.500000
O O12 0.213689 0.746514 0.824336
O O13 0.139415 0.752245 0.964023
O O14 0.000000 0.598682 0.000000
O O15 0.379079 0.777795 0.750000
#
# Coordination Sequence:
#
# PCOD8328100 Si02
#       7
#    12  12  12   4  12  12   6
#     4  11  24  44  67  95 133 176 218 273 329 395
#     4  10  20  40  64  88 124 166 216 265 327 397
#     4  10  23  42  67  96 128 175 221 276 328 405
#     4  12  31  41  70 102 133 173 220 273 325 398
#     4  11  21  39  67  93 126 174 217 266 337 400
#     4  10  24  40  62  92 129 170 215 275 331 399
#     4  10  22  38  62  98 134 158 214 278 332 396
#
# _framework density 19.701304
#
# number of rings (size 3 to 8) (size 9 to 14) (size 15 to 20)
#    0.171    1.371    2.571    1.543    7.200    0.686 
#    9.771    0.000    0.000    0.000    0.000    0.000 
#    0.000    0.000    0.000    0.000    0.000    0.000 
#
# Total GULP energy -867224.605453 kJ/mol
# GULP energy per Si atom -12388.922935 kJ/mol
# Density = 1.965646 g / cm^3
# Si number density = 19.701304 Si / 1000 Ang^3
#
#
#
# Elastic Constant Matrix: (Units=GPa)
#
#
# Indices 1 2 3 4 5 6 
#
# 1 78.4435 23.7029 35.9714 0.0000 0.0000 0.0000
# 2 23.7029 78.4435 35.9714 0.0000 0.0000 0.0000
# 3 35.9714 35.9714 139.3142 0.0000 0.0000 0.0000
# 4 0.0000 0.0000 0.0000 42.0340 0.0000 0.0000
# 5 0.0000 0.0000 0.0000 0.0000 42.0340 0.0000
# 6 0.0000 0.0000 0.0000 0.0000 0.0000 27.3703
#
#
#
# Elastic Compliance Matrix: (Units=1/GPa)
#
#
# Indices 1 2 3 4 5 6 
#
# 1 0.015117 -0.003151 -0.003090 0.000000 0.000000 0.000000
# 2 -0.003151 0.015117 -0.003090 0.000000 0.000000 0.000000
# 3 -0.003090 -0.003090 0.008774 0.000000 0.000000 0.000000
# 4 0.000000 0.000000 0.000000 0.023790 0.000000 0.000000
# 5 0.000000 0.000000 0.000000 0.000000 0.023790 0.000000
# 6 0.000000 0.000000 0.000000 0.000000 0.000000 0.036536
#
#
# Mechanical properties :
#
#
# Convention : Reuss Voigt Hill
#
# Bulk Modulus (GPa) = 49.14768 54.16582 51.65675
# Shear Modulus (GPa) = 33.65488 35.65801 34.65644
#
# Velocity S-wave (km/s) = 4.13759 4.25894 4.19871
# Velocity P-wave (km/s) = 6.91569 7.19291 7.05566
#
# Compressibility (1/GPa) = 0.02034684
#
# Stress axis : x y z
#
# Youngs Moduli (GPa) = 66.15085 66.15085 113.97911
#
# Poissons Ratio (x) = 0.20844 0.35216
# Poissons Ratio (y) = 0.20844 0.35216
# Poissons Ratio (z) = 0.20438 0.20438
#
# Static dielectric constant tensor:
#      x y z
#    x 3.498360 0.000000 0.000000 
#    y 0.000000 3.498360 0.000000 
#    z 0.000000 0.000000 3.732260 
# 
# 
# High freq. dielectric constant tensor:
#      x y z
#    x 1.770000 0.000000 0.000000 
#    y 0.000000 1.770000 0.000000 
#    z 0.000000 0.000000 1.777820 
# 
# From -- ./inp_files/3782.got.cif
#   From: 2010.06.25/outbox.cif.g09.slc.cpg/sg190_2_cif.got.tgz:3782.got - 2010.06.28 13:08:06.
