data_PCOD8328387
_publ_section_title
;
Structure prediction by ZEFSAII (Michael W. Deem and Ramdas Pophale) SiO2 
 PCOD8328387
Probable space group: P 6/M M M
;
_chemical_formula_sum "Si O2"
_cell_formula_units_Z 180
_cell_length_a 22.078986
_cell_length_b 22.078986
_cell_length_c 28.147622
_cell_angle_alpha 90.000000
_cell_angle_beta 90.000000
_cell_angle_gamma 120.000000
_cell_volume 11883.122935
_symmetry_space_group_name_H-M "P 6/M M M"
_symmetry_group_IT_number 191
_symmetry_cell_setting 'hexagonal'
loop_
_space_group_symop_operation_xyz
x,y,z
x-y,x,z
-y,x-y,z
-x,-y,z
-x+y,-x,z
y,-x+y,z
x-y,-y,-z
-x,-x+y,-z
y,x,-z
-y,-x,-z
-x+y,y,-z
x,x-y,-z
-x,-y,-z
-x+y,-x,-z
y,-x+y,-z
x,y,-z
x-y,x,-z
-y,x-y,-z
-x+y,y,z
x,x-y,z
-y,-x,z
y,x,z
x-y,-y,z
-x,-x+y,z
loop_
_atom_site_type_symbol
_atom_site_label
_atom_site_fract_x
_atom_site_fract_y
_atom_site_fract_z
Si Si1 0.297560 0.217863 0.896494
Si Si2 0.302579 0.382307 0.363185
Si Si3 0.527648 0.193910 0.332755
Si Si4 0.076028 0.283949 0.000000
Si Si5 0.786368 0.708306 0.554253
Si Si6 0.079792 0.383338 0.811457
Si Si7 0.295372 0.215477 0.724439
Si Si8 0.806037 0.472305 0.778940
O O1 0.271049 0.135525 0.887573
O O2 0.233821 0.233821 0.887120
O O3 0.361716 0.265475 0.862226
O O4 0.327194 0.239807 0.950888
O O5 0.365168 0.365168 0.359274
O O6 0.335957 0.465156 0.360055
O O7 0.263049 0.357788 0.413326
O O8 0.247151 0.344139 0.321339
O O9 0.599577 0.199153 0.349100
O O10 0.530342 0.265171 0.347650
O O11 0.515707 0.180561 0.276903
O O12 0.125208 0.250415 0.000000
O O13 0.000000 0.216558 0.000000
O O14 0.767419 0.682827 0.500000
O O15 0.867780 0.735560 0.565015
O O16 0.772318 0.772318 0.565233
O O17 0.096166 0.342752 0.770860
O O18 0.128712 0.465970 0.806259
O O19 0.000000 0.365912 0.807780
O O20 0.263580 0.131790 0.724323
O O21 0.231664 0.231664 0.723931
O O22 0.735486 0.470972 0.793959
O O23 0.799434 0.399717 0.795073
#
# Coordination Sequence:
#
# PCOD8328387 Si02
#       8
#    24  24  24  12  24  24  24  24
#     4   9  16  26  41  60  83 110 142 178 217 258
#     4  10  19  30  46  67  88 112 142 178 217 254
#     4  10  19  30  45  64  89 119 148 176 207 251
#     4   8  14  24  38  57  79 105 137 175 215 255
#     4   9  17  29  46  67  89 113 143 180 220 260
#     4  10  19  29  43  64  87 113 141 174 213 252
#     4  10  18  28  42  61  85 111 140 172 209 251
#     4  10  19  30  44  62  88 119 148 174 205 251
#
# _framework density 15.147534
#
# number of rings (size 3 to 8) (size 9 to 14) (size 15 to 20)
#    0.000    2.400    1.333    2.667    0.000    1.600 
#    0.000    1.333    0.000    0.867    0.000    5.133 
#    0.000   10.133    0.000    1.600    0.000    1.200 
#
# Total GULP energy -2231301.266769 kJ/mol
# GULP energy per Si atom -12396.118149 kJ/mol
# Density = 1.511306 g / cm^3
# Si number density = 15.147534 Si / 1000 Ang^3
#
#
#
# Elastic Constant Matrix: (Units=GPa)
#
#
# Indices 1 2 3 4 5 6 
#
# 1 105.9325 69.8313 38.1148 0.0000 0.0000 0.0000
# 2 69.8313 105.9325 38.1148 0.0000 0.0000 0.0000
# 3 38.1148 38.1148 75.0176 0.0000 0.0000 0.0000
# 4 0.0000 0.0000 0.0000 17.3110 0.0000 0.0000
# 5 0.0000 0.0000 0.0000 0.0000 17.3110 0.0000
# 6 0.0000 0.0000 0.0000 0.0000 0.0000 18.0506
#
#
#
# Elastic Compliance Matrix: (Units=1/GPa)
#
#
# Indices 1 2 3 4 5 6 
#
# 1 0.017499 -0.010201 -0.003708 0.000000 0.000000 0.000000
# 2 -0.010201 0.017499 -0.003708 0.000000 0.000000 0.000000
# 3 -0.003708 -0.003708 0.017098 0.000000 0.000000 0.000000
# 4 0.000000 0.000000 0.000000 0.057767 0.000000 0.000000
# 5 0.000000 0.000000 0.000000 0.000000 0.057767 0.000000
# 6 0.000000 0.000000 0.000000 0.000000 0.000000 0.055400
#
#
# Mechanical properties :
#
#
# Convention : Reuss Voigt Hill
#
# Bulk Modulus (GPa) = 59.30494 64.33384 61.81939
# Shear Modulus (GPa) = 18.94785 19.92265 19.43525
#
# Velocity S-wave (km/s) = 3.54063 3.63056 3.58587
# Velocity P-wave (km/s) = 7.48006 7.75489 7.61871
#
# Compressibility (1/GPa) = 0.01686200
#
# Stress axis : x y z
#
# Youngs Moduli (GPa) = 57.14715 57.14715 58.48700
#
# Poissons Ratio (x) = 0.58297 0.21685
# Poissons Ratio (y) = 0.58297 0.21685
# Poissons Ratio (z) = 0.21188 0.21188
#
# Static dielectric constant tensor:
#      x y z
#    x 2.879740 0.000000 0.000000 
#    y 0.000000 2.879740 0.000000 
#    z 0.000000 0.000000 3.048530 
# 
# 
# High freq. dielectric constant tensor:
#      x y z
#    x 1.570490 0.000000 0.000000 
#    y 0.000000 1.570490 0.000000 
#    z 0.000000 0.000000 1.574970 
# 
# From -- ./inp_files/10840.got.cif
#   From: 2010.03.12/outbox.cif.g09.slc.cpg/sg191_6_cif.got.tgz:10840.got - 2010.04.01 12:09:02.
