data_PCOD8328239
_publ_section_title
;
Structure prediction by ZEFSAII (Michael W. Deem and Ramdas Pophale) SiO2 
 PCOD8328239
Probable space group: P 6/M M M
;
_chemical_formula_sum "Si O2"
_cell_formula_units_Z 168
_cell_length_a 23.191219
_cell_length_b 23.191219
_cell_length_c 20.151665
_cell_angle_alpha 90.000000
_cell_angle_beta 90.000000
_cell_angle_gamma 120.000000
_cell_volume 9386.176590
_symmetry_space_group_name_H-M "P 6/M M M"
_symmetry_group_IT_number 191
_symmetry_cell_setting 'hexagonal'
loop_
_space_group_symop_operation_xyz
x,y,z
x-y,x,z
-y,x-y,z
-x,-y,z
-x+y,-x,z
y,-x+y,z
x-y,-y,-z
-x,-x+y,-z
y,x,-z
-y,-x,-z
-x+y,y,-z
x,x-y,-z
-x,-y,-z
-x+y,-x,-z
y,-x+y,-z
x,y,-z
x-y,x,-z
-y,x-y,-z
-x+y,y,z
x,x-y,z
-y,-x,z
y,x,z
x-y,-y,z
-x,-x+y,z
loop_
_atom_site_type_symbol
_atom_site_label
_atom_site_fract_x
_atom_site_fract_y
_atom_site_fract_z
Si Si1 0.592454 0.923388 0.073751
Si Si2 0.684595 0.757653 0.240438
Si Si3 0.800172 0.073342 0.900472
Si Si4 0.576984 0.720242 0.426142
Si Si5 0.295198 0.460188 0.806222
Si Si6 0.722037 0.925253 0.615182
Si Si7 0.801818 0.334545 0.323673
O O1 0.654743 0.911252 0.074717
O O2 0.539363 0.876973 0.129630
O O3 0.616485 0.000000 0.090698
O O4 0.560174 0.905134 0.000000
O O5 0.691296 0.691296 0.240167
O O6 0.725891 0.803976 0.179010
O O7 0.607993 0.736304 0.235205
O O8 0.716845 0.800567 0.305706
O O9 0.871234 0.128767 0.930285
O O10 0.782970 0.000000 0.925199
O O11 0.556070 0.689372 0.500000
O O12 0.577302 0.788651 0.420572
O O13 0.652019 0.736609 0.411490
O O14 0.524500 0.669195 0.372711
O O15 0.235877 0.471753 0.831882
O O16 0.341260 0.516435 0.753262
O O17 0.738733 0.869367 0.586467
O O18 0.779690 0.000000 0.594922
O O19 0.798023 0.399012 0.343777
O O20 0.729545 0.270456 0.333240
#
# Coordination Sequence:
#
# PCOD8328239 Si02
#       7
#    24  24  24  24  24  24  24
#     4   9  17  28  44  68  96 121 147 189 246 302
#     4   9  15  24  42  66  91 118 152 198 247 291
#     4   9  16  24  36  56  84 115 147 186 233 283
#     4   9  18  33  52  74 101 132 166 206 250 293
#     4  10  17  27  46  69  96 128 164 201 238 290
#     4  10  18  29  48  72  99 130 167 210 254 300
#     4  10  20  34  53  77 104 133 166 204 246 292
#
# _framework density 17.898662000000002
#
# number of rings (size 3 to 8) (size 9 to 14) (size 15 to 20)
#    0.000    2.571    1.429    4.000    0.000    1.714 
#    0.000    0.000    0.000    5.429    0.000    2.000 
#    0.000    4.571    0.000    7.143    0.000    0.000 
#
# Total GULP energy -2081990.036365 kJ/mol
# GULP energy per Si atom -12392.797836 kJ/mol
# Density = 1.785792 g / cm^3
# Si number density = 17.898662 Si / 1000 Ang^3
#
#
#
# Elastic Constant Matrix: (Units=GPa)
#
#
# Indices 1 2 3 4 5 6 
#
# 1 67.5643 26.0458 26.6081 0.0000 0.0000 0.0000
# 2 26.0458 67.5643 26.6081 0.0000 0.0000 0.0000
# 3 26.6081 26.6081 103.4439 0.0000 0.0000 0.0000
# 4 0.0000 0.0000 0.0000 11.0683 0.0000 0.0000
# 5 0.0000 0.0000 0.0000 0.0000 11.0683 0.0000
# 6 0.0000 0.0000 0.0000 0.0000 0.0000 20.7592
#
#
#
# Elastic Compliance Matrix: (Units=1/GPa)
#
#
# Indices 1 2 3 4 5 6 
#
# 1 0.018299 -0.005787 -0.003218 0.000000 0.000000 0.000000
# 2 -0.005787 0.018299 -0.003218 0.000000 0.000000 0.000000
# 3 -0.003218 -0.003218 0.011323 0.000000 0.000000 0.000000
# 4 0.000000 0.000000 0.000000 0.090348 0.000000 0.000000
# 5 0.000000 0.000000 0.000000 0.000000 0.090348 0.000000
# 6 0.000000 0.000000 0.000000 0.000000 0.000000 0.048171
#
#
# Mechanical properties :
#
#
# Convention : Reuss Voigt Hill
#
# Bulk Modulus (GPa) = 42.60114 44.12183 43.36148
# Shear Modulus (GPa) = 16.17810 19.19986 17.68898
#
# Velocity S-wave (km/s) = 3.00971 3.27876 3.14711
# Velocity P-wave (km/s) = 5.99423 6.24805 6.12245
#
# Compressibility (1/GPa) = 0.02347355
#
# Stress axis : x y z
#
# Youngs Moduli (GPa) = 54.64790 54.64790 88.31759
#
# Poissons Ratio (x) = 0.31623 0.28424
# Poissons Ratio (y) = 0.31623 0.28424
# Poissons Ratio (z) = 0.17588 0.17588
#
# Static dielectric constant tensor:
#      x y z
#    x 3.089820 0.000000 0.000000 
#    y 0.000000 3.089820 0.000000 
#    z 0.000000 0.000000 3.529660 
# 
# 
# High freq. dielectric constant tensor:
#      x y z
#    x 1.657770 0.000000 0.000000 
#    y 0.000000 1.657770 0.000000 
#    z 0.000000 0.000000 1.704960 
# 
# From -- ./inp_files/8020.got.cif
#   From: 2010.03.12/outbox.cif.g09.slc.cpg/sg191_5_cif.got.tgz:8020.got - 2010.04.01 12:09:02.
