data_PCOD8328044
_publ_section_title
;
Structure prediction by ZEFSAII (Michael W. Deem and Ramdas Pophale) SiO2 
 PCOD8328044
Probable space group: P -6 2 C
;
_chemical_formula_sum "Si O2"
_cell_formula_units_Z 72
_cell_length_a 23.660125
_cell_length_b 23.660125
_cell_length_c 8.966373
_cell_angle_alpha 90.000000
_cell_angle_beta 90.000000
_cell_angle_gamma 120.000000
_cell_volume 4346.918550
_symmetry_space_group_name_H-M "P -6 2 C"
_symmetry_group_IT_number 190
_symmetry_cell_setting 'hexagonal'
loop_
_space_group_symop_operation_xyz
x,y,z
-x+y,-x,1/2-z
-y,x-y,z
x,y,1/2-z
-x+y,-x,z
-y,x-y,1/2-z
x-y,-y,-z
-x,-x+y,-z
y,x,-z
y,x,1/2+z
x-y,-y,1/2+z
-x,-x+y,1/2+z
loop_
_atom_site_type_symbol
_atom_site_label
_atom_site_fract_x
_atom_site_fract_y
_atom_site_fract_z
Si Si1 0.857216 0.705587 0.074995
Si Si2 0.929698 0.411908 0.076049
Si Si3 0.642136 0.930796 0.422958
Si Si4 0.069926 0.587611 0.076945
Si Si5 0.929332 0.071153 0.072543
Si Si6 0.710784 0.641984 0.423153
O O1 0.861252 0.696100 0.250000
O O2 0.895029 0.781805 0.032837
O O3 0.783328 0.670379 0.015451
O O4 0.885189 0.666425 0.990050
O O5 0.936680 0.427850 0.250000
O O6 0.897201 0.333861 0.047620
O O7 0.890474 0.445309 0.000223
O O8 0.000000 0.444831 0.000000
O O9 0.659977 0.941849 0.250000
O O10 0.563347 0.897647 0.447350
O O11 0.680634 0.000000 0.500000
O O12 0.061952 0.569860 0.250000
O O13 0.000000 0.555540 0.000000
O O14 0.936124 0.065926 0.250000
O O15 0.000000 0.114515 0.000000
O O16 0.894735 0.000000 0.000000
O O17 0.713081 0.657448 0.250000
O O18 0.680798 0.680798 0.500000
#
# Coordination Sequence:
#
# PCOD8328044 Si02
#       6
#    12  12  12  12  12  12
#     4  10  21  35  50  69  95 125 156 194 242 294
#     4   9  15  24  41  64  90 118 146 175 210 254
#     4  10  20  32  47  67  92 123 156 191 231 279
#     4   9  16  26  41  63  90 117 146 177 210 253
#     4  11  23  38  55  72  90 116 155 205 258 309
#     4   9  18  31  46  67  94 123 155 190 229 277
#
# _framework density 16.563458000000001
#
# number of rings (size 3 to 8) (size 9 to 14) (size 15 to 20)
#    0.000    2.333    0.000    4.167    0.000    6.000 
#    0.000    0.000    0.000    0.000    0.000    0.000 
#    1.667    0.000    1.000    0.000    1.333    0.000 
#
# Total GULP energy -892072.040152 kJ/mol
# GULP energy per Si atom -12389.889447 kJ/mol
# Density = 1.652576 g / cm^3
# Si number density = 16.563458 Si / 1000 Ang^3
#
#
#
# Elastic Constant Matrix: (Units=GPa)
#
#
# Indices 1 2 3 4 5 6 
#
# 1 94.5676 45.3985 37.8890 0.0000 0.0000 0.0000
# 2 45.3985 94.5676 37.8890 0.0000 0.0000 0.0000
# 3 37.8890 37.8890 76.2194 0.0000 0.0000 0.0000
# 4 0.0000 0.0000 0.0000 24.1078 0.0000 0.0000
# 5 0.0000 0.0000 0.0000 0.0000 24.1078 0.0000
# 6 0.0000 0.0000 0.0000 0.0000 0.0000 24.5846
#
#
#
# Elastic Compliance Matrix: (Units=1/GPa)
#
#
# Indices 1 2 3 4 5 6 
#
# 1 0.015057 -0.005281 -0.004859 0.000000 0.000000 0.000000
# 2 -0.005281 0.015057 -0.004859 0.000000 0.000000 0.000000
# 3 -0.004859 -0.004859 0.017951 0.000000 0.000000 0.000000
# 4 0.000000 0.000000 0.000000 0.041480 0.000000 0.000000
# 5 0.000000 0.000000 0.000000 0.000000 0.041480 0.000000
# 6 0.000000 0.000000 0.000000 0.000000 0.000000 0.040676
#
#
# Mechanical properties :
#
#
# Convention : Reuss Voigt Hill
#
# Bulk Modulus (GPa) = 55.35707 56.41197 55.88452
# Shear Modulus (GPa) = 24.07048 24.17189 24.12119
#
# Velocity S-wave (km/s) = 3.81626 3.82429 3.82028
# Velocity P-wave (km/s) = 7.27408 7.32341 7.29878
#
# Compressibility (1/GPa) = 0.01806454
#
# Stress axis : x y z
#
# Youngs Moduli (GPa) = 66.41545 66.41545 55.70617
#
# Poissons Ratio (x) = 0.35076 0.27070
# Poissons Ratio (y) = 0.35076 0.27070
# Poissons Ratio (z) = 0.32274 0.32274
#
# Static dielectric constant tensor:
#      x y z
#    x 3.495540 0.000000 0.000000 
#    y 0.000000 3.495540 0.000000 
#    z 0.000000 0.000000 3.234140 
# 
# 
# High freq. dielectric constant tensor:
#      x y z
#    x 1.622490 0.000000 0.000000 
#    y 0.000000 1.622490 0.000000 
#    z 0.000000 0.000000 1.653830 
# 
# From -- ./inp_files/1208.got.cif
#   From: 2010.06.25/outbox.cif.g09.slc.cpg/sg190_1_cif.got.tgz:1208.got - 2010.06.28 13:08:06.
