data_PCOD8328371
_publ_section_title
;
Structure prediction by ZEFSAII (Michael W. Deem and Ramdas Pophale) SiO2 
 PCOD8328371
Probable space group: P 6/M M M
;
_chemical_formula_sum "Si O2"
_cell_formula_units_Z 180
_cell_length_a 22.264482
_cell_length_b 22.264482
_cell_length_c 28.646704
_cell_angle_alpha 90.000000
_cell_angle_beta 90.000000
_cell_angle_gamma 120.000000
_cell_volume 12297.886573
_symmetry_space_group_name_H-M "P 6/M M M"
_symmetry_group_IT_number 191
_symmetry_cell_setting 'hexagonal'
loop_
_space_group_symop_operation_xyz
x,y,z
x-y,x,z
-y,x-y,z
-x,-y,z
-x+y,-x,z
y,-x+y,z
x-y,-y,-z
-x,-x+y,-z
y,x,-z
-y,-x,-z
-x+y,y,-z
x,x-y,-z
-x,-y,-z
-x+y,-x,-z
y,-x+y,-z
x,y,-z
x-y,x,-z
-y,x-y,-z
-x+y,y,z
x,x-y,z
-y,-x,z
y,x,z
x-y,-y,z
-x,-x+y,z
loop_
_atom_site_type_symbol
_atom_site_label
_atom_site_fract_x
_atom_site_fract_y
_atom_site_fract_z
Si Si1 0.560348 0.711194 0.084598
Si Si2 0.532262 0.921954 0.450681
Si Si3 0.081810 0.470968 0.650263
Si Si4 0.922404 0.210297 0.882227
Si Si5 0.468772 0.079629 0.000000
Si Si6 0.077143 0.288062 0.226382
Si Si7 0.524978 0.192008 0.176529
Si Si8 0.563266 0.711664 0.734898
O O1 0.544006 0.772003 0.071009
O O2 0.642474 0.742567 0.089233
O O3 0.522602 0.674847 0.132453
O O4 0.533414 0.653663 0.045142
O O5 0.534456 0.884627 0.500000
O O6 0.461766 0.923532 0.448987
O O7 0.537438 0.889844 0.401040
O O8 0.595896 0.000000 0.452552
O O9 0.097323 0.548662 0.657458
O O10 0.124752 0.456700 0.688121
O O11 0.000000 0.417334 0.655117
O O12 0.870889 0.129112 0.893930
O O13 0.917076 0.224297 0.827944
O O14 0.000000 0.229750 0.896673
O O15 0.541105 0.082209 0.000000
O O16 0.406166 0.000000 0.000000
O O17 0.130875 0.261749 0.239410
O O18 0.094498 0.356870 0.254319
O O19 0.000000 0.227348 0.239687
O O20 0.596284 0.192567 0.172166
O O21 0.540958 0.270479 0.178866
O O22 0.484596 0.149764 0.222596
O O23 0.551120 0.775560 0.726519
#
# Coordination Sequence:
#
# PCOD8328371 Si02
#       8
#    24  24  24  24  12  24  24  24
#     4  10  19  34  52  67  83 109 142 175 209 245
#     4   7  10  18  33  52  73  97 126 163 208 253
#     4   9  16  25  38  58  81 102 130 172 217 251
#     4   9  16  28  47  68  88 110 139 170 199 236
#     4  11  23  36  48  66  92 115 135 165 210 256
#     4   9  16  27  43  62  83 108 137 166 196 235
#     4  10  19  31  46  62  81 106 140 177 211 246
#     4  10  18  28  40  57  83 114 140 164 200 246
#
# _framework density 14.636661
#
# number of rings (size 3 to 8) (size 9 to 14) (size 15 to 20)
#    0.000    2.733    1.333    3.133    0.000    0.000 
#    0.000    0.000    0.000    6.000    0.000    1.867 
#    0.000    0.000    0.000    0.000    0.000   13.867 
#
# Total GULP energy -2230413.537438 kJ/mol
# GULP energy per Si atom -12391.186319 kJ/mol
# Density = 1.460335 g / cm^3
# Si number density = 14.636661 Si / 1000 Ang^3
#
#
#
# Elastic Constant Matrix: (Units=GPa)
#
#
# Indices 1 2 3 4 5 6 
#
# 1 68.0222 37.7995 40.2673 0.0000 0.0000 0.0000
# 2 37.7995 68.0222 40.2673 0.0000 0.0000 0.0000
# 3 40.2673 40.2673 99.8642 0.0000 0.0000 0.0000
# 4 0.0000 0.0000 0.0000 16.5178 0.0000 0.0000
# 5 0.0000 0.0000 0.0000 0.0000 16.5178 0.0000
# 6 0.0000 0.0000 0.0000 0.0000 0.0000 15.1114
#
#
#
# Elastic Compliance Matrix: (Units=1/GPa)
#
#
# Indices 1 2 3 4 5 6 
#
# 1 0.023361 -0.009727 -0.005497 0.000000 0.000000 0.000000
# 2 -0.009727 0.023361 -0.005497 0.000000 0.000000 0.000000
# 3 -0.005497 -0.005497 0.014447 0.000000 0.000000 0.000000
# 4 0.000000 0.000000 0.000000 0.060541 0.000000 0.000000
# 5 0.000000 0.000000 0.000000 0.000000 0.060541 0.000000
# 6 0.000000 0.000000 0.000000 0.000000 0.000000 0.066175
#
#
# Mechanical properties :
#
#
# Convention : Reuss Voigt Hill
#
# Bulk Modulus (GPa) = 50.69799 52.50855 51.60327
# Shear Modulus (GPa) = 16.86664 17.46770 17.16717
#
# Velocity S-wave (km/s) = 3.39832 3.45834 3.42846
# Velocity P-wave (km/s) = 7.07891 7.20412 7.14179
#
# Compressibility (1/GPa) = 0.01972465
#
# Stress axis : x y z
#
# Youngs Moduli (GPa) = 42.80710 42.80710 69.21919
#
# Poissons Ratio (x) = 0.41639 0.38052
# Poissons Ratio (y) = 0.41639 0.38052
# Poissons Ratio (z) = 0.23532 0.23532
#
# Static dielectric constant tensor:
#      x y z
#    x 2.721530 0.000000 0.000000 
#    y 0.000000 2.721530 0.000000 
#    z 0.000000 0.000000 3.022580 
# 
# 
# High freq. dielectric constant tensor:
#      x y z
#    x 1.540560 0.000000 0.000000 
#    y 0.000000 1.540560 0.000000 
#    z 0.000000 0.000000 1.561890 
# 
# From -- ./inp_files/10856.got.cif
#   From: 2010.03.12/outbox.cif.g09.slc.cpg/sg191_6_cif.got.tgz:10856.got - 2010.04.01 12:09:02.
