data_PCOD8328013
_publ_section_title
;
Structure prediction by ZEFSAII (Michael W. Deem and Ramdas Pophale) SiO2 
 PCOD8328013
Probable space group: P -6 2 C
;
_chemical_formula_sum "Si O2"
_cell_formula_units_Z 76
_cell_length_a 16.820054
_cell_length_b 16.820054
_cell_length_c 13.437625
_cell_angle_alpha 90.000000
_cell_angle_beta 90.000000
_cell_angle_gamma 120.000000
_cell_volume 3292.364577
_symmetry_space_group_name_H-M "P -6 2 C"
_symmetry_group_IT_number 190
_symmetry_cell_setting 'hexagonal'
loop_
_space_group_symop_operation_xyz
x,y,z
-x+y,-x,1/2-z
-y,x-y,z
x,y,1/2-z
-x+y,-x,z
-y,x-y,1/2-z
x-y,-y,-z
-x,-x+y,-z
y,x,-z
y,x,1/2+z
x-y,-y,1/2+z
-x,-x+y,1/2+z
loop_
_atom_site_type_symbol
_atom_site_label
_atom_site_fract_x
_atom_site_fract_y
_atom_site_fract_z
Si Si1 0.166045 0.491837 0.866882
Si Si2 0.666668 0.333334 0.634613
Si Si3 0.855913 0.514627 0.065301
Si Si4 0.713410 0.771578 0.868565
Si Si5 0.144071 0.863048 0.137963
Si Si6 0.765098 0.050763 0.366990
Si Si7 0.287456 0.476010 0.138850
O O1 0.185687 0.499427 0.750000
O O2 0.260067 0.509268 0.917778
O O3 0.134250 0.563831 0.897929
O O4 0.082685 0.390019 0.895342
O O5 0.666667 0.333334 0.750000
O O6 0.561590 0.277351 0.600816
O O7 0.927728 0.610055 0.118413
O O8 0.882378 0.532458 0.947153
O O9 0.725537 0.777758 0.750000
O O10 0.791898 0.752959 0.916750
O O11 0.728016 0.867834 0.912330
O O12 0.123352 0.882043 0.250000
O O13 0.205557 0.814790 0.139386
O O14 0.046685 0.791684 0.084345
O O15 0.774048 0.041849 0.250000
O O16 0.331936 0.488496 0.250000
#
# Coordination Sequence:
#
# PCOD8328013 Si02
#       7
#    12   4  12  12  12  12  12
#     4  10  19  33  56  90 128 162 199 245 300 369
#     4   9  18  36  54  75 106 146 193 243 294 351
#     4  11  20  33  57  88 123 162 204 247 306 366
#     4   8  16  33  56  85 122 160 199 247 303 364
#     4   9  18  36  58  81 117 165 205 250 309 359
#     4   9  18  34  56  85 123 157 198 255 309 368
#     4  10  21  37  58  81 115 159 206 257 302 356
#
# _framework density 23.083711000000001
#
# number of rings (size 3 to 8) (size 9 to 14) (size 15 to 20)
#    0.000    2.526    0.000    3.632    0.000    0.632 
#    3.789    3.158    3.474    0.000    0.000    0.000 
#    0.000    1.263    0.000    0.000    0.000    0.000 
#
# Total GULP energy -941548.125030 kJ/mol
# GULP energy per Si atom -12388.791119 kJ/mol
# Density = 2.303117 g / cm^3
# Si number density = 23.083711 Si / 1000 Ang^3
#
#
#
# Elastic Constant Matrix: (Units=GPa)
#
#
# Indices 1 2 3 4 5 6 
#
# 1 172.6033 102.4056 23.4910 0.0000 0.0000 0.0002
# 2 102.4056 172.6035 23.4910 -0.0001 0.0001 0.0003
# 3 23.4910 23.4910 64.9992 0.0000 0.0000 0.0000
# 4 0.0000 -0.0001 0.0000 23.9396 0.0000 0.0000
# 5 0.0000 0.0001 0.0000 0.0000 23.9395 0.0000
# 6 0.0002 0.0003 0.0000 0.0000 0.0000 35.0992
#
#
#
# Elastic Compliance Matrix: (Units=1/GPa)
#
#
# Indices 1 2 3 4 5 6 
#
# 1 0.009061 -0.005185 -0.001401 0.000000 0.000000 0.000000
# 2 -0.005185 0.009060 -0.001401 0.000000 0.000000 0.000000
# 3 -0.001401 -0.001401 0.016397 0.000000 0.000000 0.000000
# 4 0.000000 0.000000 0.000000 0.041772 0.000000 0.000000
# 5 0.000000 0.000000 0.000000 0.000000 0.041772 0.000000
# 6 0.000000 0.000000 0.000000 0.000000 0.000000 0.028491
#
#
# Mechanical properties :
#
#
# Convention : Reuss Voigt Hill
#
# Bulk Modulus (GPa) = 53.92077 78.77566 66.34822
# Shear Modulus (GPa) = 29.63717 33.98354 31.81036
#
# Velocity S-wave (km/s) = 3.58704 3.84107 3.71623
# Velocity P-wave (km/s) = 6.36909 7.33975 6.87158
#
# Compressibility (1/GPa) = 0.01854573
#
# Stress axis : x y z
#
# Youngs Moduli (GPa) = 110.36913 110.36929 60.98600
#
# Poissons Ratio (x) = 0.57226 0.08542
# Poissons Ratio (y) = 0.57226 0.08542
# Poissons Ratio (z) = 0.15459 0.15459
#
# Static dielectric constant tensor:
#      x y z
#    x 3.936330 0.000000 0.000000 
#    y 0.000000 3.936330 0.000010 
#    z 0.000000 0.000010 4.376700 
# 
# 
# High freq. dielectric constant tensor:
#      x y z
#    x 1.896710 0.000000 0.000000 
#    y 0.000000 1.896710 0.000000 
#    z 0.000000 0.000000 1.935620 
# 
# From -- ./inp_files/3047.got.cif
#   From: 2010.06.25/outbox.cif.g09.slc.cpg/sg190_2_cif.got.tgz:3047.got - 2010.06.28 13:08:06.
