data_PCOD8328999
_publ_section_title
;
Structure prediction by ZEFSAII (Michael W. Deem and Ramdas Pophale) SiO2 
 PCOD8328999
Probable space group: P 6/M M M
;
_chemical_formula_sum "Si O2"
_cell_formula_units_Z 84
_cell_length_a 18.283835
_cell_length_b 18.283835
_cell_length_c 17.338806
_cell_angle_alpha 90.000000
_cell_angle_beta 90.000000
_cell_angle_gamma 120.000000
_cell_volume 5019.776787
_symmetry_space_group_name_H-M "P 6/M M M"
_symmetry_group_IT_number 191
_symmetry_cell_setting 'hexagonal'
loop_
_space_group_symop_operation_xyz
x,y,z
x-y,x,z
-y,x-y,z
-x,-y,z
-x+y,-x,z
y,-x+y,z
x-y,-y,-z
-x,-x+y,-z
y,x,-z
-y,-x,-z
-x+y,y,-z
x,x-y,-z
-x,-y,-z
-x+y,-x,-z
y,-x+y,-z
x,y,-z
x-y,x,-z
-y,x-y,-z
-x+y,y,z
x,x-y,z
-y,-x,z
y,x,z
x-y,-y,z
-x,-x+y,z
loop_
_atom_site_type_symbol
_atom_site_label
_atom_site_fract_x
_atom_site_fract_y
_atom_site_fract_z
Si Si1 0.260453 0.904183 0.375985
Si Si2 0.331658 0.836281 0.500000
Si Si3 0.501555 0.835006 0.088114
Si Si4 0.092931 0.743513 0.800443
O O1 0.161672 0.838329 0.396410
O O2 0.320833 0.881283 0.424620
O O3 0.278325 0.894803 0.286805
O O4 0.282170 0.000000 0.394757
O O5 0.263065 0.736936 0.500000
O O6 0.424555 0.849110 0.500000
O O7 0.421370 0.842739 0.110886
O O8 0.477542 0.738771 0.101568
O O9 0.576886 0.897278 0.143400
O O10 0.529268 0.862766 0.000000
O O11 0.159768 0.840233 0.821490
O O12 0.000000 0.731073 0.811932
#
# Coordination Sequence:
#
# PCOD8328999 Si02
#       4
#    24  12  24  24
#     4   9  18  32  49  68  90 117 148 182 222 267
#     4  10  20  33  48  67  92 122 155 188 220 253
#     4   9  17  29  45  65  90 120 152 184 218 258
#     4   9  18  32  48  66  89 117 148 182 222 267
#
# _framework density 16.733812
#
# number of rings (size 3 to 8) (size 9 to 14) (size 15 to 20)
#    0.000    2.857    0.000    0.857    0.000    4.571 
#    0.000    4.286    0.000    4.000    0.000    4.000 
#    0.000    3.429    0.000    7.429    0.000    7.429 
#
# Total GULP energy -1041358.361586 kJ/mol
# GULP energy per Si atom -12397.123352 kJ/mol
# Density = 1.669573 g / cm^3
# Si number density = 16.733812 Si / 1000 Ang^3
#
#
#
# Elastic Constant Matrix: (Units=GPa)
#
#
# Indices 1 2 3 4 5 6 
#
# 1 108.9625 79.1049 51.4902 0.0000 0.0000 0.0000
# 2 79.1049 108.9625 51.4902 0.0000 0.0000 0.0000
# 3 51.4902 51.4902 76.8600 0.0000 0.0000 0.0000
# 4 0.0000 0.0000 0.0000 23.2907 0.0000 0.0000
# 5 0.0000 0.0000 0.0000 0.0000 23.2907 0.0000
# 6 0.0000 0.0000 0.0000 0.0000 0.0000 14.9288
#
#
#
# Elastic Compliance Matrix: (Units=1/GPa)
#
#
# Indices 1 2 3 4 5 6 
#
# 1 0.020945 -0.012547 -0.005626 0.000000 0.000000 0.000000
# 2 -0.012547 0.020945 -0.005626 0.000000 0.000000 0.000000
# 3 -0.005626 -0.005626 0.020548 0.000000 0.000000 0.000000
# 4 0.000000 0.000000 0.000000 0.042936 0.000000 0.000000
# 5 0.000000 0.000000 0.000000 0.000000 0.042936 0.000000
# 6 0.000000 0.000000 0.000000 0.000000 0.000000 0.066985
#
#
# Mechanical properties :
#
#
# Convention : Reuss Voigt Hill
#
# Bulk Modulus (GPa) = 67.38283 73.21729 70.30006
# Shear Modulus (GPa) = 18.66792 19.81537 19.24165
#
# Velocity S-wave (km/s) = 3.34366 3.44488 3.39465
# Velocity P-wave (km/s) = 7.43381 7.72477 7.58069
#
# Compressibility (1/GPa) = 0.01484058
#
# Stress axis : x y z
#
# Youngs Moduli (GPa) = 47.74396 47.74396 48.66540
#
# Poissons Ratio (x) = 0.59905 0.27379
# Poissons Ratio (y) = 0.59905 0.27379
# Poissons Ratio (z) = 0.26860 0.26860
#
# Static dielectric constant tensor:
#      x y z
#    x 3.123710 0.000000 0.000000 
#    y 0.000000 3.123710 0.000000 
#    z 0.000000 0.000000 3.315990 
# 
# 
# High freq. dielectric constant tensor:
#      x y z
#    x 1.632730 0.000000 0.000000 
#    y 0.000000 1.632730 0.000000 
#    z 0.000000 0.000000 1.656910 
# 
# From -- ./inp_files/3980.got.cif
#   From: 2010.03.12/outbox.cif.g09.slc.cpg/sg191_2_cif.got.tgz:3980.got - 2010.04.01 12:09:02.
