data_PCOD8328799
_publ_section_title
;
Structure prediction by ZEFSAII (Michael W. Deem and Ramdas Pophale) SiO2 
 PCOD8328799
Probable space group: P 6/M M M
;
_chemical_formula_sum "Si O2"
_cell_formula_units_Z 168
_cell_length_a 27.692051
_cell_length_b 27.692051
_cell_length_c 15.814899
_cell_angle_alpha 90.000000
_cell_angle_beta 90.000000
_cell_angle_gamma 120.000000
_cell_volume 10502.853311
_symmetry_space_group_name_H-M "P 6/M M M"
_symmetry_group_IT_number 191
_symmetry_cell_setting 'hexagonal'
loop_
_space_group_symop_operation_xyz
x,y,z
x-y,x,z
-y,x-y,z
-x,-y,z
-x+y,-x,z
y,-x+y,z
x-y,-y,-z
-x,-x+y,-z
y,x,-z
-y,-x,-z
-x+y,y,-z
x,x-y,-z
-x,-y,-z
-x+y,-x,-z
y,-x+y,-z
x,y,-z
x-y,x,-z
-y,x-y,-z
-x+y,y,z
x,x-y,z
-y,-x,z
y,x,z
x-y,-y,z
-x,-x+y,z
loop_
_atom_site_type_symbol
_atom_site_label
_atom_site_fract_x
_atom_site_fract_y
_atom_site_fract_z
Si Si1 0.125793 0.874208 0.400177
Si Si2 0.163597 0.223729 0.901885
Si Si3 0.066218 0.587229 0.747333
Si Si4 0.065291 0.649372 0.592652
Si Si5 0.415049 0.350797 0.094780
Si Si6 0.315178 0.065589 0.669702
Si Si7 0.652406 0.770295 0.849214
Si Si8 0.062807 0.937194 0.600808
O O1 0.126646 0.873355 0.500000
O O2 0.188381 0.907822 0.367591
O O3 0.094358 0.905643 0.365424
O O4 0.104666 0.209332 0.858884
O O5 0.187031 0.187031 0.857231
O O6 0.207195 0.288346 0.892987
O O7 0.154276 0.209131 0.000000
O O8 0.090741 0.545371 0.743651
O O9 0.091711 0.630195 0.668008
O O10 0.084034 0.619662 0.836650
O O11 0.000000 0.553174 0.741183
O O12 0.090281 0.647910 0.500000
O O13 0.076423 0.711658 0.606324
O O14 0.000000 0.606552 0.592208
O O15 0.367102 0.367102 0.113160
O O16 0.390381 0.284595 0.100056
O O17 0.439426 0.370183 0.000000
O O18 0.345052 0.097380 0.754462
O O19 0.274375 0.000000 0.686325
O O20 0.632883 0.816442 0.852715
O O21 0.062476 0.937525 0.500000
O O22 0.000000 0.905703 0.636258
#
# Coordination Sequence:
#
# PCOD8328799 Si02
#       8
#    12  24  24  24  24  24  24  12
#     4  11  22  33  44  65  87 111 151 201 255 311
#     4   9  17  28  43  63  84 106 135 176 229 290
#     4   9  17  29  45  67  95 124 156 192 220 248
#     4   9  17  29  46  65  86 119 158 192 227 265
#     4  10  19  31  48  68  93 126 158 189 229 278
#     4  11  20  32  47  63  87 119 154 196 245 298
#     4  11  20  31  46  65  88 116 150 193 238 286
#     4   9  17  30  47  64  82 105 139 191 260 335
#
# _framework density 15.995653000000001
#
# number of rings (size 3 to 8) (size 9 to 14) (size 15 to 20)
#    0.000    2.143    2.143    2.643    0.000    4.286 
#    0.000    2.857    0.000    0.143    0.000    1.000 
#    0.000    0.000    0.000    0.429    0.286    1.857 
#
# Total GULP energy -2082365.631568 kJ/mol
# GULP energy per Si atom -12395.033521 kJ/mol
# Density = 1.595925 g / cm^3
# Si number density = 15.995653 Si / 1000 Ang^3
#
#
#
# Elastic Constant Matrix: (Units=GPa)
#
#
# Indices 1 2 3 4 5 6 
#
# 1 84.2950 36.7110 33.4055 0.0000 0.0000 0.0000
# 2 36.7110 84.2950 33.4055 0.0000 0.0000 0.0000
# 3 33.4055 33.4055 97.9505 0.0000 0.0000 0.0000
# 4 0.0000 0.0000 0.0000 24.1364 0.0000 0.0000
# 5 0.0000 0.0000 0.0000 0.0000 24.1364 0.0000
# 6 0.0000 0.0000 0.0000 0.0000 0.0000 23.7920
#
#
#
# Elastic Compliance Matrix: (Units=1/GPa)
#
#
# Indices 1 2 3 4 5 6 
#
# 1 0.015598 -0.005417 -0.003472 0.000000 0.000000 0.000000
# 2 -0.005417 0.015598 -0.003472 0.000000 0.000000 0.000000
# 3 -0.003472 -0.003472 0.012578 0.000000 0.000000 0.000000
# 4 0.000000 0.000000 0.000000 0.041431 0.000000 0.000000
# 5 0.000000 0.000000 0.000000 0.000000 0.041431 0.000000
# 6 0.000000 0.000000 0.000000 0.000000 0.000000 0.042031
#
#
# Mechanical properties :
#
#
# Convention : Reuss Voigt Hill
#
# Bulk Modulus (GPa) = 52.49066 52.62054 52.55560
# Shear Modulus (GPa) = 25.03240 25.28086 25.15663
#
# Velocity S-wave (km/s) = 3.96024 3.97984 3.97005
# Velocity P-wave (km/s) = 7.33472 7.35439 7.34456
#
# Compressibility (1/GPa) = 0.01905101
#
# Stress axis : x y z
#
# Youngs Moduli (GPa) = 64.10949 64.10949 79.50634
#
# Poissons Ratio (x) = 0.34729 0.27607
# Poissons Ratio (y) = 0.34729 0.27607
# Poissons Ratio (z) = 0.22260 0.22260
#
# Static dielectric constant tensor:
#      x y z
#    x 2.977920 0.000000 0.000000 
#    y 0.000000 2.977920 0.000000 
#    z 0.000000 0.000000 3.257310 
# 
# 
# High freq. dielectric constant tensor:
#      x y z
#    x 1.584470 0.000000 0.000000 
#    y 0.000000 1.584470 0.000000 
#    z 0.000000 0.000000 1.625640 
# 
# From -- ./inp_files/5357.got.cif
#   From: 2010.03.12/outbox.cif.g09.slc.cpg/sg191_3_cif.got.tgz:5357.got - 2010.04.01 12:09:02.
