data_PCOD8328550
_publ_section_title
;
Structure prediction by ZEFSAII (Michael W. Deem and Ramdas Pophale) SiO2 
 PCOD8328550
Probable space group: P 6/M M M
;
_chemical_formula_sum "Si O2"
_cell_formula_units_Z 156
_cell_length_a 21.979612
_cell_length_b 21.979612
_cell_length_c 21.477079
_cell_angle_alpha 90.000000
_cell_angle_beta 90.000000
_cell_angle_gamma 120.000000
_cell_volume 8985.575335
_symmetry_space_group_name_H-M "P 6/M M M"
_symmetry_group_IT_number 191
_symmetry_cell_setting 'hexagonal'
loop_
_space_group_symop_operation_xyz
x,y,z
x-y,x,z
-y,x-y,z
-x,-y,z
-x+y,-x,z
y,-x+y,z
x-y,-y,-z
-x,-x+y,-z
y,x,-z
-y,-x,-z
-x+y,y,-z
x,x-y,-z
-x,-y,-z
-x+y,-x,-z
y,-x+y,-z
x,y,-z
x-y,x,-z
-y,x-y,-z
-x+y,y,z
x,x-y,z
-y,-x,z
y,x,z
x-y,-y,z
-x,-x+y,z
loop_
_atom_site_type_symbol
_atom_site_label
_atom_site_fract_x
_atom_site_fract_y
_atom_site_fract_z
Si Si1 0.853564 0.289872 0.568373
Si Si2 0.468793 0.665904 0.926091
Si Si3 0.785972 0.075212 0.000000
Si Si4 0.307418 0.921929 0.748204
Si Si5 0.120216 0.383325 0.117916
Si Si6 0.920307 0.218489 0.361691
Si Si7 0.522454 0.188357 0.313635
O O1 0.873937 0.326257 0.500000
O O2 0.778576 0.221425 0.565336
O O3 0.910260 0.267137 0.587721
O O4 0.848178 0.341307 0.618930
O O5 0.457071 0.728536 0.902122
O O6 0.406172 0.593829 0.899321
O O7 0.540133 0.673392 0.899873
O O8 0.471359 0.666440 0.000000
O O9 0.746528 0.078697 0.061407
O O10 0.867080 0.132921 0.000000
O O11 0.781540 0.000000 0.000000
O O12 0.283538 0.923304 0.818628
O O13 0.240713 0.905278 0.705460
O O14 0.330066 0.863053 0.738154
O O15 0.371979 0.000000 0.732349
O O16 0.193127 0.386253 0.128509
O O17 0.864460 0.135541 0.371820
O O18 0.000000 0.232695 0.367333
O O19 0.597823 0.195645 0.301622
O O20 0.529890 0.264945 0.309070
#
# Coordination Sequence:
#
# PCOD8328550 Si02
#       7
#    24  24  12  24  24  24  24
#     4   8  15  29  48  70  97 127 159 197 238 279
#     4   9  16  27  43  64  90 122 159 196 234 275
#     4  10  20  34  53  76  99 121 147 183 229 283
#     4  10  20  34  52  71  93 125 162 204 249 291
#     4  10  18  31  50  73  98 123 154 196 244 289
#     4   9  17  30  49  73  99 128 164 203 243 287
#     4  10  20  34  51  72  99 131 166 204 246 296
#
# _framework density 17.361158
#
# number of rings (size 3 to 8) (size 9 to 14) (size 15 to 20)
#    0.000    2.615    0.769    3.077    0.000    2.154 
#    0.000    0.000    0.000    4.846    0.000    4.308 
#    0.000    0.000    0.000    8.769    0.000    0.000 
#
# Total GULP energy -1933563.301828 kJ/mol
# GULP energy per Si atom -12394.636550 kJ/mol
# Density = 1.732164 g / cm^3
# Si number density = 17.361158 Si / 1000 Ang^3
#
#
#
# Elastic Constant Matrix: (Units=GPa)
#
#
# Indices 1 2 3 4 5 6 
#
# 1 83.9772 52.4630 21.3716 0.0000 0.0000 0.0000
# 2 52.4630 83.9772 21.3716 0.0000 0.0000 0.0000
# 3 21.3716 21.3716 95.0621 0.0000 0.0000 0.0000
# 4 0.0000 0.0000 0.0000 12.8477 0.0000 0.0000
# 5 0.0000 0.0000 0.0000 0.0000 12.8477 0.0000
# 6 0.0000 0.0000 0.0000 0.0000 0.0000 15.7571
#
#
#
# Elastic Compliance Matrix: (Units=1/GPa)
#
#
# Indices 1 2 3 4 5 6 
#
# 1 0.019808 -0.011924 -0.001773 0.000000 0.000000 0.000000
# 2 -0.011924 0.019808 -0.001773 0.000000 0.000000 0.000000
# 3 -0.001773 -0.001773 0.011316 0.000000 0.000000 0.000000
# 4 0.000000 0.000000 0.000000 0.077835 0.000000 0.000000
# 5 0.000000 0.000000 0.000000 0.000000 0.077835 0.000000
# 6 0.000000 0.000000 0.000000 0.000000 0.000000 0.063463
#
#
# Mechanical properties :
#
#
# Convention : Reuss Voigt Hill
#
# Bulk Modulus (GPa) = 50.01203 50.38098 50.19651
# Shear Modulus (GPa) = 16.25123 19.47784 17.86453
#
# Velocity S-wave (km/s) = 3.06284 3.35314 3.21127
# Velocity P-wave (km/s) = 6.43253 6.63881 6.53648
#
# Compressibility (1/GPa) = 0.01999519
#
# Stress axis : x y z
#
# Youngs Moduli (GPa) = 50.48433 50.48433 88.36694
#
# Poissons Ratio (x) = 0.60195 0.15664
# Poissons Ratio (y) = 0.60195 0.15664
# Poissons Ratio (z) = 0.08949 0.08949
#
# Static dielectric constant tensor:
#      x y z
#    x 3.096740 0.000000 0.000000 
#    y 0.000000 3.096740 0.000000 
#    z 0.000000 0.000000 3.446230 
# 
# 
# High freq. dielectric constant tensor:
#      x y z
#    x 1.649410 0.000000 0.000000 
#    y 0.000000 1.649410 0.000000 
#    z 0.000000 0.000000 1.677580 
# 
# From -- ./inp_files/7715.got.cif
#   From: 2010.03.12/outbox.cif.g09.slc.cpg/sg191_4_cif.got.tgz:7715.got - 2010.04.01 12:09:02.
