data_PCOD8328291
_publ_section_title
;
Structure prediction by ZEFSAII (Michael W. Deem and Ramdas Pophale) SiO2 
 PCOD8328291
Probable space group: P 6/M M M
;
_chemical_formula_sum "Si O2"
_cell_formula_units_Z 120
_cell_length_a 17.721673
_cell_length_b 17.721673
_cell_length_c 27.941970
_cell_angle_alpha 90.000000
_cell_angle_beta 90.000000
_cell_angle_gamma 120.000000
_cell_volume 7599.711241
_symmetry_space_group_name_H-M "P 6/M M M"
_symmetry_group_IT_number 191
_symmetry_cell_setting 'hexagonal'
loop_
_space_group_symop_operation_xyz
x,y,z
x-y,x,z
-y,x-y,z
-x,-y,z
-x+y,-x,z
y,-x+y,z
x-y,-y,-z
-x,-x+y,-z
y,x,-z
-y,-x,-z
-x+y,y,-z
x,x-y,-z
-x,-y,-z
-x+y,-x,-z
y,-x+y,-z
x,y,-z
x-y,x,-z
-y,x-y,-z
-x+y,y,z
x,x-y,z
-y,-x,z
y,x,z
x-y,-y,z
-x,-x+y,z
loop_
_atom_site_type_symbol
_atom_site_label
_atom_site_fract_x
_atom_site_fract_y
_atom_site_fract_z
Si Si1 0.667697 0.512131 0.621034
Si Si2 0.330828 0.834059 0.098094
Si Si3 0.589330 0.589330 0.553409
Si Si4 0.371395 0.269919 0.287756
Si Si5 0.898237 0.364343 0.000000
Si Si6 0.533173 0.898484 0.802457
O O1 0.751334 0.502668 0.609373
O O2 0.583192 0.416809 0.623336
O O3 0.659918 0.572291 0.580228
O O4 0.676145 0.560130 0.670908
O O5 0.431729 0.863457 0.096559
O O6 0.269858 0.730143 0.100932
O O7 0.307383 0.867250 0.048948
O O8 0.316231 0.876011 0.146057
O O9 0.500000 0.500000 0.551266
O O10 0.624146 0.624146 0.500000
O O11 0.330694 0.165347 0.295460
O O12 0.294444 0.294444 0.286354
O O13 0.427548 0.293994 0.239119
O O14 0.857980 0.428990 0.000000
O O15 0.000000 0.417846 0.000000
O O16 0.427389 0.854778 0.797977
O O17 0.573889 0.000000 0.797127
#
# Coordination Sequence:
#
# PCOD8328291 Si02
#       6
#    24  24  12  24  12  24
#     4  10  19  31  48  70  96 126 160 196 233 273
#     4  10  18  27  38  54  76 102 132 168 209 252
#     4   9  18  32  48  66  92 126 159 192 232 272
#     4  10  19  31  48  69  92 119 150 186 227 273
#     4   9  17  28  40  50  64  91 130 172 210 248
#     4   9  17  28  43  62  85 113 144 175 210 255
#
# _framework density 15.790073
#
# number of rings (size 3 to 8) (size 9 to 14) (size 15 to 20)
#    0.000    2.400    1.000    2.500    0.000    3.600 
#    0.000    1.000    0.000    7.800    0.000    0.000 
#    0.000    0.000    0.000    0.000    0.000    9.100 
#
# Total GULP energy -1486955.606331 kJ/mol
# GULP energy per Si atom -12391.296719 kJ/mol
# Density = 1.575413 g / cm^3
# Si number density = 15.790073 Si / 1000 Ang^3
#
#
#
# Elastic Constant Matrix: (Units=GPa)
#
#
# Indices 1 2 3 4 5 6 
#
# 1 66.0118 33.8531 36.5531 0.0000 0.0000 0.0000
# 2 33.8531 66.0118 36.5531 0.0000 0.0000 0.0000
# 3 36.5531 36.5531 143.9993 0.0000 0.0000 0.0000
# 4 0.0000 0.0000 0.0000 6.3952 0.0000 0.0000
# 5 0.0000 0.0000 0.0000 0.0000 6.3952 0.0000
# 6 0.0000 0.0000 0.0000 0.0000 0.0000 16.0794
#
#
#
# Elastic Compliance Matrix: (Units=1/GPa)
#
#
# Indices 1 2 3 4 5 6 
#
# 1 0.021697 -0.009398 -0.003122 0.000000 0.000000 0.000000
# 2 -0.009398 0.021697 -0.003122 0.000000 0.000000 0.000000
# 3 -0.003122 -0.003122 0.008529 0.000000 0.000000 0.000000
# 4 0.000000 0.000000 0.000000 0.156367 0.000000 0.000000
# 5 0.000000 0.000000 0.000000 0.000000 0.156367 0.000000
# 6 0.000000 0.000000 0.000000 0.000000 0.000000 0.062192
#
#
# Mechanical properties :
#
#
# Convention : Reuss Voigt Hill
#
# Bulk Modulus (GPa) = 48.45091 54.43796 51.44444
# Shear Modulus (GPa) = 10.75235 17.04486 13.89861
#
# Velocity S-wave (km/s) = 2.61235 3.28909 2.97005
# Velocity P-wave (km/s) = 6.31270 6.99822 6.66428
#
# Compressibility (1/GPa) = 0.02063945
#
# Stress axis : x y z
#
# Youngs Moduli (GPa) = 46.08851 46.08851 117.24054
#
# Poissons Ratio (x) = 0.43316 0.36603
# Poissons Ratio (y) = 0.43316 0.36603
# Poissons Ratio (z) = 0.14389 0.14389
#
# Static dielectric constant tensor:
#      x y z
#    x 2.820440 0.000000 0.000000 
#    y 0.000000 2.820440 0.000000 
#    z 0.000000 0.000000 3.437070 
# 
# 
# High freq. dielectric constant tensor:
#      x y z
#    x 1.575780 0.000000 0.000000 
#    y 0.000000 1.575780 0.000000 
#    z 0.000000 0.000000 1.629970 
# 
# From -- ./inp_files/9625.got.cif
#   From: 2010.03.12/outbox.cif.g09.slc.cpg/sg191_5_cif.got.tgz:9625.got - 2010.04.01 12:09:02.
