data_PCOD8328701
_publ_section_title
;
Structure prediction by ZEFSAII (Michael W. Deem and Ramdas Pophale) SiO2 
 PCOD8328701
Probable space group: P 6/M M M
;
_chemical_formula_sum "Si O2"
_cell_formula_units_Z 108
_cell_length_a 18.013712
_cell_length_b 18.013712
_cell_length_c 23.347240
_cell_angle_alpha 90.000000
_cell_angle_beta 90.000000
_cell_angle_gamma 120.000000
_cell_volume 6561.038852
_symmetry_space_group_name_H-M "P 6/M M M"
_symmetry_group_IT_number 191
_symmetry_cell_setting 'hexagonal'
loop_
_space_group_symop_operation_xyz
x,y,z
x-y,x,z
-y,x-y,z
-x,-y,z
-x+y,-x,z
y,-x+y,z
x-y,-y,-z
-x,-x+y,-z
y,x,-z
-y,-x,-z
-x+y,y,-z
x,x-y,-z
-x,-y,-z
-x+y,-x,-z
y,-x+y,-z
x,y,-z
x-y,x,-z
-y,x-y,-z
-x+y,y,z
x,x-y,z
-y,-x,z
y,x,z
x-y,-y,z
-x,-x+y,z
loop_
_atom_site_type_symbol
_atom_site_label
_atom_site_fract_x
_atom_site_fract_y
_atom_site_fract_z
Si Si1 0.503866 0.669091 0.561667
Si Si2 0.634914 0.094359 0.678184
Si Si3 0.492456 0.161184 0.000000
Si Si4 0.669356 0.502720 0.797205
Si Si5 0.730653 0.632859 0.895114
O O1 0.552949 0.683111 0.500000
O O2 0.466953 0.733477 0.565920
O O3 0.426268 0.573733 0.562911
O O4 0.563728 0.685310 0.617307
O O5 0.548544 0.097088 0.670573
O O6 0.687443 0.154483 0.731096
O O7 0.616338 0.000000 0.693314
O O8 0.435145 0.115720 0.944821
O O9 0.574227 0.148453 0.000000
O O10 0.524472 0.262236 0.000000
O O11 0.734213 0.468426 0.813395
O O12 0.572115 0.427886 0.807793
O O13 0.690014 0.584374 0.835710
O O14 0.833318 0.666636 0.898341
O O15 0.712701 0.712701 0.900241
#
# Coordination Sequence:
#
# PCOD8328701 Si02
#       5
#    24  24  12  24  24
#     4   9  16  25  37  52  70  93 123 162 209 259
#     4   9  17  27  38  53  74 102 136 173 211 251
#     4  10  20  33  50  73 102 134 165 194 224 261
#     4  10  19  30  45  65  90 119 150 183 219 261
#     4  10  21  35  51  71  94 122 154 190 232 274
#
# _framework density 16.460808
#
# number of rings (size 3 to 8) (size 9 to 14) (size 15 to 20)
#    0.000    2.444    0.000    2.889    0.000    4.444 
#    0.000    6.667    0.000    0.222    0.000    0.000 
#    0.000    2.667    0.000    0.000    0.000    0.000 
#
# Total GULP energy -1338087.012455 kJ/mol
# GULP energy per Si atom -12389.694560 kJ/mol
# Density = 1.642334 g / cm^3
# Si number density = 16.460808 Si / 1000 Ang^3
#
#
#
# Elastic Constant Matrix: (Units=GPa)
#
#
# Indices 1 2 3 4 5 6 
#
# 1 67.1684 42.2599 29.0282 0.0000 0.0000 0.0000
# 2 42.2599 67.1684 29.0282 0.0000 0.0000 0.0000
# 3 29.0282 29.0282 113.2085 0.0000 0.0000 0.0000
# 4 0.0000 0.0000 0.0000 16.2451 0.0000 0.0000
# 5 0.0000 0.0000 0.0000 0.0000 16.2451 0.0000
# 6 0.0000 0.0000 0.0000 0.0000 0.0000 12.4543
#
#
#
# Elastic Compliance Matrix: (Units=1/GPa)
#
#
# Indices 1 2 3 4 5 6 
#
# 1 0.025362 -0.014785 -0.002712 0.000000 0.000000 0.000000
# 2 -0.014785 0.025362 -0.002712 0.000000 0.000000 0.000000
# 3 -0.002712 -0.002712 0.010224 0.000000 0.000000 0.000000
# 4 0.000000 0.000000 0.000000 0.061557 0.000000 0.000000
# 5 0.000000 0.000000 0.000000 0.000000 0.061557 0.000000
# 6 0.000000 0.000000 0.000000 0.000000 0.000000 0.080294
#
#
# Mechanical properties :
#
#
# Convention : Reuss Voigt Hill
#
# Bulk Modulus (GPa) = 48.70894 49.79754 49.25324
# Shear Modulus (GPa) = 16.04531 18.80417 17.42474
#
# Velocity S-wave (km/s) = 3.12550 3.38355 3.25708
# Velocity P-wave (km/s) = 6.53300 6.75147 6.64313
#
# Compressibility (1/GPa) = 0.02053011
#
# Stress axis : x y z
#
# Youngs Moduli (GPa) = 39.42888 39.42888 97.80775
#
# Poissons Ratio (x) = 0.58295 0.26527
# Poissons Ratio (y) = 0.58295 0.26527
# Poissons Ratio (z) = 0.10694 0.10694
#
# Static dielectric constant tensor:
#      x y z
#    x 2.859760 0.000000 0.000000 
#    y 0.000000 2.859760 0.000000 
#    z 0.000000 0.000000 3.661640 
# 
# 
# High freq. dielectric constant tensor:
#      x y z
#    x 1.594200 0.000000 0.000000 
#    y 0.000000 1.594200 0.000000 
#    z 0.000000 0.000000 1.666360 
# 
# From -- ./inp_files/8375.got.cif
#   From: 2010.03.12/outbox.cif.g09.slc.cpg/sg191_5_cif.got.tgz:8375.got - 2010.04.01 12:09:02.
