data_PCOD8328217
_publ_section_title
;
Structure prediction by ZEFSAII (Michael W. Deem and Ramdas Pophale) SiO2 
 PCOD8328217
Probable space group: P 6/M M M
;
_chemical_formula_sum "Si O2"
_cell_formula_units_Z 108
_cell_length_a 26.411731
_cell_length_b 26.411731
_cell_length_c 14.416893
_cell_angle_alpha 90.000000
_cell_angle_beta 90.000000
_cell_angle_gamma 120.000000
_cell_volume 8709.556437
_symmetry_space_group_name_H-M "P 6/M M M"
_symmetry_group_IT_number 191
_symmetry_cell_setting 'hexagonal'
loop_
_space_group_symop_operation_xyz
x,y,z
x-y,x,z
-y,x-y,z
-x,-y,z
-x+y,-x,z
y,-x+y,z
x-y,-y,-z
-x,-x+y,-z
y,x,-z
-y,-x,-z
-x+y,y,-z
x,x-y,-z
-x,-y,-z
-x+y,-x,-z
y,-x+y,-z
x,y,-z
x-y,x,-z
-y,x-y,-z
-x+y,y,z
x,x-y,z
-y,-x,z
y,x,z
x-y,-y,z
-x,-x+y,z
loop_
_atom_site_type_symbol
_atom_site_label
_atom_site_fract_x
_atom_site_fract_y
_atom_site_fract_z
Si Si1 0.521869 0.591013 0.101519
Si Si2 0.825829 0.761675 0.389719
Si Si3 0.465504 0.931007 0.603025
Si Si4 0.069354 0.635490 0.708881
Si Si5 0.872390 0.243731 0.392426
O O1 0.452430 0.547571 0.118149
O O2 0.551532 0.551532 0.104455
O O3 0.550699 0.638599 0.183181
O O4 0.532147 0.621742 0.000000
O O5 0.826755 0.764755 0.500000
O O6 0.891344 0.782688 0.352770
O O7 0.803401 0.803401 0.346656
O O8 0.782667 0.695313 0.359523
O O9 0.451622 0.903244 0.500000
O O10 0.505322 0.910780 0.656867
O O11 0.500000 0.000000 0.596311
O O12 0.108957 0.699881 0.669444
O O13 0.000000 0.611850 0.695896
O O14 0.883924 0.262330 0.500000
O O15 0.804250 0.195751 0.376630
#
# Coordination Sequence:
#
# PCOD8328217 Si02
#       5
#    24  24  12  24  24
#     4   8  13  22  35  51  72  94 115 139 167 205
#     4   8  13  21  32  45  61  84 115 147 177 208
#     4   9  16  22  29  49  77  95 108 132 169 213
#     4  10  16  23  36  53  72  94 117 143 177 211
#     4   9  17  26  34  46  67  95 124 149 173 208
#
# _framework density 12.400173000000001
#
# number of rings (size 3 to 8) (size 9 to 14) (size 15 to 20)
#    0.000    3.222    1.111    3.333    0.000    2.222 
#    0.000    0.000    0.000    0.889    0.000    1.556 
#    1.111    0.000    1.333    0.000    0.222    0.000 
#
# Total GULP energy -1338082.308045 kJ/mol
# GULP energy per Si atom -12389.651000 kJ/mol
# Density = 1.237195 g / cm^3
# Si number density = 12.400173 Si / 1000 Ang^3
#
#
#
# Elastic Constant Matrix: (Units=GPa)
#
#
# Indices 1 2 3 4 5 6 
#
# 1 74.6133 39.0796 35.9113 0.0000 0.0000 0.0000
# 2 39.0796 74.6133 35.9113 0.0000 0.0000 0.0000
# 3 35.9113 35.9113 80.3594 0.0000 0.0000 0.0000
# 4 0.0000 0.0000 0.0000 10.0545 0.0000 0.0000
# 5 0.0000 0.0000 0.0000 0.0000 10.0545 0.0000
# 6 0.0000 0.0000 0.0000 0.0000 0.0000 17.7668
#
#
#
# Elastic Compliance Matrix: (Units=1/GPa)
#
#
# Indices 1 2 3 4 5 6 
#
# 1 0.020199 -0.007943 -0.005477 0.000000 0.000000 0.000000
# 2 -0.007943 0.020199 -0.005477 0.000000 0.000000 0.000000
# 3 -0.005477 -0.005477 0.017339 0.000000 0.000000 0.000000
# 4 0.000000 0.000000 0.000000 0.099458 0.000000 0.000000
# 5 0.000000 0.000000 0.000000 0.000000 0.099458 0.000000
# 6 0.000000 0.000000 0.000000 0.000000 0.000000 0.056285
#
#
# Mechanical properties :
#
#
# Convention : Reuss Voigt Hill
#
# Bulk Modulus (GPa) = 50.14320 50.15449 50.14884
# Shear Modulus (GPa) = 13.99076 15.48742 14.73909
#
# Velocity S-wave (km/s) = 3.36262 3.53791 3.45138
# Velocity P-wave (km/s) = 7.45665 7.56462 7.51083
#
# Compressibility (1/GPa) = 0.01994289
#
# Stress axis : x y z
#
# Youngs Moduli (GPa) = 49.50771 49.50771 57.67341
#
# Poissons Ratio (x) = 0.39326 0.31586
# Poissons Ratio (y) = 0.39326 0.31586
# Poissons Ratio (z) = 0.27114 0.27114
#
# Static dielectric constant tensor:
#      x y z
#    x 2.452350 0.000000 0.000000 
#    y 0.000000 2.452350 0.000000 
#    z 0.000000 0.000000 2.642510 
# 
# 
# High freq. dielectric constant tensor:
#      x y z
#    x 1.447080 0.000000 0.000000 
#    y 0.000000 1.447080 0.000000 
#    z 0.000000 0.000000 1.452770 
# 
# From -- ./inp_files/6341.got.cif
#   From: 2010.03.12/outbox.cif.g09.slc.cpg/sg191_4_cif.got.tgz:6341.got - 2010.04.01 12:09:02.
