data_PCOD8329493
_publ_section_title
;
Structure prediction by ZEFSAII (Michael W. Deem and Ramdas Pophale) SiO2 
 PCOD8329493
Probable space group: P 6/M C C
;
_chemical_formula_sum "Si O2"
_cell_formula_units_Z 72
_cell_length_a 16.838987
_cell_length_b 16.838987
_cell_length_c 14.349190
_cell_angle_alpha 90.000000
_cell_angle_beta 90.000000
_cell_angle_gamma 120.000000
_cell_volume 3523.627098
_symmetry_space_group_name_H-M "P 6/M C C"
_symmetry_group_IT_number 192
_symmetry_cell_setting 'hexagonal'
loop_
_space_group_symop_operation_xyz
x,y,z
x-y,x,z
-y,x-y,z
-x,-y,z
-x+y,-x,z
y,-x+y,z
x-y,-y,1/2-z
-x,-x+y,1/2-z
y,x,1/2-z
-y,-x,1/2-z
-x+y,y,1/2-z
x,x-y,1/2-z
-x,-y,-z
-x+y,-x,-z
y,-x+y,-z
x,y,-z
x-y,x,-z
-y,x-y,-z
-x+y,y,1/2+z
x,x-y,1/2+z
-y,-x,1/2+z
y,x,1/2+z
x-y,-y,1/2+z
-x,-x+y,1/2+z
loop_
_atom_site_type_symbol
_atom_site_label
_atom_site_fract_x
_atom_site_fract_y
_atom_site_fract_z
Si Si1 0.199366 0.410930 0.645859
Si Si2 0.206254 0.127461 0.389215
Si Si3 0.636618 0.118173 0.500000
Si Si4 0.441918 0.347025 0.000000
O O1 0.225528 0.451055 0.750000
O O2 0.116077 0.306916 0.652252
O O3 0.167729 0.473684 0.591930
O O4 0.285245 0.413914 0.592842
O O5 0.141141 0.165070 0.352653
O O6 0.213029 0.130872 0.500000
O O7 0.549660 0.131811 0.500000
O O8 0.613942 0.014102 0.500000
#
# Coordination Sequence:
#
# PCOD8329493 Si02
#       4
#    24  24  12  12
#     4  11  23  39  62  92 123 158 201 255 311 365
#     4  10  19  33  55  86 126 170 210 244 280 332
#     4  10  22  42  65  87 117 157 202 252 308 373
#     4  10  22  42  65  87 117 157 202 252 308 373
#
# _framework density 20.433489000000002
#
# number of rings (size 3 to 8) (size 9 to 14) (size 15 to 20)
#    0.000    1.667    3.333    2.333    0.000    8.000 
#    8.000    3.333    0.000    2.000    0.000    0.000 
#    0.000    0.000    0.000    0.000    0.000    0.000 
#
# Total GULP energy -893150.256825 kJ/mol
# GULP energy per Si atom -12404.864678 kJ/mol
# Density = 2.038698 g / cm^3
# Si number density = 20.433489 Si / 1000 Ang^3
#
#
#
# Elastic Constant Matrix: (Units=GPa)
#
#
# Indices 1 2 3 4 5 6 
#
# 1 71.4967 7.6926 14.1292 0.0000 0.0000 0.0000
# 2 7.6926 71.4967 14.1292 0.0000 0.0000 0.0000
# 3 14.1292 14.1292 123.2567 0.0000 0.0000 0.0000
# 4 0.0000 0.0000 0.0000 5.5632 0.0000 0.0000
# 5 0.0000 0.0000 0.0000 0.0000 5.5632 0.0000
# 6 0.0000 0.0000 0.0000 0.0000 0.0000 31.9021
#
#
#
# Elastic Compliance Matrix: (Units=1/GPa)
#
#
# Indices 1 2 3 4 5 6 
#
# 1 0.014420 -0.001253 -0.001509 0.000000 0.000000 0.000000
# 2 -0.001253 0.014420 -0.001509 0.000000 0.000000 0.000000
# 3 -0.001509 -0.001509 0.008459 0.000000 0.000000 0.000000
# 4 0.000000 0.000000 0.000000 0.179751 0.000000 0.000000
# 5 0.000000 0.000000 0.000000 0.000000 0.179751 0.000000
# 6 0.000000 0.000000 0.000000 0.000000 0.000000 0.031346
#
#
# Mechanical properties :
#
#
# Convention : Reuss Voigt Hill
#
# Bulk Modulus (GPa) = 34.77649 37.57245 36.17447
# Shear Modulus (GPa) = 11.20383 23.95899 17.58141
#
# Velocity S-wave (km/s) = 2.34414 3.42795 2.93648
# Velocity P-wave (km/s) = 4.93791 5.83912 5.40732
#
# Compressibility (1/GPa) = 0.02875506
#
# Stress axis : x y z
#
# Youngs Moduli (GPa) = 69.34926 69.34926 118.21479
#
# Poissons Ratio (x) = 0.08691 0.17842
# Poissons Ratio (y) = 0.08691 0.17842
# Poissons Ratio (z) = 0.10467 0.10467
#
# Static dielectric constant tensor:
#      x y z
#    x 3.760530 0.000000 0.000000 
#    y 0.000000 3.760530 0.000000 
#    z 0.000000 0.000000 3.659410 
# 
# 
# High freq. dielectric constant tensor:
#      x y z
#    x 1.798450 0.000000 0.000000 
#    y 0.000000 1.798450 0.000000 
#    z 0.000000 0.000000 1.795120 
# 
# From -- ./inp_files/2480.got.cif
#   From: 2010.03.12/outbox.cif.g09.slc.cpg/sg192_2_cif.got.tgz:2480.got - 2010.04.01 12:16:15.
