data_PCOD8329393
_publ_section_title
;
Structure prediction by ZEFSAII (Michael W. Deem and Ramdas Pophale) SiO2 
 PCOD8329393
Probable space group: P 6/M C C
;
_chemical_formula_sum "Si O2"
_cell_formula_units_Z 192
_cell_length_a 28.393599
_cell_length_b 28.393599
_cell_length_c 15.439793
_cell_angle_alpha 90.000000
_cell_angle_beta 90.000000
_cell_angle_gamma 120.000000
_cell_volume 10779.856864
_symmetry_space_group_name_H-M "P 6/M C C"
_symmetry_group_IT_number 192
_symmetry_cell_setting 'hexagonal'
loop_
_space_group_symop_operation_xyz
x,y,z
x-y,x,z
-y,x-y,z
-x,-y,z
-x+y,-x,z
y,-x+y,z
x-y,-y,1/2-z
-x,-x+y,1/2-z
y,x,1/2-z
-y,-x,1/2-z
-x+y,y,1/2-z
x,x-y,1/2-z
-x,-y,-z
-x+y,-x,-z
y,-x+y,-z
x,y,-z
x-y,x,-z
-y,x-y,-z
-x+y,y,1/2+z
x,x-y,1/2+z
-y,-x,1/2+z
y,x,1/2+z
x-y,-y,1/2+z
-x,-x+y,1/2+z
loop_
_atom_site_type_symbol
_atom_site_label
_atom_site_fract_x
_atom_site_fract_y
_atom_site_fract_z
Si Si1 0.374196 0.519097 0.903392
Si Si2 0.301276 0.237103 0.596526
Si Si3 0.237103 0.935827 0.903474
Si Si4 0.333556 0.556555 0.250000
Si Si5 0.064173 0.831881 0.750000
Si Si6 0.339730 0.937678 0.351646
Si Si7 0.374196 0.855099 0.096608
Si Si8 0.597948 0.660270 0.148354
O O1 0.334856 0.524966 0.835458
O O2 0.366486 0.459458 0.899231
O O3 0.436962 0.563038 0.881422
O O4 0.359107 0.528970 0.000000
O O5 0.296316 0.212511 0.500000
O O6 0.273817 0.273817 0.601274
O O7 0.270794 0.189098 0.665579
O O8 0.364570 0.276425 0.620782
O O9 0.189098 0.918304 0.834421
O O10 0.276425 0.911855 0.879218
O O11 0.212511 0.916195 0.000000
O O12 0.381741 0.618260 0.250000
O O13 0.278069 0.556137 0.250000
O O14 0.334856 0.524966 0.335458
O O15 0.102079 0.897921 0.750000
O O16 0.000000 0.813689 0.750000
O O17 0.342983 0.931480 0.250000
O O18 0.373977 0.000000 0.381508
O O19 0.366486 0.907028 0.100769
O O20 0.359107 0.830137 0.000000
#
# Coordination Sequence:
#
# PCOD8329393 Si02
#       8
#    24  24  24  24  24  24  24  24
#     4  10  21  36  53  76 107 139 171 211 259 309
#     4   9  17  31  51  74 102 137 176 216 255 295
#     4   9  17  31  51  74 102 137 176 216 255 295
#     4  10  21  39  60  78  95 119 157 208 265 320
#     4  10  20  35  55  80 109 139 175 218 263 311
#     4  10  18  31  53  77 105 143 182 215 250 298
#     4  10  21  36  53  76 107 139 171 211 259 309
#     4  10  18  31  53  77 105 143 182 215 250 298
#
# _framework density 17.810997
#
# number of rings (size 3 to 8) (size 9 to 14) (size 15 to 20)
#    0.000    2.250    2.500    0.875    0.000    3.000 
#    0.000    5.000    0.000    4.625    0.000    0.000 
#    0.000    0.000    0.000    6.250    0.000    0.000 
#
# Total GULP energy -2380317.524033 kJ/mol
# GULP energy per Si atom -12397.487104 kJ/mol
# Density = 1.777046 g / cm^3
# Si number density = 17.810997 Si / 1000 Ang^3
#
#
#
# Elastic Constant Matrix: (Units=GPa)
#
#
# Indices 1 2 3 4 5 6 
#
# 1 88.7074 45.3088 37.9741 0.0000 0.0000 0.0000
# 2 45.3088 88.7074 37.9741 0.0000 0.0000 0.0000
# 3 37.9741 37.9741 126.3071 0.0000 0.0000 0.0000
# 4 0.0000 0.0000 0.0000 10.2725 0.0000 0.0000
# 5 0.0000 0.0000 0.0000 0.0000 10.2725 0.0000
# 6 0.0000 0.0000 0.0000 0.0000 0.0000 21.6993
#
#
#
# Elastic Compliance Matrix: (Units=1/GPa)
#
#
# Indices 1 2 3 4 5 6 
#
# 1 0.016018 -0.007024 -0.002704 0.000000 0.000000 0.000000
# 2 -0.007024 0.016018 -0.002704 0.000000 0.000000 0.000000
# 3 -0.002704 -0.002704 0.009543 0.000000 0.000000 0.000000
# 4 0.000000 0.000000 0.000000 0.097347 0.000000 0.000000
# 5 0.000000 0.000000 0.000000 0.000000 0.097347 0.000000
# 6 0.000000 0.000000 0.000000 0.000000 0.000000 0.046085
#
#
# Mechanical properties :
#
#
# Convention : Reuss Voigt Hill
#
# Bulk Modulus (GPa) = 59.82573 60.69288 60.25930
# Shear Modulus (GPa) = 15.98493 20.61318 18.29905
#
# Velocity S-wave (km/s) = 2.99904 3.40564 3.20879
# Velocity P-wave (km/s) = 6.75681 7.04376 6.90178
#
# Compressibility (1/GPa) = 0.01671522
#
# Stress axis : x y z
#
# Youngs Moduli (GPa) = 62.42883 62.42883 104.78682
#
# Poissons Ratio (x) = 0.43850 0.28335
# Poissons Ratio (y) = 0.43850 0.28335
# Poissons Ratio (z) = 0.16881 0.16881
#
# Static dielectric constant tensor:
#      x y z
#    x 3.061340 0.000000 0.000000 
#    y 0.000000 3.061340 0.000000 
#    z 0.000000 0.000000 3.690810 
# 
# 
# High freq. dielectric constant tensor:
#      x y z
#    x 1.664130 0.000000 0.000000 
#    y 0.000000 1.664130 0.000000 
#    z 0.000000 0.000000 1.712220 
# 
# From -- ./inp_files/3569.got.cif
#   From: 2010.03.12/outbox.cif.g09.slc.cpg/sg192_2_cif.got.tgz:3569.got - 2010.04.01 12:16:15.
