data_PCOD8329658
_publ_section_title
;
Structure prediction by ZEFSAII (Michael W. Deem and Ramdas Pophale) SiO2 
 PCOD8329658
Probable space group: P 6/M C C
;
_chemical_formula_sum "Si O2"
_cell_formula_units_Z 96
_cell_length_a 14.057115
_cell_length_b 14.057115
_cell_length_c 24.616103
_cell_angle_alpha 90.000000
_cell_angle_beta 90.000000
_cell_angle_gamma 120.000000
_cell_volume 4212.523413
_symmetry_space_group_name_H-M "P 6/M C C"
_symmetry_group_IT_number 192
_symmetry_cell_setting 'hexagonal'
loop_
_space_group_symop_operation_xyz
x,y,z
x-y,x,z
-y,x-y,z
-x,-y,z
-x+y,-x,z
y,-x+y,z
x-y,-y,1/2-z
-x,-x+y,1/2-z
y,x,1/2-z
-y,-x,1/2-z
-x+y,y,1/2-z
x,x-y,1/2-z
-x,-y,-z
-x+y,-x,-z
y,-x+y,-z
x,y,-z
x-y,x,-z
-y,x-y,-z
-x+y,y,1/2+z
x,x-y,1/2+z
-y,-x,1/2+z
y,x,1/2+z
x-y,-y,1/2+z
-x,-x+y,1/2+z
loop_
_atom_site_type_symbol
_atom_site_label
_atom_site_fract_x
_atom_site_fract_y
_atom_site_fract_z
Si Si1 0.456222 0.123688 0.229978
Si Si2 0.185410 0.227022 0.063973
Si Si3 0.277705 0.824821 0.605939
Si Si4 0.395918 0.885953 0.062594
O O1 0.577578 0.155156 0.250000
O O2 0.420854 0.210427 0.250000
O O3 0.462575 0.138130 0.165739
O O4 0.367591 0.000000 0.250000
O O5 0.209243 0.136740 0.089991
O O6 0.279987 0.348543 0.079470
O O7 0.177842 0.212436 0.000000
O O8 0.360405 0.800321 0.571026
O O9 0.157290 0.714819 0.599151
O O10 0.500000 0.000000 0.084129
O O11 0.366061 0.893733 0.000000
#
# Coordination Sequence:
#
# PCOD8329658 Si02
#       4
#    24  24  24  24
#     4  11  27  48  73 102 137 181 244 309 374 432
#     4  10  21  38  63  97 136 177 221 268 330 412
#     4  12  24  40  69  91 136 178 226 285 348 414
#     4  11  24  40  64 101 143 181 223 272 341 431
#
# _framework density 22.789190000000001
#
# number of rings (size 3 to 8) (size 9 to 14) (size 15 to 20)
#    0.000    1.000    0.000    6.250   10.500    5.000 
#    0.000    0.000    0.000    0.250    0.000    0.000 
#    0.000    0.000    0.000    0.000    0.000    0.000 
#
# Total GULP energy -1189906.897660 kJ/mol
# GULP energy per Si atom -12394.863517 kJ/mol
# Density = 2.273732 g / cm^3
# Si number density = 22.789190 Si / 1000 Ang^3
#
#
#
# Elastic Constant Matrix: (Units=GPa)
#
#
# Indices 1 2 3 4 5 6 
#
# 1 92.5606 18.0464 33.7946 0.0000 0.0000 0.0000
# 2 18.0464 92.5606 33.7946 0.0000 0.0000 0.0000
# 3 33.7946 33.7946 102.8077 0.0000 0.0000 0.0000
# 4 0.0000 0.0000 0.0000 -108.4473 0.0000 0.0000
# 5 0.0000 0.0000 0.0000 0.0000 -108.4473 0.0000
# 6 0.0000 0.0000 0.0000 0.0000 0.0000 37.2571
#
#
#
# Elastic Compliance Matrix: (Units=1/GPa)
#
#
# Indices 1 2 3 4 5 6 
#
# 1 0.012367 -0.001053 -0.003719 0.000000 0.000000 0.000000
# 2 -0.001053 0.012367 -0.003719 0.000000 0.000000 0.000000
# 3 -0.003719 -0.003719 0.012172 0.000000 0.000000 0.000000
# 4 0.000000 0.000000 0.000000 -0.009221 0.000000 0.000000
# 5 0.000000 0.000000 0.000000 0.000000 -0.009221 0.000000
# 6 0.000000 0.000000 0.000000 0.000000 0.000000 0.026841
#
#
# Mechanical properties :
#
#
# Convention : Reuss Voigt Hill
#
# Bulk Modulus (GPa) = 50.19277 51.02222 50.60750
# Shear Modulus (GPa) = 72.53985 -22.44126 25.04929
#
# Velocity S-wave (km/s) = 5.64800 -3.14145 3.31898
# Velocity P-wave (km/s) = 8.03778 3.04616 6.07803
#
# Compressibility (1/GPa) = 0.01992319
#
# Stress axis : x y z
#
# Youngs Moduli (GPa) = 80.86091 80.86091 82.15669
#
# Poissons Ratio (x) = 0.08517 0.30554
# Poissons Ratio (y) = 0.08517 0.30554
# Poissons Ratio (z) = 0.30072 0.30072
#
# Static dielectric constant tensor:
#      x y z
#    x 4.433350 0.000000 0.000000 
#    y 0.000000 4.433350 0.000000 
#    z 0.000000 0.000000 3.908250 
# 
# 
# High freq. dielectric constant tensor:
#      x y z
#    x 1.918040 0.000000 0.000000 
#    y 0.000000 1.918040 0.000000 
#    z 0.000000 0.000000 1.867000 
# 
# From -- ./inp_files/6350.got.cif
#   From: 2010.03.12/outbox.cif.g09.slc.cpg/sg192_4_cif.got.tgz:6350.got - 2010.04.01 12:16:15.
