data_PCOD8329272
_publ_section_title
;
Structure prediction by ZEFSAII (Michael W. Deem and Ramdas Pophale) SiO2 
 PCOD8329272
Probable space group: P 6/M M M
;
_chemical_formula_sum "Si O2"
_cell_formula_units_Z 84
_cell_length_a 20.353621
_cell_length_b 20.353621
_cell_length_c 13.763089
_cell_angle_alpha 90.000000
_cell_angle_beta 90.000000
_cell_angle_gamma 120.000000
_cell_volume 4937.759312
_symmetry_space_group_name_H-M "P 6/M M M"
_symmetry_group_IT_number 191
_symmetry_cell_setting 'hexagonal'
loop_
_space_group_symop_operation_xyz
x,y,z
x-y,x,z
-y,x-y,z
-x,-y,z
-x+y,-x,z
y,-x+y,z
x-y,-y,-z
-x,-x+y,-z
y,x,-z
-y,-x,-z
-x+y,y,-z
x,x-y,-z
-x,-y,-z
-x+y,-x,-z
y,-x+y,-z
x,y,-z
x-y,x,-z
-y,x-y,-z
-x+y,y,z
x,x-y,z
-y,-x,z
y,x,z
x-y,-y,z
-x,-x+y,z
loop_
_atom_site_type_symbol
_atom_site_label
_atom_site_fract_x
_atom_site_fract_y
_atom_site_fract_z
Si Si1 0.000000 0.294671 0.615314
Si Si2 0.857357 0.296769 0.299091
Si Si3 0.088586 0.620234 0.890597
Si Si4 0.000000 0.854747 0.615269
Si Si5 0.543537 0.087074 0.385573
O O1 0.924198 0.285618 0.660291
O O2 0.000000 0.306489 0.500000
O O3 0.000000 0.219837 0.647330
O O4 0.776488 0.223513 0.323067
O O5 0.865265 0.310396 0.183013
O O6 0.864713 0.370203 0.351406
O O7 0.104159 0.552080 0.864411
O O8 0.000000 0.591365 0.880065
O O9 0.116173 0.649349 0.000000
O O10 0.926443 0.852886 0.660101
O O11 0.000000 0.860890 0.500000
O O12 0.540644 0.081287 0.500000
O O13 0.500000 0.000000 0.342821
#
# Coordination Sequence:
#
# PCOD8329272 Si02
#       5
#    12  24  24  12  12
#     4  11  22  36  53  76 110 149 189 227 264 319
#     4  12  23  36  58  85 112 144 184 233 282 331
#     4   9  17  34  61  85 106 139 184 230 280 341
#     4   9  17  30  48  71 101 137 176 218 264 310
#     4  11  22  40  61  79 109 155 198 234 274 330
#
# _framework density 17.011763999999999
#
# number of rings (size 3 to 8) (size 9 to 14) (size 15 to 20)
#    0.000    1.571    4.286    2.714    0.000    4.571 
#    0.857    0.000    0.000    0.000    0.000    0.000 
#    0.000    0.000    0.000    0.000    0.000   10.143 
#
# Total GULP energy -1041496.176368 kJ/mol
# GULP energy per Si atom -12398.764004 kJ/mol
# Density = 1.697304 g / cm^3
# Si number density = 17.011764 Si / 1000 Ang^3
#
#
#
# Elastic Constant Matrix: (Units=GPa)
#
#
# Indices 1 2 3 4 5 6 
#
# 1 134.3128 80.4868 44.3166 0.0000 0.0000 0.0000
# 2 80.4868 134.3128 44.3166 0.0000 0.0000 0.0000
# 3 44.3166 44.3166 85.9043 0.0000 0.0000 0.0000
# 4 0.0000 0.0000 0.0000 17.9481 0.0000 0.0000
# 5 0.0000 0.0000 0.0000 0.0000 17.9481 0.0000
# 6 0.0000 0.0000 0.0000 0.0000 0.0000 26.9130
#
#
#
# Elastic Compliance Matrix: (Units=1/GPa)
#
#
# Indices 1 2 3 4 5 6 
#
# 1 0.012246 -0.006332 -0.003051 0.000000 0.000000 0.000000
# 2 -0.006332 0.012246 -0.003051 0.000000 0.000000 0.000000
# 3 -0.003051 -0.003051 0.014789 0.000000 0.000000 0.000000
# 4 0.000000 0.000000 0.000000 0.055716 0.000000 0.000000
# 5 0.000000 0.000000 0.000000 0.000000 0.055716 0.000000
# 6 0.000000 0.000000 0.000000 0.000000 0.000000 0.037157
#
#
# Mechanical properties :
#
#
# Convention : Reuss Voigt Hill
#
# Bulk Modulus (GPa) = 69.38071 76.97441 73.17756
# Shear Modulus (GPa) = 22.98385 24.92251 23.95318
#
# Velocity S-wave (km/s) = 3.67966 3.83171 3.75645
# Velocity P-wave (km/s) = 7.67631 8.05742 7.86917
#
# Compressibility (1/GPa) = 0.01441323
#
# Stress axis : x y z
#
# Youngs Moduli (GPa) = 81.65632 81.65632 67.61786
#
# Poissons Ratio (x) = 0.51704 0.20632
# Poissons Ratio (y) = 0.51704 0.20632
# Poissons Ratio (z) = 0.24915 0.24915
#
# Static dielectric constant tensor:
#      x y z
#    x 3.262410 0.000000 0.000000 
#    y 0.000000 3.262410 0.000000 
#    z 0.000000 0.000000 3.268470 
# 
# 
# High freq. dielectric constant tensor:
#      x y z
#    x 1.650170 0.000000 0.000000 
#    y 0.000000 1.650170 0.000000 
#    z 0.000000 0.000000 1.652190 
# 
# From -- ./inp_files/4019.got.cif
#   From: 2010.03.12/outbox.cif.g09.slc.cpg/sg191_3_cif.got.tgz:4019.got - 2010.04.01 12:09:02.
