data_PCOD8329626
_publ_section_title
;
Structure prediction by ZEFSAII (Michael W. Deem and Ramdas Pophale) SiO2 
 PCOD8329626
Probable space group: P 6/M C C
;
_chemical_formula_sum "Si O2"
_cell_formula_units_Z 80
_cell_length_a 18.581961
_cell_length_b 18.581961
_cell_length_c 15.146486
_cell_angle_alpha 90.000000
_cell_angle_beta 90.000000
_cell_angle_gamma 120.000000
_cell_volume 4529.242856
_symmetry_space_group_name_H-M "P 6/M C C"
_symmetry_group_IT_number 192
_symmetry_cell_setting 'hexagonal'
loop_
_space_group_symop_operation_xyz
x,y,z
x-y,x,z
-y,x-y,z
-x,-y,z
-x+y,-x,z
y,-x+y,z
x-y,-y,1/2-z
-x,-x+y,1/2-z
y,x,1/2-z
-y,-x,1/2-z
-x+y,y,1/2-z
x,x-y,1/2-z
-x,-y,-z
-x+y,-x,-z
y,-x+y,-z
x,y,-z
x-y,x,-z
-y,x-y,-z
-x+y,y,1/2+z
x,x-y,1/2+z
-y,-x,1/2+z
y,x,1/2+z
x-y,-y,1/2+z
-x,-x+y,1/2+z
loop_
_atom_site_type_symbol
_atom_site_label
_atom_site_fract_x
_atom_site_fract_y
_atom_site_fract_z
Si Si1 0.785299 0.268367 0.598762
Si Si2 0.032472 0.594048 0.601465
Si Si3 0.333334 0.666667 0.646010
Si Si4 0.686486 0.686486 0.750000
Si Si5 0.819559 0.180442 0.750000
O O1 0.784838 0.236263 0.500000
O O2 0.868538 0.355992 0.616527
O O3 0.706210 0.279804 0.610530
O O4 0.780065 0.198911 0.664704
O O5 0.008495 0.598982 0.500000
O O6 0.000000 0.500000 0.630559
O O7 0.989678 0.632077 0.663204
O O8 0.333334 0.666667 0.750000
O O9 0.696945 0.777889 0.758224
#
# Coordination Sequence:
#
# PCOD8329626 Si02
#       5
#    24  24   8  12  12
#     4  10  21  35  50  73 104 140 179 217 256 297
#     4   9  19  33  52  75 100 137 177 212 253 298
#     4  12  22  32  49  73 107 145 190 221 256 286
#     4  10  21  36  56  75 104 130 170 216 268 317
#     4  10  22  38  56  79 100 134 169 218 266 328
#
# _framework density 17.662997000000001
#
# number of rings (size 3 to 8) (size 9 to 14) (size 15 to 20)
#    0.000    2.100    1.500    1.350    4.200    1.200 
#    0.000    0.000    0.000    0.300    0.000    0.000 
#    0.000    0.000    0.000   15.000    0.000    0.000 
#
# Total GULP energy -992221.138041 kJ/mol
# GULP energy per Si atom -12402.764226 kJ/mol
# Density = 1.762280 g / cm^3
# Si number density = 17.662997 Si / 1000 Ang^3
#
#
#
# Elastic Constant Matrix: (Units=GPa)
#
#
# Indices 1 2 3 4 5 6 
#
# 1 80.9422 47.2329 30.3087 0.0002 0.0038 -0.0004
# 2 47.2329 80.9405 30.3088 -0.0024 -0.0031 -0.0002
# 3 30.3087 30.3088 104.9465 0.0005 -0.0019 0.0003
# 4 0.0002 -0.0024 0.0005 62.6221 0.0066 0.0035
# 5 0.0038 -0.0031 -0.0019 0.0066 62.7625 -0.0013
# 6 -0.0004 -0.0002 0.0003 0.0035 -0.0013 16.8531
#
#
#
# Elastic Compliance Matrix: (Units=1/GPa)
#
#
# Indices 1 2 3 4 5 6 
#
# 1 0.019351 -0.010315 -0.002610 0.000000 -0.000002 0.000000
# 2 -0.010315 0.019351 -0.002610 0.000001 0.000002 0.000000
# 3 -0.002610 -0.002610 0.011036 0.000000 0.000000 0.000000
# 4 0.000000 0.000001 0.000000 0.015969 -0.000002 -0.000003
# 5 -0.000002 0.000002 0.000000 -0.000002 0.015933 0.000001
# 6 0.000000 0.000000 0.000000 -0.000003 0.000001 0.059336
#
#
# Mechanical properties :
#
#
# Convention : Reuss Voigt Hill
#
# Bulk Modulus (GPa) = 53.56306 53.61445 53.58876
# Shear Modulus (GPa) = 28.04764 39.04613 33.54689
#
# Velocity S-wave (km/s) = 3.98921 4.70682 4.36279
# Velocity P-wave (km/s) = 7.18396 7.74331 7.46887
#
# Compressibility (1/GPa) = 0.01866958
#
# Stress axis : x y z
#
# Youngs Moduli (GPa) = 51.67730 51.67608 90.61256
#
# Poissons Ratio (x) = 0.53304 0.23646
# Poissons Ratio (y) = 0.53305 0.23647
# Poissons Ratio (z) = 0.13485 0.13486
#
# Static dielectric constant tensor:
#      x y z
#    x 3.105030 0.000000 0.000000 
#    y 0.000000 3.105010 0.000000 
#    z 0.000000 0.000000 3.528910 
# 
# 
# High freq. dielectric constant tensor:
#      x y z
#    x 1.659310 0.000000 0.000000 
#    y 0.000000 1.659310 0.000000 
#    z 0.000000 0.000000 1.705310 
# 
# From -- ./inp_files/2687.got.cif
#   From: 2010.03.12/outbox.cif.g09.slc.cpg/sg192_2_cif.got.tgz:2687.got - 2010.04.01 12:16:15.
