data_PCOD8329718
_publ_section_title
;
Structure prediction by ZEFSAII (Michael W. Deem and Ramdas Pophale) SiO2 
 PCOD8329718
Probable space group: P 6/M C C
;
_chemical_formula_sum "Si O2"
_cell_formula_units_Z 152
_cell_length_a 18.347403
_cell_length_b 18.347403
_cell_length_c 27.109158
_cell_angle_alpha 90.000000
_cell_angle_beta 90.000000
_cell_angle_gamma 120.000000
_cell_volume 7903.070591
_symmetry_space_group_name_H-M "P 6/M C C"
_symmetry_group_IT_number 192
_symmetry_cell_setting 'hexagonal'
loop_
_space_group_symop_operation_xyz
x,y,z
x-y,x,z
-y,x-y,z
-x,-y,z
-x+y,-x,z
y,-x+y,z
x-y,-y,1/2-z
-x,-x+y,1/2-z
y,x,1/2-z
-y,-x,1/2-z
-x+y,y,1/2-z
x,x-y,1/2-z
-x,-y,-z
-x+y,-x,-z
y,-x+y,-z
x,y,-z
x-y,x,-z
-y,x-y,-z
-x+y,y,1/2+z
x,x-y,1/2+z
-y,-x,1/2+z
y,x,1/2+z
x-y,-y,1/2+z
-x,-x+y,1/2+z
loop_
_atom_site_type_symbol
_atom_site_label
_atom_site_fract_x
_atom_site_fract_y
_atom_site_fract_z
Si Si1 0.430667 0.025741 0.390701
Si Si2 0.359366 0.094518 0.943335
Si Si3 0.685380 0.998622 0.693959
Si Si4 0.480406 0.212762 0.398737
Si Si5 0.040586 0.179412 0.559019
Si Si6 0.184797 0.370751 0.806994
Si Si7 0.333334 0.666667 0.938695
O O1 0.394204 0.012035 0.335923
O O2 0.468797 0.121322 0.408907
O O3 0.500000 0.000000 0.390782
O O4 0.360070 0.961122 0.427126
O O5 0.417716 0.192847 0.933885
O O6 0.268617 0.060692 0.917822
O O7 0.341834 0.079846 0.000000
O O8 0.693373 0.915363 0.683877
O O9 0.660742 0.000000 0.750000
O O10 0.768757 0.086500 0.679642
O O11 0.454173 0.220174 0.341991
O O12 0.573870 0.282120 0.415116
O O13 0.110039 0.158993 0.579820
O O14 0.042034 0.180023 0.500000
O O15 0.200974 0.401948 0.750000
O O16 0.333334 0.666668 0.000000
#
# Coordination Sequence:
#
# PCOD8329718 Si02
#       7
#    24  24  24  24  24  24   8
#     4  11  23  38  59  86 114 150 193 251 300 353
#     4  11  22  37  57  80 113 155 198 243 289 347
#     4   9  18  35  62  92 121 155 193 241 297 361
#     4  11  23  40  61  86 118 154 201 247 301 362
#     4   9  17  30  50  77 109 146 187 234 287 341
#     4   9  18  36  63  94 124 157 199 247 303 358
#     4  12  27  45  64  83 115 165 201 246 307 368
#
# _framework density 19.233031
#
# number of rings (size 3 to 8) (size 9 to 14) (size 15 to 20)
#    0.000    1.895    1.579    2.526    0.000    3.789 
#    0.000    0.789    0.000    0.316    0.000    2.211 
#    0.000    0.000    0.000    0.000    0.000    0.000 
#
# Total GULP energy -1883855.386112 kJ/mol
# GULP energy per Si atom -12393.785435 kJ/mol
# Density = 1.918926 g / cm^3
# Si number density = 19.233031 Si / 1000 Ang^3
#
#
#
# Elastic Constant Matrix: (Units=GPa)
#
#
# Indices 1 2 3 4 5 6 
#
# 1 152.1527 73.8203 43.4170 0.0000 -0.0002 0.0003
# 2 73.8203 152.1540 43.4168 0.0001 -0.0001 0.0003
# 3 43.4170 43.4168 73.2813 0.0000 0.0001 0.0000
# 4 0.0000 0.0001 0.0000 20.6146 0.0000 0.0000
# 5 -0.0002 -0.0001 0.0001 0.0000 20.6148 0.0001
# 6 0.0003 0.0003 0.0000 0.0000 0.0001 39.1667
#
#
#
# Elastic Compliance Matrix: (Units=1/GPa)
#
#
# Indices 1 2 3 4 5 6 
#
# 1 0.009248 -0.003518 -0.003395 0.000000 0.000000 0.000000
# 2 -0.003518 0.009248 -0.003395 0.000000 0.000000 0.000000
# 3 -0.003395 -0.003395 0.017669 0.000000 0.000000 0.000000
# 4 0.000000 0.000000 0.000000 0.048509 0.000000 0.000000
# 5 0.000000 0.000000 0.000000 0.000000 0.048509 0.000000
# 6 0.000000 0.000000 0.000000 0.000000 0.000000 0.025532
#
#
# Mechanical properties :
#
#
# Convention : Reuss Voigt Hill
#
# Bulk Modulus (GPa) = 64.31174 77.65511 70.98343
# Shear Modulus (GPa) = 27.09843 30.54148 28.81995
#
# Velocity S-wave (km/s) = 3.75767 3.98926 3.87520
# Velocity P-wave (km/s) = 7.23447 7.85382 7.55050
#
# Compressibility (1/GPa) = 0.01554926
#
# Stress axis : x y z
#
# Youngs Moduli (GPa) = 108.13219 108.13355 56.59774
#
# Poissons Ratio (x) = 0.38043 0.19214
# Poissons Ratio (y) = 0.38042 0.19213
# Poissons Ratio (z) = 0.36708 0.36708
#
# Static dielectric constant tensor:
#      x y z
#    x 3.710810 0.000000 0.000000 
#    y 0.000000 3.710830 0.000000 
#    z 0.000000 0.000000 3.612100 
# 
# 
# High freq. dielectric constant tensor:
#      x y z
#    x 1.751370 0.000000 0.000000 
#    y 0.000000 1.751370 0.000000 
#    z 0.000000 0.000000 1.746900 
# 
# From -- ./inp_files/7130.got.cif
#   From: 2010.03.12/outbox.cif.g09.slc.cpg/sg192_4_cif.got.tgz:7130.got - 2010.04.01 12:16:15.
