data_PCOD8329139
_publ_section_title
;
Structure prediction by ZEFSAII (Michael W. Deem and Ramdas Pophale) SiO2 
 PCOD8329139
Probable space group: P 6/M M M
;
_chemical_formula_sum "Si O2"
_cell_formula_units_Z 66
_cell_length_a 21.932586
_cell_length_b 21.932586
_cell_length_c 8.173994
_cell_angle_alpha 90.000000
_cell_angle_beta 90.000000
_cell_angle_gamma 120.000000
_cell_volume 3405.215709
_symmetry_space_group_name_H-M "P 6/M M M"
_symmetry_group_IT_number 191
_symmetry_cell_setting 'hexagonal'
loop_
_space_group_symop_operation_xyz
x,y,z
x-y,x,z
-y,x-y,z
-x,-y,z
-x+y,-x,z
y,-x+y,z
x-y,-y,-z
-x,-x+y,-z
y,x,-z
-y,-x,-z
-x+y,y,-z
x,x-y,-z
-x,-y,-z
-x+y,-x,-z
y,-x+y,-z
x,y,-z
x-y,x,-z
-y,x-y,-z
-x+y,y,z
x,x-y,z
-y,-x,z
y,x,z
x-y,-y,z
-x,-x+y,z
loop_
_atom_site_type_symbol
_atom_site_label
_atom_site_fract_x
_atom_site_fract_y
_atom_site_fract_z
Si Si1 0.423980 0.847960 0.181782
Si Si2 0.622520 0.245039 0.500000
Si Si3 0.573006 0.655968 0.682175
Si Si4 0.079145 0.784898 0.806582
O O1 0.397034 0.794067 0.328801
O O2 0.508316 0.893789 0.195042
O O3 0.406565 0.813129 0.000000
O O4 0.707253 0.292748 0.500000
O O5 0.544375 0.657622 0.500000
O O6 0.614505 0.614505 0.678921
O O7 0.626868 0.735206 0.739643
O O8 0.134669 0.865332 0.751542
O O9 0.000000 0.760633 0.739874
O O10 0.076551 0.778571 0.000000
#
# Coordination Sequence:
#
# PCOD8329139 Si02
#       4
#    12   6  24  24
#     4  12  23  39  65  88 110 152 198 238 298 360
#     4  10  26  48  61  74 108 144 190 252 294 330
#     4  10  20  35  56  85 120 151 186 234 292 352
#     4   9  18  33  53  80 113 150 192 238 290 347
#
# _framework density 19.382033
#
# number of rings (size 3 to 8) (size 9 to 14) (size 15 to 20)
#    0.182    1.818    1.818    1.636    0.000    7.273 
#    0.000    0.000    0.000    0.364    0.000    2.545 
#    0.000    0.000    0.000    9.091    0.000    9.455 
#
# Total GULP energy -817900.153597 kJ/mol
# GULP energy per Si atom -12392.426570 kJ/mol
# Density = 1.933792 g / cm^3
# Si number density = 19.382033 Si / 1000 Ang^3
#
#
#
# Elastic Constant Matrix: (Units=GPa)
#
#
# Indices 1 2 3 4 5 6 
#
# 1 103.4701 58.9014 37.4545 0.0000 0.0000 0.0000
# 2 58.9014 103.4701 37.4545 0.0000 0.0000 0.0000
# 3 37.4545 37.4545 102.8632 0.0000 0.0000 0.0000
# 4 0.0000 0.0000 0.0000 21.8724 0.0000 0.0000
# 5 0.0000 0.0000 0.0000 0.0000 21.8724 0.0000
# 6 0.0000 0.0000 0.0000 0.0000 0.0000 22.2844
#
#
#
# Elastic Compliance Matrix: (Units=1/GPa)
#
#
# Indices 1 2 3 4 5 6 
#
# 1 0.014920 -0.007518 -0.002695 0.000000 0.000000 0.000000
# 2 -0.007518 0.014920 -0.002695 0.000000 0.000000 0.000000
# 3 -0.002695 -0.002695 0.011684 0.000000 0.000000 0.000000
# 4 0.000000 0.000000 0.000000 0.045720 0.000000 0.000000
# 5 0.000000 0.000000 0.000000 0.000000 0.045720 0.000000
# 6 0.000000 0.000000 0.000000 0.000000 0.000000 0.044875
#
#
# Mechanical properties :
#
#
# Convention : Reuss Voigt Hill
#
# Bulk Modulus (GPa) = 63.66311 64.15826 63.91069
# Shear Modulus (GPa) = 23.93606 24.93870 24.43738
#
# Velocity S-wave (km/s) = 3.51801 3.59094 3.55466
# Velocity P-wave (km/s) = 7.02991 7.09697 7.06352
#
# Compressibility (1/GPa) = 0.01570768
#
# Stress axis : x y z
#
# Youngs Moduli (GPa) = 67.02541 67.02541 85.58382
#
# Poissons Ratio (x) = 0.50387 0.23067
# Poissons Ratio (y) = 0.50387 0.23067
# Poissons Ratio (z) = 0.18065 0.18065
#
# Static dielectric constant tensor:
#      x y z
#    x 3.728810 0.000000 0.000000 
#    y 0.000000 3.728810 0.000000 
#    z 0.000000 0.000000 3.791100 
# 
# 
# High freq. dielectric constant tensor:
#      x y z
#    x 1.743550 0.000000 0.000000 
#    y 0.000000 1.743550 0.000000 
#    z 0.000000 0.000000 1.758700 
# 
# From -- ./inp_files/681.got.cif
#   From: 2010.03.12/outbox.cif.g09.slc.cpg/sg191_1_cif.got.tgz:681.got - 2010.04.01 12:09:02.
