data_PCOD8329661
_publ_section_title
;
Structure prediction by ZEFSAII (Michael W. Deem and Ramdas Pophale) SiO2 
 PCOD8329661
Probable space group: P 6/M C C
;
_chemical_formula_sum "Si O2"
_cell_formula_units_Z 104
_cell_length_a 18.286393
_cell_length_b 18.286393
_cell_length_c 18.415019
_cell_angle_alpha 90.000000
_cell_angle_beta 90.000000
_cell_angle_gamma 120.000000
_cell_volume 5332.844266
_symmetry_space_group_name_H-M "P 6/M C C"
_symmetry_group_IT_number 192
_symmetry_cell_setting 'hexagonal'
loop_
_space_group_symop_operation_xyz
x,y,z
x-y,x,z
-y,x-y,z
-x,-y,z
-x+y,-x,z
y,-x+y,z
x-y,-y,1/2-z
-x,-x+y,1/2-z
y,x,1/2-z
-y,-x,1/2-z
-x+y,y,1/2-z
x,x-y,1/2-z
-x,-y,-z
-x+y,-x,-z
y,-x+y,-z
x,y,-z
x-y,x,-z
-y,x-y,-z
-x+y,y,1/2+z
x,x-y,1/2+z
-y,-x,1/2+z
y,x,1/2+z
x-y,-y,1/2+z
-x,-x+y,1/2+z
loop_
_atom_site_type_symbol
_atom_site_label
_atom_site_fract_x
_atom_site_fract_y
_atom_site_fract_z
Si Si1 0.333335 0.666668 0.585905
Si Si2 0.500000 0.500000 0.644379
Si Si3 0.889978 0.802718 0.083978
Si Si4 0.861551 0.638448 0.676259
Si Si5 0.489669 0.654966 0.415737
Si Si6 0.000000 0.618914 0.250000
O O1 0.333334 0.666668 0.500000
O O2 0.239261 0.600341 0.613707
O O3 0.501223 0.427158 0.597049
O O4 0.586000 0.540285 0.693462
O O5 0.853273 0.864164 0.101558
O O6 0.847256 0.721579 0.135746
O O7 0.873138 0.773523 0.000000
O O8 0.809936 0.619871 0.750000
O O9 0.818234 0.559269 0.622519
O O10 0.948749 0.646722 0.699132
O O11 0.501251 0.676022 0.500000
#
# Coordination Sequence:
#
# PCOD8329661 Si02
#       6
#     8  12  24  24  24  12
#     4   9  21  39  58  86 124 150 190 248 298 351
#     4   9  19  36  62  80 115 151 202 248 301 355
#     4  10  21  39  62  89 120 158 204 255 308 365
#     4  11  22  36  58  85 121 157 198 244 301 361
#     4  10  21  39  61  88 118 157 203 250 302 356
#     4   9  20  36  52  80 115 152 192 246 295 354
#
# _framework density 19.501788000000001
#
# number of rings (size 3 to 8) (size 9 to 14) (size 15 to 20)
#    0.000    2.077    0.000    2.654    3.231    0.923 
#    0.000    0.000    0.000    1.385    0.000    0.000 
#    0.000    0.000    0.000    0.000    0.000    0.000 
#
# Total GULP energy -1288592.210608 kJ/mol
# GULP energy per Si atom -12390.309717 kJ/mol
# Density = 1.945740 g / cm^3
# Si number density = 19.501788 Si / 1000 Ang^3
#
#
#
# Elastic Constant Matrix: (Units=GPa)
#
#
# Indices 1 2 3 4 5 6 
#
# 1 109.2381 50.6680 47.0740 0.0001 -0.0001 0.0002
# 2 50.6680 109.2387 47.0745 0.0000 0.0000 -0.0003
# 3 47.0740 47.0745 101.5011 0.0000 -0.0001 0.0001
# 4 0.0001 0.0000 0.0000 34.6755 0.0000 0.0000
# 5 -0.0001 0.0000 -0.0001 0.0000 34.6756 -0.0001
# 6 0.0002 -0.0003 0.0001 0.0000 -0.0001 29.2845
#
#
#
# Elastic Compliance Matrix: (Units=1/GPa)
#
#
# Indices 1 2 3 4 5 6 
#
# 1 0.012838 -0.004235 -0.003990 0.000000 0.000000 0.000000
# 2 -0.004235 0.012838 -0.003990 0.000000 0.000000 0.000000
# 3 -0.003990 -0.003990 0.013553 0.000000 0.000000 0.000000
# 4 0.000000 0.000000 0.000000 0.028839 0.000000 0.000000
# 5 0.000000 0.000000 0.000000 0.000000 0.028839 0.000000
# 6 0.000000 0.000000 0.000000 0.000000 0.000000 0.034148
#
#
# Mechanical properties :
#
#
# Convention : Reuss Voigt Hill
#
# Bulk Modulus (GPa) = 67.57112 67.73452 67.65282
# Shear Modulus (GPa) = 31.16871 31.40454 31.28663
#
# Velocity S-wave (km/s) = 4.00215 4.01726 4.00971
# Velocity P-wave (km/s) = 7.48867 7.50505 7.49686
#
# Compressibility (1/GPa) = 0.01479922
#
# Stress axis : x y z
#
# Youngs Moduli (GPa) = 77.89303 77.89319 73.78506
#
# Poissons Ratio (x) = 0.32991 0.29438
# Poissons Ratio (y) = 0.32991 0.29439
# Poissons Ratio (z) = 0.31077 0.31078
#
# Static dielectric constant tensor:
#      x y z
#    x 3.221830 0.000010 0.000040 
#    y 0.000010 3.221860 -0.000010 
#    z 0.000040 -0.000010 5.070690 
# 
# 
# High freq. dielectric constant tensor:
#      x y z
#    x 1.761230 0.000000 0.000000 
#    y 0.000000 1.761240 0.000000 
#    z 0.000000 0.000000 1.764880 
# 
# From -- ./inp_files/4900.got.cif
#   From: 2010.03.12/outbox.cif.g09.slc.cpg/sg192_3_cif.got.tgz:4900.got - 2010.04.01 12:16:15.
