data_PCOD8329359
_publ_section_title
;
Structure prediction by ZEFSAII (Michael W. Deem and Ramdas Pophale) SiO2 
 PCOD8329359
Probable space group: P 6/M C C
;
_chemical_formula_sum "Si O2"
_cell_formula_units_Z 96
_cell_length_a 27.541425
_cell_length_b 27.541425
_cell_length_c 8.993098
_cell_angle_alpha 90.000000
_cell_angle_beta 90.000000
_cell_angle_gamma 120.000000
_cell_volume 5907.622988
_symmetry_space_group_name_H-M "P 6/M C C"
_symmetry_group_IT_number 192
_symmetry_cell_setting 'hexagonal'
loop_
_space_group_symop_operation_xyz
x,y,z
x-y,x,z
-y,x-y,z
-x,-y,z
-x+y,-x,z
y,-x+y,z
x-y,-y,1/2-z
-x,-x+y,1/2-z
y,x,1/2-z
-y,-x,1/2-z
-x+y,y,1/2-z
x,x-y,1/2-z
-x,-y,-z
-x+y,-x,-z
y,-x+y,-z
x,y,-z
x-y,x,-z
-y,x-y,-z
-x+y,y,1/2+z
x,x-y,1/2+z
-y,-x,1/2+z
y,x,1/2+z
x-y,-y,1/2+z
-x,-x+y,1/2+z
loop_
_atom_site_type_symbol
_atom_site_label
_atom_site_fract_x
_atom_site_fract_y
_atom_site_fract_z
Si Si1 0.058739 0.387761 0.827379
Si Si2 0.938158 0.516648 0.678915
Si Si3 0.191454 0.191454 0.250000
Si Si4 0.882349 0.888186 0.000000
Si Si5 0.695088 0.897383 0.672759
O O1 0.090136 0.447780 0.739605
O O2 0.097422 0.360091 0.812910
O O3 0.000000 0.346021 0.750000
O O4 0.048548 0.396722 0.000000
O O5 0.907718 0.453859 0.750000
O O6 0.938695 0.514243 0.500000
O O7 0.000000 0.549546 0.750000
O O8 0.148245 0.157883 0.373842
O O9 0.199236 0.253149 0.235795
O O10 0.942536 0.893281 0.000000
O O11 0.678341 0.839171 0.750000
O O12 0.711997 0.899232 0.500000
#
# Coordination Sequence:
#
# PCOD8329359 Si02
#       5
#    24  24  12  12  24
#     4  10  19  32  47  71  97 125 161 201 241 289
#     4  10  17  27  44  67  96 131 162 194 226 262
#     4  12  24  40  55  78  93 120 154 198 252 322
#     4  12  25  42  60  76  96 114 145 192 260 334
#     4  11  24  38  55  74  96 126 162 207 257 310
#
# _framework density 16.250191000000001
#
# number of rings (size 3 to 8) (size 9 to 14) (size 15 to 20)
#    0.000    1.250    2.500    7.625    1.750    2.000 
#    0.000    1.250    0.000    0.000    0.000    0.000 
#    0.000    0.000    0.000    0.750    0.000   12.000 
#
# Total GULP energy -1189265.898105 kJ/mol
# GULP energy per Si atom -12388.186439 kJ/mol
# Density = 1.621320 g / cm^3
# Si number density = 16.250191 Si / 1000 Ang^3
#
#
#
# Elastic Constant Matrix: (Units=GPa)
#
#
# Indices 1 2 3 4 5 6 
#
# 1 60.5109 31.9344 -32.1286 0.0000 0.0000 0.0000
# 2 31.9344 60.5109 -32.1286 0.0000 0.0000 0.0000
# 3 -32.1286 -32.1286 -116.6053 0.0000 0.0000 0.0000
# 4 0.0000 0.0000 0.0000 27.1174 0.0000 0.0000
# 5 0.0000 0.0000 0.0000 0.0000 27.1174 0.0000
# 6 0.0000 0.0000 0.0000 0.0000 0.0000 14.2882
#
#
#
# Elastic Compliance Matrix: (Units=1/GPa)
#
#
# Indices 1 2 3 4 5 6 
#
# 1 0.022036 -0.012958 -0.002501 0.000000 0.000000 0.000000
# 2 -0.012958 0.022036 -0.002501 0.000000 0.000000 0.000000
# 3 -0.002501 -0.002501 -0.007197 0.000000 0.000000 0.000000
# 4 0.000000 0.000000 0.000000 0.036877 0.000000 0.000000
# 5 0.000000 0.000000 0.000000 0.000000 0.036877 0.000000
# 6 0.000000 0.000000 0.000000 0.000000 0.000000 0.069988
#
#
# Mechanical properties :
#
#
# Convention : Reuss Voigt Hill
#
# Bulk Modulus (GPa) = 1048.41184 -6.69211 520.85987
# Shear Modulus (GPa) = 23.05690 16.15388 19.60539
#
# Velocity S-wave (km/s) = 3.77087 3.15631 3.47720
# Velocity P-wave (km/s) = 25.79785 3.02588 18.36688
#
# Compressibility (1/GPa) = 0.00095382
#
# Stress axis : x y z
#
# Youngs Moduli (GPa) = 45.37995 45.37995 -138.93734
#
# Poissons Ratio (x) = 0.58802 -0.34754
# Poissons Ratio (y) = 0.58802 -0.34754
# Poissons Ratio (z) = 0.11351 0.11351
#
# Static dielectric constant tensor:
#      x y z
#    x 3.332430 0.000000 0.000000 
#    y 0.000000 3.332430 0.000000 
#    z 0.000000 0.000000 3.270550 
# 
# 
# High freq. dielectric constant tensor:
#      x y z
#    x 1.604320 0.000000 0.000000 
#    y 0.000000 1.604320 0.000000 
#    z 0.000000 0.000000 1.649870 
# 
# From -- ./inp_files/930.got.cif
#   From: 2010.03.12/outbox.cif.g09.slc.cpg/sg192_1_cif.got.tgz:930.got - 2010.04.01 12:16:15.
