data_PCOD8329531
_publ_section_title
;
Structure prediction by ZEFSAII (Michael W. Deem and Ramdas Pophale) SiO2 
 PCOD8329531
Probable space group: P 6/M C C
;
_chemical_formula_sum "Si O2"
_cell_formula_units_Z 144
_cell_length_a 32.359052
_cell_length_b 32.359052
_cell_length_c 8.737292
_cell_angle_alpha 90.000000
_cell_angle_beta 90.000000
_cell_angle_gamma 120.000000
_cell_volume 7923.171593
_symmetry_space_group_name_H-M "P 6/M C C"
_symmetry_group_IT_number 192
_symmetry_cell_setting 'hexagonal'
loop_
_space_group_symop_operation_xyz
x,y,z
x-y,x,z
-y,x-y,z
-x,-y,z
-x+y,-x,z
y,-x+y,z
x-y,-y,1/2-z
-x,-x+y,1/2-z
y,x,1/2-z
-y,-x,1/2-z
-x+y,y,1/2-z
x,x-y,1/2-z
-x,-y,-z
-x+y,-x,-z
y,-x+y,-z
x,y,-z
x-y,x,-z
-y,x-y,-z
-x+y,y,1/2+z
x,x-y,1/2+z
-y,-x,1/2+z
y,x,1/2+z
x-y,-y,1/2+z
-x,-x+y,1/2+z
loop_
_atom_site_type_symbol
_atom_site_label
_atom_site_fract_x
_atom_site_fract_y
_atom_site_fract_z
Si Si1 0.383977 0.949572 0.818030
Si Si2 0.766136 0.715677 0.319919
Si Si3 0.136982 0.611770 0.180652
Si Si4 0.616896 0.899212 0.818196
Si Si5 0.949685 0.139214 0.679694
Si Si6 0.805435 0.280331 0.822473
O O1 0.398681 0.911684 0.761023
O O2 0.332265 0.937340 0.756580
O O3 0.423104 0.000000 0.750000
O O4 0.384306 0.951277 0.000000
O O5 0.727396 0.727396 0.250000
O O6 0.757871 0.708682 0.500000
O O7 0.759217 0.667620 0.242544
O O8 0.819225 0.757206 0.278068
O O9 0.153996 0.576998 0.250000
O O10 0.178848 0.665296 0.218976
O O11 0.127959 0.604319 0.000000
O O12 0.577295 0.846176 0.764742
O O13 0.617050 0.904753 0.000000
O O14 0.909798 0.090203 0.750000
O O15 0.951916 0.133599 0.500000
O O16 0.000000 0.150879 0.750000
O O17 0.754516 0.245485 0.750000
O O18 0.798760 0.271238 0.000000
#
# Coordination Sequence:
#
# PCOD8329531 Si02
#       6
#    24  24  24  24  24  24
#     4  11  21  34  52  75 105 143 182 222 262 305
#     4  10  20  33  50  74 104 142 183 222 262 306
#     4  10  21  38  57  81 107 135 171 213 260 313
#     4  10  20  34  50  73 106 143 182 224 262 304
#     4  10  21  37  57  80 107 138 175 217 265 318
#     4   9  20  36  55  78 105 134 169 210 256 308
#
# _framework density 18.17454
#
# number of rings (size 3 to 8) (size 9 to 14) (size 15 to 20)
#    0.000    2.000    0.000    5.000    0.000    7.000 
#    0.000    5.000    0.000    0.500    0.000    1.167 
#    0.000    0.000    0.000    0.000    0.000    0.000 
#
# Total GULP energy -1786069.701512 kJ/mol
# GULP energy per Si atom -12403.261816 kJ/mol
# Density = 1.813317 g / cm^3
# Si number density = 18.174540 Si / 1000 Ang^3
#
#
#
# Elastic Constant Matrix: (Units=GPa)
#
#
# Indices 1 2 3 4 5 6 
#
# 1 94.0608 88.5181 53.1471 0.0000 0.0000 0.0000
# 2 88.5181 94.0608 53.1471 0.0000 0.0000 0.0000
# 3 53.1471 53.1471 107.0653 0.0000 0.0000 0.0000
# 4 0.0000 0.0000 0.0000 31.8538 0.0000 0.0000
# 5 0.0000 0.0000 0.0000 0.0000 31.8538 0.0000
# 6 0.0000 0.0000 0.0000 0.0000 0.0000 2.7713
#
#
#
# Elastic Compliance Matrix: (Units=1/GPa)
#
#
# Indices 1 2 3 4 5 6 
#
# 1 0.094062 -0.086358 -0.003824 0.000000 0.000000 0.000000
# 2 -0.086358 0.094062 -0.003824 0.000000 0.000000 0.000000
# 3 -0.003824 -0.003824 0.013136 0.000000 0.000000 0.000000
# 4 0.000000 0.000000 0.000000 0.031393 0.000000 0.000000
# 5 0.000000 0.000000 0.000000 0.000000 0.031393 0.000000
# 6 0.000000 0.000000 0.000000 0.000000 0.000000 0.360841
#
#
# Mechanical properties :
#
#
# Convention : Reuss Voigt Hill
#
# Bulk Modulus (GPa) = 75.48641 76.09019 75.78830
# Shear Modulus (GPa) = 6.11759 19.98742 13.05250
#
# Velocity S-wave (km/s) = 1.83666 3.31984 2.68279
# Velocity P-wave (km/s) = 6.79132 7.52678 7.16849
#
# Compressibility (1/GPa) = 0.01324742
#
# Stress axis : x y z
#
# Youngs Moduli (GPa) = 10.63131 10.63131 76.12397
#
# Poissons Ratio (x) = 0.91810 0.29109
# Poissons Ratio (y) = 0.91810 0.29109
# Poissons Ratio (z) = 0.04065 0.04065
#
# Static dielectric constant tensor:
#      x y z
#    x 3.341660 0.000000 0.000000 
#    y 0.000000 3.341660 0.000000 
#    z 0.000000 0.000000 3.422440 
# 
# 
# High freq. dielectric constant tensor:
#      x y z
#    x 1.694470 0.000000 0.000000 
#    y 0.000000 1.694470 0.000000 
#    z 0.000000 0.000000 1.719880 
# 
# From -- ./inp_files/1191.got.cif
#   From: 2010.03.12/outbox.cif.g09.slc.cpg/sg192_1_cif.got.tgz:1191.got - 2010.04.01 12:16:15.
