data_PCOD8329686
_publ_section_title
;
Structure prediction by ZEFSAII (Michael W. Deem and Ramdas Pophale) SiO2 
 PCOD8329686
Probable space group: P 6/M C C
;
_chemical_formula_sum "Si O2"
_cell_formula_units_Z 104
_cell_length_a 20.787576
_cell_length_b 20.787576
_cell_length_c 15.050662
_cell_angle_alpha 90.000000
_cell_angle_beta 90.000000
_cell_angle_gamma 120.000000
_cell_volume 5632.405766
_symmetry_space_group_name_H-M "P 6/M C C"
_symmetry_group_IT_number 192
_symmetry_cell_setting 'hexagonal'
loop_
_space_group_symop_operation_xyz
x,y,z
x-y,x,z
-y,x-y,z
-x,-y,z
-x+y,-x,z
y,-x+y,z
x-y,-y,1/2-z
-x,-x+y,1/2-z
y,x,1/2-z
-y,-x,1/2-z
-x+y,y,1/2-z
x,x-y,1/2-z
-x,-y,-z
-x+y,-x,-z
y,-x+y,-z
x,y,-z
x-y,x,-z
-y,x-y,-z
-x+y,y,1/2+z
x,x-y,1/2+z
-y,-x,1/2+z
y,x,1/2+z
x-y,-y,1/2+z
-x,-x+y,1/2+z
loop_
_atom_site_type_symbol
_atom_site_label
_atom_site_fract_x
_atom_site_fract_y
_atom_site_fract_z
Si Si1 0.333334 0.666668 0.893248
Si Si2 0.710547 0.140973 0.398459
Si Si3 0.569573 0.710546 0.898459
Si Si4 0.917266 0.687970 0.750001
Si Si5 0.169358 0.584679 0.604862
O O1 0.374570 0.749133 0.853073
O O2 0.333334 0.666668 0.000000
O O3 0.706993 0.114639 0.500000
O O4 0.771682 0.228318 0.389010
O O5 0.731879 0.091899 0.337379
O O6 0.629946 0.127871 0.366676
O O7 0.639981 0.731880 0.837381
O O8 0.502073 0.629947 0.866670
O O9 0.592350 0.706989 0.000000
O O10 0.858641 0.717282 0.750000
O O11 0.000000 0.758870 0.750000
O O12 0.178011 0.589010 0.500000
#
# Coordination Sequence:
#
# PCOD8329686 Si02
#       5
#     8  24  24  24  24
#     4   9  12  18  39  67  98 136 181 230 259 268
#     4   9  17  30  49  73 103 138 174 211 247 282
#     4   9  17  30  49  73 103 138 174 211 247 282
#     4  10  22  39  57  76  97 123 157 197 244 304
#     4   9  14  23  43  72 102 137 182 225 255 272
#
# _framework density 18.464579000000001
#
# number of rings (size 3 to 8) (size 9 to 14) (size 15 to 20)
#    0.000    2.769    2.308    0.000    0.000    1.846 
#    0.000    2.308    0.000    4.385    0.000    0.000 
#    0.000    0.000    0.000   11.538    0.000    0.000 
#
# Total GULP energy -1288885.319468 kJ/mol
# GULP energy per Si atom -12393.128072 kJ/mol
# Density = 1.842255 g / cm^3
# Si number density = 18.464579 Si / 1000 Ang^3
#
#
#
# Elastic Constant Matrix: (Units=GPa)
#
#
# Indices 1 2 3 4 5 6 
#
# 1 93.1966 58.9273 32.0107 0.0000 0.0000 0.0001
# 2 58.9273 93.1972 32.0107 0.0000 0.0000 0.0000
# 3 32.0107 32.0107 77.7773 0.0000 0.0000 0.0000
# 4 0.0000 0.0000 0.0000 13.3764 0.0000 0.0000
# 5 0.0000 0.0000 0.0000 0.0000 13.3764 0.0000
# 6 0.0001 0.0000 0.0000 0.0000 0.0000 17.1346
#
#
#
# Elastic Compliance Matrix: (Units=1/GPa)
#
#
# Indices 1 2 3 4 5 6 
#
# 1 0.018566 -0.010615 -0.003272 0.000000 0.000000 0.000000
# 2 -0.010615 0.018565 -0.003272 0.000000 0.000000 0.000000
# 3 -0.003272 -0.003272 0.015551 0.000000 0.000000 0.000000
# 4 0.000000 0.000000 0.000000 0.074758 0.000000 0.000000
# 5 0.000000 0.000000 0.000000 0.000000 0.074759 0.000000
# 6 0.000000 0.000000 0.000000 0.000000 0.000000 0.058361
#
#
# Mechanical properties :
#
#
# Convention : Reuss Voigt Hill
#
# Bulk Modulus (GPa) = 54.45700 56.67425 55.56562
# Shear Modulus (GPa) = 16.61131 18.19233 17.40182
#
# Velocity S-wave (km/s) = 3.00264 3.14228 3.07325
# Velocity P-wave (km/s) = 6.44809 6.62762 6.53847
#
# Compressibility (1/GPa) = 0.01836311
#
# Stress axis : x y z
#
# Youngs Moduli (GPa) = 53.86304 53.86341 64.30568
#
# Poissons Ratio (x) = 0.57175 0.21043
# Poissons Ratio (y) = 0.57175 0.21042
# Poissons Ratio (z) = 0.17625 0.17625
#
# Static dielectric constant tensor:
#      x y z
#    x 3.090480 0.000000 0.000000 
#    y 0.000000 3.090480 0.000000 
#    z 0.000000 0.000000 3.373480 
# 
# 
# High freq. dielectric constant tensor:
#      x y z
#    x 1.678430 0.000000 0.000000 
#    y 0.000000 1.678430 0.000000 
#    z 0.000000 0.000000 1.715570 
# 
# From -- ./inp_files/2839.got.cif
#   From: 2010.03.12/outbox.cif.g09.slc.cpg/sg192_2_cif.got.tgz:2839.got - 2010.04.01 12:16:15.
