data_PCOD8329069
_publ_section_title
;
Structure prediction by ZEFSAII (Michael W. Deem and Ramdas Pophale) SiO2 
 PCOD8329069
Probable space group: P 6/M M M
;
_chemical_formula_sum "Si O2"
_cell_formula_units_Z 168
_cell_length_a 17.743060
_cell_length_b 17.743060
_cell_length_c 34.436671
_cell_angle_alpha 90.000000
_cell_angle_beta 90.000000
_cell_angle_gamma 120.000000
_cell_volume 9388.772926
_symmetry_space_group_name_H-M "P 6/M M M"
_symmetry_group_IT_number 191
_symmetry_cell_setting 'hexagonal'
loop_
_space_group_symop_operation_xyz
x,y,z
x-y,x,z
-y,x-y,z
-x,-y,z
-x+y,-x,z
y,-x+y,z
x-y,-y,-z
-x,-x+y,-z
y,x,-z
-y,-x,-z
-x+y,y,-z
x,x-y,-z
-x,-y,-z
-x+y,-x,-z
y,-x+y,-z
x,y,-z
x-y,x,-z
-y,x-y,-z
-x+y,y,z
x,x-y,z
-y,-x,z
y,x,z
x-y,-y,z
-x,-x+y,z
loop_
_atom_site_type_symbol
_atom_site_label
_atom_site_fract_x
_atom_site_fract_y
_atom_site_fract_z
Si Si1 0.161386 0.666751 0.044296
Si Si2 0.838546 0.333284 0.677235
Si Si3 0.491280 0.331617 0.816666
Si Si4 0.097179 0.365773 0.111909
Si Si5 0.829719 0.829719 0.453758
Si Si6 0.634035 0.731334 0.254680
Si Si7 0.492326 0.158903 0.411294
Si Si8 0.000000 0.341296 0.546017
O O1 0.147596 0.573798 0.057144
O O2 0.263097 0.736904 0.049571
O O3 0.103515 0.691935 0.070873
O O4 0.131366 0.664351 0.000000
O O5 0.852947 0.426474 0.690170
O O6 0.736195 0.263805 0.681300
O O7 0.894872 0.307115 0.704312
O O8 0.870055 0.335512 0.633271
O O9 0.524443 0.262222 0.816345
O O10 0.572604 0.427397 0.816782
O O11 0.434863 0.319941 0.854594
O O12 0.434589 0.320660 0.778907
O O13 0.165324 0.330647 0.114543
O O14 0.000000 0.283743 0.116130
O O15 0.914686 0.829371 0.437469
O O16 0.831265 0.831265 0.500000
O O17 0.744336 0.744336 0.438205
O O18 0.669091 0.834546 0.251544
O O19 0.716081 0.716081 0.250979
O O20 0.588888 0.177776 0.419359
O O21 0.489909 0.244955 0.421824
O O22 0.426498 0.084251 0.439362
O O23 0.000000 0.342479 0.500000
#
# Coordination Sequence:
#
# PCOD8329069 Si02
#       8
#    24  24  24  24  12  24  24  12
#     4   9  17  29  46  69  98 133 171 208 245 289
#     4   9  18  32  52  77 105 135 167 202 242 288
#     4  10  20  33  50  75 108 144 175 202 237 288
#     4  10  21  35  50  69  95 128 166 210 261 311
#     4   9  17  31  53  79 105 133 165 203 249 303
#     4  10  21  35  52  76 104 135 170 210 256 301
#     4  10  21  37  56  77 103 137 176 215 255 302
#     4  11  23  37  53  77 107 137 169 211 261 305
#
# _framework density 17.893712000000001
#
# number of rings (size 3 to 8) (size 9 to 14) (size 15 to 20)
#    0.000    2.286    0.000    2.571    1.000    6.571 
#    0.000    3.571    0.000    1.143    0.000    0.000 
#    0.000    3.429    0.000    3.571    0.000    0.000 
#
# Total GULP energy -2083497.418862 kJ/mol
# GULP energy per Si atom -12401.770350 kJ/mol
# Density = 1.785298 g / cm^3
# Si number density = 17.893712 Si / 1000 Ang^3
#
#
#
# Elastic Constant Matrix: (Units=GPa)
#
#
# Indices 1 2 3 4 5 6 
#
# 1 111.4590 70.0090 42.8897 0.0000 0.0000 0.0000
# 2 70.0090 111.4590 42.8897 0.0000 0.0000 0.0000
# 3 42.8897 42.8897 79.6059 0.0000 0.0000 0.0000
# 4 0.0000 0.0000 0.0000 16.3260 0.0000 0.0000
# 5 0.0000 0.0000 0.0000 0.0000 16.3260 0.0000
# 6 0.0000 0.0000 0.0000 0.0000 0.0000 20.7250
#
#
#
# Elastic Compliance Matrix: (Units=1/GPa)
#
#
# Indices 1 2 3 4 5 6 
#
# 1 0.015760 -0.008366 -0.003983 0.000000 0.000000 0.000000
# 2 -0.008366 0.015760 -0.003983 0.000000 0.000000 0.000000
# 3 -0.003983 -0.003983 0.016854 0.000000 0.000000 0.000000
# 4 0.000000 0.000000 0.000000 0.061252 0.000000 0.000000
# 5 0.000000 0.000000 0.000000 0.000000 0.061252 0.000000
# 6 0.000000 0.000000 0.000000 0.000000 0.000000 0.048251
#
#
# Mechanical properties :
#
#
# Convention : Reuss Voigt Hill
#
# Bulk Modulus (GPa) = 63.66374 68.23344 65.94859
# Shear Modulus (GPa) = 19.45296 20.45775 19.95536
#
# Velocity S-wave (km/s) = 3.30076 3.38493 3.34311
# Velocity P-wave (km/s) = 7.08398 7.31385 7.19983
#
# Compressibility (1/GPa) = 0.01570753
#
# Stress axis : x y z
#
# Youngs Moduli (GPa) = 63.45368 63.45368 59.33208
#
# Poissons Ratio (x) = 0.53085 0.23635
# Poissons Ratio (y) = 0.53085 0.23635
# Poissons Ratio (z) = 0.25277 0.25277
#
# Static dielectric constant tensor:
#      x y z
#    x 3.244460 0.000000 0.000000 
#    y 0.000000 3.244460 0.000000 
#    z 0.000000 0.000000 3.421090 
# 
# 
# High freq. dielectric constant tensor:
#      x y z
#    x 1.681350 0.000000 0.000000 
#    y 0.000000 1.681350 0.000000 
#    z 0.000000 0.000000 1.697630 
# 
# From -- ./inp_files/10770.got.cif
#   From: 2010.03.12/outbox.cif.g09.slc.cpg/sg191_6_cif.got.tgz:10770.got - 2010.04.01 12:09:02.
