data_PCOD8329865
_publ_section_title
;
Structure prediction by ZEFSAII (Michael W. Deem and Ramdas Pophale) SiO2 
 PCOD8329865
Probable space group: P 63/M C M
;
_chemical_formula_sum "Si O2"
_cell_formula_units_Z 168
_cell_length_a 22.037069
_cell_length_b 22.037069
_cell_length_c 23.797901
_cell_angle_alpha 90.000000
_cell_angle_beta 90.000000
_cell_angle_gamma 120.000000
_cell_volume 10008.683320
_symmetry_space_group_name_H-M "P 63/M C M"
_symmetry_group_IT_number 193
_symmetry_cell_setting 'hexagonal'
loop_
_space_group_symop_operation_xyz
x,y,z
x-y,x,1/2+z
-y,x-y,z
-x,-y,1/2+z
-x+y,-x,z
y,-x+y,1/2+z
x-y,-y,1/2-z
-x,-x+y,1/2-z
y,x,1/2-z
-y,-x,-z
-x+y,y,-z
x,x-y,-z
-x,-y,-z
-x+y,-x,1/2-z
y,-x+y,-z
x,y,1/2-z
x-y,x,-z
-y,x-y,1/2-z
-x+y,y,1/2+z
x,x-y,1/2+z
-y,-x,1/2+z
y,x,z
x-y,-y,z
-x,-x+y,z
loop_
_atom_site_type_symbol
_atom_site_label
_atom_site_fract_x
_atom_site_fract_y
_atom_site_fract_z
Si Si1 0.077283 0.922734 0.564492
Si Si2 0.592310 0.083354 0.814243
Si Si3 0.388548 0.081210 0.098218
Si Si4 0.386124 0.917352 0.633369
Si Si5 0.735004 0.652306 0.811049
Si Si6 0.080862 0.685074 0.028339
Si Si7 0.170854 0.855979 0.912074
O O1 0.066645 0.933356 0.500000
O O2 0.117392 0.879440 0.567107
O O3 0.000000 0.878970 0.593092
O O4 0.121670 0.000000 0.592978
O O5 0.613663 0.111319 0.750000
O O6 0.659990 0.107836 0.853675
O O7 0.547715 0.115672 0.843116
O O8 0.547262 0.000000 0.813503
O O9 0.353749 0.128621 0.102406
O O10 0.330705 0.000000 0.107698
O O11 0.422304 0.091398 0.035852
O O12 0.315991 0.887871 0.670559
O O13 0.360355 0.896947 0.568432
O O14 0.433400 0.000000 0.639304
O O15 0.766509 0.652804 0.750000
O O16 0.690335 0.690335 0.809388
O O17 0.797845 0.692919 0.853801
O O18 0.125549 0.768299 0.041617
O O19 0.000000 0.662151 0.040697
#
# Coordination Sequence:
#
# PCOD8329865 Si02
#       7
#    24  24  24  24  24  24  24
#     4  10  19  30  45  64  86 115 157 210 263 310
#     4   9  17  29  44  62  88 121 150 173 203 252
#     4  10  20  30  41  61  92 128 158 184 220 275
#     4   8  14  26  46  68  88 111 138 173 217 261
#     4   9  17  29  46  68  90 112 147 195 240 281
#     4   9  17  29  45  67  91 115 150 192 234 279
#     4  11  19  29  45  64  90 124 156 192 243 298
#
# _framework density 16.785425
#
# number of rings (size 3 to 8) (size 9 to 14) (size 15 to 20)
#    0.000    2.571    0.000    4.429    0.000    5.714 
#    0.000    2.857    0.000    1.286    0.000    0.000 
#   11.429    1.143    6.857    0.000    1.714    0.000 
#
# Total GULP energy -2081984.089563 kJ/mol
# GULP energy per Si atom -12392.762438 kJ/mol
# Density = 1.674722 g / cm^3
# Si number density = 16.785425 Si / 1000 Ang^3
#
#
#
# Elastic Constant Matrix: (Units=GPa)
#
#
# Indices 1 2 3 4 5 6 
#
# 1 72.5524 31.7078 30.7743 0.0000 0.0000 0.0000
# 2 31.7078 72.5524 30.7743 0.0000 0.0000 0.0000
# 3 30.7743 30.7743 104.3545 0.0000 0.0000 0.0000
# 4 0.0000 0.0000 0.0000 13.5894 0.0000 0.0000
# 5 0.0000 0.0000 0.0000 0.0000 13.5894 0.0000
# 6 0.0000 0.0000 0.0000 0.0000 0.0000 20.4223
#
#
#
# Elastic Compliance Matrix: (Units=1/GPa)
#
#
# Indices 1 2 3 4 5 6 
#
# 1 0.018048 -0.006435 -0.003425 0.000000 0.000000 0.000000
# 2 -0.006435 0.018048 -0.003425 0.000000 0.000000 0.000000
# 3 -0.003425 -0.003425 0.011603 0.000000 0.000000 0.000000
# 4 0.000000 0.000000 0.000000 0.073587 0.000000 0.000000
# 5 0.000000 0.000000 0.000000 0.000000 0.073587 0.000000
# 6 0.000000 0.000000 0.000000 0.000000 0.000000 0.048966
#
#
# Mechanical properties :
#
#
# Convention : Reuss Voigt Hill
#
# Bulk Modulus (GPa) = 47.32613 48.44135 47.88374
# Shear Modulus (GPa) = 18.02122 19.93373 18.97748
#
# Velocity S-wave (km/s) = 3.28017 3.44984 3.36608
# Velocity P-wave (km/s) = 6.52702 6.69256 6.61031
#
# Compressibility (1/GPa) = 0.02112998
#
# Stress axis : x y z
#
# Youngs Moduli (GPa) = 55.40747 55.40747 86.18731
#
# Poissons Ratio (x) = 0.35655 0.29517
# Poissons Ratio (y) = 0.35655 0.29517
# Poissons Ratio (z) = 0.18976 0.18976
#
# Static dielectric constant tensor:
#      x y z
#    x 3.021620 0.000000 0.000000 
#    y 0.000000 3.021620 0.000000 
#    z 0.000000 0.000000 3.419500 
# 
# 
# High freq. dielectric constant tensor:
#      x y z
#    x 1.621930 0.000000 0.000000 
#    y 0.000000 1.621930 0.000000 
#    z 0.000000 0.000000 1.648360 
# 
# From -- ./inp_files/7731.got.cif
#   From: 2010.03.12/outbox.cif.g09.slc.cpg/sg193_4_cif.got.tgz:7731.got - 2010.04.01 12:20:39.
