data_PCOD8329200
_publ_section_title
;
Structure prediction by ZEFSAII (Michael W. Deem and Ramdas Pophale) SiO2 
 PCOD8329200
Probable space group: P 6/M M M
;
_chemical_formula_sum "Si O2"
_cell_formula_units_Z 132
_cell_length_a 18.483038
_cell_length_b 18.483038
_cell_length_c 27.025792
_cell_angle_alpha 90.000000
_cell_angle_beta 90.000000
_cell_angle_gamma 120.000000
_cell_volume 7995.686809
_symmetry_space_group_name_H-M "P 6/M M M"
_symmetry_group_IT_number 191
_symmetry_cell_setting 'hexagonal'
loop_
_space_group_symop_operation_xyz
x,y,z
x-y,x,z
-y,x-y,z
-x,-y,z
-x+y,-x,z
y,-x+y,z
x-y,-y,-z
-x,-x+y,-z
y,x,-z
-y,-x,-z
-x+y,y,-z
x,x-y,-z
-x,-y,-z
-x+y,-x,-z
y,-x+y,-z
x,y,-z
x-y,x,-z
-y,x-y,-z
-x+y,y,z
x,x-y,z
-y,-x,z
y,x,z
x-y,-y,z
-x,-x+y,z
loop_
_atom_site_type_symbol
_atom_site_label
_atom_site_fract_x
_atom_site_fract_y
_atom_site_fract_z
Si Si1 0.094710 0.629062 0.394022
Si Si2 0.333779 0.502369 0.707699
Si Si3 0.165512 0.499126 0.817741
Si Si4 0.808200 0.191801 0.441475
Si Si5 0.094378 0.354224 0.892206
Si Si6 0.095949 0.904052 0.441132
Si Si7 0.661111 0.908999 0.000000
O O1 0.125188 0.562594 0.407158
O O2 0.099389 0.643129 0.334622
O O3 0.148568 0.713482 0.423613
O O4 0.000000 0.592661 0.410727
O O5 0.244208 0.488416 0.693215
O O6 0.398781 0.601220 0.708744
O O7 0.333815 0.465868 0.762109
O O8 0.261784 0.523569 0.822207
O O9 0.158472 0.579236 0.831587
O O10 0.107353 0.427403 0.855668
O O11 0.809254 0.190747 0.500000
O O12 0.856111 0.143890 0.421274
O O13 0.162323 0.324646 0.881381
O O14 0.000000 0.276651 0.884681
O O15 0.105795 0.390784 0.948804
O O16 0.095769 0.904232 0.500000
O O17 0.000000 0.856038 0.421498
O O18 0.702283 0.851142 0.000000
O O19 0.740908 0.000000 0.000000
#
# Coordination Sequence:
#
# PCOD8329200 Si02
#       7
#    24  24  24  12  24  12  12
#     4  10  21  36  53  74 100 129 161 199 244 289
#     4   9  16  29  49  72  95 122 155 192 236 280
#     4   9  17  28  45  69  97 126 158 195 235 275
#     4  11  22  37  54  73  98 132 167 199 238 287
#     4   9  17  29  45  66  91 121 157 197 240 286
#     4   9  17  30  51  78 104 128 156 193 237 286
#     4   8  14  26  43  60  83 117 155 193 236 286
#
# _framework density 16.508901000000002
#
# number of rings (size 3 to 8) (size 9 to 14) (size 15 to 20)
#    0.000    2.727    0.909    1.000    0.000    4.364 
#    0.545    3.182    0.000    1.909    0.000    3.818 
#    0.000    0.000    0.000    0.000    0.000    0.000 
#
# Total GULP energy -1635565.284336 kJ/mol
# GULP energy per Si atom -12390.646093 kJ/mol
# Density = 1.647133 g / cm^3
# Si number density = 16.508901 Si / 1000 Ang^3
#
#
#
# Elastic Constant Matrix: (Units=GPa)
#
#
# Indices 1 2 3 4 5 6 
#
# 1 95.6110 56.6124 43.1222 0.0000 0.0000 0.0000
# 2 56.6124 95.6110 43.1222 0.0000 0.0000 0.0000
# 3 43.1222 43.1222 81.8211 0.0000 0.0000 0.0000
# 4 0.0000 0.0000 0.0000 19.4518 0.0000 0.0000
# 5 0.0000 0.0000 0.0000 0.0000 19.4518 0.0000
# 6 0.0000 0.0000 0.0000 0.0000 0.0000 19.4993
#
#
#
# Elastic Compliance Matrix: (Units=1/GPa)
#
#
# Indices 1 2 3 4 5 6 
#
# 1 0.017504 -0.008138 -0.004936 0.000000 0.000000 0.000000
# 2 -0.008138 0.017504 -0.004936 0.000000 0.000000 0.000000
# 3 -0.004936 -0.004936 0.017425 0.000000 0.000000 0.000000
# 4 0.000000 0.000000 0.000000 0.051409 0.000000 0.000000
# 5 0.000000 0.000000 0.000000 0.000000 0.051409 0.000000
# 6 0.000000 0.000000 0.000000 0.000000 0.000000 0.051284
#
#
# Mechanical properties :
#
#
# Convention : Reuss Voigt Hill
#
# Bulk Modulus (GPa) = 60.93064 62.08409 61.50737
# Shear Modulus (GPa) = 20.15917 20.35966 20.25941
#
# Velocity S-wave (km/s) = 3.49823 3.51558 3.50692
# Velocity P-wave (km/s) = 7.30100 7.35983 7.33048
#
# Compressibility (1/GPa) = 0.01641210
#
# Stress axis : x y z
#
# Youngs Moduli (GPa) = 57.12997 57.12997 57.38953
#
# Poissons Ratio (x) = 0.46492 0.28328
# Poissons Ratio (y) = 0.46492 0.28328
# Poissons Ratio (z) = 0.28200 0.28200
#
# Static dielectric constant tensor:
#      x y z
#    x 3.069000 0.000000 0.000000 
#    y 0.000000 3.069000 0.000000 
#    z 0.000000 0.000000 3.264650 
# 
# 
# High freq. dielectric constant tensor:
#      x y z
#    x 1.624990 0.000000 0.000000 
#    y 0.000000 1.624990 0.000000 
#    z 0.000000 0.000000 1.635750 
# 
# From -- ./inp_files/10573.got.cif
#   From: 2010.03.12/outbox.cif.g09.slc.cpg/sg191_6_cif.got.tgz:10573.got - 2010.04.01 12:09:02.
