data_PCOD8329926
_publ_section_title
;
Structure prediction by ZEFSAII (Michael W. Deem and Ramdas Pophale) SiO2 
 PCOD8329926
Probable space group: P 63/M C M
;
_chemical_formula_sum "Si O2"
_cell_formula_units_Z 168
_cell_length_a 18.818456
_cell_length_b 18.818456
_cell_length_c 28.365216
_cell_angle_alpha 90.000000
_cell_angle_beta 90.000000
_cell_angle_gamma 120.000000
_cell_volume 8699.307905
_symmetry_space_group_name_H-M "P 63/M C M"
_symmetry_group_IT_number 193
_symmetry_cell_setting 'hexagonal'
loop_
_space_group_symop_operation_xyz
x,y,z
x-y,x,1/2+z
-y,x-y,z
-x,-y,1/2+z
-x+y,-x,z
y,-x+y,1/2+z
x-y,-y,1/2-z
-x,-x+y,1/2-z
y,x,1/2-z
-y,-x,-z
-x+y,y,-z
x,x-y,-z
-x,-y,-z
-x+y,-x,1/2-z
y,-x+y,-z
x,y,1/2-z
x-y,x,-z
-y,x-y,1/2-z
-x+y,y,1/2+z
x,x-y,1/2+z
-y,-x,1/2+z
y,x,z
x-y,-y,z
-x,-x+y,z
loop_
_atom_site_type_symbol
_atom_site_label
_atom_site_fract_x
_atom_site_fract_y
_atom_site_fract_z
Si Si1 0.509041 0.792802 0.953430
Si Si2 0.902851 0.483174 0.884027
Si Si3 0.835090 0.552289 0.804062
Si Si4 0.833429 0.297412 0.629072
Si Si5 0.279447 0.190592 0.385045
Si Si6 0.095696 0.793793 0.537664
Si Si7 0.258487 0.166823 0.802505
O O1 0.472463 0.848204 0.931397
O O2 0.498729 0.729196 0.913412
O O3 0.600861 0.860902 0.967510
O O4 0.467846 0.733923 0.000000
O O5 0.877480 0.518285 0.839447
O O6 0.884916 0.394712 0.866832
O O7 0.000000 0.541284 0.895131
O O8 0.828582 0.520098 0.750000
O O9 0.743746 0.526960 0.822705
O O10 0.892220 0.649542 0.806028
O O11 0.898116 0.268236 0.617068
O O12 0.221142 0.221142 0.408275
O O13 0.277486 0.114465 0.411744
O O14 0.246353 0.156145 0.333228
O O15 0.132754 0.867247 0.500000
O O16 0.000000 0.735554 0.529660
O O17 0.236747 0.132604 0.750000
O O18 0.198051 0.198051 0.820257
#
# Coordination Sequence:
#
# PCOD8329926 Si02
#       7
#    24  24  24  24  24  24  24
#     4   9  20  38  57  78 108 142 186 228 279 338
#     4  11  21  35  58  85 115 147 187 242 295 339
#     4   9  19  36  56  79 110 145 184 226 279 343
#     4   9  20  36  53  78 112 141 183 231 279 330
#     4  10  19  32  51  74 104 140 172 210 262 321
#     4  10  19  33  55  80 104 132 170 215 260 315
#     4   9  17  31  53  77  98 126 171 222 262 306
#
# _framework density 19.311879999999999
#
# number of rings (size 3 to 8) (size 9 to 14) (size 15 to 20)
#    0.000    2.429    0.000    3.000    0.000    2.286 
#    6.857    2.857    0.000    8.000    0.000    0.000 
#    0.000    0.000    0.000    0.000    0.000    0.000 
#
# Total GULP energy -2081625.696186 kJ/mol
# GULP energy per Si atom -12390.629144 kJ/mol
# Density = 1.926793 g / cm^3
# Si number density = 19.311880 Si / 1000 Ang^3
#
#
#
# Elastic Constant Matrix: (Units=GPa)
#
#
# Indices 1 2 3 4 5 6 
#
# 1 59.7501 19.3515 16.8837 0.0000 0.0000 0.0000
# 2 19.3515 59.7501 16.8837 0.0000 0.0000 0.0000
# 3 16.8837 16.8837 87.4119 0.0000 0.0000 0.0000
# 4 0.0000 0.0000 0.0000 16.9880 0.0000 0.0000
# 5 0.0000 0.0000 0.0000 0.0000 16.9880 0.0000
# 6 0.0000 0.0000 0.0000 0.0000 0.0000 20.1993
#
#
#
# Elastic Compliance Matrix: (Units=1/GPa)
#
#
# Indices 1 2 3 4 5 6 
#
# 1 0.019266 -0.005488 -0.002661 0.000000 0.000000 0.000000
# 2 -0.005488 0.019266 -0.002661 0.000000 0.000000 0.000000
# 3 -0.002661 -0.002661 0.012468 0.000000 0.000000 0.000000
# 4 0.000000 0.000000 0.000000 0.058865 0.000000 0.000000
# 5 0.000000 0.000000 0.000000 0.000000 0.058865 0.000000
# 6 0.000000 0.000000 0.000000 0.000000 0.000000 0.049507
#
#
# Mechanical properties :
#
#
# Convention : Reuss Voigt Hill
#
# Bulk Modulus (GPa) = 34.03765 34.79441 34.41603
# Shear Modulus (GPa) = 20.02805 21.08793 20.55799
#
# Velocity S-wave (km/s) = 3.22387 3.30808 3.26625
# Velocity P-wave (km/s) = 5.61438 5.71379 5.66430
#
# Compressibility (1/GPa) = 0.02937923
#
# Stress axis : x y z
#
# Youngs Moduli (GPa) = 51.90574 51.90574 80.20448
#
# Poissons Ratio (x) = 0.28484 0.21344
# Poissons Ratio (y) = 0.28484 0.21344
# Poissons Ratio (z) = 0.13813 0.13813
#
# Static dielectric constant tensor:
#      x y z
#    x 3.356800 0.000000 0.000000 
#    y 0.000000 3.356800 0.000000 
#    z 0.000000 0.000000 3.908820 
# 
# 
# High freq. dielectric constant tensor:
#      x y z
#    x 1.737330 0.000000 0.000000 
#    y 0.000000 1.737330 0.000000 
#    z 0.000000 0.000000 1.760420 
# 
# From -- ./inp_files/9319.got.cif
#   From: 2010.03.12/outbox.cif.g09.slc.cpg/sg193_5_cif.got.tgz:9319.got - 2010.04.01 12:20:39.
