data_PCOD8329980
_publ_section_title
;
Structure prediction by ZEFSAII (Michael W. Deem and Ramdas Pophale) SiO2 
 PCOD8329980
Probable space group: P 63/M C M
;
_chemical_formula_sum "Si O2"
_cell_formula_units_Z 168
_cell_length_a 17.346282
_cell_length_b 17.346282
_cell_length_c 32.263432
_cell_angle_alpha 90.000000
_cell_angle_beta 90.000000
_cell_angle_gamma 120.000000
_cell_volume 8407.250736
_symmetry_space_group_name_H-M "P 63/M C M"
_symmetry_group_IT_number 193
_symmetry_cell_setting 'hexagonal'
loop_
_space_group_symop_operation_xyz
x,y,z
x-y,x,1/2+z
-y,x-y,z
-x,-y,1/2+z
-x+y,-x,z
y,-x+y,1/2+z
x-y,-y,1/2-z
-x,-x+y,1/2-z
y,x,1/2-z
-y,-x,-z
-x+y,y,-z
x,x-y,-z
-x,-y,-z
-x+y,-x,1/2-z
y,-x+y,-z
x,y,1/2-z
x-y,x,-z
-y,x-y,1/2-z
-x+y,y,1/2+z
x,x-y,1/2+z
-y,-x,1/2+z
y,x,z
x-y,-y,z
-x,-x+y,z
loop_
_atom_site_type_symbol
_atom_site_label
_atom_site_fract_x
_atom_site_fract_y
_atom_site_fract_z
Si Si1 0.726855 0.624853 0.202852
Si Si2 0.897213 0.264010 0.445794
Si Si3 0.204062 0.100159 0.582961
Si Si4 0.097858 0.316029 0.657711
Si Si5 0.327969 0.831438 0.610237
Si Si6 0.167765 0.666847 0.629195
Si Si7 0.634368 0.529802 0.519860
O O1 0.707145 0.590810 0.250000
O O2 0.701119 0.701119 0.195012
O O3 0.830701 0.662470 0.193693
O O4 0.667234 0.540494 0.173670
O O5 0.879210 0.163340 0.448035
O O6 0.857412 0.279802 0.403982
O O7 0.861318 0.284654 0.487600
O O8 0.000000 0.335385 0.442402
O O9 0.133110 0.133110 0.587866
O O10 0.246285 0.103889 0.627354
O O11 0.154584 0.000000 0.564626
O O12 0.111043 0.403617 0.633869
O O13 0.000000 0.269952 0.678165
O O14 0.275200 0.729450 0.627316
O O15 0.432347 0.868049 0.618762
O O16 0.318762 0.838535 0.560845
O O17 0.564339 0.435662 0.500000
O O18 0.587234 0.587234 0.530846
#
# Coordination Sequence:
#
# PCOD8329980 Si02
#       7
#    24  24  24  24  24  24  24
#     4  10  21  39  64  90 116 152 198 245 297 362
#     4  10  19  35  58  83 118 162 204 252 304 361
#     4  10  19  35  59  88 120 160 209 258 309 366
#     4  10  21  36  59  90 122 156 194 243 307 373
#     4  11  22  38  57  83 120 160 204 252 305 362
#     4  11  22  38  59  83 116 159 202 245 302 368
#     4  10  20  34  55  85 116 153 205 255 305 361
#
# _framework density 19.982752000000001
#
# number of rings (size 3 to 8) (size 9 to 14) (size 15 to 20)
#    0.000    1.714    4.286    1.714    0.000    2.571 
#    0.000    2.857    0.000    4.571    0.000    0.000 
#    0.000    8.000    0.000    0.000    0.000    0.571 
#
# Total GULP energy -2082822.794739 kJ/mol
# GULP energy per Si atom -12397.754731 kJ/mol
# Density = 1.993727 g / cm^3
# Si number density = 19.982752 Si / 1000 Ang^3
#
#
#
# Elastic Constant Matrix: (Units=GPa)
#
#
# Indices 1 2 3 4 5 6 
#
# 1 105.3326 47.8419 48.3024 0.0000 0.0000 0.0000
# 2 47.8419 105.3326 48.3024 0.0000 0.0000 0.0000
# 3 48.3024 48.3024 122.7879 0.0000 0.0000 0.0000
# 4 0.0000 0.0000 0.0000 27.2089 0.0000 0.0000
# 5 0.0000 0.0000 0.0000 0.0000 27.2089 0.0000
# 6 0.0000 0.0000 0.0000 0.0000 0.0000 28.7454
#
#
#
# Elastic Compliance Matrix: (Units=1/GPa)
#
#
# Indices 1 2 3 4 5 6 
#
# 1 0.013038 -0.004356 -0.003416 0.000000 0.000000 0.000000
# 2 -0.004356 0.013038 -0.003416 0.000000 0.000000 0.000000
# 3 -0.003416 -0.003416 0.010831 0.000000 0.000000 0.000000
# 4 0.000000 0.000000 0.000000 0.036753 0.000000 0.000000
# 5 0.000000 0.000000 0.000000 0.000000 0.036753 0.000000
# 6 0.000000 0.000000 0.000000 0.000000 0.000000 0.034788
#
#
# Mechanical properties :
#
#
# Convention : Reuss Voigt Hill
#
# Bulk Modulus (GPa) = 68.80258 69.14961 68.97610
# Shear Modulus (GPa) = 28.99891 29.23307 29.11599
#
# Velocity S-wave (km/s) = 3.81359 3.82896 3.82128
# Velocity P-wave (km/s) = 7.34146 7.36394 7.35271
#
# Compressibility (1/GPa) = 0.01453434
#
# Stress axis : x y z
#
# Youngs Moduli (GPa) = 76.69664 76.69664 92.32436
#
# Poissons Ratio (x) = 0.33407 0.31534
# Poissons Ratio (y) = 0.33407 0.31534
# Poissons Ratio (z) = 0.26196 0.26196
#
# Static dielectric constant tensor:
#      x y z
#    x 3.757210 0.000000 0.000000 
#    y 0.000000 3.757210 0.000000 
#    z 0.000000 0.000000 3.390900 
# 
# 
# High freq. dielectric constant tensor:
#      x y z
#    x 1.787440 0.000000 0.000000 
#    y 0.000000 1.787440 0.000000 
#    z 0.000000 0.000000 1.754040 
# 
# From -- ./inp_files/9306.got.cif
#   From: 2010.03.12/outbox.cif.g09.slc.cpg/sg193_5_cif.got.tgz:9306.got - 2010.04.01 12:20:39.
