data_PCOD8329066
_publ_section_title
;
Structure prediction by ZEFSAII (Michael W. Deem and Ramdas Pophale) SiO2 
 PCOD8329066
Probable space group: P 6/M M M
;
_chemical_formula_sum "Si O2"
_cell_formula_units_Z 108
_cell_length_a 27.993786
_cell_length_b 27.993786
_cell_length_c 9.254424
_cell_angle_alpha 90.000000
_cell_angle_beta 90.000000
_cell_angle_gamma 120.000000
_cell_volume 6280.631333
_symmetry_space_group_name_H-M "P 6/M M M"
_symmetry_group_IT_number 191
_symmetry_cell_setting 'hexagonal'
loop_
_space_group_symop_operation_xyz
x,y,z
x-y,x,z
-y,x-y,z
-x,-y,z
-x+y,-x,z
y,-x+y,z
x-y,-y,-z
-x,-x+y,-z
y,x,-z
-y,-x,-z
-x+y,y,-z
x,x-y,-z
-x,-y,-z
-x+y,-x,-z
y,-x+y,-z
x,y,-z
x-y,x,-z
-y,x-y,-z
-x+y,y,z
x,x-y,z
-y,-x,z
y,x,z
x-y,-y,z
-x,-x+y,z
loop_
_atom_site_type_symbol
_atom_site_label
_atom_site_fract_x
_atom_site_fract_y
_atom_site_fract_z
Si Si1 0.456326 0.173192 0.829883
Si Si2 0.666719 0.776883 0.841616
Si Si3 0.501745 0.610170 0.668305
Si Si4 0.060912 0.228557 0.669387
Si Si5 0.000000 0.556604 0.163296
O O1 0.467904 0.233952 0.788419
O O2 0.394065 0.126314 0.786010
O O3 0.497525 0.160978 0.736965
O O4 0.465998 0.170081 0.000000
O O5 0.668193 0.834097 0.854339
O O6 0.714640 0.783348 0.734819
O O7 0.677623 0.759913 0.000000
O O8 0.517256 0.619384 0.500000
O O9 0.440803 0.559198 0.692184
O O10 0.547359 0.601228 0.751160
O O11 0.066878 0.237889 0.500000
O O12 0.106909 0.213818 0.727051
O O13 0.000000 0.178783 0.711392
O O14 0.000000 0.500000 0.158036
O O15 0.000000 0.577634 0.000000
#
# Coordination Sequence:
#
# PCOD8329066 Si02
#       5
#    24  24  24  24  12
#     4   9  18  33  52  73  97 127 164 202 239 285
#     4   8  15  29  47  66  89 116 148 188 231 275
#     4  10  20  33  50  74 103 132 163 201 245 293
#     4   9  17  29  45  65  90 121 156 193 234 280
#     4   9  17  31  51  71  93 125 163 201 241 285
#
# _framework density 17.195723000000001
#
# number of rings (size 3 to 8) (size 9 to 14) (size 15 to 20)
#    0.000    3.000    0.000    2.333    0.000    4.444 
#    2.000    2.222    0.000    0.667    0.000    1.556 
#    0.000    0.000    0.000    5.556    0.000    5.778 
#
# Total GULP energy -1338597.083009 kJ/mol
# GULP energy per Si atom -12394.417435 kJ/mol
# Density = 1.715658 g / cm^3
# Si number density = 17.195723 Si / 1000 Ang^3
#
#
#
# Elastic Constant Matrix: (Units=GPa)
#
#
# Indices 1 2 3 4 5 6 
#
# 1 87.1907 45.0850 50.8278 0.0000 0.0000 0.0000
# 2 45.0850 87.1907 50.8278 0.0000 0.0000 0.0000
# 3 50.8278 50.8278 83.8511 0.0000 0.0000 0.0000
# 4 0.0000 0.0000 0.0000 26.5502 0.0000 0.0000
# 5 0.0000 0.0000 0.0000 0.0000 26.5502 0.0000
# 6 0.0000 0.0000 0.0000 0.0000 0.0000 21.0529
#
#
#
# Elastic Compliance Matrix: (Units=1/GPa)
#
#
# Indices 1 2 3 4 5 6 
#
# 1 0.018951 -0.004798 -0.008579 0.000000 0.000000 0.000000
# 2 -0.004798 0.018951 -0.008579 0.000000 0.000000 0.000000
# 3 -0.008579 -0.008579 0.022327 0.000000 0.000000 0.000000
# 4 0.000000 0.000000 0.000000 0.037664 0.000000 0.000000
# 5 0.000000 0.000000 0.000000 0.000000 0.037664 0.000000
# 6 0.000000 0.000000 0.000000 0.000000 0.000000 0.047499
#
#
# Mechanical properties :
#
#
# Convention : Reuss Voigt Hill
#
# Bulk Modulus (GPa) = 61.28825 61.30153 61.29489
# Shear Modulus (GPa) = 21.51367 22.26345 21.88856
#
# Velocity S-wave (km/s) = 3.54093 3.60211 3.57165
# Velocity P-wave (km/s) = 7.24131 7.28196 7.26166
#
# Compressibility (1/GPa) = 0.01631634
#
# Stress axis : x y z
#
# Youngs Moduli (GPa) = 52.76635 52.76635 44.78924
#
# Poissons Ratio (x) = 0.25319 0.38426
# Poissons Ratio (y) = 0.25319 0.38426
# Poissons Ratio (z) = 0.45269 0.45269
#
# Static dielectric constant tensor:
#      x y z
#    x 3.193890 0.000000 0.000000 
#    y 0.000000 3.193890 0.000000 
#    z 0.000000 0.000000 3.343230 
# 
# 
# High freq. dielectric constant tensor:
#      x y z
#    x 1.646250 0.000000 0.000000 
#    y 0.000000 1.646250 0.000000 
#    z 0.000000 0.000000 1.665080 
# 
# From -- ./inp_files/1670.got.cif
#   From: 2010.03.12/outbox.cif.g09.slc.cpg/sg191_1_cif.got.tgz:1670.got - 2010.04.01 12:09:02.
