data_PCOD8330776
_publ_section_title
;
Structure prediction by ZEFSAII (Michael W. Deem and Ramdas Pophale) SiO2 
 PCOD8330776
Probable space group: P 63/M M C
;
_chemical_formula_sum "Si O2"
_cell_formula_units_Z 144
_cell_length_a 20.861584
_cell_length_b 20.861584
_cell_length_c 19.174961
_cell_angle_alpha 90.000000
_cell_angle_beta 90.000000
_cell_angle_gamma 120.000000
_cell_volume 7227.027093
_symmetry_space_group_name_H-M "P 63/M M C"
_symmetry_group_IT_number 194
_symmetry_cell_setting 'hexagonal'
loop_
_space_group_symop_operation_xyz
x,y,z
x-y,x,1/2+z
-y,x-y,z
-x,-y,1/2+z
-x+y,-x,z
y,-x+y,1/2+z
x-y,-y,-z
-x,-x+y,-z
y,x,-z
-y,-x,1/2-z
-x+y,y,1/2-z
x,x-y,1/2-z
-x,-y,-z
-x+y,-x,1/2-z
y,-x+y,-z
x,y,1/2-z
x-y,x,-z
-y,x-y,1/2-z
-x+y,y,z
x,x-y,z
-y,-x,z
y,x,1/2+z
x-y,-y,1/2+z
-x,-x+y,1/2+z
loop_
_atom_site_type_symbol
_atom_site_label
_atom_site_fract_x
_atom_site_fract_y
_atom_site_fract_z
Si Si1 0.816804 0.483238 0.050578
Si Si2 0.083186 0.916815 0.523036
Si Si3 0.734504 0.995370 0.172714
Si Si4 0.218373 0.109187 0.325016
Si Si5 0.391787 0.019068 0.077174
Si Si6 0.497373 0.363170 0.604556
Si Si7 0.579922 0.789961 0.329120
Si Si8 0.134184 0.268368 0.399951
O O1 0.745798 0.491595 0.075203
O O2 0.800828 0.400414 0.068379
O O3 0.895864 0.542093 0.087047
O O4 0.826955 0.498996 0.968818
O O5 0.084160 0.915841 0.606489
O O6 0.123114 0.876887 0.482388
O O7 0.000000 0.877734 0.500000
O O8 0.703343 0.965084 0.250000
O O9 0.803513 0.077387 0.174574
O O10 0.672688 0.998335 0.129096
O O11 0.764193 0.944951 0.137328
O O12 0.173194 0.086597 0.250000
O O13 0.411902 0.955547 0.095847
O O14 0.356842 0.000000 0.000000
O O15 0.579574 0.420427 0.630536
O O16 0.465062 0.298108 0.661053
O O17 0.610722 0.805361 0.250000
O O18 0.643511 0.821756 0.388194
#
# Coordination Sequence:
#
# PCOD8330776 Si02
#       8
#    24  12  24  12  24  24  12  12
#     4  10  20  36  60  89 121 159 203 258 318 379
#     4  12  25  44  66  92 124 168 220 272 318 389
#     4  11  23  40  61  88 125 165 204 256 321 384
#     4  10  24  41  59  92 129 166 208 266 325 380
#     4  10  22  36  59  92 123 159 205 264 318 376
#     4  10  21  39  58  82 120 165 207 257 314 375
#     4  12  24  40  59  91 127 166 218 263 314 381
#     4  12  24  39  66  91 124 160 210 262 321 372
#
# _framework density 19.925204999999998
#
# number of rings (size 3 to 8) (size 9 to 14) (size 15 to 20)
#    0.000    1.333    4.167    1.500    3.500    2.333 
#    0.500    0.417    0.000    1.500    0.000    0.000 
#    0.000    1.333    0.000    0.000    0.000    0.000 
#
# Total GULP energy -1783898.906112 kJ/mol
# GULP energy per Si atom -12388.186848 kJ/mol
# Density = 1.987985 g / cm^3
# Si number density = 19.925205 Si / 1000 Ang^3
#
#
#
# Elastic Constant Matrix: (Units=GPa)
#
#
# Indices 1 2 3 4 5 6 
#
# 1 110.6507 46.3033 31.6329 0.0000 0.0000 0.0000
# 2 46.3033 110.6507 31.6329 0.0000 0.0000 0.0000
# 3 31.6329 31.6329 112.7136 0.0000 0.0000 0.0000
# 4 0.0000 0.0000 0.0000 13.3984 0.0000 0.0000
# 5 0.0000 0.0000 0.0000 0.0000 13.3984 0.0000
# 6 0.0000 0.0000 0.0000 0.0000 0.0000 32.1737
#
#
#
# Elastic Compliance Matrix: (Units=1/GPa)
#
#
# Indices 1 2 3 4 5 6 
#
# 1 0.011362 -0.004178 -0.002016 0.000000 0.000000 0.000000
# 2 -0.004178 0.011362 -0.002016 0.000000 0.000000 0.000000
# 3 -0.002016 -0.002016 0.010004 0.000000 0.000000 0.000000
# 4 0.000000 0.000000 0.000000 0.074636 0.000000 0.000000
# 5 0.000000 0.000000 0.000000 0.000000 0.074636 0.000000
# 6 0.000000 0.000000 0.000000 0.000000 0.000000 0.031081
#
#
# Mechanical properties :
#
#
# Convention : Reuss Voigt Hill
#
# Bulk Modulus (GPa) = 61.32340 61.46146 61.39243
# Shear Modulus (GPa) = 21.28216 26.75714 24.01965
#
# Velocity S-wave (km/s) = 3.27173 3.66851 3.47578
# Velocity P-wave (km/s) = 6.71684 6.98978 6.85467
#
# Compressibility (1/GPa) = 0.01630699
#
# Stress axis : x y z
#
# Youngs Moduli (GPa) = 88.01020 88.01020 99.96292
#
# Poissons Ratio (x) = 0.36774 0.20154
# Poissons Ratio (y) = 0.36774 0.20154
# Poissons Ratio (z) = 0.17744 0.17744
#
# Static dielectric constant tensor:
#      x y z
#    x 3.762620 0.000000 0.000000 
#    y 0.000000 3.762620 0.000000 
#    z 0.000000 0.000000 3.592260 
# 
# 
# High freq. dielectric constant tensor:
#      x y z
#    x 1.781490 0.000000 0.000000 
#    y 0.000000 1.781490 0.000000 
#    z 0.000000 0.000000 1.757320 
# 
# From -- ./inp_files/8343.got.cif
#   From: 2010.03.12/outbox.cif.g09.slc.cpg/sg194_5_cif.got.tgz:8343.got - 2010.04.01 12:26:19.
