data_PCOD8330139
_publ_section_title
;
Structure prediction by ZEFSAII (Michael W. Deem and Ramdas Pophale) SiO2 
 PCOD8330139
Probable space group: P 63/M C M
;
_chemical_formula_sum "Si O2"
_cell_formula_units_Z 104
_cell_length_a 19.063915
_cell_length_b 19.063915
_cell_length_c 18.012572
_cell_angle_alpha 90.000000
_cell_angle_beta 90.000000
_cell_angle_gamma 120.000000
_cell_volume 5669.314469
_symmetry_space_group_name_H-M "P 63/M C M"
_symmetry_group_IT_number 193
_symmetry_cell_setting 'hexagonal'
loop_
_space_group_symop_operation_xyz
x,y,z
x-y,x,1/2+z
-y,x-y,z
-x,-y,1/2+z
-x+y,-x,z
y,-x+y,1/2+z
x-y,-y,1/2-z
-x,-x+y,1/2-z
y,x,1/2-z
-y,-x,-z
-x+y,y,-z
x,x-y,-z
-x,-y,-z
-x+y,-x,1/2-z
y,-x+y,-z
x,y,1/2-z
x-y,x,-z
-y,x-y,1/2-z
-x+y,y,1/2+z
x,x-y,1/2+z
-y,-x,1/2+z
y,x,z
x-y,-y,z
-x,-x+y,z
loop_
_atom_site_type_symbol
_atom_site_label
_atom_site_fract_x
_atom_site_fract_y
_atom_site_fract_z
Si Si1 0.666668 0.333334 0.911911
Si Si2 0.577857 0.908565 0.888190
Si Si3 0.590025 0.415585 0.662849
Si Si4 0.419762 0.246316 0.333634
Si Si5 0.760074 0.090311 0.474146
O O1 0.749119 0.406573 0.878901
O O2 0.666668 0.333334 0.000000
O O3 0.489849 0.900900 0.874334
O O4 0.579015 0.837625 0.840209
O O5 0.645820 0.000000 0.863008
O O6 0.593584 0.895799 0.974385
O O7 0.576162 0.396658 0.750000
O O8 0.672378 0.497386 0.646087
O O9 0.394275 0.252367 0.250000
O O10 0.355270 0.248425 0.388575
O O11 0.851664 0.148337 0.500000
O O12 0.743894 0.000000 0.482035
#
# Coordination Sequence:
#
# PCOD8330139 Si02
#       5
#     8  24  24  24  24
#     4  12  25  32  55  75  97 140 193 234 265 326
#     4  10  21  36  56  79 106 143 185 229 270 321
#     4  11  22  36  52  73 104 141 181 230 279 320
#     4  10  21  34  53  77 107 141 177 222 274 325
#     4   9  20  38  58  79 108 138 174 215 263 321
#
# _framework density 18.344369
#
# number of rings (size 3 to 8) (size 9 to 14) (size 15 to 20)
#    0.000    1.846    2.308    1.385    3.231    3.231 
#    0.000    4.615    0.000    0.231    0.000    0.000 
#    0.000    0.000    0.000    0.692    0.000    0.000 
#
# Total GULP energy -1288788.440710 kJ/mol
# GULP energy per Si atom -12392.196545 kJ/mol
# Density = 1.830262 g / cm^3
# Si number density = 18.344369 Si / 1000 Ang^3
#
#
#
# Elastic Constant Matrix: (Units=GPa)
#
#
# Indices 1 2 3 4 5 6 
#
# 1 102.3805 60.3814 53.2750 -0.0001 -0.0001 0.0002
# 2 60.3814 102.3806 53.2752 0.0001 0.0002 0.0001
# 3 53.2750 53.2752 107.1671 -0.0001 -0.0002 0.0001
# 4 -0.0001 0.0001 -0.0001 17.7115 0.0004 -0.0001
# 5 -0.0001 0.0002 -0.0002 0.0004 17.7108 0.0001
# 6 0.0002 0.0001 0.0001 -0.0001 0.0001 21.0000
#
#
#
# Elastic Compliance Matrix: (Units=1/GPa)
#
#
# Indices 1 2 3 4 5 6 
#
# 1 0.016459 -0.007351 -0.004528 0.000000 0.000000 0.000000
# 2 -0.007351 0.016459 -0.004528 0.000000 0.000000 0.000000
# 3 -0.004528 -0.004528 0.013833 0.000000 0.000000 0.000000
# 4 0.000000 0.000000 0.000000 0.056461 -0.000001 0.000000
# 5 0.000000 0.000000 0.000000 -0.000001 0.056463 0.000000
# 6 0.000000 0.000000 0.000000 0.000000 0.000000 0.047619
#
#
# Mechanical properties :
#
#
# Convention : Reuss Voigt Hill
#
# Bulk Modulus (GPa) = 71.74730 71.75459 71.75094
# Shear Modulus (GPa) = 20.42881 20.95090 20.68985
#
# Velocity S-wave (km/s) = 3.34073 3.38315 3.36200
# Velocity P-wave (km/s) = 7.35370 7.37978 7.36675
#
# Compressibility (1/GPa) = 0.01393781
#
# Stress axis : x y z
#
# Youngs Moduli (GPa) = 60.75708 60.75703 72.29129
#
# Poissons Ratio (x) = 0.44662 0.32732
# Poissons Ratio (y) = 0.44663 0.32732
# Poissons Ratio (z) = 0.27509 0.27510
#
# Static dielectric constant tensor:
#      x y z
#    x 3.299830 0.000000 0.000000 
#    y 0.000000 3.299830 0.000000 
#    z 0.000000 0.000000 3.443100 
# 
# 
# High freq. dielectric constant tensor:
#      x y z
#    x 1.692630 0.000000 0.000000 
#    y 0.000000 1.692630 0.000000 
#    z 0.000000 0.000000 1.720210 
# 
# From -- ./inp_files/3713.got.cif
#   From: 2010.03.12/outbox.cif.g09.slc.cpg/sg193_2_cif.got.tgz:3713.got - 2010.04.01 12:20:39.
