data_PCOD8330789
_publ_section_title
;
Structure prediction by ZEFSAII (Michael W. Deem and Ramdas Pophale) SiO2 
 PCOD8330789
Probable space group: P 63/M M C
;
_chemical_formula_sum "Si O2"
_cell_formula_units_Z 96
_cell_length_a 17.317774
_cell_length_b 17.317774
_cell_length_c 21.042968
_cell_angle_alpha 90.000000
_cell_angle_beta 90.000000
_cell_angle_gamma 120.000000
_cell_volume 5465.397602
_symmetry_space_group_name_H-M "P 63/M M C"
_symmetry_group_IT_number 194
_symmetry_cell_setting 'hexagonal'
loop_
_space_group_symop_operation_xyz
x,y,z
x-y,x,1/2+z
-y,x-y,z
-x,-y,1/2+z
-x+y,-x,z
y,-x+y,1/2+z
x-y,-y,-z
-x,-x+y,-z
y,x,-z
-y,-x,1/2-z
-x+y,y,1/2-z
x,x-y,1/2-z
-x,-y,-z
-x+y,-x,1/2-z
y,-x+y,-z
x,y,1/2-z
x-y,x,-z
-y,x-y,1/2-z
-x+y,y,z
x,x-y,z
-y,-x,z
y,x,1/2+z
x-y,-y,1/2+z
-x,-x+y,1/2+z
loop_
_atom_site_type_symbol
_atom_site_label
_atom_site_fract_x
_atom_site_fract_y
_atom_site_fract_z
Si Si1 0.665334 0.516064 0.519832
Si Si2 0.422362 0.022812 0.096943
Si Si3 0.928801 0.246369 0.179091
Si Si4 0.999950 0.176128 0.570206
O O1 0.762057 0.524114 0.527153
O O2 0.587693 0.412308 0.523113
O O3 0.659450 0.560368 0.454256
O O4 0.650766 0.573381 0.574575
O O5 0.512113 0.024226 0.112121
O O6 0.395816 0.050561 0.162898
O O7 0.964084 0.244382 0.250000
O O8 0.823689 0.176312 0.174791
O O9 0.981494 0.226986 0.125257
O O10 0.071697 0.143394 0.569600
O O11 0.000000 0.216162 0.500000
O O12 0.905608 0.094393 0.587543
#
# Coordination Sequence:
#
# PCOD8330789 Si02
#       4
#    24  24  24  24
#     4   9  17  30  50  75 102 129 162 205 254 304
#     4   9  19  33  49  73  99 129 169 208 250 303
#     4  10  21  35  50  72 102 134 168 205 248 297
#     4   9  18  32  51  74 100 133 171 208 244 285
#
# _framework density 17.565052999999999
#
# number of rings (size 3 to 8) (size 9 to 14) (size 15 to 20)
#    0.000    2.750    0.000    2.750    3.500    3.000 
#    0.000    0.000    0.000    2.000    0.000    0.000 
#    0.000    2.000    0.000    0.000    0.000    0.000 
#
# Total GULP energy -1189616.859448 kJ/mol
# GULP energy per Si atom -12391.842286 kJ/mol
# Density = 1.752507 g / cm^3
# Si number density = 17.565053 Si / 1000 Ang^3
#
#
#
# Elastic Constant Matrix: (Units=GPa)
#
#
# Indices 1 2 3 4 5 6 
#
# 1 98.1708 57.3291 57.2929 0.0000 0.0000 0.0000
# 2 57.3291 98.1708 57.2929 0.0000 0.0000 0.0000
# 3 57.2929 57.2929 135.1063 0.0000 0.0000 0.0000
# 4 0.0000 0.0000 0.0000 22.1598 0.0000 0.0000
# 5 0.0000 0.0000 0.0000 0.0000 22.1598 0.0000
# 6 0.0000 0.0000 0.0000 0.0000 0.0000 20.4208
#
#
#
# Elastic Compliance Matrix: (Units=1/GPa)
#
#
# Indices 1 2 3 4 5 6 
#
# 1 0.016919 -0.007566 -0.003967 0.000000 0.000000 0.000000
# 2 -0.007566 0.016919 -0.003967 0.000000 0.000000 0.000000
# 3 -0.003967 -0.003967 0.010766 0.000000 0.000000 0.000000
# 4 0.000000 0.000000 0.000000 0.045127 0.000000 0.000000
# 5 0.000000 0.000000 0.000000 0.000000 0.045127 0.000000
# 6 0.000000 0.000000 0.000000 0.000000 0.000000 0.048970
#
#
# Mechanical properties :
#
#
# Convention : Reuss Voigt Hill
#
# Bulk Modulus (GPa) = 73.49139 75.03086 74.26113
# Shear Modulus (GPa) = 22.79355 23.58361 23.18858
#
# Velocity S-wave (km/s) = 3.60622 3.66819 3.63733
# Velocity P-wave (km/s) = 7.69871 7.79420 7.74660
#
# Compressibility (1/GPa) = 0.01360704
#
# Stress axis : x y z
#
# Youngs Moduli (GPa) = 59.10414 59.10414 92.88796
#
# Poissons Ratio (x) = 0.44715 0.36844
# Poissons Ratio (y) = 0.44715 0.36844
# Poissons Ratio (z) = 0.23444 0.23444
#
# Static dielectric constant tensor:
#      x y z
#    x 3.276980 0.000000 0.000000 
#    y 0.000000 3.276980 0.000000 
#    z 0.000000 0.000000 3.298740 
# 
# 
# High freq. dielectric constant tensor:
#      x y z
#    x 1.679700 0.000000 0.000000 
#    y 0.000000 1.679700 0.000000 
#    z 0.000000 0.000000 1.660830 
# 
# From -- ./inp_files/7739.got.cif
#   From: 2010.03.12/outbox.cif.g09.slc.cpg/sg194_4_cif.got.tgz:7739.got - 2010.04.01 12:26:19.
