data_PCOD8330023
_publ_section_title
;
Structure prediction by ZEFSAII (Michael W. Deem and Ramdas Pophale) SiO2 
 PCOD8330023
Probable space group: P 63/M C M
;
_chemical_formula_sum "Si O2"
_cell_formula_units_Z 144
_cell_length_a 31.503074
_cell_length_b 31.503074
_cell_length_c 8.794395
_cell_angle_alpha 90.000000
_cell_angle_beta 90.000000
_cell_angle_gamma 120.000000
_cell_volume 7558.619202
_symmetry_space_group_name_H-M "P 63/M C M"
_symmetry_group_IT_number 193
_symmetry_cell_setting 'hexagonal'
loop_
_space_group_symop_operation_xyz
x,y,z
x-y,x,1/2+z
-y,x-y,z
-x,-y,1/2+z
-x+y,-x,z
y,-x+y,1/2+z
x-y,-y,1/2-z
-x,-x+y,1/2-z
y,x,1/2-z
-y,-x,-z
-x+y,y,-z
x,x-y,-z
-x,-y,-z
-x+y,-x,1/2-z
y,-x+y,-z
x,y,1/2-z
x-y,x,-z
-y,x-y,1/2-z
-x+y,y,1/2+z
x,x-y,1/2+z
-y,-x,1/2+z
y,x,z
x-y,-y,z
-x,-x+y,z
loop_
_atom_site_type_symbol
_atom_site_label
_atom_site_fract_x
_atom_site_fract_y
_atom_site_fract_z
Si Si1 0.848737 0.514643 0.929107
Si Si2 0.946088 0.239406 0.069079
Si Si3 0.612226 0.851461 0.929990
Si Si4 0.055069 0.856285 0.928452
Si Si5 0.428516 0.945732 0.071962
Si Si6 0.242148 0.666967 0.068943
O O1 0.838724 0.503379 0.750000
O O2 0.841103 0.559094 0.981994
O O3 0.904707 0.531074 0.972421
O O4 0.812207 0.466538 0.022816
O O5 0.946842 0.239466 0.250000
O O6 0.904692 0.250994 0.008489
O O7 0.934308 0.186007 0.010085
O O8 0.000000 0.280862 0.009706
O O9 0.614933 0.849307 0.750000
O O10 0.622841 0.811421 0.000000
O O11 0.062381 0.860825 0.750000
O O12 0.000000 0.842310 0.973414
O O13 0.091724 0.908277 0.000000
O O14 0.436157 0.946803 0.250000
O O15 0.440881 0.000000 0.014937
O O16 0.465107 0.930213 0.000000
O O17 0.247040 0.667776 0.250000
O O18 0.280366 0.719635 0.000000
O O19 0.253695 0.626848 0.000000
#
# Coordination Sequence:
#
# PCOD8330023 Si02
#       6
#    24  24  24  24  24  24
#     4  10  21  36  54  80 111 144 183 220 258 307
#     4   8  15  29  49  73 100 131 169 212 255 299
#     4  10  20  33  51  74 102 137 174 211 251 299
#     4   9  17  29  46  69  96 126 163 207 254 305
#     4   9  18  33  53  77 105 136 173 218 263 306
#     4  12  25  42  63  86 112 141 175 216 265 318
#
# _framework density 19.051099000000001
#
# number of rings (size 3 to 8) (size 9 to 14) (size 15 to 20)
#    0.000    2.333    0.000    4.167    0.000    5.000 
#    0.000    3.333    0.000    1.667    0.000    2.333 
#    0.000    0.000    0.000    0.000    0.000    0.000 
#
# Total GULP energy -1785386.030818 kJ/mol
# GULP energy per Si atom -12398.514103 kJ/mol
# Density = 1.900774 g / cm^3
# Si number density = 19.051099 Si / 1000 Ang^3
#
#
#
# Elastic Constant Matrix: (Units=GPa)
#
#
# Indices 1 2 3 4 5 6 
#
# 1 107.6723 44.4031 31.0871 0.0000 0.0000 0.0000
# 2 44.4031 107.6723 31.0871 0.0000 0.0000 0.0000
# 3 31.0871 31.0871 50.1368 0.0000 0.0000 0.0000
# 4 0.0000 0.0000 0.0000 23.0499 0.0000 0.0000
# 5 0.0000 0.0000 0.0000 0.0000 23.0499 0.0000
# 6 0.0000 0.0000 0.0000 0.0000 0.0000 31.6346
#
#
#
# Elastic Compliance Matrix: (Units=1/GPa)
#
#
# Indices 1 2 3 4 5 6 
#
# 1 0.012307 -0.003498 -0.005462 0.000000 0.000000 0.000000
# 2 -0.003498 0.012307 -0.005462 0.000000 0.000000 0.000000
# 3 -0.005462 -0.005462 0.026719 0.000000 0.000000 0.000000
# 4 0.000000 0.000000 0.000000 0.043384 0.000000 0.000000
# 5 0.000000 0.000000 0.000000 0.000000 0.043384 0.000000
# 6 0.000000 0.000000 0.000000 0.000000 0.000000 0.031611
#
#
# Mechanical properties :
#
#
# Convention : Reuss Voigt Hill
#
# Bulk Modulus (GPa) = 44.46662 53.18175 48.82419
# Shear Modulus (GPa) = 24.26573 26.14051 25.20312
#
# Velocity S-wave (km/s) = 3.57279 3.70824 3.64115
# Velocity P-wave (km/s) = 6.35698 6.80519 6.58490
#
# Compressibility (1/GPa) = 0.02248878
#
# Stress axis : x y z
#
# Youngs Moduli (GPa) = 81.25409 81.25409 37.42717
#
# Poissons Ratio (x) = 0.28426 0.20442
# Poissons Ratio (y) = 0.28426 0.20442
# Poissons Ratio (z) = 0.44379 0.44379
#
# Static dielectric constant tensor:
#      x y z
#    x 3.693770 0.000000 0.000000 
#    y 0.000000 3.693770 0.000000 
#    z 0.000000 0.000000 3.229530 
# 
# 
# High freq. dielectric constant tensor:
#      x y z
#    x 1.746620 0.000000 0.000000 
#    y 0.000000 1.746620 0.000000 
#    z 0.000000 0.000000 1.713910 
# 
# From -- ./inp_files/1571.got.cif
#   From: 2010.03.12/outbox.cif.g09.slc.cpg/sg193_1_cif.got.tgz:1571.got - 2010.04.01 12:20:39.
