data_PCOD8330637
_publ_section_title
;
Structure prediction by ZEFSAII (Michael W. Deem and Ramdas Pophale) SiO2 
 PCOD8330637
Probable space group: P 63/M M C
;
_chemical_formula_sum "Si O2"
_cell_formula_units_Z 132
_cell_length_a 17.327663
_cell_length_b 17.327663
_cell_length_c 27.877508
_cell_angle_alpha 90.000000
_cell_angle_beta 90.000000
_cell_angle_gamma 120.000000
_cell_volume 7248.774116
_symmetry_space_group_name_H-M "P 63/M M C"
_symmetry_group_IT_number 194
_symmetry_cell_setting 'hexagonal'
loop_
_space_group_symop_operation_xyz
x,y,z
x-y,x,1/2+z
-y,x-y,z
-x,-y,1/2+z
-x+y,-x,z
y,-x+y,1/2+z
x-y,-y,-z
-x,-x+y,-z
y,x,-z
-y,-x,1/2-z
-x+y,y,1/2-z
x,x-y,1/2-z
-x,-y,-z
-x+y,-x,1/2-z
y,-x+y,-z
x,y,1/2-z
x-y,x,-z
-y,x-y,1/2-z
-x+y,y,z
x,x-y,z
-y,-x,z
y,x,1/2+z
x-y,-y,1/2+z
-x,-x+y,1/2+z
loop_
_atom_site_type_symbol
_atom_site_label
_atom_site_fract_x
_atom_site_fract_y
_atom_site_fract_z
Si Si1 0.634591 0.908754 0.432896
Si Si2 0.511137 0.844871 0.518017
Si Si3 0.390767 0.962427 0.157648
Si Si4 0.829294 0.829859 0.556642
Si Si5 0.517500 0.851340 0.250000
Si Si6 0.666665 0.512452 0.128039
O O1 0.638277 0.819139 0.431348
O O2 0.589551 0.912268 0.482844
O O3 0.580352 0.911647 0.387789
O O4 0.735298 0.991351 0.430169
O O5 0.425036 0.850072 0.503810
O O6 0.487372 0.743686 0.510433
O O7 0.540395 0.874570 0.572778
O O8 0.477535 0.955069 0.151872
O O9 0.336795 0.910560 0.204795
O O10 0.420747 0.067751 0.159695
O O11 0.839704 0.839704 0.500000
O O12 0.812290 0.906145 0.578554
O O13 0.920315 0.840629 0.578877
O O14 0.416628 0.833256 0.250000
O O15 0.514161 0.757081 0.250000
O O16 0.761454 0.522907 0.142977
O O17 0.590524 0.409477 0.135803
#
# Coordination Sequence:
#
# PCOD8330637 Si02
#       6
#    24  24  24  24  12  24
#     4  10  20  31  46  72 102 133 169 211 260 306
#     4   9  17  29  46  69 101 140 177 207 238 286
#     4  10  21  35  53  76 102 133 167 210 261 306
#     4   9  18  31  47  66  92 129 172 215 255 298
#     4  10  21  40  63  82 100 126 164 208 255 308
#     4   9  18  32  51  74 102 139 176 207 240 287
#
# _framework density 18.209976000000001
#
# number of rings (size 3 to 8) (size 9 to 14) (size 15 to 20)
#    0.000    2.545    0.000    1.727    2.545    2.909 
#    0.000    3.182    0.000    5.818    0.000    1.273 
#    0.000    0.000    0.000    1.091    0.000    0.000 
#
# Total GULP energy -1636502.383825 kJ/mol
# GULP energy per Si atom -12397.745332 kJ/mol
# Density = 1.816853 g / cm^3
# Si number density = 18.209976 Si / 1000 Ang^3
#
#
#
# Elastic Constant Matrix: (Units=GPa)
#
#
# Indices 1 2 3 4 5 6 
#
# 1 88.9904 56.7551 45.6688 0.0000 0.0000 0.0000
# 2 56.7551 88.9904 45.6688 0.0000 0.0000 0.0000
# 3 45.6688 45.6688 64.5318 0.0000 0.0000 0.0000
# 4 0.0000 0.0000 0.0000 19.6864 0.0000 0.0000
# 5 0.0000 0.0000 0.0000 0.0000 19.6864 0.0000
# 6 0.0000 0.0000 0.0000 0.0000 0.0000 16.1177
#
#
#
# Elastic Compliance Matrix: (Units=1/GPa)
#
#
# Indices 1 2 3 4 5 6 
#
# 1 0.021676 -0.009346 -0.008726 0.000000 0.000000 0.000000
# 2 -0.009346 0.021676 -0.008726 0.000000 0.000000 0.000000
# 3 -0.008726 -0.008726 0.027846 0.000000 0.000000 0.000000
# 4 0.000000 0.000000 0.000000 0.050796 0.000000 0.000000
# 5 0.000000 0.000000 0.000000 0.000000 0.050796 0.000000
# 6 0.000000 0.000000 0.000000 0.000000 0.000000 0.062044
#
#
# Mechanical properties :
#
#
# Convention : Reuss Voigt Hill
#
# Bulk Modulus (GPa) = 56.80797 59.85532 58.33165
# Shear Modulus (GPa) = 16.98968 17.39277 17.19123
#
# Velocity S-wave (km/s) = 3.05780 3.09386 3.07588
# Velocity P-wave (km/s) = 6.61291 6.76044 6.68708
#
# Compressibility (1/GPa) = 0.01760316
#
# Stress axis : x y z
#
# Youngs Moduli (GPa) = 46.13470 46.13470 35.91150
#
# Poissons Ratio (x) = 0.43118 0.31335
# Poissons Ratio (y) = 0.43118 0.31335
# Poissons Ratio (z) = 0.40255 0.40255
#
# Static dielectric constant tensor:
#      x y z
#    x 3.521140 0.000000 0.000000 
#    y 0.000000 3.521140 0.000000 
#    z 0.000000 0.000000 3.147000 
# 
# 
# High freq. dielectric constant tensor:
#      x y z
#    x 1.714390 0.000000 0.000000 
#    y 0.000000 1.714390 0.000000 
#    z 0.000000 0.000000 1.660040 
# 
# From -- ./inp_files/9531.got.cif
#   From: 2010.03.12/outbox.cif.g09.slc.cpg/sg194_5_cif.got.tgz:9531.got - 2010.04.01 12:26:19.
