data_PCOD8330662
_publ_section_title
;
Structure prediction by ZEFSAII (Michael W. Deem and Ramdas Pophale) SiO2 
 PCOD8330662
Probable space group: P 63/M M C
;
_chemical_formula_sum "Si O2"
_cell_formula_units_Z 96
_cell_length_a 13.041223
_cell_length_b 13.041223
_cell_length_c 40.046463
_cell_angle_alpha 90.000000
_cell_angle_beta 90.000000
_cell_angle_gamma 120.000000
_cell_volume 5898.362209
_symmetry_space_group_name_H-M "P 63/M M C"
_symmetry_group_IT_number 194
_symmetry_cell_setting 'hexagonal'
loop_
_space_group_symop_operation_xyz
x,y,z
x-y,x,1/2+z
-y,x-y,z
-x,-y,1/2+z
-x+y,-x,z
y,-x+y,1/2+z
x-y,-y,-z
-x,-x+y,-z
y,x,-z
-y,-x,1/2-z
-x+y,y,1/2-z
x,x-y,1/2-z
-x,-y,-z
-x+y,-x,1/2-z
y,-x+y,-z
x,y,1/2-z
x-y,x,-z
-y,x-y,1/2-z
-x+y,y,z
x,x-y,z
-y,-x,z
y,x,1/2+z
x-y,-y,1/2+z
-x,-x+y,1/2+z
loop_
_atom_site_type_symbol
_atom_site_label
_atom_site_fract_x
_atom_site_fract_y
_atom_site_fract_z
Si Si1 0.667006 0.095538 0.712381
Si Si2 0.666251 0.092472 0.529471
Si Si3 0.235774 0.236058 0.415264
Si Si4 0.000821 0.763760 0.839070
O O1 0.672563 0.053664 0.750000
O O2 0.548449 0.096897 0.705752
O O3 0.772882 0.227119 0.705769
O O4 0.669836 0.005099 0.685811
O O5 0.558555 0.117109 0.535143
O O6 0.783987 0.216014 0.520912
O O7 0.682228 0.033032 0.562704
O O8 0.639552 0.000000 0.500000
O O9 0.097742 0.195483 0.419688
O O10 0.276991 0.273975 0.377226
O O11 0.251693 0.125847 0.426173
O O12 0.892860 0.785720 0.832404
O O13 0.117060 0.882941 0.829668
#
# Coordination Sequence:
#
# PCOD8330662 Si02
#       4
#    24  24  24  24
#     4   9  17  29  45  65  89 118 152 189 228 269
#     4  10  20  33  49  69  94 123 154 188 225 265
#     4   9  17  30  48  69  92 118 148 183 224 269
#     4   9  17  29  46  68  93 119 146 179 222 271
#
# _framework density 16.275704999999999
#
# number of rings (size 3 to 8) (size 9 to 14) (size 15 to 20)
#    0.000    2.750    0.000    1.750    0.000    4.500 
#    0.000    0.000    0.000    9.500    0.000    0.000 
#    0.000    0.000    0.000    0.000    0.000    0.000 
#
# Total GULP energy -1190339.515707 kJ/mol
# GULP energy per Si atom -12399.369955 kJ/mol
# Density = 1.623866 g / cm^3
# Si number density = 16.275705 Si / 1000 Ang^3
#
#
#
# Elastic Constant Matrix: (Units=GPa)
#
#
# Indices 1 2 3 4 5 6 
#
# 1 99.2725 51.5289 62.9486 0.0000 0.0000 0.0000
# 2 51.5289 99.2725 62.9486 0.0000 0.0000 0.0000
# 3 62.9486 62.9486 100.2837 0.0000 0.0000 0.0000
# 4 0.0000 0.0000 0.0000 29.1462 0.0000 0.0000
# 5 0.0000 0.0000 0.0000 0.0000 29.1462 0.0000
# 6 0.0000 0.0000 0.0000 0.0000 0.0000 23.8718
#
#
#
# Elastic Compliance Matrix: (Units=1/GPa)
#
#
# Indices 1 2 3 4 5 6 
#
# 1 0.017439 -0.003506 -0.008745 0.000000 0.000000 0.000000
# 2 -0.003506 0.017439 -0.008745 0.000000 0.000000 0.000000
# 3 -0.008745 -0.008745 0.020951 0.000000 0.000000 0.000000
# 4 0.000000 0.000000 0.000000 0.034310 0.000000 0.000000
# 5 0.000000 0.000000 0.000000 0.000000 0.034310 0.000000
# 6 0.000000 0.000000 0.000000 0.000000 0.000000 0.041890
#
#
# Mechanical properties :
#
#
# Convention : Reuss Voigt Hill
#
# Bulk Modulus (GPa) = 72.28634 72.63120 72.45877
# Shear Modulus (GPa) = 23.48034 24.52637 24.00336
#
# Velocity S-wave (km/s) = 3.80236 3.88613 3.84447
# Velocity P-wave (km/s) = 7.98670 8.05347 8.02015
#
# Compressibility (1/GPa) = 0.01383387
#
# Stress axis : x y z
#
# Youngs Moduli (GPa) = 57.34343 57.34343 47.73090
#
# Poissons Ratio (x) = 0.20107 0.41743
# Poissons Ratio (y) = 0.20107 0.41743
# Poissons Ratio (z) = 0.50149 0.50149
#
# Static dielectric constant tensor:
#      x y z
#    x 3.022230 0.000000 0.000000 
#    y 0.000000 3.022230 0.000000 
#    z 0.000000 0.000000 3.246840 
# 
# 
# High freq. dielectric constant tensor:
#      x y z
#    x 1.619330 0.000000 0.000000 
#    y 0.000000 1.619330 0.000000 
#    z 0.000000 0.000000 1.634340 
# 
# From -- ./inp_files/11507.got.cif
#   From: 2010.03.12/outbox.cif.g09.slc.cpg/sg194_6_cif.got.tgz:11507.got - 2010.04.01 12:26:19.
