data_PCOD8330785
_publ_section_title
;
Structure prediction by ZEFSAII (Michael W. Deem and Ramdas Pophale) SiO2 
 PCOD8330785
Probable space group: P 63/M M C
;
_chemical_formula_sum "Si O2"
_cell_formula_units_Z 132
_cell_length_a 17.624960
_cell_length_b 17.624960
_cell_length_c 23.839021
_cell_angle_alpha 90.000000
_cell_angle_beta 90.000000
_cell_angle_gamma 120.000000
_cell_volume 6413.208034
_symmetry_space_group_name_H-M "P 63/M M C"
_symmetry_group_IT_number 194
_symmetry_cell_setting 'hexagonal'
loop_
_space_group_symop_operation_xyz
x,y,z
x-y,x,1/2+z
-y,x-y,z
-x,-y,1/2+z
-x+y,-x,z
y,-x+y,1/2+z
x-y,-y,-z
-x,-x+y,-z
y,x,-z
-y,-x,1/2-z
-x+y,y,1/2-z
x,x-y,1/2-z
-x,-y,-z
-x+y,-x,1/2-z
y,-x+y,-z
x,y,1/2-z
x-y,x,-z
-y,x-y,1/2-z
-x+y,y,z
x,x-y,z
-y,-x,z
y,x,1/2+z
x-y,-y,1/2+z
-x,-x+y,1/2+z
loop_
_atom_site_type_symbol
_atom_site_label
_atom_site_fract_x
_atom_site_fract_y
_atom_site_fract_z
Si Si1 0.998284 0.176692 0.127279
Si Si2 0.400799 0.979441 0.687104
Si Si3 0.829862 0.828213 0.250000
Si Si4 0.839997 0.333376 0.866539
Si Si5 0.269760 0.361461 0.910041
Si Si6 0.842610 0.333678 0.505727
O O1 0.093728 0.187455 0.116924
O O2 0.986143 0.207194 0.190490
O O3 0.984259 0.242538 0.086984
O O4 0.924736 0.075265 0.116444
O O5 0.361656 0.958983 0.750000
O O6 0.480836 0.961671 0.681563
O O7 0.328840 0.917020 0.643097
O O8 0.433407 0.080909 0.674334
O O9 0.934221 0.868441 0.250000
O O10 0.808864 0.904432 0.250000
O O11 0.808538 0.404269 0.859925
O O12 0.760443 0.239558 0.849560
O O13 0.872129 0.335185 0.930264
O O14 0.183020 0.366039 0.901080
O O15 0.318737 0.409628 0.967175
O O16 0.849781 0.424891 0.488311
O O17 0.742369 0.257632 0.497259
#
# Coordination Sequence:
#
# PCOD8330785 Si02
#       6
#    24  24  12  24  24  24
#     4   9  17  29  46  70 101 137 178 223 272 322
#     4  10  22  38  54  76 110 148 182 215 260 320
#     4   8  13  22  38  60  87 120 162 212 262 310
#     4   9  18  34  58  86 114 145 180 220 266 322
#     4  10  21  34  52  78 106 141 185 232 277 322
#     4   9  17  32  56  85 113 140 177 226 279 327
#
# _framework density 20.582522000000001
#
# number of rings (size 3 to 8) (size 9 to 14) (size 15 to 20)
#    0.000    2.727    0.000    1.182    1.273    5.091 
#    0.000    2.727    0.000    2.545    0.000    0.000 
#    0.000    0.000    0.000   24.545    0.000    2.545 
#
# Total GULP energy -1636119.194226 kJ/mol
# GULP energy per Si atom -12394.842380 kJ/mol
# Density = 2.053568 g / cm^3
# Si number density = 20.582522 Si / 1000 Ang^3
#
#
#
# Elastic Constant Matrix: (Units=GPa)
#
#
# Indices 1 2 3 4 5 6 
#
# 1 50.9489 15.1700 15.9902 0.0000 0.0000 0.0000
# 2 15.1700 50.9489 15.9902 0.0000 0.0000 0.0000
# 3 15.9902 15.9902 43.5088 0.0000 0.0000 0.0000
# 4 0.0000 0.0000 0.0000 25.0549 0.0000 0.0000
# 5 0.0000 0.0000 0.0000 0.0000 25.0549 0.0000
# 6 0.0000 0.0000 0.0000 0.0000 0.0000 17.8894
#
#
#
# Elastic Compliance Matrix: (Units=1/GPa)
#
#
# Indices 1 2 3 4 5 6 
#
# 1 0.023172 -0.004778 -0.006760 0.000000 0.000000 0.000000
# 2 -0.004778 0.023172 -0.006760 0.000000 0.000000 0.000000
# 3 -0.006760 -0.006760 0.027953 0.000000 0.000000 0.000000
# 4 0.000000 0.000000 0.000000 0.039912 0.000000 0.000000
# 5 0.000000 0.000000 0.000000 0.000000 0.039912 0.000000
# 6 0.000000 0.000000 0.000000 0.000000 0.000000 0.055899
#
#
# Mechanical properties :
#
#
# Convention : Reuss Voigt Hill
#
# Bulk Modulus (GPa) = 26.52499 26.63419 26.57959
# Shear Modulus (GPa) = 19.29142 20.15024 19.72083
#
# Velocity S-wave (km/s) = 3.06481 3.13229 3.09873
# Velocity P-wave (km/s) = 5.04373 5.10391 5.07391
#
# Compressibility (1/GPa) = 0.03770030
#
# Stress axis : x y z
#
# Youngs Moduli (GPa) = 43.15607 43.15607 35.77466
#
# Poissons Ratio (x) = 0.20619 0.24184
# Poissons Ratio (y) = 0.20619 0.24184
# Poissons Ratio (z) = 0.29174 0.29174
#
# Static dielectric constant tensor:
#      x y z
#    x 3.659080 0.000000 0.000000 
#    y 0.000000 3.659080 0.000000 
#    z 0.000000 0.000000 3.992280 
# 
# 
# High freq. dielectric constant tensor:
#      x y z
#    x 1.800150 0.000000 0.000000 
#    y 0.000000 1.800150 0.000000 
#    z 0.000000 0.000000 1.798810 
# 
# From -- ./inp_files/9507.got.cif
#   From: 2010.03.12/outbox.cif.g09.slc.cpg/sg194_5_cif.got.tgz:9507.got - 2010.04.01 12:26:19.
