data_PCOD8330921
_publ_section_title
;
Structure prediction by ZEFSAII (Michael W. Deem and Ramdas Pophale) SiO2 
 PCOD8330921
Probable space group: P N 3
;
_chemical_formula_sum "Si O2"
_cell_formula_units_Z 168
_cell_length_a 20.334808
_cell_length_b 20.334808
_cell_length_c 20.334808
_cell_angle_alpha 90.000000
_cell_angle_beta 90.000000
_cell_angle_gamma 90.000000
_cell_volume 8408.532915
_symmetry_space_group_name_H-M "P N 3"
_symmetry_group_IT_number 201
_space_group.IT_coordinate_system_code '2'
_symmetry_cell_setting 'cubic'
loop_
_space_group_symop_operation_xyz
x,y,z
z,x,y
y,z,x
1/2-y,1/2-z,x
z,1/2-x,1/2-y
1/2-y,z,1/2-x
1/2-z,1/2-x,y
1/2-z,x,1/2-y
y,1/2-z,1/2-x
1/2-x,1/2-y,z
x,1/2-y,1/2-z
1/2-x,y,1/2-z
-x,-y,-z
-z,-x,-y
-y,-z,-x
1/2+y,1/2+z,-x
-z,1/2+x,1/2+y
1/2+y,-z,1/2+x
1/2+z,1/2+x,-y
1/2+z,-x,1/2+y
-y,1/2+z,1/2+x
1/2+x,1/2+y,-z
-x,1/2+y,1/2+z
1/2+x,-y,1/2+z
loop_
_atom_site_type_symbol
_atom_site_label
_atom_site_fract_x
_atom_site_fract_y
_atom_site_fract_z
Si Si1 0.263967 0.987615 0.896157
Si Si2 0.191223 0.671460 0.793033
Si Si3 0.286420 0.410985 0.994060
Si Si4 0.800219 0.800893 0.455730
Si Si5 0.481587 0.899317 0.697454
Si Si6 0.796558 0.158864 0.949428
Si Si7 0.704047 0.354190 0.439462
O O1 0.214086 0.943508 0.852296
O O2 0.302427 0.934279 0.941890
O O3 0.215980 0.035064 0.936865
O O4 0.320267 0.029644 0.860093
O O5 0.250000 0.704981 0.750000
O O6 0.123381 0.712488 0.799599
O O7 0.174330 0.600802 0.762238
O O8 0.218549 0.667438 0.865876
O O9 0.216141 0.371674 0.989187
O O10 0.344141 0.358710 0.983954
O O11 0.300166 0.450061 0.061280
O O12 0.750000 0.750000 0.488700
O O13 0.872094 0.772358 0.473114
O O14 0.416428 0.941057 0.678682
O O15 0.768571 0.168554 0.022184
#
# Coordination Sequence:
#
# PCOD8330921 Si02
#       7
#    24  24  24  24  24  24  24
#     4  12  25  40  64  91 126 174 217 265 319 384
#     4  11  20  36  57  85 121 160 204 250 311 374
#     4  11  22  42  65  94 124 169 213 265 325 385
#     4   9  21  39  58  88 125 158 203 266 317 375
#     4  10  23  40  66  90 128 163 211 263 323 390
#     4  11  23  40  56  89 124 162 206 257 307 368
#     4  12  22  39  61  87 122 168 211 257 318 377
#
# _framework density 19.979703000000001
#
# number of rings (size 3 to 8) (size 9 to 14) (size 15 to 20)
#    0.000    1.143    5.714    0.714    2.000    1.429 
#    3.429    0.000    0.000    2.000    0.000    0.000 
#    0.000    0.000    0.000    0.000    0.000    0.000 
#
# Total GULP energy -2081311.322290 kJ/mol
# GULP energy per Si atom -12388.757871 kJ/mol
# Density = 1.993423 g / cm^3
# Si number density = 19.979703 Si / 1000 Ang^3
#
#
#
# Elastic Constant Matrix: (Units=GPa)
#
#
# Indices 1 2 3 4 5 6 
#
# 1 103.5747 38.7634 38.7634 0.0000 0.0000 0.0000
# 2 38.7634 103.5747 38.7634 0.0000 0.0000 0.0000
# 3 38.7634 38.7634 103.5747 0.0000 0.0000 0.0000
# 4 0.0000 0.0000 0.0000 17.4967 0.0000 0.0000
# 5 0.0000 0.0000 0.0000 0.0000 17.4967 0.0000
# 6 0.0000 0.0000 0.0000 0.0000 0.0000 17.4967
#
#
#
# Elastic Compliance Matrix: (Units=1/GPa)
#
#
# Indices 1 2 3 4 5 6 
#
# 1 0.012127 -0.003303 -0.003303 0.000000 0.000000 0.000000
# 2 -0.003303 0.012127 -0.003303 0.000000 0.000000 0.000000
# 3 -0.003303 -0.003303 0.012127 0.000000 0.000000 0.000000
# 4 0.000000 0.000000 0.000000 0.057154 0.000000 0.000000
# 5 0.000000 0.000000 0.000000 0.000000 0.057154 0.000000
# 6 0.000000 0.000000 0.000000 0.000000 0.000000 0.057154
#
#
# Mechanical properties :
#
#
# Convention : Reuss Voigt Hill
#
# Bulk Modulus (GPa) = 60.36717 60.36717 60.36717
# Shear Modulus (GPa) = 21.44277 23.46026 22.45151
#
# Velocity S-wave (km/s) = 3.27957 3.43038 3.35582
# Velocity P-wave (km/s) = 6.67987 6.78011 6.73017
#
# Compressibility (1/GPa) = 0.01656530
#
# Stress axis : x y z
#
# Youngs Moduli (GPa) = 82.46156 82.46156 82.46156
#
# Poissons Ratio (x) = 0.27233 0.27233
# Poissons Ratio (y) = 0.27233 0.27233
# Poissons Ratio (z) = 0.27233 0.27233
#
# Static dielectric constant tensor:
#      x y z
#    x 3.696550 0.000000 0.000000 
#    y 0.000000 3.696550 0.000000 
#    z 0.000000 0.000000 3.696550 
# 
# 
# High freq. dielectric constant tensor:
#      x y z
#    x 1.776300 0.000000 0.000000 
#    y 0.000000 1.776300 0.000000 
#    z 0.000000 0.000000 1.776300 
# 
# From -- ./inp_files/765.got.cif
#   From: 2010.03.12/outbox.cif.g09.slc.cpg/sg201_cif.got.tgz:765.got - 2010.03.30 09:02:05.
