data_PCOD8330521
_publ_section_title
;
Structure prediction by ZEFSAII (Michael W. Deem and Ramdas Pophale) SiO2 
 PCOD8330521
Probable space group: P 63/M M C
;
_chemical_formula_sum "Si O2"
_cell_formula_units_Z 120
_cell_length_a 22.421903
_cell_length_b 22.421903
_cell_length_c 14.880447
_cell_angle_alpha 90.000000
_cell_angle_beta 90.000000
_cell_angle_gamma 120.000000
_cell_volume 6478.754864
_symmetry_space_group_name_H-M "P 63/M M C"
_symmetry_group_IT_number 194
_symmetry_cell_setting 'hexagonal'
loop_
_space_group_symop_operation_xyz
x,y,z
x-y,x,1/2+z
-y,x-y,z
-x,-y,1/2+z
-x+y,-x,z
y,-x+y,1/2+z
x-y,-y,-z
-x,-x+y,-z
y,x,-z
-y,-x,1/2-z
-x+y,y,1/2-z
x,x-y,1/2-z
-x,-y,-z
-x+y,-x,1/2-z
y,-x+y,-z
x,y,1/2-z
x-y,x,-z
-y,x-y,1/2-z
-x+y,y,z
x,x-y,z
-y,-x,z
y,x,1/2+z
x-y,-y,1/2+z
-x,-x+y,1/2+z
loop_
_atom_site_type_symbol
_atom_site_label
_atom_site_fract_x
_atom_site_fract_y
_atom_site_fract_z
Si Si1 0.867504 0.868038 0.896135
Si Si2 0.383640 0.309550 0.651722
Si Si3 0.237259 0.956388 0.849000
Si Si4 0.270335 0.407464 0.962938
Si Si5 0.548389 0.584280 0.595635
O O1 0.924234 0.848468 0.862062
O O2 0.795355 0.827234 0.845548
O O3 0.898348 0.949174 0.878718
O O4 0.850573 0.850573 0.000000
O O5 0.399950 0.288546 0.750000
O O6 0.302587 0.271574 0.632664
O O7 0.414148 0.285981 0.570153
O O8 0.411076 0.391434 0.658463
O O9 0.242276 0.928238 0.750000
O O10 0.232701 0.903835 0.926397
O O11 0.218713 0.437426 0.945765
O O12 0.342762 0.450614 0.909908
O O13 0.563743 0.563743 0.500000
O O14 0.473746 0.526255 0.632049
#
# Coordination Sequence:
#
# PCOD8330521 Si02
#       5
#    24  24  24  24  24
#     4  10  20  33  47  61  80 112 157 206 251 293
#     4   9  18  31  48  73 100 124 155 196 243 294
#     4  10  20  33  48  66  90 122 160 201 246 294
#     4  10  19  31  49  73 101 131 160 194 240 294
#     4   8  15  30  50  70  96 130 166 203 239 277
#
# _framework density 18.522078
#
# number of rings (size 3 to 8) (size 9 to 14) (size 15 to 20)
#    0.000    2.600    0.000    3.800    0.000    6.000 
#    0.000    2.000    0.000    1.600    0.000    0.000 
#    0.000    0.000    0.000   10.600    0.000    0.000 
#
# Total GULP energy -1486791.572958 kJ/mol
# GULP energy per Si atom -12389.929775 kJ/mol
# Density = 1.847992 g / cm^3
# Si number density = 18.522078 Si / 1000 Ang^3
#
#
#
# Elastic Constant Matrix: (Units=GPa)
#
#
# Indices 1 2 3 4 5 6 
#
# 1 82.1484 45.5523 8.9349 0.0000 0.0000 0.0000
# 2 45.5523 82.1484 8.9349 0.0000 0.0000 0.0000
# 3 8.9349 8.9349 67.5850 0.0000 0.0000 0.0000
# 4 0.0000 0.0000 0.0000 7.2321 0.0000 0.0000
# 5 0.0000 0.0000 0.0000 0.0000 7.2321 0.0000
# 6 0.0000 0.0000 0.0000 0.0000 0.0000 18.2981
#
#
#
# Elastic Compliance Matrix: (Units=1/GPa)
#
#
# Indices 1 2 3 4 5 6 
#
# 1 0.017652 -0.009673 -0.001055 0.000000 0.000000 0.000000
# 2 -0.009673 0.017652 -0.001055 0.000000 0.000000 0.000000
# 3 -0.001055 -0.001055 0.015075 0.000000 0.000000 0.000000
# 4 0.000000 0.000000 0.000000 0.138273 0.000000 0.000000
# 5 0.000000 0.000000 0.000000 0.000000 0.138273 0.000000
# 6 0.000000 0.000000 0.000000 0.000000 0.000000 0.054651
#
#
# Mechanical properties :
#
#
# Convention : Reuss Voigt Hill
#
# Bulk Modulus (GPa) = 37.29561 39.85846 38.57703
# Shear Modulus (GPa) = 12.07499 17.78309 14.92904
#
# Velocity S-wave (km/s) = 2.55605 3.10191 2.84212
# Velocity P-wave (km/s) = 5.37500 5.86475 5.62521
#
# Compressibility (1/GPa) = 0.02681281
#
# Stress axis : x y z
#
# Youngs Moduli (GPa) = 56.65129 56.65129 66.33473
#
# Poissons Ratio (x) = 0.54801 0.06997
# Poissons Ratio (y) = 0.54801 0.06997
# Poissons Ratio (z) = 0.05975 0.05975
#
# Static dielectric constant tensor:
#      x y z
#    x 3.318680 0.000000 0.000000 
#    y 0.000000 3.318680 0.000000 
#    z 0.000000 0.000000 3.426320 
# 
# 
# High freq. dielectric constant tensor:
#      x y z
#    x 1.687250 0.000000 0.000000 
#    y 0.000000 1.687250 0.000000 
#    z 0.000000 0.000000 1.725880 
# 
# From -- ./inp_files/5065.got.cif
#   From: 2010.03.12/outbox.cif.g09.slc.cpg/sg194_3_cif.got.tgz:5065.got - 2010.04.01 12:26:19.
