data_PCOD8330738
_publ_section_title
;
Structure prediction by ZEFSAII (Michael W. Deem and Ramdas Pophale) SiO2 
 PCOD8330738
Probable space group: P 63/M M C
;
_chemical_formula_sum "Si O2"
_cell_formula_units_Z 132
_cell_length_a 17.993011
_cell_length_b 17.993011
_cell_length_c 26.298019
_cell_angle_alpha 90.000000
_cell_angle_beta 90.000000
_cell_angle_gamma 120.000000
_cell_volume 7373.290711
_symmetry_space_group_name_H-M "P 63/M M C"
_symmetry_group_IT_number 194
_symmetry_cell_setting 'hexagonal'
loop_
_space_group_symop_operation_xyz
x,y,z
x-y,x,1/2+z
-y,x-y,z
-x,-y,1/2+z
-x+y,-x,z
y,-x+y,1/2+z
x-y,-y,-z
-x,-x+y,-z
y,x,-z
-y,-x,1/2-z
-x+y,y,1/2-z
x,x-y,1/2-z
-x,-y,-z
-x+y,-x,1/2-z
y,-x+y,-z
x,y,1/2-z
x-y,x,-z
-y,x-y,1/2-z
-x+y,y,z
x,x-y,z
-y,-x,z
y,x,1/2+z
x-y,-y,1/2+z
-x,-x+y,1/2+z
loop_
_atom_site_type_symbol
_atom_site_label
_atom_site_fract_x
_atom_site_fract_y
_atom_site_fract_z
Si Si1 0.564237 0.607357 0.343574
Si Si2 0.656615 0.745715 0.637682
Si Si3 0.666948 0.507709 0.559631
Si Si4 0.256244 0.908103 0.518263
Si Si5 0.999509 0.830948 0.192222
Si Si6 0.666560 0.508287 0.750000
O O1 0.489540 0.510461 0.337718
O O2 0.651366 0.602571 0.338151
O O3 0.558869 0.649302 0.396339
O O4 0.560067 0.665795 0.299186
O O5 0.628818 0.814409 0.657875
O O6 0.640782 0.733518 0.578080
O O7 0.755336 0.780025 0.652043
O O8 0.750218 0.500436 0.573543
O O9 0.587470 0.412531 0.552515
O O10 0.679289 0.560243 0.507722
O O11 0.159166 0.840835 0.501589
O O12 0.274162 0.000000 0.500000
O O13 0.999384 0.799112 0.250000
O O14 0.932576 0.865152 0.188127
O O15 0.092722 0.907279 0.176905
O O16 0.588259 0.411742 0.750000
O O17 0.751941 0.503881 0.750000
#
# Coordination Sequence:
#
# PCOD8330738 Si02
#       6
#    24  24  24  24  24  12
#     4  10  21  36  55  79 109 146 183 220 266 324
#     4  10  21  36  52  76 108 141 179 224 273 318
#     4  10  20  34  55  82 110 141 178 223 273 325
#     4  10  20  35  53  75 104 139 180 227 274 321
#     4   9  18  32  52  78 107 138 172 213 263 318
#     4  10  21  36  55  82 118 154 184 214 261 326
#
# _framework density 17.902455
#
# number of rings (size 3 to 8) (size 9 to 14) (size 15 to 20)
#    0.000    2.182    1.818    1.000    1.273    4.000 
#    0.000    1.818    0.000    0.545    0.000    0.000 
#    0.000    0.000    0.000    0.000    0.000    0.000 
#
# Total GULP energy -1636516.832839 kJ/mol
# GULP energy per Si atom -12397.854794 kJ/mol
# Density = 1.786171 g / cm^3
# Si number density = 17.902455 Si / 1000 Ang^3
#
#
#
# Elastic Constant Matrix: (Units=GPa)
#
#
# Indices 1 2 3 4 5 6 
#
# 1 104.6302 56.2446 35.2471 0.0000 0.0000 0.0000
# 2 56.2446 104.6302 35.2471 0.0000 0.0000 0.0000
# 3 35.2471 35.2471 85.4856 0.0000 0.0000 0.0000
# 4 0.0000 0.0000 0.0000 27.1735 0.0000 0.0000
# 5 0.0000 0.0000 0.0000 0.0000 27.1735 0.0000
# 6 0.0000 0.0000 0.0000 0.0000 0.0000 24.1928
#
#
#
# Elastic Compliance Matrix: (Units=1/GPa)
#
#
# Indices 1 2 3 4 5 6 
#
# 1 0.014127 -0.006540 -0.003128 0.000000 0.000000 0.000000
# 2 -0.006540 0.014127 -0.003128 0.000000 0.000000 0.000000
# 3 -0.003128 -0.003128 0.014277 0.000000 0.000000 0.000000
# 4 0.000000 0.000000 0.000000 0.036801 0.000000 0.000000
# 5 0.000000 0.000000 0.000000 0.000000 0.036801 0.000000
# 6 0.000000 0.000000 0.000000 0.000000 0.000000 0.041335
#
#
# Mechanical properties :
#
#
# Convention : Reuss Voigt Hill
#
# Bulk Modulus (GPa) = 59.03752 60.91371 59.97561
# Shear Modulus (GPa) = 26.49618 26.90844 26.70231
#
# Velocity S-wave (km/s) = 3.85129 3.88114 3.86624
# Velocity P-wave (km/s) = 7.26812 7.36094 7.31468
#
# Compressibility (1/GPa) = 0.01693838
#
# Stress axis : x y z
#
# Youngs Moduli (GPa) = 70.78628 70.78628 70.04059
#
# Poissons Ratio (x) = 0.46296 0.21910
# Poissons Ratio (y) = 0.46296 0.21910
# Poissons Ratio (z) = 0.22143 0.22143
#
# Static dielectric constant tensor:
#      x y z
#    x 3.368640 0.000000 0.000000 
#    y 0.000000 3.368640 0.000000 
#    z 0.000000 0.000000 3.389940 
# 
# 
# High freq. dielectric constant tensor:
#      x y z
#    x 1.690700 0.000000 0.000000 
#    y 0.000000 1.690700 0.000000 
#    z 0.000000 0.000000 1.694070 
# 
# From -- ./inp_files/10756.got.cif
#   From: 2010.03.12/outbox.cif.g09.slc.cpg/sg194_6_cif.got.tgz:10756.got - 2010.04.01 12:26:19.
