data_PCOD8330386
_publ_section_title
;
Structure prediction by ZEFSAII (Michael W. Deem and Ramdas Pophale) SiO2 
 PCOD8330386
Probable space group: P 63/M M C
;
_chemical_formula_sum "Si O2"
_cell_formula_units_Z 112
_cell_length_a 30.133384
_cell_length_b 30.133384
_cell_length_c 9.135966
_cell_angle_alpha 90.000000
_cell_angle_beta 90.000000
_cell_angle_gamma 120.000000
_cell_volume 7184.241426
_symmetry_space_group_name_H-M "P 63/M M C"
_symmetry_group_IT_number 194
_symmetry_cell_setting 'hexagonal'
loop_
_space_group_symop_operation_xyz
x,y,z
x-y,x,1/2+z
-y,x-y,z
-x,-y,1/2+z
-x+y,-x,z
y,-x+y,1/2+z
x-y,-y,-z
-x,-x+y,-z
y,x,-z
-y,-x,1/2-z
-x+y,y,1/2-z
x,x-y,1/2-z
-x,-y,-z
-x+y,-x,1/2-z
y,-x+y,-z
x,y,1/2-z
x-y,x,-z
-y,x-y,1/2-z
-x+y,y,z
x,x-y,z
-y,-x,z
y,x,1/2+z
x-y,-y,1/2+z
-x,-x+y,1/2+z
loop_
_atom_site_type_symbol
_atom_site_label
_atom_site_fract_x
_atom_site_fract_y
_atom_site_fract_z
Si Si1 0.200777 0.697046 0.917312
Si Si2 0.385770 0.614231 0.917471
Si Si3 0.333334 0.666668 0.078170
Si Si4 0.404350 0.149278 0.914952
Si Si5 0.796483 0.846702 0.078475
Si Si6 0.794299 0.693886 0.085374
O O1 0.188251 0.702763 0.750000
O O2 0.258814 0.741186 0.955786
O O3 0.194888 0.641516 0.947007
O O4 0.159244 0.701516 0.016501
O O5 0.375613 0.624388 0.750000
O O6 0.362219 0.637782 0.025475
O O7 0.333334 0.666667 0.250000
O O8 0.400108 0.129125 0.750000
O O9 0.402871 0.201436 0.918328
O O10 0.356847 0.106180 0.007937
O O11 0.795149 0.835663 0.250000
O O12 0.807489 0.903745 0.047649
O O13 0.841685 0.841685 0.000000
O O14 0.742879 0.804237 0.008751
O O15 0.777265 0.698261 0.250000
O O16 0.845101 0.690201 0.090355
#
# Coordination Sequence:
#
# PCOD8330386 Si02
#       6
#    24  12   4  24  24  24
#     4   9  16  25  38  50  64  91 131 173 216 266
#     4  10  18  30  40  46  62  94 133 175 222 272
#     4  12  22  26  34  48  64  86 124 177 229 272
#     4   9  16  25  37  54  78 102 129 168 215 263
#     4  10  20  33  50  73 100 129 160 192 225 255
#     4   9  16  27  44  64  86 113 146 178 212 256
#
# _framework density 15.589677
#
# number of rings (size 3 to 8) (size 9 to 14) (size 15 to 20)
#    0.000    2.571    1.071    2.250    0.000    7.286 
#    0.000    0.000    0.000    0.214    0.000    0.000 
#    0.000    0.000    0.000    0.964    0.000   12.214 
#
# Total GULP energy -1388650.771162 kJ/mol
# GULP energy per Si atom -12398.667600 kJ/mol
# Density = 1.555419 g / cm^3
# Si number density = 15.589677 Si / 1000 Ang^3
#
#
#
# Elastic Constant Matrix: (Units=GPa)
#
#
# Indices 1 2 3 4 5 6 
#
# 1 66.6341 39.2521 50.1853 -0.0001 0.0000 0.0000
# 2 39.2521 66.6343 50.1854 0.0000 0.0000 0.0000
# 3 50.1853 50.1854 129.6170 -0.0001 0.0000 0.0000
# 4 -0.0001 0.0000 -0.0001 20.6213 0.0000 0.0000
# 5 0.0000 0.0000 0.0000 0.0000 20.6213 0.0000
# 6 0.0000 0.0000 0.0000 0.0000 0.0000 13.6911
#
#
#
# Elastic Compliance Matrix: (Units=1/GPa)
#
#
# Indices 1 2 3 4 5 6 
#
# 1 0.025720 -0.010800 -0.005777 0.000000 0.000000 0.000000
# 2 -0.010800 0.025720 -0.005777 0.000000 0.000000 0.000000
# 3 -0.005777 -0.005777 0.012188 0.000000 0.000000 0.000000
# 4 0.000000 0.000000 0.000000 0.048493 0.000000 0.000000
# 5 0.000000 0.000000 0.000000 0.000000 0.048493 0.000000
# 6 0.000000 0.000000 0.000000 0.000000 0.000000 0.073040
#
#
# Mechanical properties :
#
#
# Convention : Reuss Voigt Hill
#
# Bulk Modulus (GPa) = 52.85063 60.23677 56.54370
# Shear Modulus (GPa) = 17.56423 19.20427 18.38425
#
# Velocity S-wave (km/s) = 3.36021 3.51359 3.43776
# Velocity P-wave (km/s) = 7.00210 7.42854 7.21847
#
# Compressibility (1/GPa) = 0.01892125
#
# Stress axis : x y z
#
# Youngs Moduli (GPa) = 38.88018 38.88030 82.04581
#
# Poissons Ratio (x) = 0.41991 0.47396
# Poissons Ratio (y) = 0.41991 0.47395
# Poissons Ratio (z) = 0.22460 0.22460
#
# Static dielectric constant tensor:
#      x y z
#    x 2.762700 0.000000 0.000000 
#    y 0.000000 2.762700 0.000000 
#    z 0.000000 0.000000 3.148670 
# 
# 
# High freq. dielectric constant tensor:
#      x y z
#    x 1.562800 0.000000 0.000000 
#    y 0.000000 1.562800 0.000000 
#    z 0.000000 0.000000 1.614320 
# 
# From -- ./inp_files/1938.got.cif
#   From: 2010.03.12/outbox.cif.g09.slc.cpg/sg194_1_cif.got.tgz:1938.got - 2010.04.01 12:26:19.
