data_PCOD8330107
_publ_section_title
;
Structure prediction by ZEFSAII (Michael W. Deem and Ramdas Pophale) SiO2 
 PCOD8330107
Probable space group: P 63/M C M
;
_chemical_formula_sum "Si O2"
_cell_formula_units_Z 96
_cell_length_a 15.079823
_cell_length_b 15.079823
_cell_length_c 27.739007
_cell_angle_alpha 90.000000
_cell_angle_beta 90.000000
_cell_angle_gamma 120.000000
_cell_volume 5462.784015
_symmetry_space_group_name_H-M "P 63/M C M"
_symmetry_group_IT_number 193
_symmetry_cell_setting 'hexagonal'
loop_
_space_group_symop_operation_xyz
x,y,z
x-y,x,1/2+z
-y,x-y,z
-x,-y,1/2+z
-x+y,-x,z
y,-x+y,1/2+z
x-y,-y,1/2-z
-x,-x+y,1/2-z
y,x,1/2-z
-y,-x,-z
-x+y,y,-z
x,x-y,-z
-x,-y,-z
-x+y,-x,1/2-z
y,-x+y,-z
x,y,1/2-z
x-y,x,-z
-y,x-y,1/2-z
-x+y,y,1/2+z
x,x-y,1/2+z
-y,-x,1/2+z
y,x,z
x-y,-y,z
-x,-x+y,z
loop_
_atom_site_type_symbol
_atom_site_label
_atom_site_fract_x
_atom_site_fract_y
_atom_site_fract_z
Si Si1 0.119157 0.405218 0.194945
Si Si2 0.360800 0.117922 0.454508
Si Si3 0.225396 0.549177 0.110406
Si Si4 0.118864 0.234520 0.634914
O O1 0.154559 0.431634 0.250000
O O2 0.183294 0.506443 0.163475
O O3 0.140510 0.315956 0.177346
O O4 0.000000 0.368444 0.188153
O O5 0.374129 0.187065 0.500000
O O6 0.471499 0.154691 0.430878
O O7 0.288278 0.131191 0.416629
O O8 0.312728 0.000000 0.470066
O O9 0.342363 0.570305 0.105174
O O10 0.140897 0.140897 0.639496
O O11 0.000000 0.193788 0.640302
#
# Coordination Sequence:
#
# PCOD8330107 Si02
#       4
#    24  24  24  24
#     4   9  18  34  54  76 105 139 173 216 268 315
#     4  10  20  36  56  79 107 140 175 215 262 311
#     4   9  20  36  55  75 102 137 173 212 259 310
#     4   9  17  30  49  74 105 139 175 213 257 310
#
# _framework density 17.573457000000001
#
# number of rings (size 3 to 8) (size 9 to 14) (size 15 to 20)
#    0.500    2.250    0.000    3.250    0.000    2.500 
#    0.000   13.750    0.000    5.500    0.000    0.000 
#    0.000    0.000    0.000    0.000    0.000    0.000 
#
# Total GULP energy -1190156.438363 kJ/mol
# GULP energy per Si atom -12397.462900 kJ/mol
# Density = 1.753346 g / cm^3
# Si number density = 17.573457 Si / 1000 Ang^3
#
#
#
# Elastic Constant Matrix: (Units=GPa)
#
#
# Indices 1 2 3 4 5 6 
#
# 1 70.6733 16.2351 32.5645 0.0000 0.0000 0.0000
# 2 16.2351 70.6733 32.5645 0.0000 0.0000 0.0000
# 3 32.5645 32.5645 116.0765 0.0000 0.0000 0.0000
# 4 0.0000 0.0000 0.0000 22.8897 0.0000 0.0000
# 5 0.0000 0.0000 0.0000 0.0000 22.8897 0.0000
# 6 0.0000 0.0000 0.0000 0.0000 0.0000 27.2191
#
#
#
# Elastic Compliance Matrix: (Units=1/GPa)
#
#
# Indices 1 2 3 4 5 6 
#
# 1 0.016469 -0.001900 -0.004087 0.000000 0.000000 0.000000
# 2 -0.001900 0.016469 -0.004087 0.000000 0.000000 0.000000
# 3 -0.004087 -0.004087 0.010908 0.000000 0.000000 0.000000
# 4 0.000000 0.000000 0.000000 0.043688 0.000000 0.000000
# 5 0.000000 0.000000 0.000000 0.000000 0.043688 0.000000
# 6 0.000000 0.000000 0.000000 0.000000 0.000000 0.036739
#
#
# Mechanical properties :
#
#
# Convention : Reuss Voigt Hill
#
# Bulk Modulus (GPa) = 42.19802 46.68349 44.44076
# Shear Modulus (GPa) = 25.50884 26.33695 25.92290
#
# Velocity S-wave (km/s) = 3.81406 3.87548 3.84489
# Velocity P-wave (km/s) = 6.59246 6.82995 6.71226
#
# Compressibility (1/GPa) = 0.02369779
#
# Stress axis : x y z
#
# Youngs Moduli (GPa) = 60.71849 60.71849 91.67264
#
# Poissons Ratio (x) = 0.11537 0.37470
# Poissons Ratio (y) = 0.11537 0.37470
# Poissons Ratio (z) = 0.24818 0.24818
#
# Static dielectric constant tensor:
#      x y z
#    x 3.136610 0.000000 0.000000 
#    y 0.000000 3.136610 0.000000 
#    z 0.000000 0.000000 3.293730 
# 
# 
# High freq. dielectric constant tensor:
#      x y z
#    x 1.672490 0.000000 0.000000 
#    y 0.000000 1.672490 0.000000 
#    z 0.000000 0.000000 1.682080 
# 
# From -- ./inp_files/8094.got.cif
#   From: 2010.03.12/outbox.cif.g09.slc.cpg/sg193_5_cif.got.tgz:8094.got - 2010.04.01 12:20:39.
