data_PCOD8330349
_publ_section_title
;
Structure prediction by ZEFSAII (Michael W. Deem and Ramdas Pophale) SiO2 
 PCOD8330349
Probable space group: P 63/M M C
;
_chemical_formula_sum "Si O2"
_cell_formula_units_Z 96
_cell_length_a 29.312188
_cell_length_b 29.312188
_cell_length_c 8.731478
_cell_angle_alpha 90.000000
_cell_angle_beta 90.000000
_cell_angle_gamma 120.000000
_cell_volume 6497.029978
_symmetry_space_group_name_H-M "P 63/M M C"
_symmetry_group_IT_number 194
_symmetry_cell_setting 'hexagonal'
loop_
_space_group_symop_operation_xyz
x,y,z
x-y,x,1/2+z
-y,x-y,z
-x,-y,1/2+z
-x+y,-x,z
y,-x+y,1/2+z
x-y,-y,-z
-x,-x+y,-z
y,x,-z
-y,-x,1/2-z
-x+y,y,1/2-z
x,x-y,1/2-z
-x,-y,-z
-x+y,-x,1/2-z
y,-x+y,-z
x,y,1/2-z
x-y,x,-z
-y,x-y,1/2-z
-x+y,y,z
x,x-y,z
-y,-x,z
y,x,1/2+z
x-y,-y,1/2+z
-x,-x+y,1/2+z
loop_
_atom_site_type_symbol
_atom_site_label
_atom_site_fract_x
_atom_site_fract_y
_atom_site_fract_z
Si Si1 0.112844 0.687764 0.426350
Si Si2 0.524280 0.944828 0.930211
Si Si3 0.207075 0.792926 0.077277
Si Si4 0.307458 0.153729 0.425378
Si Si5 0.943477 0.689999 0.433288
O O1 0.096152 0.676277 0.250000
O O2 0.102219 0.634248 0.506813
O O3 0.175936 0.729485 0.443962
O O4 0.077160 0.708855 0.503161
O O5 0.530914 0.948424 0.750000
O O6 0.466462 0.932923 0.980871
O O7 0.568843 0.000000 0.000000
O O8 0.194635 0.805366 0.250000
O O9 0.185060 0.814941 0.947357
O O10 0.292627 0.146314 0.250000
O O11 0.287556 0.192526 0.492301
O O12 0.944983 0.687794 0.250000
O O13 0.000000 0.730187 0.500000
#
# Coordination Sequence:
#
# PCOD8330349 Si02
#       5
#    24  24  12  12  24
#     4  10  18  29  44  61  82 106 134 166 200 237
#     4  10  20  32  44  59  81 109 139 169 201 239
#     4   8  16  28  42  60  80 102 128 161 197 232
#     4   8  16  28  40  54  76 104 133 165 196 228
#     4  10  18  28  41  58  79 106 138 168 199 233
#
# _framework density 14.775983
#
# number of rings (size 3 to 8) (size 9 to 14) (size 15 to 20)
#    0.000    2.500    0.000    3.000    0.000    3.500 
#    0.000    0.000    0.000    0.000    0.000    0.000 
#    1.250    0.000    0.750    0.375    1.000    4.500 
#
# Total GULP energy -1189289.298234 kJ/mol
# GULP energy per Si atom -12388.430190 kJ/mol
# Density = 1.474235 g / cm^3
# Si number density = 14.775983 Si / 1000 Ang^3
#
#
#
# Elastic Constant Matrix: (Units=GPa)
#
#
# Indices 1 2 3 4 5 6 
#
# 1 100.4885 50.3171 30.3054 0.0000 0.0000 0.0000
# 2 50.3171 100.4885 30.3054 0.0000 0.0000 0.0000
# 3 30.3054 30.3054 55.7640 0.0000 0.0000 0.0000
# 4 0.0000 0.0000 0.0000 19.1239 0.0000 0.0000
# 5 0.0000 0.0000 0.0000 0.0000 19.1239 0.0000
# 6 0.0000 0.0000 0.0000 0.0000 0.0000 25.0857
#
#
#
# Elastic Compliance Matrix: (Units=1/GPa)
#
#
# Indices 1 2 3 4 5 6 
#
# 1 0.014208 -0.005724 -0.004611 0.000000 0.000000 0.000000
# 2 -0.005724 0.014208 -0.004611 0.000000 0.000000 0.000000
# 3 -0.004611 -0.004611 0.022944 0.000000 0.000000 0.000000
# 4 0.000000 0.000000 0.000000 0.052291 0.000000 0.000000
# 5 0.000000 0.000000 0.000000 0.000000 0.052291 0.000000
# 6 0.000000 0.000000 0.000000 0.000000 0.000000 0.039863
#
#
# Mechanical properties :
#
#
# Convention : Reuss Voigt Hill
#
# Bulk Modulus (GPa) = 46.57783 53.17743 49.87763
# Shear Modulus (GPa) = 21.47288 22.38757 21.93022
#
# Velocity S-wave (km/s) = 3.81626 3.89669 3.85669
# Velocity P-wave (km/s) = 7.14210 7.50419 7.32538
#
# Compressibility (1/GPa) = 0.02146944
#
# Stress axis : x y z
#
# Youngs Moduli (GPa) = 70.38317 70.38317 43.58383
#
# Poissons Ratio (x) = 0.40285 0.20096
# Poissons Ratio (y) = 0.40285 0.20096
# Poissons Ratio (z) = 0.32452 0.32452
#
# Static dielectric constant tensor:
#      x y z
#    x 2.935800 0.000000 0.000000 
#    y 0.000000 2.935800 0.000000 
#    z 0.000000 0.000000 2.986060 
# 
# 
# High freq. dielectric constant tensor:
#      x y z
#    x 1.543290 0.000000 0.000000 
#    y 0.000000 1.543290 0.000000 
#    z 0.000000 0.000000 1.581170 
# 
# From -- ./inp_files/1758.got.cif
#   From: 2010.03.12/outbox.cif.g09.slc.cpg/sg194_1_cif.got.tgz:1758.got - 2010.04.01 12:26:19.
