data_PCOD8330065
_publ_section_title
;
Structure prediction by ZEFSAII (Michael W. Deem and Ramdas Pophale) SiO2 
 PCOD8330065
Probable space group: P 63/M C M
;
_chemical_formula_sum "Si O2"
_cell_formula_units_Z 144
_cell_length_a 30.874585
_cell_length_b 30.874585
_cell_length_c 8.773049
_cell_angle_alpha 90.000000
_cell_angle_beta 90.000000
_cell_angle_gamma 120.000000
_cell_volume 7242.415623
_symmetry_space_group_name_H-M "P 63/M C M"
_symmetry_group_IT_number 193
_symmetry_cell_setting 'hexagonal'
loop_
_space_group_symop_operation_xyz
x,y,z
x-y,x,1/2+z
-y,x-y,z
-x,-y,1/2+z
-x+y,-x,z
y,-x+y,1/2+z
x-y,-y,1/2-z
-x,-x+y,1/2-z
y,x,1/2-z
-y,-x,-z
-x+y,y,-z
x,x-y,-z
-x,-y,-z
-x+y,-x,1/2-z
y,-x+y,-z
x,y,1/2-z
x-y,x,-z
-y,x-y,1/2-z
-x+y,y,1/2+z
x,x-y,1/2+z
-y,-x,1/2+z
y,x,z
x-y,-y,z
-x,-x+y,z
loop_
_atom_site_type_symbol
_atom_site_label
_atom_site_fract_x
_atom_site_fract_y
_atom_site_fract_z
Si Si1 0.942504 0.236464 0.571893
Si Si2 0.758192 0.425598 0.072602
Si Si3 0.517057 0.942329 0.572058
Si Si4 0.330119 0.856377 0.572337
Si Si5 0.146527 0.761949 0.569873
Si Si6 0.057271 0.855043 0.572799
O O1 0.930577 0.232433 0.750000
O O2 0.909544 0.255300 0.484162
O O3 0.928795 0.182221 0.511694
O O4 0.000000 0.276482 0.536446
O O5 0.746482 0.416562 0.250000
O O6 0.814782 0.469007 0.041300
O O7 0.720847 0.441694 0.000000
O O8 0.749393 0.374696 0.000000
O O9 0.464111 0.928222 0.500000
O O10 0.508772 0.930135 0.750000
O O11 0.537420 0.909289 0.494250
O O12 0.557650 0.000000 0.540716
O O13 0.323142 0.862647 0.750000
O O14 0.278031 0.838608 0.487930
O O15 0.184088 0.815913 0.500000
O O16 0.150128 0.765361 0.750000
O O17 0.090285 0.909716 0.500000
O O18 0.069313 0.855220 0.750000
O O19 0.000000 0.839498 0.544794
#
# Coordination Sequence:
#
# PCOD8330065 Si02
#       6
#    24  24  24  24  24  24
#     4  10  21  38  60  85 114 149 190 236 284 336
#     4  11  24  41  63  89 118 150 186 231 282 337
#     4  10  21  38  61  89 120 155 195 240 291 344
#     4  11  24  41  62  88 117 153 196 240 288 342
#     4  12  25  41  61  84 116 155 194 237 285 341
#     4  10  20  34  54  81 112 146 186 233 284 338
#
# _framework density 19.882868999999999
#
# number of rings (size 3 to 8) (size 9 to 14) (size 15 to 20)
#    0.000    1.333    0.000    5.667    0.000    9.000 
#    0.000    0.000    0.000    0.167    0.000    0.000 
#    0.000    0.000    0.000    0.000    0.000    0.000 
#
# Total GULP energy -1786738.379581 kJ/mol
# GULP energy per Si atom -12407.905414 kJ/mol
# Density = 1.983762 g / cm^3
# Si number density = 19.882869 Si / 1000 Ang^3
#
#
#
# Elastic Constant Matrix: (Units=GPa)
#
#
# Indices 1 2 3 4 5 6 
#
# 1 93.8701 35.1941 55.9440 0.0000 0.0000 0.0000
# 2 35.1941 93.8701 55.9440 0.0000 0.0000 0.0000
# 3 55.9440 55.9440 149.9298 0.0000 0.0000 0.0000
# 4 0.0000 0.0000 0.0000 37.0485 0.0000 0.0000
# 5 0.0000 0.0000 0.0000 0.0000 37.0485 0.0000
# 6 0.0000 0.0000 0.0000 0.0000 0.0000 29.3380
#
#
#
# Elastic Compliance Matrix: (Units=1/GPa)
#
#
# Indices 1 2 3 4 5 6 
#
# 1 0.014248 -0.002795 -0.004273 0.000000 0.000000 0.000000
# 2 -0.002795 0.014248 -0.004273 0.000000 0.000000 0.000000
# 3 -0.004273 -0.004273 0.009859 0.000000 0.000000 0.000000
# 4 0.000000 0.000000 0.000000 0.026992 0.000000 0.000000
# 5 0.000000 0.000000 0.000000 0.000000 0.026992 0.000000
# 6 0.000000 0.000000 0.000000 0.000000 0.000000 0.034085
#
#
# Mechanical properties :
#
#
# Convention : Reuss Voigt Hill
#
# Bulk Modulus (GPa) = 63.81308 70.20381 67.00844
# Shear Modulus (GPa) = 32.39800 33.39286 32.89543
#
# Velocity S-wave (km/s) = 4.04102 4.10259 4.07192
# Velocity P-wave (km/s) = 7.34420 7.60441 7.47543
#
# Compressibility (1/GPa) = 0.01567077
#
# Stress axis : x y z
#
# Youngs Moduli (GPa) = 70.18646 70.18646 101.43108
#
# Poissons Ratio (x) = 0.19617 0.43346
# Poissons Ratio (y) = 0.19617 0.43346
# Poissons Ratio (z) = 0.29994 0.29994
#
# Static dielectric constant tensor:
#      x y z
#    x 3.571840 0.000000 0.000000 
#    y 0.000000 3.571840 0.000000 
#    z 0.000000 0.000000 3.763150 
# 
# 
# High freq. dielectric constant tensor:
#      x y z
#    x 1.777410 0.000000 0.000000 
#    y 0.000000 1.777410 0.000000 
#    z 0.000000 0.000000 1.794760 
# 
# From -- ./inp_files/1543.got.cif
#   From: 2010.03.12/outbox.cif.g09.slc.cpg/sg193_1_cif.got.tgz:1543.got - 2010.04.01 12:20:39.
