data_PCOD8330832
_publ_section_title
;
Structure prediction by ZEFSAII (Michael W. Deem and Ramdas Pophale) SiO2 
 PCOD8330832
Probable space group: P 63/M M C
;
_chemical_formula_sum "Si O2"
_cell_formula_units_Z 66
_cell_length_a 20.901298
_cell_length_b 20.901298
_cell_length_c 8.318190
_cell_angle_alpha 90.000000
_cell_angle_beta 90.000000
_cell_angle_gamma 120.000000
_cell_volume 3147.066951
_symmetry_space_group_name_H-M "P 63/M M C"
_symmetry_group_IT_number 194
_symmetry_cell_setting 'hexagonal'
loop_
_space_group_symop_operation_xyz
x,y,z
x-y,x,1/2+z
-y,x-y,z
-x,-y,1/2+z
-x+y,-x,z
y,-x+y,1/2+z
x-y,-y,-z
-x,-x+y,-z
y,x,-z
-y,-x,1/2-z
-x+y,y,1/2-z
x,x-y,1/2-z
-x,-y,-z
-x+y,-x,1/2-z
y,-x+y,-z
x,y,1/2-z
x-y,x,-z
-y,x-y,1/2-z
-x+y,y,z
x,x-y,z
-y,-x,z
y,x,1/2+z
x-y,-y,1/2+z
-x,-x+y,1/2+z
loop_
_atom_site_type_symbol
_atom_site_label
_atom_site_fract_x
_atom_site_fract_y
_atom_site_fract_z
Si Si1 0.920929 0.322664 0.566221
Si Si2 0.834443 0.668885 0.067079
Si Si3 0.916528 0.833055 0.936485
Si Si4 0.571239 0.142478 0.933567
Si Si5 0.620174 0.379826 0.250000
O O1 0.914488 0.298742 0.750000
O O2 0.865599 0.251444 0.466673
O O3 0.907051 0.390954 0.543197
O O4 0.000000 0.344973 0.500000
O O5 0.847202 0.694404 0.250000
O O6 0.872509 0.745017 0.967921
O O7 0.923223 0.846446 0.750000
O O8 0.871203 0.871203 0.000000
O O9 0.588782 0.177564 0.750000
O O10 0.599441 0.198882 0.080444
O O11 0.581703 0.290852 0.250000
#
# Coordination Sequence:
#
# PCOD8330832 Si02
#       5
#    24  12  12  12   6
#     4  11  24  43  66  97 129 172 218 271 329 390
#     4  12  26  42  66  96 133 173 217 272 328 389
#     4  12  25  45  69  97 133 173 218 267 323 390
#     4  10  25  43  68  97 134 174 221 274 330 395
#     4  10  26  42  66 100 134 170 222 266 332 392
#
# _framework density 20.971910000000001
#
# number of rings (size 3 to 8) (size 9 to 14) (size 15 to 20)
#    0.182    0.727    0.000    6.182    7.636    0.727 
#    0.000    0.000    0.000    0.000    0.000    0.000 
#    0.000    0.000    0.000    0.000    0.000    0.000 
#
# Total GULP energy -818172.677264 kJ/mol
# GULP energy per Si atom -12396.555716 kJ/mol
# Density = 2.092418 g / cm^3
# Si number density = 20.971910 Si / 1000 Ang^3
#
#
#
# Elastic Constant Matrix: (Units=GPa)
#
#
# Indices 1 2 3 4 5 6 
#
# 1 133.3024 44.2466 37.4942 0.0000 0.0000 0.0000
# 2 44.2466 133.3024 37.4942 0.0000 0.0000 0.0000
# 3 37.4942 37.4942 140.9397 0.0000 0.0000 0.0000
# 4 0.0000 0.0000 0.0000 36.1672 0.0000 0.0000
# 5 0.0000 0.0000 0.0000 0.0000 36.1672 0.0000
# 6 0.0000 0.0000 0.0000 0.0000 0.0000 44.5279
#
#
#
# Elastic Compliance Matrix: (Units=1/GPa)
#
#
# Indices 1 2 3 4 5 6 
#
# 1 0.008787 -0.002442 -0.001688 0.000000 0.000000 0.000000
# 2 -0.002442 0.008787 -0.001688 0.000000 0.000000 0.000000
# 3 -0.001688 -0.001688 0.007993 0.000000 0.000000 0.000000
# 4 0.000000 0.000000 0.000000 0.027649 0.000000 0.000000
# 5 0.000000 0.000000 0.000000 0.000000 0.027649 0.000000
# 6 0.000000 0.000000 0.000000 0.000000 0.000000 0.022458
#
#
# Mechanical properties :
#
#
# Convention : Reuss Voigt Hill
#
# Bulk Modulus (GPa) = 71.77882 71.77938 71.77910
# Shear Modulus (GPa) = 41.80473 42.59309 42.19891
#
# Velocity S-wave (km/s) = 4.46956 4.51151 4.49058
# Velocity P-wave (km/s) = 7.80618 7.83830 7.82226
#
# Compressibility (1/GPa) = 0.01393169
#
# Stress axis : x y z
#
# Youngs Moduli (GPa) = 113.80390 113.80390 125.10391
#
# Poissons Ratio (x) = 0.27789 0.21118
# Poissons Ratio (y) = 0.27789 0.21118
# Poissons Ratio (z) = 0.19210 0.19210
#
# Static dielectric constant tensor:
#      x y z
#    x 3.861500 0.000000 0.000000 
#    y 0.000000 3.861500 0.000000 
#    z 0.000000 0.000000 4.084580 
# 
# 
# High freq. dielectric constant tensor:
#      x y z
#    x 1.830320 0.000000 0.000000 
#    y 0.000000 1.830320 0.000000 
#    z 0.000000 0.000000 1.844770 
# 
# From -- ./inp_files/935.got.cif
#   From: 2010.03.12/outbox.cif.g09.slc.cpg/sg194_1_cif.got.tgz:935.got - 2010.04.01 12:26:19.
