data_PCOD8330919
_publ_section_title
;
Structure prediction by ZEFSAII (Michael W. Deem and Ramdas Pophale) SiO2 
 PCOD8330919
Probable space group: P N 3
;
_chemical_formula_sum "Si O2"
_cell_formula_units_Z 102
_cell_length_a 17.816027
_cell_length_b 17.816027
_cell_length_c 17.816027
_cell_angle_alpha 90.000000
_cell_angle_beta 90.000000
_cell_angle_gamma 90.000000
_cell_volume 5654.999705
_symmetry_space_group_name_H-M "P N 3"
_symmetry_group_IT_number 201
_space_group.IT_coordinate_system_code '2'
_symmetry_cell_setting 'cubic'
loop_
_space_group_symop_operation_xyz
x,y,z
z,x,y
y,z,x
1/2-y,1/2-z,x
z,1/2-x,1/2-y
1/2-y,z,1/2-x
1/2-z,1/2-x,y
1/2-z,x,1/2-y
y,1/2-z,1/2-x
1/2-x,1/2-y,z
x,1/2-y,1/2-z
1/2-x,y,1/2-z
-x,-y,-z
-z,-x,-y
-y,-z,-x
1/2+y,1/2+z,-x
-z,1/2+x,1/2+y
1/2+y,-z,1/2+x
1/2+z,1/2+x,-y
1/2+z,-x,1/2+y
-y,1/2+z,1/2+x
1/2+x,1/2+y,-z
-x,1/2+y,1/2+z
1/2+x,-y,1/2+z
loop_
_atom_site_type_symbol
_atom_site_label
_atom_site_fract_x
_atom_site_fract_y
_atom_site_fract_z
Si Si1 0.302601 0.894629 0.314782
Si Si2 0.413733 0.790664 0.529474
Si Si3 0.118680 0.018106 0.616595
Si Si4 0.250000 0.750000 0.750000
Si Si5 0.982463 0.716040 0.397666
O O1 0.250000 0.932406 0.250000
O O2 0.386090 0.928169 0.318265
O O3 0.303547 0.803741 0.300776
O O4 0.267203 0.911592 0.395163
O O5 0.412567 0.701173 0.536129
O O6 0.481153 0.816454 0.474486
O O7 0.338742 0.827335 0.495382
O O8 0.090109 0.938535 0.583369
O O9 0.122523 0.020780 0.705975
#
# Coordination Sequence:
#
# PCOD8330919 Si02
#       5
#    24  24  24   6  24
#     4  10  22  38  57  85 114 147 197 238 293 350
#     4  11  22  35  54  81 115 151 187 235 292 356
#     4  10  22  34  54  76 108 148 190 238 286 340
#     4   8  24  32  68  84 112 148 194 260 280 344
#     4  11  22  35  54  81 115 151 187 235 292 356
#
# _framework density 18.037134999999999
#
# number of rings (size 3 to 8) (size 9 to 14) (size 15 to 20)
#    0.706    0.941    2.353    2.353    6.588    0.000 
#    1.412    1.176    0.000    0.941    0.000    0.000 
#    0.000    0.000    0.000    0.000    0.000    0.000 
#
# Total GULP energy -1264350.065730 kJ/mol
# GULP energy per Si atom -12395.588880 kJ/mol
# Density = 1.799608 g / cm^3
# Si number density = 18.037135 Si / 1000 Ang^3
#
#
#
# Elastic Constant Matrix: (Units=GPa)
#
#
# Indices 1 2 3 4 5 6 
#
# 1 76.8226 12.9259 12.9259 0.0000 0.0000 0.0000
# 2 12.9259 76.8226 12.9259 0.0000 0.0000 0.0000
# 3 12.9259 12.9259 76.8226 0.0000 0.0000 0.0000
# 4 0.0000 0.0000 0.0000 22.2467 0.0000 0.0000
# 5 0.0000 0.0000 0.0000 0.0000 22.2467 0.0000
# 6 0.0000 0.0000 0.0000 0.0000 0.0000 22.2467
#
#
#
# Elastic Compliance Matrix: (Units=1/GPa)
#
#
# Indices 1 2 3 4 5 6 
#
# 1 0.013680 -0.001970 -0.001970 0.000000 0.000000 0.000000
# 2 -0.001970 0.013680 -0.001970 0.000000 0.000000 0.000000
# 3 -0.001970 -0.001970 0.013680 0.000000 0.000000 0.000000
# 4 0.000000 0.000000 0.000000 0.044950 0.000000 0.000000
# 5 0.000000 0.000000 0.000000 0.000000 0.044950 0.000000
# 6 0.000000 0.000000 0.000000 0.000000 0.000000 0.044950
#
#
# Mechanical properties :
#
#
# Convention : Reuss Voigt Hill
#
# Bulk Modulus (GPa) = 34.22479 34.22479 34.22479
# Shear Modulus (GPa) = 25.32258 26.12738 25.72498
#
# Velocity S-wave (km/s) = 3.75095 3.81009 3.78063
# Velocity P-wave (km/s) = 6.14616 6.19447 6.17037
#
# Compressibility (1/GPa) = 0.02921859
#
# Stress axis : x y z
#
# Youngs Moduli (GPa) = 73.09929 73.09929 73.09929
#
# Poissons Ratio (x) = 0.14402 0.14402
# Poissons Ratio (y) = 0.14402 0.14402
# Poissons Ratio (z) = 0.14402 0.14402
#
# Static dielectric constant tensor:
#      x y z
#    x 3.333040 0.000000 0.000000 
#    y 0.000000 3.333040 0.000000 
#    z 0.000000 0.000000 3.333040 
# 
# 
# High freq. dielectric constant tensor:
#      x y z
#    x 1.690360 0.000000 0.000000 
#    y 0.000000 1.690360 0.000000 
#    z 0.000000 0.000000 1.690360 
# 
# From -- ./inp_files/554.got.cif
#   From: 2010.03.12/outbox.cif.g09.slc.cpg/sg201_cif.got.tgz:554.got - 2010.03.30 09:02:05.
