data_PCOD8330513
_publ_section_title
;
Structure prediction by ZEFSAII (Michael W. Deem and Ramdas Pophale) SiO2 
 PCOD8330513
Probable space group: P 63/M M C
;
_chemical_formula_sum "Si O2"
_cell_formula_units_Z 144
_cell_length_a 32.184059
_cell_length_b 32.184059
_cell_length_c 9.050400
_cell_angle_alpha 90.000000
_cell_angle_beta 90.000000
_cell_angle_gamma 120.000000
_cell_volume 8118.579303
_symmetry_space_group_name_H-M "P 63/M M C"
_symmetry_group_IT_number 194
_symmetry_cell_setting 'hexagonal'
loop_
_space_group_symop_operation_xyz
x,y,z
x-y,x,1/2+z
-y,x-y,z
-x,-y,1/2+z
-x+y,-x,z
y,-x+y,1/2+z
x-y,-y,-z
-x,-x+y,-z
y,x,-z
-y,-x,1/2-z
-x+y,y,1/2-z
x,x-y,1/2-z
-x,-y,-z
-x+y,-x,1/2-z
y,-x+y,-z
x,y,1/2-z
x-y,x,-z
-y,x-y,1/2-z
-x+y,y,z
x,x-y,z
-y,-x,z
y,x,1/2+z
x-y,-y,1/2+z
-x,-x+y,1/2+z
loop_
_atom_site_type_symbol
_atom_site_label
_atom_site_fract_x
_atom_site_fract_y
_atom_site_fract_z
Si Si1 0.565127 0.951098 0.419640
Si Si2 0.723898 0.617116 0.577168
Si Si3 0.950944 0.237305 0.076240
Si Si4 0.190204 0.048311 0.422705
Si Si5 0.145320 0.620312 0.423162
Si Si6 0.527626 0.811490 0.579607
O O1 0.562996 0.961868 0.250000
O O2 0.604246 0.934948 0.450933
O O3 0.513179 0.908843 0.473457
O O4 0.578389 0.000000 0.500000
O O5 0.736455 0.622585 0.750000
O O6 0.759038 0.666153 0.492925
O O7 0.732830 0.576182 0.511237
O O8 0.954677 0.247733 0.250000
O O9 0.940806 0.184276 0.039387
O O10 0.000000 0.276626 0.000000
O O11 0.180501 0.041259 0.250000
O O12 0.185037 0.092519 0.482812
O O13 0.150249 0.000000 0.500000
O O14 0.151171 0.633481 0.250000
O O15 0.156454 0.578227 0.459597
O O16 0.182794 0.667029 0.513784
O O17 0.536393 0.827854 0.750000
O O18 0.512157 0.756079 0.562596
#
# Coordination Sequence:
#
# PCOD8330513 Si02
#       6
#    24  24  24  24  24  24
#     4   9  18  30  45  68  99 134 170 206 242 279
#     4  10  20  33  49  71 101 138 178 216 251 290
#     4  10  19  31  48  71 102 139 176 213 252 294
#     4   9  19  35  53  74 100 129 162 202 249 300
#     4   9  19  36  55  75 101 132 166 205 248 297
#     4  10  21  36  54  77 103 130 163 206 256 308
#
# _framework density 17.737093999999999
#
# number of rings (size 3 to 8) (size 9 to 14) (size 15 to 20)
#    0.000    2.500    0.000    3.000    0.000    8.333 
#    0.000    1.667    0.000    0.500    0.000    0.000 
#    0.000    0.000    0.000    0.000    0.000    0.000 
#
# Total GULP energy -1785890.858328 kJ/mol
# GULP energy per Si atom -12402.019849 kJ/mol
# Density = 1.769672 g / cm^3
# Si number density = 17.737094 Si / 1000 Ang^3
#
#
#
# Elastic Constant Matrix: (Units=GPa)
#
#
# Indices 1 2 3 4 5 6 
#
# 1 99.3849 63.8594 52.8891 0.0000 0.0000 0.0000
# 2 63.8594 99.3849 52.8891 0.0000 0.0000 0.0000
# 3 52.8891 52.8891 88.8256 0.0000 0.0000 0.0000
# 4 0.0000 0.0000 0.0000 29.3971 0.0000 0.0000
# 5 0.0000 0.0000 0.0000 0.0000 29.3971 0.0000
# 6 0.0000 0.0000 0.0000 0.0000 0.0000 17.7627
#
#
#
# Elastic Compliance Matrix: (Units=1/GPa)
#
#
# Indices 1 2 3 4 5 6 
#
# 1 0.019061 -0.009087 -0.005939 0.000000 0.000000 0.000000
# 2 -0.009087 0.019061 -0.005939 0.000000 0.000000 0.000000
# 3 -0.005939 -0.005939 0.018330 0.000000 0.000000 0.000000
# 4 0.000000 0.000000 0.000000 0.034017 0.000000 0.000000
# 5 0.000000 0.000000 0.000000 0.000000 0.034017 0.000000
# 6 0.000000 0.000000 0.000000 0.000000 0.000000 0.056298
#
#
# Mechanical properties :
#
#
# Convention : Reuss Voigt Hill
#
# Bulk Modulus (GPa) = 68.85588 69.65228 69.25408
# Shear Modulus (GPa) = 21.97267 23.17525 22.57396
#
# Velocity S-wave (km/s) = 3.52347 3.61861 3.57136
# Velocity P-wave (km/s) = 7.44699 7.53748 7.49237
#
# Compressibility (1/GPa) = 0.01452309
#
# Stress axis : x y z
#
# Youngs Moduli (GPa) = 52.46207 52.46207 54.55489
#
# Poissons Ratio (x) = 0.47675 0.32399
# Poissons Ratio (y) = 0.47675 0.32399
# Poissons Ratio (z) = 0.31156 0.31156
#
# Static dielectric constant tensor:
#      x y z
#    x 3.211620 0.000000 0.000000 
#    y 0.000000 3.211620 0.000000 
#    z 0.000000 0.000000 3.321780 
# 
# 
# High freq. dielectric constant tensor:
#      x y z
#    x 1.674200 0.000000 0.000000 
#    y 0.000000 1.674200 0.000000 
#    z 0.000000 0.000000 1.692420 
# 
# From -- ./inp_files/2114.got.cif
#   From: 2010.03.12/outbox.cif.g09.slc.cpg/sg194_2_cif.got.tgz:2114.got - 2010.04.01 12:26:19.
