data_PCOD8330787
_publ_section_title
;
Structure prediction by ZEFSAII (Michael W. Deem and Ramdas Pophale) SiO2 
 PCOD8330787
Probable space group: P 63/M M C
;
_chemical_formula_sum "Si O2"
_cell_formula_units_Z 108
_cell_length_a 16.952051
_cell_length_b 16.952051
_cell_length_c 23.684326
_cell_angle_alpha 90.000000
_cell_angle_beta 90.000000
_cell_angle_gamma 120.000000
_cell_volume 5894.353288
_symmetry_space_group_name_H-M "P 63/M M C"
_symmetry_group_IT_number 194
_symmetry_cell_setting 'hexagonal'
loop_
_space_group_symop_operation_xyz
x,y,z
x-y,x,1/2+z
-y,x-y,z
-x,-y,1/2+z
-x+y,-x,z
y,-x+y,1/2+z
x-y,-y,-z
-x,-x+y,-z
y,x,-z
-y,-x,1/2-z
-x+y,y,1/2-z
x,x-y,1/2-z
-x,-y,-z
-x+y,-x,1/2-z
y,-x+y,-z
x,y,1/2-z
x-y,x,-z
-y,x-y,1/2-z
-x+y,y,z
x,x-y,z
-y,-x,z
y,x,1/2+z
x-y,-y,1/2+z
-x,-x+y,1/2+z
loop_
_atom_site_type_symbol
_atom_site_label
_atom_site_fract_x
_atom_site_fract_y
_atom_site_fract_z
Si Si1 0.424633 0.033708 0.418001
Si Si2 0.519581 0.667061 0.476387
Si Si3 0.181101 0.180204 0.121349
Si Si4 0.817970 0.817970 0.000000
Si Si5 0.641070 0.729757 0.686254
O O1 0.519743 0.039485 0.425070
O O2 0.427625 0.105042 0.464554
O O3 0.418359 0.065405 0.355349
O O4 0.347941 0.928267 0.429224
O O5 0.521795 0.760898 0.462870
O O6 0.415089 0.584912 0.476814
O O7 0.144078 0.072039 0.119930
O O8 0.253005 0.227776 0.170964
O O9 0.099006 0.198012 0.134067
O O10 0.233371 0.223275 0.060180
O O11 0.915867 0.831734 0.987231
O O12 0.625723 0.692312 0.750000
O O13 0.611280 0.805640 0.679961
#
# Coordination Sequence:
#
# PCOD8330787 Si02
#       5
#    24  24  24  12  24
#     4   9  19  34  52  76 101 127 162 200 244 301
#     4   9  17  31  53  80 107 131 157 194 243 300
#     4   9  17  29  45  66  93 126 163 200 237 278
#     4   8  13  22  38  60  85 114 150 192 234 270
#     4  10  21  35  49  67  94 129 168 207 244 282
#
# _framework density 18.322621999999999
#
# number of rings (size 3 to 8) (size 9 to 14) (size 15 to 20)
#    0.000    2.889    0.000    2.556    0.000    5.333 
#    0.000    2.222    0.000    1.778    0.000    0.000 
#    0.000    1.778    0.000    4.444    0.000    0.000 
#
# Total GULP energy -1338111.264153 kJ/mol
# GULP energy per Si atom -12389.919113 kJ/mol
# Density = 1.828092 g / cm^3
# Si number density = 18.322622 Si / 1000 Ang^3
#
#
#
# Elastic Constant Matrix: (Units=GPa)
#
#
# Indices 1 2 3 4 5 6 
#
# 1 56.2507 17.4217 21.6473 0.0000 0.0000 0.0000
# 2 17.4217 56.2507 21.6473 0.0000 0.0000 0.0000
# 3 21.6473 21.6473 122.7888 0.0000 0.0000 0.0000
# 4 0.0000 0.0000 0.0000 26.6437 0.0000 0.0000
# 5 0.0000 0.0000 0.0000 0.0000 26.6437 0.0000
# 6 0.0000 0.0000 0.0000 0.0000 0.0000 19.4145
#
#
#
# Elastic Compliance Matrix: (Units=1/GPa)
#
#
# Indices 1 2 3 4 5 6 
#
# 1 0.020448 -0.005306 -0.002670 0.000000 0.000000 0.000000
# 2 -0.005306 0.020448 -0.002670 0.000000 0.000000 0.000000
# 3 -0.002670 -0.002670 0.009085 0.000000 0.000000 0.000000
# 4 0.000000 0.000000 0.000000 0.037532 0.000000 0.000000
# 5 0.000000 0.000000 0.000000 0.000000 0.037532 0.000000
# 6 0.000000 0.000000 0.000000 0.000000 0.000000 0.051508
#
#
# Mechanical properties :
#
#
# Convention : Reuss Voigt Hill
#
# Bulk Modulus (GPa) = 34.85301 39.63586 37.24444
# Shear Modulus (GPa) = 24.10709 26.17865 25.14287
#
# Velocity S-wave (km/s) = 3.63119 3.78400 3.70838
# Velocity P-wave (km/s) = 6.05342 6.38519 6.22152
#
# Compressibility (1/GPa) = 0.02869192
#
# Stress axis : x y z
#
# Youngs Moduli (GPa) = 48.90410 48.90410 110.06743
#
# Poissons Ratio (x) = 0.25947 0.29383
# Poissons Ratio (y) = 0.25947 0.29383
# Poissons Ratio (z) = 0.13055 0.13055
#
# Static dielectric constant tensor:
#      x y z
#    x 3.227330 0.000000 0.000000 
#    y 0.000000 3.227330 0.000000 
#    z 0.000000 0.000000 3.570600 
# 
# 
# High freq. dielectric constant tensor:
#      x y z
#    x 1.703430 0.000000 0.000000 
#    y 0.000000 1.703430 0.000000 
#    z 0.000000 0.000000 1.696540 
# 
# From -- ./inp_files/9268.got.cif
#   From: 2010.03.12/outbox.cif.g09.slc.cpg/sg194_5_cif.got.tgz:9268.got - 2010.04.01 12:26:19.
