data_PCOD8330263
_publ_section_title
;
Structure prediction by ZEFSAII (Michael W. Deem and Ramdas Pophale) SiO2 
 PCOD8330263
Probable space group: P 63/M C M
;
_chemical_formula_sum "Si O2"
_cell_formula_units_Z 56
_cell_length_a 10.392722
_cell_length_b 10.392722
_cell_length_c 27.891251
_cell_angle_alpha 90.000000
_cell_angle_beta 90.000000
_cell_angle_gamma 120.000000
_cell_volume 2608.898880
_symmetry_space_group_name_H-M "P 63/M C M"
_symmetry_group_IT_number 193
_symmetry_cell_setting 'hexagonal'
loop_
_space_group_symop_operation_xyz
x,y,z
x-y,x,1/2+z
-y,x-y,z
-x,-y,1/2+z
-x+y,-x,z
y,-x+y,1/2+z
x-y,-y,1/2-z
-x,-x+y,1/2-z
y,x,1/2-z
-y,-x,-z
-x+y,y,-z
x,x-y,-z
-x,-y,-z
-x+y,-x,1/2-z
y,-x+y,-z
x,y,1/2-z
x-y,x,-z
-y,x-y,1/2-z
-x+y,y,1/2+z
x,x-y,1/2+z
-y,-x,1/2+z
y,x,z
x-y,-y,z
-x,-x+y,z
loop_
_atom_site_type_symbol
_atom_site_label
_atom_site_fract_x
_atom_site_fract_y
_atom_site_fract_z
Si Si1 0.338992 0.169496 0.348921
Si Si2 0.333334 0.666667 0.693372
Si Si3 0.238292 0.761708 0.052877
O O1 0.249990 0.249990 0.331340
O O2 0.500126 0.250037 0.325606
O O3 0.350433 0.175217 0.406809
O O4 0.249946 0.000000 0.331342
O O5 0.333334 0.666668 0.750000
O O6 0.165088 0.582544 0.058349
O O7 0.200608 0.799393 0.000000
#
# Coordination Sequence:
#
# PCOD8330263 Si02
#       3
#    24   8  24
#     4  12  25  43  67 100 138 173 211 263 327 389
#     4  12  27  48  76  98 118 162 225 279 322 386
#     4   8  16  34  61  95 130 170 221 269 310 361
#
# _framework density 21.464993
#
# number of rings (size 3 to 8) (size 9 to 14) (size 15 to 20)
#    0.857    0.857    4.286    1.714    0.000    5.143 
#    0.000    4.286    0.000    5.143    0.000    0.000 
#    0.000    0.000    0.000    0.000    0.000    0.000 
#
# Total GULP energy -694068.326728 kJ/mol
# GULP energy per Si atom -12394.077263 kJ/mol
# Density = 2.141614 g / cm^3
# Si number density = 21.464993 Si / 1000 Ang^3
#
#
#
# Elastic Constant Matrix: (Units=GPa)
#
#
# Indices 1 2 3 4 5 6 
#
# 1 146.4483 93.5883 43.4470 0.0003 0.0000 0.0000
# 2 93.5883 146.4469 43.4467 0.0000 -0.0001 0.0000
# 3 43.4470 43.4467 123.1773 -0.0003 0.0001 -0.0001
# 4 0.0003 0.0000 -0.0003 -3.8314 0.0000 0.0000
# 5 0.0000 -0.0001 0.0001 0.0000 -3.8318 -0.0002
# 6 0.0000 0.0000 -0.0001 0.0000 -0.0002 26.4298
#
#
#
# Elastic Compliance Matrix: (Units=1/GPa)
#
#
# Indices 1 2 3 4 5 6 
#
# 1 0.011847 -0.007071 -0.001685 0.000001 0.000000 0.000000
# 2 -0.007071 0.011847 -0.001685 0.000000 0.000000 0.000000
# 3 -0.001685 -0.001685 0.009307 -0.000001 0.000000 0.000000
# 4 0.000001 0.000000 -0.000001 -0.260999 0.000002 0.000000
# 5 0.000000 0.000000 0.000000 0.000002 -0.260974 -0.000002
# 6 0.000000 0.000000 0.000000 0.000000 -0.000002 0.037836
#
#
# Mechanical properties :
#
#
# Convention : Reuss Voigt Hill
#
# Bulk Modulus (GPa) = 82.50625 86.33737 84.42181
# Shear Modulus (GPa) = -11.73115 19.45934 3.86409
#
# Velocity S-wave (km/s) = -2.34032 3.01418 1.34316
# Velocity P-wave (km/s) = 5.58733 7.24040 6.46690
#
# Compressibility (1/GPa) = 0.01212029
#
# Stress axis : x y z
#
# Youngs Moduli (GPa) = 84.40990 84.40915 107.44939
#
# Poissons Ratio (x) = 0.59687 0.18100
# Poissons Ratio (y) = 0.59688 0.18100
# Poissons Ratio (z) = 0.14219 0.14219
#
# Static dielectric constant tensor:
#      x y z
#    x 3.685640 0.000000 0.000000 
#    y 0.000000 3.685640 0.000010 
#    z 0.000000 0.000010 3.833140 
# 
# 
# High freq. dielectric constant tensor:
#      x y z
#    x 1.824710 0.000000 0.000000 
#    y 0.000000 1.824710 0.000000 
#    z 0.000000 0.000000 1.833430 
# 
# From -- ./inp_files/7937.got.cif
#   From: 2010.03.12/outbox.cif.g09.slc.cpg/sg193_4_cif.got.tgz:7937.got - 2010.04.01 12:20:39.
