data_PCOD8330977
_publ_section_title
;
Structure prediction by ZEFSAII (Michael W. Deem and Ramdas Pophale) SiO2 
 PCOD8330977
Probable space group: P 4 3 2 
;
_chemical_formula_sum "Si O2"
_cell_formula_units_Z 120
_cell_length_a 18.446362
_cell_length_b 18.446362
_cell_length_c 18.446362
_cell_angle_alpha 90.000000
_cell_angle_beta 90.000000
_cell_angle_gamma 90.000000
_cell_volume 6276.711705
_symmetry_space_group_name_H-M "P 4 3 2 "
_symmetry_group_IT_number 207
_symmetry_cell_setting 'cubic'
loop_
_space_group_symop_operation_xyz
x,y,z
-y,x,z
-x,-y,z
y,-x,z
x,-z,y
x,-y,-z
x,z,-y
z,y,-x
-x,y,-z
-z,y,x
z,x,y
y,z,x
-y,-z,x
z,-x,-y
-y,z,-x
-z,-x,y
-z,x,-y
y,-z,-x
y,x,-z
-y,-x,-z
-x,z,y
-x,-z,-y
z,-y,x
-z,-y,-x
loop_
_atom_site_type_symbol
_atom_site_label
_atom_site_fract_x
_atom_site_fract_y
_atom_site_fract_z
Si Si1 0.938617 0.819542 0.372171
Si Si2 0.298087 0.822395 0.411602
Si Si3 0.819661 0.703903 0.577679
Si Si4 0.004627 0.880754 0.764848
Si Si5 0.084201 0.834115 0.433838
O O1 0.895462 0.745902 0.390427
O O2 0.984414 0.818830 0.297558
O O3 0.885281 0.889211 0.367784
O O4 0.996657 0.833825 0.438027
O O5 0.323246 0.817172 0.494871
O O6 0.248553 0.752289 0.396799
O O7 0.370776 0.822272 0.365063
O O8 0.892256 0.751999 0.582684
O O9 0.931505 0.925660 0.758585
O O10 0.000000 0.841815 0.841815
O O11 0.132111 0.867890 0.500000
#
# Coordination Sequence:
#
# PCOD8330977 Si02
#       5
#    24  24  24  24  24
#     4  11  22  37  58  88 115 157 192 248 293 358
#     4  10  22  38  62  88 125 157 203 243 296 360
#     4  10  21  40  59  90 119 162 195 245 295 357
#     4  11  24  41  58  82 112 146 197 245 301 353
#     4  11  21  38  58  84 124 154 198 237 303 350
#
# _framework density 19.118292
#
# number of rings (size 3 to 8) (size 9 to 14) (size 15 to 20)
#    0.000    1.400    6.000    1.400    2.800    0.800 
#    0.000    1.000    0.000    1.600    0.000    2.800 
#    0.000    0.000    0.000   12.400    0.000    0.000 
#
# Total GULP energy -1486751.962677 kJ/mol
# GULP energy per Si atom -12389.599689 kJ/mol
# Density = 1.907478 g / cm^3
# Si number density = 19.118292 Si / 1000 Ang^3
#
#
#
# Elastic Constant Matrix: (Units=GPa)
#
#
# Indices 1 2 3 4 5 6 
#
# 1 109.4714 53.1106 53.1106 0.0000 0.0000 0.0000
# 2 53.1106 109.4714 53.1106 0.0000 0.0000 0.0000
# 3 53.1106 53.1106 109.4714 0.0000 0.0000 0.0000
# 4 0.0000 0.0000 0.0000 41.9934 0.0000 0.0000
# 5 0.0000 0.0000 0.0000 0.0000 41.9934 0.0000
# 6 0.0000 0.0000 0.0000 0.0000 0.0000 41.9934
#
#
#
# Elastic Compliance Matrix: (Units=1/GPa)
#
#
# Indices 1 2 3 4 5 6 
#
# 1 0.013374 -0.004369 -0.004369 0.000000 0.000000 0.000000
# 2 -0.004369 0.013374 -0.004369 0.000000 0.000000 0.000000
# 3 -0.004369 -0.004369 0.013374 0.000000 0.000000 0.000000
# 4 0.000000 0.000000 0.000000 0.023813 0.000000 0.000000
# 5 0.000000 0.000000 0.000000 0.000000 0.023813 0.000000
# 6 0.000000 0.000000 0.000000 0.000000 0.000000 0.023813
#
#
# Mechanical properties :
#
#
# Convention : Reuss Voigt Hill
#
# Bulk Modulus (GPa) = 71.89750 71.89750 71.89750
# Shear Modulus (GPa) = 35.10961 36.46818 35.78889
#
# Velocity S-wave (km/s) = 4.29002 4.37223 4.33132
# Velocity P-wave (km/s) = 7.88843 7.94839 7.91847
#
# Compressibility (1/GPa) = 0.01390869
#
# Stress axis : x y z
#
# Youngs Moduli (GPa) = 74.77214 74.77214 74.77214
#
# Poissons Ratio (x) = 0.32667 0.32667
# Poissons Ratio (y) = 0.32667 0.32667
# Poissons Ratio (z) = 0.32667 0.32667
#
# Static dielectric constant tensor:
#      x y z
#    x 3.468220 0.000000 0.000000 
#    y 0.000000 3.468220 0.000000 
#    z 0.000000 0.000000 3.468220 
# 
# 
# High freq. dielectric constant tensor:
#      x y z
#    x 1.739850 0.000000 0.000000 
#    y 0.000000 1.739850 0.000000 
#    z 0.000000 0.000000 1.739850 
# 
# From -- ./inp_files/380.got.cif
#   From: 2010.03.12/outbox.cif.g09.slc.cpg/sg207_cif.got.tgz:380.got - 2010.03.30 09:03:22.
