data_PCOD8330249
_publ_section_title
;
Structure prediction by ZEFSAII (Michael W. Deem and Ramdas Pophale) SiO2 
 PCOD8330249
Probable space group: P 63/M C M
;
_chemical_formula_sum "Si O2"
_cell_formula_units_Z 116
_cell_length_a 14.461189
_cell_length_b 14.461189
_cell_length_c 31.673809
_cell_angle_alpha 90.000000
_cell_angle_beta 90.000000
_cell_angle_gamma 120.000000
_cell_volume 5736.393427
_symmetry_space_group_name_H-M "P 63/M C M"
_symmetry_group_IT_number 193
_symmetry_cell_setting 'hexagonal'
loop_
_space_group_symop_operation_xyz
x,y,z
x-y,x,1/2+z
-y,x-y,z
-x,-y,1/2+z
-x+y,-x,z
y,-x+y,1/2+z
x-y,-y,1/2-z
-x,-x+y,1/2-z
y,x,1/2-z
-y,-x,-z
-x+y,y,-z
x,x-y,-z
-x,-y,-z
-x+y,-x,1/2-z
y,-x+y,-z
x,y,1/2-z
x-y,x,-z
-y,x-y,1/2-z
-x+y,y,1/2+z
x,x-y,1/2+z
-y,-x,1/2+z
y,x,z
x-y,-y,z
-x,-x+y,z
loop_
_atom_site_type_symbol
_atom_site_label
_atom_site_fract_x
_atom_site_fract_y
_atom_site_fract_z
Si Si1 0.253280 0.126972 0.750000
Si Si2 0.617370 0.000000 0.544017
Si Si3 0.789807 0.220746 0.418909
Si Si4 0.333334 0.666667 0.948632
Si Si5 0.408124 0.000000 0.945826
Si Si6 0.790842 0.215422 0.676566
Si Si7 0.441813 0.559552 0.702369
O O1 0.175757 0.175757 0.750000
O O2 0.323675 0.165029 0.707506
O O3 0.183017 0.000000 0.750000
O O4 0.732896 0.101678 0.554357
O O5 0.592943 0.000000 0.495589
O O6 0.516842 0.000000 0.568734
O O7 0.750066 0.303518 0.429497
O O8 0.827861 0.223765 0.370793
O O9 0.699593 0.102021 0.430034
O O10 0.333334 0.666667 0.000000
O O11 0.868262 0.342880 0.673642
O O12 0.679956 0.201190 0.693317
O O13 0.470596 0.602115 0.750000
O O14 0.459187 0.459187 0.694300
#
# Coordination Sequence:
#
# PCOD8330249 Si02
#       7
#    12  12  24   8  12  24  24
#     4  12  27  48  72  90 122 170 223 288 338 388
#     4  11  24  44  68  96 134 179 220 270 338 402
#     4  12  26  39  67 104 135 174 221 277 326 401
#     4  12  21  42  69 100 140 184 228 267 327 396
#     4  11  24  44  68  96 134 179 220 270 338 402
#     4  12  25  41  65  96 133 169 215 259 323 385
#     4  11  22  39  62  89 127 173 208 249 309 379
#
# _framework density 20.221765000000001
#
# number of rings (size 3 to 8) (size 9 to 14) (size 15 to 20)
#    0.000    0.414    4.138    4.862    5.793    0.000 
#    0.000    0.000    0.000    0.414    0.000    1.448 
#    0.000    0.000    0.000    0.000    0.000    0.000 
#
# Total GULP energy -1438377.552371 kJ/mol
# GULP energy per Si atom -12399.806486 kJ/mol
# Density = 2.017574 g / cm^3
# Si number density = 20.221765 Si / 1000 Ang^3
#
#
#
# Elastic Constant Matrix: (Units=GPa)
#
#
# Indices 1 2 3 4 5 6 
#
# 1 94.6870 24.6258 32.0459 0.0000 0.0000 0.0000
# 2 24.6258 94.6876 32.0459 -0.0001 0.0000 0.0000
# 3 32.0459 32.0459 108.3383 0.0000 0.0000 0.0000
# 4 0.0000 -0.0001 0.0000 28.7401 0.0000 0.0000
# 5 0.0000 0.0000 0.0000 0.0000 28.7400 0.0000
# 6 0.0000 0.0000 0.0000 0.0000 0.0000 35.0309
#
#
#
# Elastic Compliance Matrix: (Units=1/GPa)
#
#
# Indices 1 2 3 4 5 6 
#
# 1 0.012119 -0.002154 -0.002947 0.000000 0.000000 0.000000
# 2 -0.002154 0.012119 -0.002947 0.000000 0.000000 0.000000
# 3 -0.002947 -0.002947 0.010974 0.000000 0.000000 0.000000
# 4 0.000000 0.000000 0.000000 0.034795 0.000000 0.000000
# 5 0.000000 0.000000 0.000000 0.000000 0.034795 0.000000
# 6 0.000000 0.000000 0.000000 0.000000 0.000000 0.028546
#
#
# Mechanical properties :
#
#
# Convention : Reuss Voigt Hill
#
# Bulk Modulus (GPa) = 52.31944 52.79423 52.55684
# Shear Modulus (GPa) = 32.08894 32.43523 32.26208
#
# Velocity S-wave (km/s) = 3.98785 4.00931 3.99860
# Velocity P-wave (km/s) = 6.86534 6.89906 6.88222
#
# Compressibility (1/GPa) = 0.01911335
#
# Stress axis : x y z
#
# Youngs Moduli (GPa) = 82.51549 82.51608 91.12411
#
# Poissons Ratio (x) = 0.17776 0.26859
# Poissons Ratio (y) = 0.17776 0.26859
# Poissons Ratio (z) = 0.24321 0.24321
#
# Static dielectric constant tensor:
#      x y z
#    x 3.794270 0.000070 0.000000 
#    y 0.000070 3.794340 0.000010 
#    z 0.000000 0.000010 3.840010 
# 
# 
# High freq. dielectric constant tensor:
#      x y z
#    x 1.787190 0.000000 0.000000 
#    y 0.000000 1.787190 0.000000 
#    z 0.000000 0.000000 1.797120 
# 
# From -- ./inp_files/9011.got.cif
#   From: 2010.03.12/outbox.cif.g09.slc.cpg/sg193_5_cif.got.tgz:9011.got - 2010.04.01 12:20:39.
