data_PCOD8330136
_publ_section_title
;
Structure prediction by ZEFSAII (Michael W. Deem and Ramdas Pophale) SiO2 
 PCOD8330136
Probable space group: P 63/M C M
;
_chemical_formula_sum "Si O2"
_cell_formula_units_Z 168
_cell_length_a 21.022697
_cell_length_b 21.022697
_cell_length_c 25.160603
_cell_angle_alpha 90.000000
_cell_angle_beta 90.000000
_cell_angle_gamma 120.000000
_cell_volume 9630.049925
_symmetry_space_group_name_H-M "P 63/M C M"
_symmetry_group_IT_number 193
_symmetry_cell_setting 'hexagonal'
loop_
_space_group_symop_operation_xyz
x,y,z
x-y,x,1/2+z
-y,x-y,z
-x,-y,1/2+z
-x+y,-x,z
y,-x+y,1/2+z
x-y,-y,1/2-z
-x,-x+y,1/2-z
y,x,1/2-z
-y,-x,-z
-x+y,y,-z
x,x-y,-z
-x,-y,-z
-x+y,-x,1/2-z
y,-x+y,-z
x,y,1/2-z
x-y,x,-z
-y,x-y,1/2-z
-x+y,y,1/2+z
x,x-y,1/2+z
-y,-x,1/2+z
y,x,z
x-y,-y,z
-x,-x+y,z
loop_
_atom_site_type_symbol
_atom_site_label
_atom_site_fract_x
_atom_site_fract_y
_atom_site_fract_z
Si Si1 0.211054 0.423462 0.562278
Si Si2 0.600431 0.915112 0.362750
Si Si3 0.531450 0.213972 0.357618
Si Si4 0.788423 0.082733 0.879208
Si Si5 0.735054 0.916284 0.310874
Si Si6 0.411966 0.331296 0.808502
Si Si7 0.806741 0.349157 0.811257
O O1 0.217063 0.434125 0.500000
O O2 0.133510 0.411513 0.584325
O O3 0.278530 0.500351 0.585345
O O4 0.216736 0.350884 0.575325
O O5 0.655465 0.906646 0.322956
O O6 0.523248 0.884980 0.331626
O O7 0.631604 0.000000 0.379232
O O8 0.483908 0.129055 0.342231
O O9 0.516909 0.263284 0.315531
O O10 0.613431 0.226477 0.351753
O O11 0.869454 0.116640 0.853438
O O12 0.739651 0.080665 0.830254
O O13 0.759837 0.000000 0.901594
O O14 0.735368 0.892004 0.250000
O O15 0.798255 0.000000 0.319509
O O16 0.423824 0.310434 0.750000
O O17 0.401642 0.401642 0.809449
O O18 0.813388 0.376122 0.750000
#
# Coordination Sequence:
#
# PCOD8330136 Si02
#       7
#    24  24  24  24  24  24  24
#     4   9  19  36  55  71  94 129 164 206 256 296
#     4   9  19  33  49  73  99 124 164 210 246 284
#     4  10  21  34  47  70  99 126 164 201 236 286
#     4   9  17  28  46  73  97 119 157 204 245 290
#     4   9  16  27  44  67  99 135 163 191 233 286
#     4   9  16  27  44  66  94 124 149 184 238 291
#     4  11  20  31  50  71  96 129 158 191 237 291
#
# _framework density 17.445391999999998
#
# number of rings (size 3 to 8) (size 9 to 14) (size 15 to 20)
#    0.000    2.571    0.000    3.286    0.000    2.857 
#    0.000    2.857    0.000    1.143    0.000    0.000 
#    0.000    0.571    0.000    0.000    0.000    0.000 
#
# Total GULP energy -2081670.306696 kJ/mol
# GULP energy per Si atom -12390.894683 kJ/mol
# Density = 1.740569 g / cm^3
# Si number density = 17.445392 Si / 1000 Ang^3
#
#
#
# Elastic Constant Matrix: (Units=GPa)
#
#
# Indices 1 2 3 4 5 6 
#
# 1 80.3622 35.2872 40.0170 0.0000 0.0000 0.0000
# 2 35.2872 80.3622 40.0170 0.0000 0.0000 0.0000
# 3 40.0170 40.0170 116.2361 0.0000 0.0000 0.0000
# 4 0.0000 0.0000 0.0000 15.7634 0.0000 0.0000
# 5 0.0000 0.0000 0.0000 0.0000 15.7634 0.0000
# 6 0.0000 0.0000 0.0000 0.0000 0.0000 22.5375
#
#
#
# Elastic Compliance Matrix: (Units=1/GPa)
#
#
# Indices 1 2 3 4 5 6 
#
# 1 0.016768 -0.005417 -0.003908 0.000000 0.000000 0.000000
# 2 -0.005417 0.016768 -0.003908 0.000000 0.000000 0.000000
# 3 -0.003908 -0.003908 0.011294 0.000000 0.000000 0.000000
# 4 0.000000 0.000000 0.000000 0.063438 0.000000 0.000000
# 5 0.000000 0.000000 0.000000 0.000000 0.063438 0.000000
# 6 0.000000 0.000000 0.000000 0.000000 0.000000 0.044370
#
#
# Mechanical properties :
#
#
# Convention : Reuss Voigt Hill
#
# Bulk Modulus (GPa) = 54.45209 56.40031 55.42620
# Shear Modulus (GPa) = 20.10744 21.58883 20.84814
#
# Velocity S-wave (km/s) = 3.39867 3.52164 3.46070
# Velocity P-wave (km/s) = 6.83242 6.99541 6.91439
#
# Compressibility (1/GPa) = 0.01836477
#
# Stress axis : x y z
#
# Youngs Moduli (GPa) = 59.63648 59.63648 88.54282
#
# Poissons Ratio (x) = 0.32305 0.34602
# Poissons Ratio (y) = 0.32305 0.34602
# Poissons Ratio (z) = 0.23306 0.23306
#
# Static dielectric constant tensor:
#      x y z
#    x 3.409430 0.000000 0.000000 
#    y 0.000000 3.409430 0.000000 
#    z 0.000000 0.000000 2.900220 
# 
# 
# High freq. dielectric constant tensor:
#      x y z
#    x 1.670430 0.000000 0.000000 
#    y 0.000000 1.670430 0.000000 
#    z 0.000000 0.000000 1.642630 
# 
# From -- ./inp_files/7719.got.cif
#   From: 2010.03.12/outbox.cif.g09.slc.cpg/sg193_4_cif.got.tgz:7719.got - 2010.04.01 12:20:39.
