data_PCOD8330064
_publ_section_title
;
Structure prediction by ZEFSAII (Michael W. Deem and Ramdas Pophale) SiO2 
 PCOD8330064
Probable space group: P 63/M C M
;
_chemical_formula_sum "Si O2"
_cell_formula_units_Z 72
_cell_length_a 22.188147
_cell_length_b 22.188147
_cell_length_c 8.666518
_cell_angle_alpha 90.000000
_cell_angle_beta 90.000000
_cell_angle_gamma 120.000000
_cell_volume 3695.024685
_symmetry_space_group_name_H-M "P 63/M C M"
_symmetry_group_IT_number 193
_symmetry_cell_setting 'hexagonal'
loop_
_space_group_symop_operation_xyz
x,y,z
x-y,x,1/2+z
-y,x-y,z
-x,-y,1/2+z
-x+y,-x,z
y,-x+y,1/2+z
x-y,-y,1/2-z
-x,-x+y,1/2-z
y,x,1/2-z
-y,-x,-z
-x+y,y,-z
x,x-y,-z
-x,-y,-z
-x+y,-x,1/2-z
y,-x+y,-z
x,y,1/2-z
x-y,x,-z
-y,x-y,1/2-z
-x+y,y,1/2+z
x,x-y,1/2+z
-y,-x,1/2+z
y,x,z
x-y,-y,z
-x,-x+y,z
loop_
_atom_site_type_symbol
_atom_site_label
_atom_site_fract_x
_atom_site_fract_y
_atom_site_fract_z
Si Si1 0.794554 0.461611 0.067990
Si Si2 0.282809 0.079551 0.570289
Si Si3 0.331513 0.411342 0.930498
O O1 0.787550 0.456065 0.250000
O O2 0.743191 0.486381 0.000000
O O3 0.773363 0.386682 0.000000
O O4 0.873202 0.517186 0.020574
O O5 0.253231 0.126616 0.500000
O O6 0.299434 0.094764 0.750000
O O7 0.353961 0.099028 0.483881
O O8 0.224411 0.000000 0.539533
O O9 0.329719 0.424444 0.750000
O O10 0.386396 0.386396 0.971474
#
# Coordination Sequence:
#
# PCOD8330064 Si02
#       3
#    24  24  24
#     4  12  25  42  62  84 113 148 189 232 277 329
#     4  10  20  34  54  81 112 146 184 227 276 329
#     4  10  21  38  60  86 115 147 184 227 277 330
#
# _framework density 19.485661
#
# number of rings (size 3 to 8) (size 9 to 14) (size 15 to 20)
#    0.000    1.333    0.000    6.333    0.000    4.667 
#    0.000    0.000    0.000    0.333    0.000    0.000 
#    0.000    0.000    0.000    0.000    0.000    0.000 
#
# Total GULP energy -893356.613271 kJ/mol
# GULP energy per Si atom -12407.730740 kJ/mol
# Density = 1.944131 g / cm^3
# Si number density = 19.485661 Si / 1000 Ang^3
#
#
#
# Elastic Constant Matrix: (Units=GPa)
#
#
# Indices 1 2 3 4 5 6 
#
# 1 96.8477 39.8991 50.1614 0.0000 0.0000 0.0000
# 2 39.8991 96.8477 50.1614 0.0000 0.0000 0.0000
# 3 50.1614 50.1614 144.3194 0.0000 0.0000 0.0000
# 4 0.0000 0.0000 0.0000 36.6852 0.0000 0.0000
# 5 0.0000 0.0000 0.0000 0.0000 36.6852 0.0000
# 6 0.0000 0.0000 0.0000 0.0000 0.0000 28.4743
#
#
#
# Elastic Compliance Matrix: (Units=1/GPa)
#
#
# Indices 1 2 3 4 5 6 
#
# 1 0.013688 -0.003872 -0.003412 0.000000 0.000000 0.000000
# 2 -0.003872 0.013688 -0.003412 0.000000 0.000000 0.000000
# 3 -0.003412 -0.003412 0.009301 0.000000 0.000000 0.000000
# 4 0.000000 0.000000 0.000000 0.027259 0.000000 0.000000
# 5 0.000000 0.000000 0.000000 0.000000 0.027259 0.000000
# 6 0.000000 0.000000 0.000000 0.000000 0.000000 0.035119
#
#
# Mechanical properties :
#
#
# Convention : Reuss Voigt Hill
#
# Bulk Modulus (GPa) = 65.42177 68.71765 67.06971
# Shear Modulus (GPa) = 32.72266 33.55510 33.13888
#
# Velocity S-wave (km/s) = 4.10240 4.15425 4.12840
# Velocity P-wave (km/s) = 7.48911 7.63889 7.56437
#
# Compressibility (1/GPa) = 0.01528543
#
# Stress axis : x y z
#
# Youngs Moduli (GPa) = 73.05821 73.05821 107.51901
#
# Poissons Ratio (x) = 0.28288 0.36682
# Poissons Ratio (y) = 0.28288 0.36682
# Poissons Ratio (z) = 0.24925 0.24925
#
# Static dielectric constant tensor:
#      x y z
#    x 3.589950 0.000000 0.000000 
#    y 0.000000 3.589950 0.000000 
#    z 0.000000 0.000000 3.670170 
# 
# 
# High freq. dielectric constant tensor:
#      x y z
#    x 1.756550 0.000000 0.000000 
#    y 0.000000 1.756550 0.000000 
#    z 0.000000 0.000000 1.778870 
# 
# From -- ./inp_files/635.got.cif
#   From: 2010.03.12/outbox.cif.g09.slc.cpg/sg193_1_cif.got.tgz:635.got - 2010.04.01 12:20:39.
