data_PCOD8331097
_publ_section_title
;
Structure prediction by ZEFSAII (Michael W. Deem and Ramdas Pophale) SiO2 
 PCOD8331097
Probable space group: I -4 3 D
;
_chemical_formula_sum "Si O2"
_cell_formula_units_Z 272
_cell_length_a 23.034875
_cell_length_b 23.034875
_cell_length_c 23.034875
_cell_angle_alpha 90.000000
_cell_angle_beta 90.000000
_cell_angle_gamma 90.000000
_cell_volume 12222.430590
_symmetry_space_group_name_H-M "I -4 3 D"
_symmetry_group_IT_number 220
_symmetry_cell_setting 'cubic'
loop_
_space_group_symop_operation_xyz
x,y,z
1/4+y,3/4-x,1/4-z
-x,1/2-y,z
1/4-y,1/4+x,3/4-z
1/4-x,1/4+z,3/4-y
x,-y,1/2-z
3/4-x,1/4-z,1/4+y
3/4-z,1/4-y,1/4+x
1/2-x,y,-z
1/4+z,3/4-y,1/4-x
z,x,y
y,z,x
-y,1/2-z,x
z,-x,1/2-y
1/2-y,z,-x
-z,1/2-x,y
1/2-z,x,-y
y,-z,1/2-x
3/4-y,1/4-x,1/4+z
1/4+y,1/4+x,1/4+z
1/4+x,3/4-z,1/4-y
1/4+x,1/4+z,1/4+y
1/4-z,1/4+y,3/4-x
1/4+z,1/4+y,1/4+x
1/2+x,1/2+y,1/2+z
3/4+y,1/4-x,3/4-z
1/2-x,-y,1/2+z
3/4-y,3/4+x,1/4-z
3/4-x,3/4+z,1/4-y
1/2+x,1/2-y,-z
1/4-x,3/4-z,3/4+y
1/4-z,3/4-y,3/4+x
-x,1/2+y,1/2-z
3/4+z,1/4-y,3/4-x
1/2+z,1/2+x,1/2+y
1/2+y,1/2+z,1/2+x
1/2-y,-z,1/2+x
1/2+z,1/2-x,-y
-y,1/2+z,1/2-x
1/2-z,-x,1/2+y
-z,1/2+x,1/2-y
1/2+y,1/2-z,-x
1/4-y,3/4-x,3/4+z
3/4+y,3/4+x,3/4+z
3/4+x,1/4-z,3/4-y
3/4+x,3/4+z,3/4+y
3/4-z,3/4+y,1/4-x
3/4+z,3/4+y,3/4+x
loop_
_atom_site_type_symbol
_atom_site_label
_atom_site_fract_x
_atom_site_fract_y
_atom_site_fract_z
Si Si1 0.566053 0.754823 0.214349
Si Si2 0.032065 0.188300 0.158655
Si Si3 0.742314 0.742314 0.742314
Si Si4 0.657261 0.914342 0.628088
Si Si5 0.159541 0.263570 0.347920
Si Si6 0.650405 0.698026 0.041962
Si Si7 0.335936 0.164065 0.835936
O O1 0.500000 0.750000 0.196970
O O2 0.592191 0.783012 0.155451
O O3 0.592067 0.690888 0.220043
O O4 0.570081 0.791394 0.273840
O O5 0.099339 0.187884 0.176805
O O6 0.000000 0.250000 0.161909
O O7 0.996014 0.149473 0.203811
O O8 0.711370 0.753352 0.803200
O O9 0.703255 0.703255 0.703255
O O10 0.633424 0.925210 0.563295
O O11 0.705863 0.863838 0.623303
O O12 0.608409 0.887248 0.669826
O O13 0.680391 0.974433 0.656252
#
# Coordination Sequence:
#
# PCOD8331097 Si02
#       7
#    48  48  16  48  48  48  16
#     4  11  22  44  73 105 138 186 247 315 371 435
#     4  11  26  44  74 104 144 190 249 321 368 445
#     4  12  30  46  77 106 159 201 247 317 385 474
#     4  12  28  45  75 108 153 200 252 313 383 471
#     4  12  27  49  72 109 151 200 249 313 392 458
#     4  12  24  46  72 110 145 191 252 313 382 448
#     4  12  27  49  71 112 144 201 268 305 382 459
#
# _framework density 22.254165
#
# number of rings (size 3 to 8) (size 9 to 14) (size 15 to 20)
#    0.000    0.353    5.294    3.176    4.941    1.765 
#    0.000    0.000    0.000    0.000    0.000    0.000 
#    0.000    0.000    0.000    0.000    0.000    0.000 
#
# Total GULP energy -1686081.374084 kJ/mol
# GULP energy per Si atom -12397.657162 kJ/mol
# Density = 2.220351 g / cm^3
# Si number density = 22.254165 Si / 1000 Ang^3
#
#
#
# Elastic Constant Matrix: (Units=GPa)
#
#
# Indices 1 2 3 4 5 6 
#
# 1 80.6291 26.8066 26.8055 0.0000 0.0000 0.0000
# 2 26.8066 80.6291 26.8055 0.0000 0.0000 0.0000
# 3 26.8055 26.8055 80.6301 0.0000 0.0000 0.0000
# 4 0.0000 0.0000 0.0000 32.8899 0.0000 0.0000
# 5 0.0000 0.0000 0.0000 0.0000 32.8899 0.0000
# 6 0.0000 0.0000 0.0000 0.0000 0.0000 32.8900
#
#
#
# Elastic Compliance Matrix: (Units=1/GPa)
#
#
# Indices 1 2 3 4 5 6 
#
# 1 0.014869 -0.003710 -0.003710 0.000000 0.000000 0.000000
# 2 -0.003710 0.014869 -0.003710 0.000000 0.000000 0.000000
# 3 -0.003710 -0.003710 0.014869 0.000000 0.000000 0.000000
# 4 0.000000 0.000000 0.000000 0.030405 0.000000 0.000000
# 5 0.000000 0.000000 0.000000 0.000000 0.030405 0.000000
# 6 0.000000 0.000000 0.000000 0.000000 0.000000 0.030404
#
#
# Mechanical properties :
#
#
# Convention : Reuss Voigt Hill
#
# Bulk Modulus (GPa) = 44.74707 44.74707 44.74707
# Shear Modulus (GPa) = 30.20594 30.49864 30.35229
#
# Velocity S-wave (km/s) = 3.68817 3.70600 3.69710
# Velocity P-wave (km/s) = 6.18771 6.20190 6.19481
#
# Compressibility (1/GPa) = 0.02234783
#
# Stress axis : x y z
#
# Youngs Moduli (GPa) = 67.25237 67.25237 67.25393
#
# Poissons Ratio (x) = 0.24952 0.24950
# Poissons Ratio (y) = 0.24952 0.24950
# Poissons Ratio (z) = 0.24950 0.24950
#
# Static dielectric constant tensor:
#      x y z
#    x 4.134420 0.000000 0.000000 
#    y 0.000000 4.134420 0.000000 
#    z 0.000000 0.000000 4.134450 
# 
# 
# High freq. dielectric constant tensor:
#      x y z
#    x 1.880360 0.000000 0.000000 
#    y 0.000000 1.880360 0.000000 
#    z 0.000000 0.000000 1.880360 
# 
# From -- ./inp_files/524.got.cif
#   From: 2010.03.12/outbox.cif.g09.slc.cpg/sg220_cif.got.tgz:524.got - 2010.03.30 09:07:51.
