data_PCOD8331091
_publ_section_title
;
Structure prediction by ZEFSAII (Michael W. Deem and Ramdas Pophale) SiO2 
 PCOD8331091
Probable space group: I -4 3 D
;
_chemical_formula_sum "Si O2"
_cell_formula_units_Z 272
_cell_length_a 23.352364
_cell_length_b 23.352364
_cell_length_c 23.352364
_cell_angle_alpha 90.000000
_cell_angle_beta 90.000000
_cell_angle_gamma 90.000000
_cell_volume 12734.812484
_symmetry_space_group_name_H-M "I -4 3 D"
_symmetry_group_IT_number 220
_symmetry_cell_setting 'cubic'
loop_
_space_group_symop_operation_xyz
x,y,z
1/4+y,3/4-x,1/4-z
-x,1/2-y,z
1/4-y,1/4+x,3/4-z
1/4-x,1/4+z,3/4-y
x,-y,1/2-z
3/4-x,1/4-z,1/4+y
3/4-z,1/4-y,1/4+x
1/2-x,y,-z
1/4+z,3/4-y,1/4-x
z,x,y
y,z,x
-y,1/2-z,x
z,-x,1/2-y
1/2-y,z,-x
-z,1/2-x,y
1/2-z,x,-y
y,-z,1/2-x
3/4-y,1/4-x,1/4+z
1/4+y,1/4+x,1/4+z
1/4+x,3/4-z,1/4-y
1/4+x,1/4+z,1/4+y
1/4-z,1/4+y,3/4-x
1/4+z,1/4+y,1/4+x
1/2+x,1/2+y,1/2+z
3/4+y,1/4-x,3/4-z
1/2-x,-y,1/2+z
3/4-y,3/4+x,1/4-z
3/4-x,3/4+z,1/4-y
1/2+x,1/2-y,-z
1/4-x,3/4-z,3/4+y
1/4-z,3/4-y,3/4+x
-x,1/2+y,1/2-z
3/4+z,1/4-y,3/4-x
1/2+z,1/2+x,1/2+y
1/2+y,1/2+z,1/2+x
1/2-y,-z,1/2+x
1/2+z,1/2-x,-y
-y,1/2+z,1/2-x
1/2-z,-x,1/2+y
-z,1/2+x,1/2-y
1/2+y,1/2-z,-x
1/4-y,3/4-x,3/4+z
3/4+y,3/4+x,3/4+z
3/4+x,1/4-z,3/4-y
3/4+x,3/4+z,3/4+y
3/4-z,3/4+y,1/4-x
3/4+z,3/4+y,3/4+x
loop_
_atom_site_type_symbol
_atom_site_label
_atom_site_fract_x
_atom_site_fract_y
_atom_site_fract_z
Si Si1 0.143311 0.643311 0.856691
Si Si2 0.439313 0.896722 0.092598
Si Si3 0.304956 0.950779 0.427788
Si Si4 0.685234 0.685234 0.685234
Si Si5 0.514550 0.161294 0.625711
Si Si6 0.300864 0.732954 0.072006
Si Si7 0.607621 0.922581 0.712997
O O1 0.104031 0.604030 0.895971
O O2 0.154012 0.704733 0.885110
O O3 0.435697 0.842636 0.135502
O O4 0.501092 0.907519 0.063643
O O5 0.424561 0.955422 0.125582
O O6 0.391166 0.882565 0.044802
O O7 0.238522 0.954838 0.438329
O O8 0.340022 0.967847 0.485319
O O9 0.322012 0.995338 0.378365
O O10 0.458698 0.192028 0.598255
O O11 0.314425 0.799922 0.071910
O O12 0.597755 0.936124 0.780590
#
# Coordination Sequence:
#
# PCOD8331091 Si02
#       7
#    16  48  48  16  48  48  48
#     4  12  24  45  61  92 136 174 222 268 314 403
#     4  11  23  41  64  92 134 176 219 274 333 398
#     4  10  20  38  63  93 127 168 219 269 327 394
#     4  12  27  45  58  95 136 183 225 274 317 415
#     4   9  19  37  63  93 125 166 209 265 328 393
#     4  11  22  39  66  93 126 170 218 271 330 392
#     4  11  23  43  68  99 129 166 219 284 349 405
#
# _framework density 21.358775999999999
#
# number of rings (size 3 to 8) (size 9 to 14) (size 15 to 20)
#    0.000    1.412    1.765    5.294    0.000    4.235 
#    0.000    5.294    0.000    0.000    0.000    0.000 
#    0.000    0.000    0.000    0.000    0.000    0.000 
#
# Total GULP energy -1685951.159417 kJ/mol
# GULP energy per Si atom -12396.699702 kJ/mol
# Density = 2.131016 g / cm^3
# Si number density = 21.358776 Si / 1000 Ang^3
#
#
#
# Elastic Constant Matrix: (Units=GPa)
#
#
# Indices 1 2 3 4 5 6 
#
# 1 102.9301 39.7513 39.7494 0.0000 0.0000 0.0000
# 2 39.7513 102.9301 39.7494 0.0000 0.0000 0.0000
# 3 39.7494 39.7494 102.9313 0.0000 0.0000 0.0000
# 4 0.0000 0.0000 0.0000 31.8765 0.0000 0.0000
# 5 0.0000 0.0000 0.0000 0.0000 31.8765 0.0000
# 6 0.0000 0.0000 0.0000 0.0000 0.0000 31.8766
#
#
#
# Elastic Compliance Matrix: (Units=1/GPa)
#
#
# Indices 1 2 3 4 5 6 
#
# 1 0.012379 -0.003449 -0.003449 0.000000 0.000000 0.000000
# 2 -0.003449 0.012379 -0.003449 0.000000 0.000000 0.000000
# 3 -0.003449 -0.003449 0.012379 0.000000 0.000000 0.000000
# 4 0.000000 0.000000 0.000000 0.031371 0.000000 0.000000
# 5 0.000000 0.000000 0.000000 0.000000 0.031371 0.000000
# 6 0.000000 0.000000 0.000000 0.000000 0.000000 0.031371
#
#
# Mechanical properties :
#
#
# Convention : Reuss Voigt Hill
#
# Bulk Modulus (GPa) = 60.81018 60.81018 60.81018
# Shear Modulus (GPa) = 31.76138 31.76200 31.76169
#
# Velocity S-wave (km/s) = 3.86040 3.86044 3.86042
# Velocity P-wave (km/s) = 6.95722 6.95725 6.95723
#
# Compressibility (1/GPa) = 0.01644462
#
# Stress axis : x y z
#
# Youngs Moduli (GPa) = 80.78135 80.78135 80.78390
#
# Poissons Ratio (x) = 0.27862 0.27859
# Poissons Ratio (y) = 0.27862 0.27859
# Poissons Ratio (z) = 0.27858 0.27858
#
# Static dielectric constant tensor:
#      x y z
#    x 3.860730 0.000000 0.000000 
#    y 0.000000 3.860730 0.000000 
#    z 0.000000 0.000000 3.860740 
# 
# 
# High freq. dielectric constant tensor:
#      x y z
#    x 1.836250 0.000000 0.000000 
#    y 0.000000 1.836250 0.000000 
#    z 0.000000 0.000000 1.836250 
# 
# From -- ./inp_files/533.got.cif
#   From: 2010.03.12/outbox.cif.g09.slc.cpg/sg220_cif.got.tgz:533.got - 2010.03.30 09:07:51.
