data_PCOD9000918
_publ_section_title
;
Structure prediction by ZEFSAII (Michael W. Deem and Ramdas Pophale) SiO2 
 PCOD9000918
Probable space group: P 1
;
_chemical_formula_sum "Si O2"
_cell_formula_units_Z 8
_cell_length_a 8.457408
_cell_length_b 8.072613
_cell_length_c 11.364896
_cell_angle_alpha 75.603030
_cell_angle_beta 141.890316
_cell_angle_gamma 119.583285
_cell_volume 402.069602
_symmetry_space_group_name_H-M "P 1"
_symmetry_group_IT_number 1
_symmetry_cell_setting 'triclinic'
loop_
_space_group_symop_operation_xyz
x,y,z
loop_
_atom_site_type_symbol
_atom_site_label
_atom_site_fract_x
_atom_site_fract_y
_atom_site_fract_z
Si Si1 0.025940 0.340490 0.008170
Si Si2 0.570164 0.359511 0.176734
Si Si3 0.599763 0.931857 0.953989
Si Si4 0.515874 0.638451 0.397119
Si Si5 0.013148 0.608966 0.570981
Si Si6 0.517581 0.541099 0.897305
Si Si7 0.792755 0.623610 0.788854
Si Si8 0.473386 0.945691 0.152200
O O1 0.284725 0.351493 0.073869
O O2 0.191492 0.474034 0.196272
O O3 0.863682 0.447285 0.833097
O O4 0.810336 0.124335 0.969203
O O5 0.863337 0.545592 0.367611
O O6 0.565351 0.155458 0.225652
O O7 0.558635 0.390537 0.026320
O O8 0.680241 0.758749 0.013386
O O9 0.273191 0.827582 0.719868
O O10 0.584855 0.962321 0.079530
O O11 0.739680 0.565456 0.499067
O O12 0.590994 0.664491 0.573519
O O13 0.574198 0.825263 0.318491
O O14 0.175708 0.484299 0.710690
O O15 0.629379 0.564257 0.827749
O O16 0.116339 0.816031 0.955776
#
# Coordination Sequence:
#
# PCOD9000918 Si02
#       8
#     1   1   1   1   1   1   1   1
#     4  10  22  40  66  92 123 161 206 257 308 365
#     4  11  22  42  65  93 124 163 207 254 306 369
#     4  10  20  43  60  95 123 161 200 254 313 358
#     4  10  21  42  63  87 126 167 204 254 306 365
#     4   9  21  40  62  87 126 162 201 251 308 361
#     4  10  22  38  66  87 130 160 203 254 307 363
#     4  11  21  41  62  95 125 163 204 259 306 364
#     4  11  23  38  68  90 127 161 209 253 308 363
#
# _framework density 19.897053
#
# number of rings (size 3 to 8) (size 9 to 14) (size 15 to 20)
#    0.750    1.000    1.250    4.500    0.000    4.000 
#    6.750    3.750    0.000    0.000    0.000    0.000 
#    0.000    0.000    0.000    0.000    0.000    0.000 
#
# Total GULP energy -44558.290967 kJ/mol
# GULP energy per Si atom -5569.786371 kJ/mol
# Density = 1.985177 g / cm^3
# Si number density = 19.897053 Si / 1000 Ang^3
#
#
#
# Elastic Constant Matrix: (Units=GPa)
#
#
# Indices 1 2 3 4 5 6 
#
# 1 68.7194 20.1234 30.4946 -13.0609 -19.6237 -2.7289
# 2 20.1234 68.9299 46.4416 -12.7799 -2.1101 4.5351
# 3 30.4946 46.4416 92.9442 -22.5203 -15.4836 15.3937
# 4 -13.0609 -12.7799 -22.5203 22.5946 6.0325 -1.2049
# 5 -19.6237 -2.1101 -15.4836 6.0325 20.2693 -7.3543
# 6 -2.7289 4.5351 15.3937 -1.2049 -7.3543 29.2379
#
#
#
# Elastic Compliance Matrix: (Units=1/GPa)
#
#
# Indices 1 2 3 4 5 6 
#
# 1 0.025400 -0.004935 -0.002793 0.003007 0.025051 0.011032
# 2 -0.004935 0.023908 -0.011644 0.002275 -0.012232 -0.001021
# 3 -0.002793 -0.011644 0.023056 0.012477 0.006961 -0.008328
# 4 0.003007 0.002275 0.012477 0.061485 -0.007824 -0.006075
# 5 0.025051 -0.012232 0.006961 -0.007824 0.088091 0.022406
# 6 0.011032 -0.001021 -0.008328 -0.006075 0.022406 0.045160
#
#
# Mechanical properties :
#
#
# Convention : Reuss Voigt Hill
#
# Bulk Modulus (GPa) = 29.74439 47.19029 38.46734
# Shear Modulus (GPa) = 15.77036 23.32262 19.54649
#
# Velocity S-wave (km/s) = 2.81837 3.42740 3.13770
# Velocity P-wave (km/s) = 5.05693 6.27945 5.70105
#
# Compressibility (1/GPa) = 0.03361979
#
# Stress axis : x y z
#
# Youngs Moduli (GPa) = 39.37052 41.82667 43.37275
#
# Poissons Ratio (x) = 0.20641 0.12113
# Poissons Ratio (y) = 0.19429 0.50505
# Poissons Ratio (z) = 0.10996 0.48704
#
# Static dielectric constant tensor:
#      x y z
#    x 1.728590 -0.017840 -0.029610 
#    y -0.017840 1.674610 -0.004580 
#    z -0.029610 -0.004580 1.754810 
# 
# From -- ./inp_files/3306.got.cif
#   From: 2010.05.17/outbox.cif.g08.bks.cpg/sg1_2_cif.got.tgz:3306.got - 2010.05.17 20:27:59.
