data_PCOD9000554
_publ_section_title
;
Structure prediction by ZEFSAII (Michael W. Deem and Ramdas Pophale) SiO2 
 PCOD9000554
Probable space group: P 1
;
_chemical_formula_sum "Si O2"
_cell_formula_units_Z 8
_cell_length_a 10.683000
_cell_length_b 7.409122
_cell_length_c 10.690135
_cell_angle_alpha 46.074928
_cell_angle_beta 142.147744
_cell_angle_gamma 109.647602
_cell_volume 328.353636
_symmetry_space_group_name_H-M "P 1"
_symmetry_group_IT_number 1
_symmetry_cell_setting 'triclinic'
loop_
_space_group_symop_operation_xyz
x,y,z
loop_
_atom_site_type_symbol
_atom_site_label
_atom_site_fract_x
_atom_site_fract_y
_atom_site_fract_z
Si Si1 0.022120 0.882290 0.568000
Si Si2 0.780564 0.458497 0.241785
Si Si3 0.334490 0.989869 0.564523
Si Si4 0.170526 0.883059 0.237158
Si Si5 0.287952 0.353527 0.725571
Si Si6 0.634184 0.726582 0.257505
Si Si7 0.641878 0.196967 0.610686
Si Si8 0.363541 0.261080 0.121197
O O1 0.171343 0.981708 0.549990
O O2 0.834571 0.817383 0.380956
O O3 0.194992 0.566750 0.906155
O O4 0.875730 0.136513 0.425955
O O5 0.012746 0.480703 0.437625
O O6 0.579621 0.693579 0.884228
O O7 0.366295 0.348863 0.935004
O O8 0.176134 0.038319 0.295741
O O9 0.447191 0.199335 0.550059
O O10 0.325744 0.552746 0.558926
O O11 0.265212 0.035567 0.142597
O O12 0.908317 0.966593 0.956025
O O13 0.405370 0.025410 0.938732
O O14 0.642050 0.499545 0.472621
O O15 0.658203 0.557352 0.230979
O O16 0.571304 0.131070 0.448532
#
# Coordination Sequence:
#
# PCOD9000554 Si02
#       8
#     1   1   1   1   1   1   1   1
#     4  12  25  46  79 115 158 206 257 325 393 466
#     4  12  24  47  79 113 154 208 261 321 392 464
#     4  11  24  45  74 113 157 204 262 318 391 469
#     4  11  22  47  78 118 159 202 264 329 388 473
#     4  12  24  49  80 115 159 210 261 325 396 471
#     4  12  27  48  80 116 157 209 262 322 397 472
#     4  11  24  47  78 111 166 201 258 333 387 465
#     4  11  24  47  78 119 158 200 271 323 390 476
#
# _framework density 24.363975
#
# number of rings (size 3 to 8) (size 9 to 14) (size 15 to 20)
#    0.000    0.500    5.000    3.000    1.750    0.000 
#    4.500    5.000    0.000    0.000    0.000    0.000 
#    0.000    0.000    0.000    0.000    0.000    0.000 
#
# Total GULP energy -44637.261775 kJ/mol
# GULP energy per Si atom -5579.657722 kJ/mol
# Density = 2.430852 g / cm^3
# Si number density = 24.363975 Si / 1000 Ang^3
#
#
#
# Elastic Constant Matrix: (Units=GPa)
#
#
# Indices 1 2 3 4 5 6 
#
# 1 77.5309 70.0995 52.2100 -9.0864 -1.2704 -1.3184
# 2 70.0995 120.0821 37.3918 -11.5320 -6.1692 6.6414
# 3 52.2100 37.3918 147.7545 13.9646 -13.4298 4.3775
# 4 -9.0864 -11.5320 13.9646 67.0452 -2.9827 0.6115
# 5 -1.2704 -6.1692 -13.4298 -2.9827 30.1670 -2.7637
# 6 -1.3184 6.6414 4.3775 0.6115 -2.7637 45.5546
#
#
#
# Elastic Compliance Matrix: (Units=1/GPa)
#
#
# Indices 1 2 3 4 5 6 
#
# 1 0.035933 -0.018379 -0.008985 0.003296 -0.005534 0.004203
# 2 -0.018379 0.018817 0.002124 0.000501 0.003771 -0.003257
# 3 -0.008985 0.002124 0.010081 -0.002756 0.004157 -0.001249
# 4 0.003296 0.000501 -0.002756 0.016048 0.000611 0.000109
# 5 -0.005534 0.003771 0.004157 0.000611 0.035694 0.001048
# 6 0.004203 -0.003257 -0.001249 0.000109 0.001048 0.022730
#
#
# Mechanical properties :
#
#
# Convention : Reuss Voigt Hill
#
# Bulk Modulus (GPa) = 69.68030 73.86334 71.77182
# Shear Modulus (GPa) = 25.69820 40.93110 33.31465
#
# Velocity S-wave (km/s) = 3.25123 4.10321 3.70181
# Velocity P-wave (km/s) = 6.53879 7.26848 6.91327
#
# Compressibility (1/GPa) = 0.01435126
#
# Stress axis : x y z
#
# Youngs Moduli (GPa) = 27.82965 53.14338 99.20004
#
# Poissons Ratio (x) = 0.97671 0.89132
# Poissons Ratio (y) = 0.51147 -0.21072
# Poissons Ratio (z) = 0.25005 -0.11289
#
# Static dielectric constant tensor:
#      x y z
#    x 2.017310 0.070590 -0.053460 
#    y 0.070590 2.034060 0.008330 
#    z -0.053460 0.008330 1.996850 
# 
# From -- ./inp_files/3932.got.cif
#   From: 2010.05.17/outbox.cif.g08.bks.cpg/sg1_2_cif.got.tgz:3932.got - 2010.05.17 20:27:59.
