data_PCOD9000729
_publ_section_title
;
Structure prediction by ZEFSAII (Michael W. Deem and Ramdas Pophale) SiO2 
 PCOD9000729
Probable space group: P 1
;
_chemical_formula_sum "Si O2"
_cell_formula_units_Z 8
_cell_length_a 7.969328
_cell_length_b 7.197012
_cell_length_c 8.592091
_cell_angle_alpha 126.563205
_cell_angle_beta 79.992414
_cell_angle_gamma 67.978410
_cell_volume 310.390247
_symmetry_space_group_name_H-M "P 1"
_symmetry_group_IT_number 1
_symmetry_cell_setting 'triclinic'
loop_
_space_group_symop_operation_xyz
x,y,z
loop_
_atom_site_type_symbol
_atom_site_label
_atom_site_fract_x
_atom_site_fract_y
_atom_site_fract_z
Si Si1 0.164150 0.918500 0.860900
Si Si2 0.916638 0.057410 0.270222
Si Si3 0.457593 0.359904 0.342174
Si Si4 0.364446 0.998641 0.394293
Si Si5 0.762354 0.068112 0.895932
Si Si6 0.452842 0.668583 0.929384
Si Si7 0.678887 0.009052 0.530287
Si Si8 0.912730 0.469036 0.705902
O O1 0.280859 0.684616 0.588358
O O2 0.361342 0.888099 0.902018
O O3 0.926623 0.147465 0.942007
O O4 0.100999 0.867774 0.019857
O O5 0.688080 0.238633 0.313631
O O6 0.881425 0.899450 0.332670
O O7 0.933085 0.297199 0.461370
O O8 0.392137 0.176281 0.346031
O O9 0.526580 0.289601 0.117128
O O10 0.556220 0.882784 0.426740
O O11 0.138844 0.231191 0.630837
O O12 0.357958 0.782549 0.174762
O O13 0.749645 0.985429 0.682612
O O14 0.877015 0.762443 0.815890
O O15 0.506662 0.361568 0.714081
O O16 0.697121 0.561452 0.866602
#
# Coordination Sequence:
#
# PCOD9000729 Si02
#       8
#     1   1   1   1   1   1   1   1
#     4  11  19  39  64  87 117 166 206 242 293 367
#     4   9  20  36  64  86 113 160 207 243 289 361
#     4  10  19  37  61  88 117 162 201 241 296 358
#     4  11  20  38  65  88 113 166 207 241 294 362
#     4  11  23  38  60  93 126 156 192 258 311 350
#     4  11  21  39  64  88 117 161 210 244 286 372
#     4  10  23  44  55  92 134 152 192 258 314 349
#     4  11  19  35  65  88 111 157 211 243 283 363
#
# _framework density 25.774007000000001
#
# number of rings (size 3 to 8) (size 9 to 14) (size 15 to 20)
#    0.000    1.500    7.500    0.000    0.000    0.000 
#    6.750    2.500    0.000    0.000    0.000    0.000 
#    0.000    0.000    0.000    0.000    0.000    0.000 
#
# Total GULP energy -44569.530966 kJ/mol
# GULP energy per Si atom -5571.191371 kJ/mol
# Density = 2.571534 g / cm^3
# Si number density = 25.774007 Si / 1000 Ang^3
#
#
#
# Elastic Constant Matrix: (Units=GPa)
#
#
# Indices 1 2 3 4 5 6 
#
# 1 46.8895 -5.9523 3.2529 1.8451 22.4422 -6.8992
# 2 -5.9523 35.7820 7.4084 -0.9240 12.4607 -6.3960
# 3 3.2529 7.4084 118.9766 -7.4818 -15.4462 -3.0833
# 4 1.8451 -0.9240 -7.4818 27.7344 -9.2600 8.4581
# 5 22.4422 12.4607 -15.4462 -9.2600 54.2464 -8.9323
# 6 -6.8992 -6.3960 -3.0833 8.4581 -8.9323 17.0087
#
#
#
# Elastic Compliance Matrix: (Units=1/GPa)
#
#
# Indices 1 2 3 4 5 6 
#
# 1 0.036735 0.016975 -0.005222 -0.015355 -0.020359 0.017281
# 2 0.016975 0.040857 -0.005539 -0.012624 -0.017085 0.018551
# 3 -0.005222 -0.005539 0.010127 0.005705 0.007043 -0.001504
# 4 -0.015355 -0.012624 0.005705 0.051699 0.015141 -0.027699
# 5 -0.020359 -0.017085 0.007043 0.015141 0.034946 -0.002583
# 6 0.017281 0.018551 -0.001504 -0.027699 -0.002583 0.084924
#
#
# Mechanical properties :
#
#
# Convention : Reuss Voigt Hill
#
# Bulk Modulus (GPa) = 9.98552 23.45176 16.71864
# Shear Modulus (GPa) = 17.84158 32.92717 25.38438
#
# Velocity S-wave (km/s) = 2.63388 3.57814 3.14169
# Velocity P-wave (km/s) = 3.62387 5.11757 4.43407
#
# Compressibility (1/GPa) = 0.10014500
#
# Stress axis : x y z
#
# Youngs Moduli (GPa) = 27.22188 24.47542 98.74786
#
# Poissons Ratio (x) = -0.41546 0.51568
# Poissons Ratio (y) = -0.46208 0.54701
# Poissons Ratio (z) = 0.14216 0.13558
#
# Static dielectric constant tensor:
#      x y z
#    x 2.281570 -0.039540 -0.050450 
#    y -0.039540 2.134200 -0.016320 
#    z -0.050450 -0.016320 2.055220 
# 
# From -- ./inp_files/3836.got.cif
#   From: 2010.05.17/outbox.cif.g08.bks.cpg/sg1_2_cif.got.tgz:3836.got - 2010.05.17 20:27:59.
