data_PCOD9000484
_publ_section_title
;
Structure prediction by ZEFSAII (Michael W. Deem and Ramdas Pophale) SiO2 
 PCOD9000484
Probable space group: P 1
;
_chemical_formula_sum "Si O2"
_cell_formula_units_Z 8
_cell_length_a 7.292737
_cell_length_b 12.421204
_cell_length_c 5.055885
_cell_angle_alpha 95.324621
_cell_angle_beta 97.607821
_cell_angle_gamma 137.943549
_cell_volume 291.219758
_symmetry_space_group_name_H-M "P 1"
_symmetry_group_IT_number 1
_symmetry_cell_setting 'triclinic'
loop_
_space_group_symop_operation_xyz
x,y,z
loop_
_atom_site_type_symbol
_atom_site_label
_atom_site_fract_x
_atom_site_fract_y
_atom_site_fract_z
Si Si1 0.533440 0.423850 0.270970
Si Si2 0.967906 0.344686 0.588552
Si Si3 0.613172 0.229234 0.987597
Si Si4 0.921953 0.870046 0.322315
Si Si5 0.971374 0.126772 0.354954
Si Si6 0.739328 0.520780 0.833294
Si Si7 0.570147 0.669238 0.701397
Si Si8 0.313959 0.902180 0.126606
O O1 0.697728 0.428810 0.532927
O O2 0.591959 0.549511 0.593371
O O3 0.194130 0.252421 0.191586
O O4 0.632697 0.546818 0.082974
O O5 0.722141 0.243896 0.730005
O O6 0.050547 0.254711 0.605953
O O7 0.251302 0.541775 0.714599
O O8 0.862474 0.311818 0.262160
O O9 0.616132 0.364298 0.004686
O O10 0.365073 0.036905 0.997460
O O11 0.786917 0.812219 0.990422
O O12 0.165377 0.885356 0.360594
O O13 0.669079 0.760513 0.463654
O O14 0.065140 0.050244 0.442153
O O15 0.628833 0.987960 0.218163
O O16 0.077589 0.709378 0.942387
#
# Coordination Sequence:
#
# PCOD9000484 Si02
#       8
#     1   1   1   1   1   1   1   1
#     4  12  25  47  74 106 144 190 245 292 357 434
#     4  11  25  44  72 103 145 189 238 296 359 423
#     4  11  25  45  69 106 146 186 239 298 357 423
#     4  11  25  46  72 105 144 191 237 295 357 432
#     4  11  26  47  75 111 140 193 243 296 355 432
#     4  11  25  44  72 104 145 193 236 293 363 424
#     4  11  24  45  70 102 147 191 236 292 367 418
#     4  10  25  46  72 107 149 187 236 298 365 418
#
# _framework density 27.470659999999999
#
# number of rings (size 3 to 8) (size 9 to 14) (size 15 to 20)
#    0.000    1.000    2.500    3.000    3.500   12.000 
#    0.000    1.250    0.000    0.000    0.000    0.000 
#    0.000    0.000    0.000    0.000    0.000    0.000 
#
# Total GULP energy -44569.690647 kJ/mol
# GULP energy per Si atom -5571.211331 kJ/mol
# Density = 2.740814 g / cm^3
# Si number density = 27.470660 Si / 1000 Ang^3
#
#
#
# Elastic Constant Matrix: (Units=GPa)
#
#
# Indices 1 2 3 4 5 6 
#
# 1 86.9493 40.3676 -4.9437 4.3162 -8.0141 -2.5089
# 2 40.3676 184.9700 40.5932 -4.4473 6.4717 41.0093
# 3 -4.9437 40.5932 123.7372 0.3875 11.2536 4.5431
# 4 4.3162 -4.4473 0.3875 38.2151 2.2518 8.2882
# 5 -8.0141 6.4717 11.2536 2.2518 28.5099 9.8894
# 6 -2.5089 41.0093 4.5431 8.2882 9.8894 63.3074
#
#
#
# Elastic Compliance Matrix: (Units=1/GPa)
#
#
# Indices 1 2 3 4 5 6 
#
# 1 0.014150 -0.004308 0.001556 -0.002991 0.003508 0.003083
# 2 -0.004308 0.008254 -0.002655 0.002714 -0.000296 -0.005636
# 3 0.001556 -0.002655 0.009240 -0.000764 -0.003140 0.001709
# 4 -0.002991 0.002714 -0.000764 0.028060 -0.001549 -0.005253
# 5 0.003508 -0.000296 -0.003140 -0.001549 0.039360 -0.005390
# 6 0.003083 -0.005636 0.001709 -0.005253 -0.005390 0.020976
#
#
# Mechanical properties :
#
#
# Convention : Reuss Voigt Hill
#
# Bulk Modulus (GPa) = 48.00587 60.85453 54.43020
# Shear Modulus (GPa) = 36.28527 47.31575 41.80051
#
# Velocity S-wave (km/s) = 3.63833 4.15470 3.90505
# Velocity P-wave (km/s) = 5.92985 6.72428 6.33952
#
# Compressibility (1/GPa) = 0.02083079
#
# Stress axis : x y z
#
# Youngs Moduli (GPa) = 70.67102 121.15121 108.22658
#
# Poissons Ratio (x) = 0.52188 -0.16836
# Poissons Ratio (y) = 0.30443 0.28730
# Poissons Ratio (z) = -0.10994 0.32161
#
# Static dielectric constant tensor:
#      x y z
#    x 2.378400 -0.162590 -0.166480 
#    y -0.162590 2.123930 0.115050 
#    z -0.166480 0.115050 2.488610 
# 
# From -- ./inp_files/1882.got.cif
#   From: 2010.05.17/outbox.cif.g08.bks.cpg/sg1_1_cif.got.tgz:1882.got - 2010.05.17 20:27:59.
