data_PCOD9000689
_publ_section_title
;
Structure prediction by ZEFSAII (Michael W. Deem and Ramdas Pophale) SiO2 
 PCOD9000689
Probable space group: P 1
;
_chemical_formula_sum "Si O2"
_cell_formula_units_Z 8
_cell_length_a 7.843223
_cell_length_b 11.160279
_cell_length_c 15.212929
_cell_angle_alpha 154.873932
_cell_angle_beta 129.420503
_cell_angle_gamma 39.203140
_cell_volume 346.217449
_symmetry_space_group_name_H-M "P 1"
_symmetry_group_IT_number 1
_symmetry_cell_setting 'triclinic'
loop_
_space_group_symop_operation_xyz
x,y,z
loop_
_atom_site_type_symbol
_atom_site_label
_atom_site_fract_x
_atom_site_fract_y
_atom_site_fract_z
Si Si1 0.848120 0.728150 0.436320
Si Si2 0.859229 0.718594 0.066581
Si Si3 0.791467 0.534464 0.479056
Si Si4 0.575866 0.489120 0.698666
Si Si5 0.189961 0.749621 0.063857
Si Si6 0.240034 0.438568 0.688669
Si Si7 0.745503 0.697858 0.206834
Si Si8 0.416198 0.587510 0.518285
O O1 0.844174 0.673428 0.502448
O O2 0.900664 0.487070 0.207763
O O3 0.094696 0.758442 0.526337
O O4 0.524306 0.041921 0.522696
O O5 0.885571 0.556996 0.063860
O O6 0.142183 0.637446 0.067473
O O7 0.612266 0.150534 0.281564
O O8 0.766696 0.561958 0.860112
O O9 0.495037 0.725216 0.553779
O O10 0.991775 0.470438 0.581695
O O11 0.907474 0.146690 0.226644
O O12 0.322371 0.628721 0.776219
O O13 0.491102 0.649428 0.679978
O O14 0.704439 0.072525 0.449628
O O15 0.454651 0.751708 0.144620
O O16 0.191072 0.555852 0.850439
#
# Coordination Sequence:
#
# PCOD9000689 Si02
#       8
#     1   1   1   1   1   1   1   1
#     4  11  23  43  62  96 128 168 206 262 316 374
#     4  10  21  38  67  94 123 166 211 261 311 372
#     4  11  22  45  65  91 129 168 208 264 312 372
#     4  10  18  39  64  90 122 167 203 255 314 366
#     4  11  21  41  67  94 123 168 214 254 316 376
#     4  11  22  41  69  91 126 169 209 259 318 372
#     4  10  21  39  61  91 126 165 207 255 310 374
#     4  10  22  40  65  93 127 165 212 258 315 374
#
# _framework density 23.106864999999999
#
# number of rings (size 3 to 8) (size 9 to 14) (size 15 to 20)
#    0.000    1.500    5.000    1.500    0.000    1.000 
#   13.500    0.000    0.000    0.000    0.000    0.000 
#    0.000    0.000    0.000    0.000    0.000    0.000 
#
# Total GULP energy -44581.346290 kJ/mol
# GULP energy per Si atom -5572.668286 kJ/mol
# Density = 2.305427 g / cm^3
# Si number density = 23.106865 Si / 1000 Ang^3
#
#
#
# Elastic Constant Matrix: (Units=GPa)
#
#
# Indices 1 2 3 4 5 6 
#
# 1 183.5657 28.3099 22.9208 -22.3866 -24.0957 7.5435
# 2 28.3099 59.8124 32.4633 -26.7786 -14.2501 -1.3293
# 3 22.9208 32.4633 80.0140 -27.5792 -9.2110 10.1435
# 4 -22.3866 -26.7786 -27.5792 32.9051 16.9119 0.5711
# 5 -24.0957 -14.2501 -9.2110 16.9119 14.9035 -26.3520
# 6 7.5435 -1.3293 10.1435 0.5711 -26.3520 -18.4775
#
#
#
# Elastic Compliance Matrix: (Units=1/GPa)
#
#
# Indices 1 2 3 4 5 6 
#
# 1 0.006406 -0.001690 -0.000062 0.001189 0.003464 -0.002200
# 2 -0.001690 0.027847 -0.004369 0.019101 -0.002397 -0.001083
# 3 -0.000062 -0.004369 0.017203 0.008676 0.004030 0.004253
# 4 0.001189 0.019101 0.008676 0.058141 -0.008632 0.017982
# 5 0.003464 -0.002397 0.004030 -0.008632 0.025254 -0.032485
# 6 -0.002200 -0.001083 0.004253 0.017982 -0.032485 -0.005721
#
#
# Mechanical properties :
#
#
# Convention : Reuss Voigt Hill
#
# Bulk Modulus (GPa) = 25.50026 54.53114 40.01570
# Shear Modulus (GPa) = 32.37457 21.84609 27.11033
#
# Velocity S-wave (km/s) = 3.74716 3.07813 3.42900
# Velocity P-wave (km/s) = 5.45723 6.02362 5.74741
#
# Compressibility (1/GPa) = 0.03921529
#
# Stress axis : x y z
#
# Youngs Moduli (GPa) = 156.10209 35.91103 58.12844
#
# Poissons Ratio (x) = 0.06068 0.00360
# Poissons Ratio (y) = 0.26376 0.25394
# Poissons Ratio (z) = 0.00968 0.15688
#
# Static dielectric constant tensor:
#      x y z
#    x 1.988560 0.109720 0.009760 
#    y 0.109720 1.938010 0.044720 
#    z 0.009760 0.044720 1.907790 
# 
# From -- ./inp_files/6563.got.cif
#   From: 2010.05.17/outbox.cif.g08.bks.cpg/sg1_4_cif.got.tgz:6563.got - 2010.05.17 20:27:59.
