data_PCOD9000420
_publ_section_title
;
Structure prediction by ZEFSAII (Michael W. Deem and Ramdas Pophale) SiO2 
 PCOD9000420
Probable space group: P 1
;
_chemical_formula_sum "Si O2"
_cell_formula_units_Z 8
_cell_length_a 8.321095
_cell_length_b 5.046028
_cell_length_c 11.951265
_cell_angle_alpha 94.072818
_cell_angle_beta 143.670442
_cell_angle_gamma 79.645973
_cell_volume 290.096425
_symmetry_space_group_name_H-M "P 1"
_symmetry_group_IT_number 1
_symmetry_cell_setting 'triclinic'
loop_
_space_group_symop_operation_xyz
x,y,z
loop_
_atom_site_type_symbol
_atom_site_label
_atom_site_fract_x
_atom_site_fract_y
_atom_site_fract_z
Si Si1 0.827670 0.664590 0.714510
Si Si2 0.218914 0.948229 0.788375
Si Si3 0.756379 0.419890 0.449825
Si Si4 0.732633 0.547040 0.008303
Si Si5 0.046646 0.984465 0.113155
Si Si6 0.999941 0.628358 0.389730
Si Si7 0.313958 0.065783 0.494584
Si Si8 0.290201 0.192931 0.053058
O O1 0.659953 0.533254 0.521678
O O2 0.619324 0.885485 0.674810
O O3 0.023295 0.806406 0.751444
O O4 0.018648 0.424708 0.882241
O O5 0.427265 0.727340 0.828077
O O6 0.027927 0.188108 0.620640
O O7 0.386631 0.079575 0.981207
O O8 0.523283 0.306415 0.251439
O O9 0.851227 0.632735 0.425219
O O10 0.789718 0.242477 0.986596
O O11 0.797787 0.551700 0.177754
O O12 0.948861 0.711556 0.081246
O O13 0.195360 0.980077 0.077666
O O14 0.248803 0.061116 0.325132
O O15 0.097717 0.901278 0.421636
O O16 0.256878 0.370349 0.516292
#
# Coordination Sequence:
#
# PCOD9000420 Si02
#       8
#     1   1   1   1   1   1   1   1
#     4  11  27  46  72 107 144 188 243 298 351 436
#     4  11  27  46  72 107 144 188 243 298 351 436
#     4  11  27  46  74 105 144 191 240 295 363 424
#     4  10  24  44  72 105 145 184 243 293 355 431
#     4  10  24  44  72 106 141 192 234 297 359 424
#     4  10  24  44  72 106 141 192 234 297 359 424
#     4  10  24  44  72 105 145 184 243 293 355 431
#     4  11  27  46  74 105 144 191 240 295 363 424
#
# _framework density 27.577038000000002
#
# number of rings (size 3 to 8) (size 9 to 14) (size 15 to 20)
#    0.000    1.500    0.000    1.500   21.000    4.000 
#    0.000    0.000    0.000    0.000    0.000    0.000 
#    0.000    0.000    0.000    0.000    0.000    0.000 
#
# Total GULP energy -44975.338583 kJ/mol
# GULP energy per Si atom -5621.917323 kJ/mol
# Density = 2.751427 g / cm^3
# Si number density = 27.577038 Si / 1000 Ang^3
#
#
#
# Elastic Constant Matrix: (Units=GPa)
#
#
# Indices 1 2 3 4 5 6 
#
# 1 94.0014 22.2166 36.8930 -7.0963 -16.2233 4.9147
# 2 22.2166 113.0345 28.9434 -7.9927 -6.5938 -15.7686
# 3 36.8930 28.9434 133.1561 9.9546 -16.1597 -12.2887
# 4 -7.0963 -7.9927 9.9546 50.6479 -7.9110 4.2650
# 5 -16.2233 -6.5938 -16.1597 -7.9110 51.1880 -5.7604
# 6 4.9147 -15.7686 -12.2887 4.2650 -5.7604 69.5316
#
#
#
# Elastic Compliance Matrix: (Units=1/GPa)
#
#
# Indices 1 2 3 4 5 6 
#
# 1 0.013170 -0.001605 -0.003296 0.002886 0.003171 -0.001792
# 2 -0.001605 0.010011 -0.001567 0.001608 0.000768 0.002072
# 3 -0.003296 -0.001567 0.009296 -0.002451 0.001511 0.001796
# 4 0.002886 0.001608 -0.002451 0.021545 0.003531 -0.001302
# 5 0.003171 0.000768 0.001511 0.003531 0.021867 0.001812
# 6 -0.001792 0.002072 0.001796 -0.001302 0.001812 0.015526
#
#
# Mechanical properties :
#
#
# Convention : Reuss Voigt Hill
#
# Bulk Modulus (GPa) = 51.17714 57.36645 54.27179
# Shear Modulus (GPa) = 45.09927 51.08278 48.09103
#
# Velocity S-wave (km/s) = 4.04839 4.30858 4.18051
# Velocity P-wave (km/s) = 6.36009 6.75272 6.55934
#
# Compressibility (1/GPa) = 0.01953998
#
# Stress axis : x y z
#
# Youngs Moduli (GPa) = 75.92947 99.88796 107.56864
#
# Poissons Ratio (x) = 0.16036 0.35458
# Poissons Ratio (y) = 0.12190 0.16857
# Poissons Ratio (z) = 0.25029 0.15654
#
# Static dielectric constant tensor:
#      x y z
#    x 2.076100 -0.044650 0.003710 
#    y -0.044650 2.142970 0.035840 
#    z 0.003710 0.035840 2.202230 
# 
# From -- ./inp_files/6270.got.cif
#   From: 2010.05.17/outbox.cif.g08.bks.cpg/sg1_4_cif.got.tgz:6270.got - 2010.05.17 20:27:59.
