data_PCOD9000785
_publ_section_title
;
Structure prediction by ZEFSAII (Michael W. Deem and Ramdas Pophale) SiO2 
 PCOD9000785
Probable space group: P 1
;
_chemical_formula_sum "Si O2"
_cell_formula_units_Z 6
_cell_length_a 8.542945
_cell_length_b 4.978815
_cell_length_c 7.437203
_cell_angle_alpha 61.732949
_cell_angle_beta 53.697405
_cell_angle_gamma 82.123842
_cell_volume 219.904938
_symmetry_space_group_name_H-M "P 1"
_symmetry_group_IT_number 1
_symmetry_cell_setting 'triclinic'
loop_
_space_group_symop_operation_xyz
x,y,z
loop_
_atom_site_type_symbol
_atom_site_label
_atom_site_fract_x
_atom_site_fract_y
_atom_site_fract_z
Si Si1 0.419630 0.876710 0.786980
Si Si2 0.832762 0.830981 0.474005
Si Si3 0.850064 0.970216 0.025274
Si Si4 0.453392 0.144079 0.301944
Si Si5 0.234812 0.703050 0.310024
Si Si6 0.053779 0.451355 0.976541
O O1 0.626067 0.782832 0.729279
O O2 0.480357 0.122362 0.506075
O O3 0.317618 0.953945 0.015245
O O4 0.254458 0.619565 0.880982
O O5 0.782929 0.771479 0.316098
O O6 0.999366 0.646561 0.474481
O O7 0.939140 0.196969 0.279181
O O8 0.927776 0.719700 0.932129
O O9 0.663861 0.130586 0.067613
O O10 0.037923 0.230333 0.881981
O O11 0.336203 0.420656 0.274661
O O12 0.312513 0.846420 0.401255
#
# Coordination Sequence:
#
# PCOD9000785 Si02
#       6
#     1   1   1   1   1   1
#     4  11  24  51  77 102 144 211 218 302 387 402
#     4   9  23  44  72 105 144 183 243 295 351 433
#     4   9  20  42  69  96 145 182 224 302 342 410
#     4  11  27  46  74 107 148 185 247 297 354 438
#     4  12  25  49  69 114 146 180 250 306 340 445
#     4  10  19  42  73 100 135 187 238 284 350 428
#
# _framework density 27.284514000000001
#
# number of rings (size 3 to 8) (size 9 to 14) (size 15 to 20)
#    1.000    0.667    1.667    2.000    0.000    4.000 
#   18.000    0.000    0.000    0.000    0.000    0.000 
#    0.000    0.000    0.000    0.000    0.000    0.000 
#
# Total GULP energy -33540.809887 kJ/mol
# GULP energy per Si atom -5590.134981 kJ/mol
# Density = 2.722241 g / cm^3
# Si number density = 27.284514 Si / 1000 Ang^3
#
#
#
# Elastic Constant Matrix: (Units=GPa)
#
#
# Indices 1 2 3 4 5 6 
#
# 1 140.3126 35.5872 36.3297 11.3383 -28.9839 -38.3661
# 2 35.5872 154.0226 13.0649 3.3628 -16.2966 -28.2845
# 3 36.3297 13.0649 100.3248 26.5760 -23.4771 -12.7209
# 4 11.3383 3.3628 26.5760 33.8798 -1.0327 -2.2697
# 5 -28.9839 -16.2966 -23.4771 -1.0327 56.8259 14.5064
# 6 -38.3661 -28.2845 -12.7209 -2.2697 14.5064 53.7352
#
#
#
# Elastic Compliance Matrix: (Units=1/GPa)
#
#
# Indices 1 2 3 4 5 6 
#
# 1 0.009967 -0.000832 -0.001816 -0.001381 0.002674 0.005469
# 2 -0.000832 0.007339 -0.000002 -0.000219 0.000906 0.003015
# 3 -0.001816 -0.000002 0.014642 -0.010702 0.004822 0.000414
# 4 -0.001381 -0.000219 -0.010702 0.038207 -0.004273 -0.000867
# 5 0.002674 0.000906 0.004822 -0.004273 0.021782 -0.002533
# 6 0.005469 0.003015 0.000414 -0.000867 -0.002533 0.024847
#
#
# Mechanical properties :
#
#
# Convention : Reuss Voigt Hill
#
# Bulk Modulus (GPa) = 37.52677 62.73595 50.13136
# Shear Modulus (GPa) = 38.17764 49.53341 43.85552
#
# Velocity S-wave (km/s) = 3.74470 4.26542 4.01352
# Velocity P-wave (km/s) = 5.69919 6.87761 6.31595
#
# Compressibility (1/GPa) = 0.02664764
#
# Stress axis : x y z
#
# Youngs Moduli (GPa) = 100.32787 136.25469 68.29876
#
# Poissons Ratio (x) = 0.11331 0.12405
# Poissons Ratio (y) = 0.08343 0.00016
# Poissons Ratio (z) = 0.18222 0.00033
#
# Static dielectric constant tensor:
#      x y z
#    x 2.120120 -0.094700 0.045860 
#    y -0.094700 2.109720 -0.028830 
#    z 0.045860 -0.028830 2.222040 
# 
# From -- ./inp_files/2920.got.cif
#   From: 2010.05.17/outbox.cif.g08.bks.cpg/sg1_2_cif.got.tgz:2920.got - 2010.05.17 20:27:59.
