data_PCOD9000982
_publ_section_title
;
Structure prediction by ZEFSAII (Michael W. Deem and Ramdas Pophale) SiO2 
 PCOD9000982
Probable space group: P 1
;
_chemical_formula_sum "Si O2"
_cell_formula_units_Z 8
_cell_length_a 11.337827
_cell_length_b 7.572433
_cell_length_c 5.253366
_cell_angle_alpha 95.868997
_cell_angle_beta 87.499328
_cell_angle_gamma 46.301859
_cell_volume 320.257976
_symmetry_space_group_name_H-M "P 1"
_symmetry_group_IT_number 1
_symmetry_cell_setting 'triclinic'
loop_
_space_group_symop_operation_xyz
x,y,z
loop_
_atom_site_type_symbol
_atom_site_label
_atom_site_fract_x
_atom_site_fract_y
_atom_site_fract_z
Si Si1 0.008420 0.546450 0.852890
Si Si2 0.175519 0.835180 0.171466
Si Si3 0.634091 0.796502 0.404139
Si Si4 0.937677 0.290200 0.546469
Si Si5 0.527096 0.973341 0.945384
Si Si6 0.191406 0.442427 0.320060
Si Si7 0.528414 0.601724 0.063170
Si Si8 0.865777 0.059281 0.867920
O O1 0.155487 0.417028 0.606285
O O2 0.957415 0.397236 0.800924
O O3 0.053602 0.535665 0.137753
O O4 0.885033 0.829015 0.805204
O O5 0.195941 0.650898 0.338002
O O6 0.359157 0.679687 0.031983
O O7 0.108888 0.078727 0.356250
O O8 0.028687 0.942402 0.002248
O O9 0.806924 0.530434 0.424779
O O10 0.649858 0.887780 0.152638
O O11 0.522307 0.742659 0.326218
O O12 0.559453 0.998753 0.661072
O O13 0.879721 0.157607 0.621779
O O14 0.552371 0.733122 0.873107
O O15 0.354335 0.201287 0.124730
O O16 0.688784 0.308966 0.028892
#
# Coordination Sequence:
#
# PCOD9000982 Si02
#       8
#     1   1   1   1   1   1   1   1
#     4  11  27  42  74 100 143 187 236 289 362 409
#     4  11  24  43  74 100 142 194 232 285 371 406
#     4  10  22  40  66 100 134 183 228 290 340 419
#     4  12  23  44  74  98 141 196 229 289 367 413
#     4  10  21  39  65  91 144 171 225 290 339 399
#     4  11  24  46  62 111 142 180 240 301 333 439
#     4  10  23  41  70 101 139 183 233 289 350 412
#     4  11  24  49  67 107 147 178 241 301 334 439
#
# _framework density 24.979863000000002
#
# number of rings (size 3 to 8) (size 9 to 14) (size 15 to 20)
#    0.750    0.500    3.750    1.500    5.250    1.000 
#    0.000    2.500    0.000    0.000    0.000    0.000 
#    0.000    0.000    0.000    0.000    0.000    0.000 
#
# Total GULP energy -44664.987415 kJ/mol
# GULP energy per Si atom -5583.123427 kJ/mol
# Density = 2.492301 g / cm^3
# Si number density = 24.979863 Si / 1000 Ang^3
#
#
#
# Elastic Constant Matrix: (Units=GPa)
#
#
# Indices 1 2 3 4 5 6 
#
# 1 65.5568 25.2666 10.9011 4.8969 -7.7442 -11.8712
# 2 25.2666 123.9028 19.2710 31.6327 -5.2399 -12.6656
# 3 10.9011 19.2710 113.4646 11.1223 -9.4701 -5.7463
# 4 4.8969 31.6327 11.1223 40.3965 2.8215 -1.1744
# 5 -7.7442 -5.2399 -9.4701 2.8215 30.1868 1.8090
# 6 -11.8712 -12.6656 -5.7463 -1.1744 1.8090 40.8450
#
#
#
# Elastic Compliance Matrix: (Units=1/GPa)
#
#
# Indices 1 2 3 4 5 6 
#
# 1 0.017641 -0.003005 -0.000719 0.000282 0.003516 0.003946
# 2 -0.003005 0.011180 -0.000549 -0.008290 0.001640 0.002205
# 3 -0.000719 -0.000549 0.009475 -0.002269 0.002859 0.000762
# 4 0.000282 -0.008290 -0.002269 0.032136 -0.004983 -0.001663
# 5 0.003516 0.001640 0.002859 -0.004983 0.035664 0.000210
# 6 0.003946 0.002205 0.000762 -0.001663 0.000210 0.026364
#
#
# Mechanical properties :
#
#
# Convention : Reuss Voigt Hill
#
# Bulk Modulus (GPa) = 33.61357 45.97794 39.79576
# Shear Modulus (GPa) = 33.12947 38.78468 35.95708
#
# Velocity S-wave (km/s) = 3.64572 3.94463 3.79811
# Velocity P-wave (km/s) = 5.58634 6.26041 5.93295
#
# Compressibility (1/GPa) = 0.02974989
#
# Stress axis : x y z
#
# Youngs Moduli (GPa) = 56.68726 89.44311 105.53746
#
# Poissons Ratio (x) = 0.26882 0.07585
# Poissons Ratio (y) = 0.17037 0.05794
# Poissons Ratio (z) = 0.04074 0.04910
#
# Static dielectric constant tensor:
#      x y z
#    x 2.025030 -0.054790 -0.027410 
#    y -0.054790 2.006280 -0.027750 
#    z -0.027410 -0.027750 2.058900 
# 
# From -- ./inp_files/2193.got.cif
#   From: 2010.05.17/outbox.cif.g08.bks.cpg/sg1_2_cif.got.tgz:2193.got - 2010.05.17 20:27:59.
