data_PCOD9000618
_publ_section_title
;
Structure prediction by ZEFSAII (Michael W. Deem and Ramdas Pophale) SiO2 
 PCOD9000618
Probable space group: P 1
;
_chemical_formula_sum "Si O2"
_cell_formula_units_Z 8
_cell_length_a 10.808788
_cell_length_b 11.332814
_cell_length_c 5.497319
_cell_angle_alpha 114.646739
_cell_angle_beta 47.888163
_cell_angle_gamma 140.879034
_cell_volume 307.432536
_symmetry_space_group_name_H-M "P 1"
_symmetry_group_IT_number 1
_symmetry_cell_setting 'triclinic'
loop_
_space_group_symop_operation_xyz
x,y,z
loop_
_atom_site_type_symbol
_atom_site_label
_atom_site_fract_x
_atom_site_fract_y
_atom_site_fract_z
Si Si1 0.719110 0.449550 0.248120
Si Si2 0.657864 0.017868 0.447568
Si Si3 0.520082 0.613969 0.760815
Si Si4 0.230836 0.432530 0.490073
Si Si5 0.924529 0.424297 0.582218
Si Si6 0.985093 0.023221 0.302444
Si Si7 0.348984 0.032078 0.579808
Si Si8 0.203166 0.770874 0.169975
O O1 0.574739 0.494318 0.546719
O O2 0.576625 0.253891 0.403803
O O3 0.996049 0.644465 0.128422
O O4 0.722847 0.412749 0.926970
O O5 0.830533 0.242677 0.421146
O O6 0.463492 0.958418 0.451848
O O7 0.842780 0.003532 0.234194
O O8 0.475605 0.909643 0.826504
O O9 0.351135 0.536984 0.676834
O O10 0.766752 0.839083 0.595263
O O11 0.406507 0.559670 0.133384
O O12 0.018668 0.415656 0.702461
O O13 0.121051 0.224144 0.424139
O O14 0.119186 0.612297 0.330936
O O15 0.172780 0.016100 0.972236
O O16 0.197309 0.904562 0.431728
#
# Coordination Sequence:
#
# PCOD9000618 Si02
#       8
#     1   1   1   1   1   1   1   1
#     4  12  27  47  76 107 153 200 255 317 383 457
#     4  11  25  48  74 109 145 196 251 313 382 455
#     4  12  28  50  78 111 154 205 254 314 389 454
#     4  11  29  49  76 113 157 199 253 323 379 458
#     4  11  25  46  75 108 149 199 251 313 383 456
#     4  11  27  49  75 112 154 201 258 319 381 460
#     4  12  26  49  76 107 152 200 252 318 381 458
#     4  12  25  46  78 105 148 198 252 313 386 452
#
# _framework density 26.021967
#
# number of rings (size 3 to 8) (size 9 to 14) (size 15 to 20)
#    0.000    0.500    3.750    3.000   10.500    2.000 
#    0.000    0.000    0.000    0.000    0.000    0.000 
#    0.000    0.000    0.000    0.000    0.000    0.000 
#
# Total GULP energy -44752.534971 kJ/mol
# GULP energy per Si atom -5594.066871 kJ/mol
# Density = 2.596274 g / cm^3
# Si number density = 26.021967 Si / 1000 Ang^3
#
#
#
# Elastic Constant Matrix: (Units=GPa)
#
#
# Indices 1 2 3 4 5 6 
#
# 1 70.2506 20.0429 16.0858 -2.9489 6.3454 1.6844
# 2 20.0429 96.8242 48.5958 -36.3316 17.7387 0.3744
# 3 16.0858 48.5958 116.7754 -18.0374 4.7184 -2.1545
# 4 -2.9489 -36.3316 -18.0374 51.4044 -7.2810 4.2317
# 5 6.3454 17.7387 4.7184 -7.2810 25.6709 -3.3000
# 6 1.6844 0.3744 -2.1545 4.2317 -3.3000 34.8407
#
#
#
# Elastic Compliance Matrix: (Units=1/GPa)
#
#
# Indices 1 2 3 4 5 6 
#
# 1 0.015465 -0.002907 -0.001125 -0.001813 -0.002221 -0.000776
# 2 -0.002907 0.019391 -0.005737 0.010462 -0.008986 -0.002544
# 3 -0.001125 -0.005737 0.011030 -0.000001 0.002346 0.001020
# 4 -0.001813 0.010462 -0.000001 0.027081 0.000480 -0.003269
# 5 -0.002221 -0.008986 0.002346 0.000480 0.046015 0.004649
# 6 -0.000776 -0.002544 0.001020 -0.003269 0.004649 0.029667
#
#
# Mechanical properties :
#
#
# Convention : Reuss Voigt Hill
#
# Bulk Modulus (GPa) = 37.95421 50.36657 44.16039
# Shear Modulus (GPa) = 28.25345 35.65824 31.95585
#
# Velocity S-wave (km/s) = 3.29865 3.70579 3.50813
# Velocity P-wave (km/s) = 5.39678 6.14068 5.78071
#
# Compressibility (1/GPa) = 0.02634754
#
# Stress axis : x y z
#
# Youngs Moduli (GPa) = 64.66258 51.57067 90.66373
#
# Poissons Ratio (x) = 0.14991 0.10201
# Poissons Ratio (y) = 0.18797 0.52013
# Poissons Ratio (z) = 0.07276 0.29586
#
# Static dielectric constant tensor:
#      x y z
#    x 2.155460 0.024170 0.012170 
#    y 0.024170 1.971330 0.042240 
#    z 0.012170 0.042240 2.051130 
# 
# From -- ./inp_files/2207.got.cif
#   From: 2010.05.17/outbox.cif.g08.bks.cpg/sg1_2_cif.got.tgz:2207.got - 2010.05.17 20:27:59.
