data_PCOD9000417
_publ_section_title
;
Structure prediction by ZEFSAII (Michael W. Deem and Ramdas Pophale) SiO2 
 PCOD9000417
Probable space group: P 1
;
_chemical_formula_sum "Si O2"
_cell_formula_units_Z 8
_cell_length_a 7.825465
_cell_length_b 4.937845
_cell_length_c 8.662153
_cell_angle_alpha 106.422689
_cell_angle_beta 73.492984
_cell_angle_gamma 85.614960
_cell_volume 303.319186
_symmetry_space_group_name_H-M "P 1"
_symmetry_group_IT_number 1
_symmetry_cell_setting 'triclinic'
loop_
_space_group_symop_operation_xyz
x,y,z
loop_
_atom_site_type_symbol
_atom_site_label
_atom_site_fract_x
_atom_site_fract_y
_atom_site_fract_z
Si Si1 0.184490 0.855040 0.302570
Si Si2 0.312724 0.191654 0.087757
Si Si3 0.846644 0.941573 0.203085
Si Si4 0.657357 0.877679 0.546137
Si Si5 0.289074 0.764339 0.782017
Si Si6 0.995879 0.831921 0.651740
Si Si7 0.842783 0.363944 0.993903
Si Si8 0.566359 0.388100 0.848525
O O1 0.232140 0.515561 0.206323
O O2 0.134868 0.905712 0.499483
O O3 0.006239 0.011562 0.282944
O O4 0.332139 0.008029 0.208729
O O5 0.507461 0.173309 0.955510
O O6 0.213392 0.049802 0.949413
O O7 0.697085 0.869401 0.352835
O O8 0.934036 0.630487 0.063088
O O9 0.795995 0.194151 0.132739
O O10 0.463554 0.803732 0.636699
O O11 0.831091 0.729039 0.582582
O O12 0.651810 0.206242 0.653376
O O13 0.133730 0.649061 0.707439
O O14 0.382493 0.561247 0.859215
O O15 0.920695 0.112710 0.815129
O O16 0.689851 0.544780 0.947996
#
# Coordination Sequence:
#
# PCOD9000417 Si02
#       8
#     1   1   1   1   1   1   1   1
#     4  11  23  44  67 103 137 175 228 290 332 406
#     4  11  23  43  68  96 139 178 224 282 340 396
#     4  11  24  44  70 100 136 178 230 282 341 406
#     4   9  24  44  67 101 141 177 228 283 340 405
#     4  11  22  46  72  99 141 183 223 283 342 406
#     4  10  24  46  68 104 134 185 228 280 343 410
#     4  11  26  43  72  98 136 185 227 280 346 404
#     4  10  24  44  68 101 142 179 228 284 338 411
#
# _framework density 26.374858
#
# number of rings (size 3 to 8) (size 9 to 14) (size 15 to 20)
#    0.000    1.500    1.250    2.250    7.000    3.000 
#    9.000    0.000    0.000    0.000    0.000    0.000 
#    0.000    0.000    0.000    0.000    0.000    0.000 
#
# Total GULP energy -44647.437810 kJ/mol
# GULP energy per Si atom -5580.929726 kJ/mol
# Density = 2.631483 g / cm^3
# Si number density = 26.374858 Si / 1000 Ang^3
#
#
#
# Elastic Constant Matrix: (Units=GPa)
#
#
# Indices 1 2 3 4 5 6 
#
# 1 79.9011 26.9176 14.8450 -6.6911 11.9605 -24.9661
# 2 26.9176 131.4305 45.1881 -11.6973 4.7829 -7.4108
# 3 14.8450 45.1881 163.1525 -26.7487 -17.5678 -3.8559
# 4 -6.6911 -11.6973 -26.7487 29.7145 -4.0922 0.0645
# 5 11.9605 4.7829 -17.5678 -4.0922 36.3829 -13.8984
# 6 -24.9661 -7.4108 -3.8559 0.0645 -13.8984 39.0220
#
#
#
# Elastic Compliance Matrix: (Units=1/GPa)
#
#
# Indices 1 2 3 4 5 6 
#
# 1 0.016895 -0.002522 -0.000394 0.002240 -0.001425 0.009780
# 2 -0.002522 0.009015 -0.002369 0.000613 -0.001717 -0.000748
# 3 -0.000394 -0.002369 0.008878 0.007870 0.006569 0.002502
# 4 0.002240 0.000613 0.007870 0.042852 0.010029 0.005828
# 5 -0.001425 -0.001717 0.006569 0.010029 0.037327 0.012690
# 6 0.009780 -0.000748 0.002502 0.005828 0.012690 0.036499
#
#
# Mechanical properties :
#
#
# Convention : Reuss Voigt Hill
#
# Bulk Modulus (GPa) = 41.29296 60.93172 51.11234
# Shear Modulus (GPa) = 29.39301 40.19278 34.79289
#
# Velocity S-wave (km/s) = 3.34193 3.90796 3.63598
# Velocity P-wave (km/s) = 5.53006 6.59660 6.08674
#
# Compressibility (1/GPa) = 0.02421720
#
# Stress axis : x y z
#
# Youngs Moduli (GPa) = 59.18862 110.93118 112.63893
#
# Poissons Ratio (x) = 0.27979 0.04435
# Poissons Ratio (y) = 0.14928 0.26688
# Poissons Ratio (z) = 0.02331 0.26283
#
# Static dielectric constant tensor:
#      x y z
#    x 2.260910 -0.009470 -0.074120 
#    y -0.009470 2.157460 -0.023620 
#    z -0.074120 -0.023620 2.078350 
# 
# From -- ./inp_files/3460.got.cif
#   From: 2010.05.17/outbox.cif.g08.bks.cpg/sg1_2_cif.got.tgz:3460.got - 2010.05.17 20:27:59.
