data_PCOD9000895
_publ_section_title
;
Structure prediction by ZEFSAII (Michael W. Deem and Ramdas Pophale) SiO2 
 PCOD9000895
Probable space group: P 1
;
_chemical_formula_sum "Si O2"
_cell_formula_units_Z 8
_cell_length_a 8.479627
_cell_length_b 8.102162
_cell_length_c 10.330966
_cell_angle_alpha 45.033258
_cell_angle_beta 135.647735
_cell_angle_gamma 111.375546
_cell_volume 336.519741
_symmetry_space_group_name_H-M "P 1"
_symmetry_group_IT_number 1
_symmetry_cell_setting 'triclinic'
loop_
_space_group_symop_operation_xyz
x,y,z
loop_
_atom_site_type_symbol
_atom_site_label
_atom_site_fract_x
_atom_site_fract_y
_atom_site_fract_z
Si Si1 0.337680 0.900940 0.673920
Si Si2 0.963169 0.193491 0.107179
Si Si3 0.993915 0.635021 0.742920
Si Si4 0.681346 0.410289 0.068237
Si Si5 0.546856 0.007345 0.348837
Si Si6 0.172239 0.240438 0.612778
Si Si7 0.126103 0.775677 0.276242
Si Si8 0.970604 0.908623 0.829650
O O1 0.155093 0.743588 0.686907
O O2 0.203418 0.105325 0.380227
O O3 0.353939 0.051387 0.730548
O O4 0.559076 0.693766 0.865165
O O5 0.762460 0.337844 0.008611
O O6 0.941733 0.940869 0.176642
O O7 0.987649 0.361129 0.906968
O O8 0.065104 0.696795 0.896351
O O9 0.729336 0.806828 0.478323
O O10 0.514087 0.257010 0.113948
O O11 0.923561 0.312191 0.347128
O O12 0.702776 0.020955 0.561117
O O13 0.337561 0.898124 0.320655
O O14 0.219862 0.495424 0.525955
O O15 0.115300 0.102297 0.780956
O O16 0.012123 0.802112 0.053821
#
# Coordination Sequence:
#
# PCOD9000895 Si02
#       8
#     1   1   1   1   1   1   1   1
#     4  10  20  41  72  91 126 180 215 271 327 380
#     4  11  23  36  63 101 132 168 217 267 319 393
#     4   9  19  43  67  88 133 169 220 272 316 388
#     4  10  20  44  69  92 132 176 221 264 328 386
#     4   9  21  42  71  91 130 178 216 267 329 387
#     4   9  21  42  62  99 134 163 222 272 323 390
#     4  12  23  38  68 101 134 169 212 270 331 386
#     4   8  19  42  64  87 137 167 211 277 307 386
#
# _framework density 23.772752000000001
#
# number of rings (size 3 to 8) (size 9 to 14) (size 15 to 20)
#    0.750    1.500    2.500    2.250    1.750    2.000 
#    2.250    1.250    8.250    0.000    0.000    0.000 
#    0.000    0.000    0.000    0.000    0.000    0.000 
#
# Total GULP energy -44661.658571 kJ/mol
# GULP energy per Si atom -5582.707321 kJ/mol
# Density = 2.371864 g / cm^3
# Si number density = 23.772752 Si / 1000 Ang^3
#
#
#
# Elastic Constant Matrix: (Units=GPa)
#
#
# Indices 1 2 3 4 5 6 
#
# 1 90.4863 32.7076 29.5381 -16.4428 9.3538 7.2932
# 2 32.7076 63.0258 25.7112 -30.3928 6.8145 14.5649
# 3 29.5381 25.7112 91.3735 -36.7216 4.2829 1.7675
# 4 -16.4428 -30.3928 -36.7216 52.3440 -2.3803 -0.0062
# 5 9.3538 6.8145 4.2829 -2.3803 43.8293 -11.3851
# 6 7.2932 14.5649 1.7675 -0.0062 -11.3851 34.7968
#
#
#
# Elastic Compliance Matrix: (Units=1/GPa)
#
#
# Indices 1 2 3 4 5 6 
#
# 1 0.014503 -0.006576 -0.003437 -0.001767 -0.002035 -0.000779
# 2 -0.006576 0.030332 0.000369 0.015533 -0.005955 -0.013282
# 3 -0.003437 0.000369 0.016188 0.010471 -0.000441 -0.000399
# 4 -0.001767 0.015533 0.010471 0.034769 -0.003172 -0.007695
# 5 -0.002035 -0.005955 -0.000441 -0.003172 0.027115 0.011813
# 6 -0.000779 -0.013282 -0.000399 -0.007695 0.011813 0.038345
#
#
# Mechanical properties :
#
#
# Convention : Reuss Voigt Hill
#
# Bulk Modulus (GPa) = 23.96084 46.75550 35.35817
# Shear Modulus (GPa) = 25.71332 36.65593 31.18462
#
# Velocity S-wave (km/s) = 3.29238 3.93100 3.62578
# Velocity P-wave (km/s) = 4.95520 6.34934 5.69509
#
# Compressibility (1/GPa) = 0.04173476
#
# Stress axis : x y z
#
# Youngs Moduli (GPa) = 68.95354 32.96818 61.77456
#
# Poissons Ratio (x) = 0.21679 0.21234
# Poissons Ratio (y) = 0.45342 -0.02281
# Poissons Ratio (z) = 0.23702 -0.01217
#
# Static dielectric constant tensor:
#      x y z
#    x 1.942950 -0.000200 0.021690 
#    y -0.000200 1.980750 -0.010930 
#    z 0.021690 -0.010930 1.913720 
# 
# From -- ./inp_files/6424.got.cif
#   From: 2010.05.17/outbox.cif.g08.bks.cpg/sg1_4_cif.got.tgz:6424.got - 2010.05.17 20:27:59.
