data_PCOD9000653
_publ_section_title
;
Structure prediction by ZEFSAII (Michael W. Deem and Ramdas Pophale) SiO2 
 PCOD9000653
Probable space group: P 1
;
_chemical_formula_sum "Si O2"
_cell_formula_units_Z 8
_cell_length_a 11.458948
_cell_length_b 8.849092
_cell_length_c 8.341392
_cell_angle_alpha 115.299353
_cell_angle_beta 143.543113
_cell_angle_gamma 48.988901
_cell_volume 369.619893
_symmetry_space_group_name_H-M "P 1"
_symmetry_group_IT_number 1
_symmetry_cell_setting 'triclinic'
loop_
_space_group_symop_operation_xyz
x,y,z
loop_
_atom_site_type_symbol
_atom_site_label
_atom_site_fract_x
_atom_site_fract_y
_atom_site_fract_z
Si Si1 0.258650 0.769080 0.869190
Si Si2 0.212601 0.422407 0.513274
Si Si3 0.855994 0.672745 0.973690
Si Si4 0.615075 0.519085 0.408955
Si Si5 0.489373 0.922487 0.972418
Si Si6 0.751490 0.069563 0.887076
Si Si7 0.719921 0.122070 0.495852
Si Si8 0.981936 0.269228 0.410571
O O1 0.235690 0.595725 0.691259
O O2 0.437422 0.791024 0.969428
O O3 0.365346 0.701766 0.135732
O O4 0.995765 0.982714 0.674611
O O5 0.475483 0.208775 0.707765
O O6 0.033922 0.400495 0.413289
O O7 0.105707 0.489767 0.246579
O O8 0.735268 0.596101 0.691175
O O9 0.680084 0.789710 0.983754
O O10 0.875692 0.837240 0.975834
O O11 0.595688 0.354374 0.406986
O O12 0.791343 0.402190 0.399454
O O13 0.235676 0.095861 0.691498
O O14 0.586073 0.029969 0.230532
O O15 0.735934 0.095838 0.691730
O O16 0.885037 0.161746 0.152452
#
# Coordination Sequence:
#
# PCOD9000653 Si02
#       8
#     1   1   1   1   1   1   1   1
#     4  12  26  47  75 101 142 187 233 287 349 413
#     4  12  26  47  75 101 142 187 233 287 349 413
#     4  12  27  46  73 107 140 185 235 285 352 414
#     4  12  27  46  73 107 140 185 235 285 352 414
#     4  12  25  48  74 101 145 184 230 293 347 410
#     4  12  28  48  71 106 142 184 235 288 347 416
#     4  12  28  48  71 106 142 184 235 288 347 416
#     4  12  25  48  74 101 145 184 230 293 347 410
#
# _framework density 21.643857000000001
#
# number of rings (size 3 to 8) (size 9 to 14) (size 15 to 20)
#    0.000    0.000    5.000    4.500    7.000    3.000 
#    0.000    0.000    0.000    0.000    0.000    0.000 
#    0.000    0.000    0.000    0.000    0.000    0.000 
#
# Total GULP energy -44846.581547 kJ/mol
# GULP energy per Si atom -5605.822693 kJ/mol
# Density = 2.159459 g / cm^3
# Si number density = 21.643857 Si / 1000 Ang^3
#
#
#
# Elastic Constant Matrix: (Units=GPa)
#
#
# Indices 1 2 3 4 5 6 
#
# 1 106.6583 31.0595 31.3402 26.1089 -10.4581 33.6854
# 2 31.0595 93.3628 51.8576 24.5819 -13.5783 39.6380
# 3 31.3402 51.8576 175.9034 27.7032 -24.6604 17.3884
# 4 26.1089 24.5819 27.7032 64.8328 -4.4784 -0.2261
# 5 -10.4581 -13.5783 -24.6604 -4.4784 39.4838 -1.6939
# 6 33.6854 39.6380 17.3884 -0.2261 -1.6939 47.9860
#
#
#
# Elastic Compliance Matrix: (Units=1/GPa)
#
#
# Indices 1 2 3 4 5 6 
#
# 1 0.014505 0.002983 -0.000797 -0.006460 0.003111 -0.012279
# 2 0.002983 0.022673 -0.003349 -0.008108 0.004741 -0.019480
# 3 -0.000797 -0.003349 0.007391 -0.001349 0.003133 0.000751
# 4 -0.006460 -0.008108 -0.001349 0.021552 -0.002394 0.011738
# 5 0.003111 0.004741 0.003133 -0.002394 0.029200 -0.006216
# 6 -0.012279 -0.019480 0.000751 0.011738 -0.006216 0.045114
#
#
# Mechanical properties :
#
#
# Convention : Reuss Voigt Hill
#
# Bulk Modulus (GPa) = 23.67052 67.15988 45.41520
# Shear Modulus (GPa) = 31.87923 47.90502 39.89212
#
# Velocity S-wave (km/s) = 3.84200 4.70971 4.29781
# Velocity P-wave (km/s) = 5.53547 7.78923 6.75698
#
# Compressibility (1/GPa) = 0.04224665
#
# Stress axis : x y z
#
# Youngs Moduli (GPa) = 68.93950 44.10502 135.29072
#
# Poissons Ratio (x) = -0.13158 0.10776
# Poissons Ratio (y) = -0.20567 0.45303
# Poissons Ratio (z) = 0.05491 0.14769
#
# Static dielectric constant tensor:
#      x y z
#    x 1.765560 0.004040 0.000740 
#    y 0.004040 1.772970 -0.047030 
#    z 0.000740 -0.047030 1.750020 
# 
# From -- ./inp_files/4440.got.cif
#   From: 2010.05.17/outbox.cif.g08.bks.cpg/sg1_3_cif.got.tgz:4440.got - 2010.05.17 20:27:59.
