data_PCOD9000806
_publ_section_title
;
Structure prediction by ZEFSAII (Michael W. Deem and Ramdas Pophale) SiO2 
 PCOD9000806
Probable space group: P 1
;
_chemical_formula_sum "Si O2"
_cell_formula_units_Z 8
_cell_length_a 10.996676
_cell_length_b 13.859167
_cell_length_c 14.067773
_cell_angle_alpha 20.476704
_cell_angle_beta 140.391547
_cell_angle_gamma 148.766170
_cell_volume 383.334863
_symmetry_space_group_name_H-M "P 1"
_symmetry_group_IT_number 1
_symmetry_cell_setting 'triclinic'
loop_
_space_group_symop_operation_xyz
x,y,z
loop_
_atom_site_type_symbol
_atom_site_label
_atom_site_fract_x
_atom_site_fract_y
_atom_site_fract_z
Si Si1 0.839270 0.810830 0.337690
Si Si2 0.536038 0.633787 0.714162
Si Si3 0.310444 0.090749 0.487752
Si Si4 0.179671 0.151359 0.080891
Si Si5 0.210163 0.564985 0.075516
Si Si6 0.670874 0.183235 0.136391
Si Si7 0.557884 0.111292 0.921244
Si Si8 0.453255 0.908878 0.574385
O O1 0.640015 0.443644 0.602169
O O2 0.078749 0.946498 0.415411
O O3 0.919468 0.849047 0.240566
O O4 0.757214 0.050429 0.081308
O O5 0.622478 0.873312 0.640533
O O6 0.537190 0.844816 0.432935
O O7 0.269022 0.302628 0.889511
O O8 0.685120 0.490123 0.914247
O O9 0.350396 0.414543 0.265112
O O10 0.503943 0.120419 0.505843
O O11 0.244762 0.817356 0.781003
O O12 0.344529 0.042672 0.314655
O O13 0.257269 0.503434 0.856190
O O14 0.930731 0.279222 0.185623
O O15 0.320509 0.781854 0.037661
O O16 0.550368 0.147162 0.996096
#
# Coordination Sequence:
#
# PCOD9000806 Si02
#       8
#     1   1   1   1   1   1   1   1
#     4  11  19  38  64  91 123 155 196 255 316 364
#     4  10  20  35  60  95 112 160 220 238 294 368
#     4  11  19  38  64  91 123 155 196 255 316 364
#     4   9  17  32  58  94 115 148 204 253 298 359
#     4  12  25  39  60  95 126 162 203 251 306 365
#     4  12  22  39  60  87 124 170 206 240 298 360
#     4  12  25  39  60  95 126 162 203 251 306 365
#     4   9  17  32  58  94 115 148 204 253 298 359
#
# _framework density 20.869482000000001
#
# number of rings (size 3 to 8) (size 9 to 14) (size 15 to 20)
#    0.750    0.500    3.750    5.250    0.000    0.000 
#    0.000    0.000    0.000    6.000    0.000    0.000 
#    0.000    0.000    0.000    0.000    0.000    0.000 
#
# Total GULP energy -44561.651396 kJ/mol
# GULP energy per Si atom -5570.206424 kJ/mol
# Density = 2.082198 g / cm^3
# Si number density = 20.869482 Si / 1000 Ang^3
#
#
#
# Elastic Constant Matrix: (Units=GPa)
#
#
# Indices 1 2 3 4 5 6 
#
# 1 114.7420 17.0733 33.2665 9.0529 -2.6193 -12.2417
# 2 17.0733 42.8724 0.5455 -1.1416 -13.0248 -12.9690
# 3 33.2665 0.5455 127.7998 18.6550 -9.7072 -0.7542
# 4 9.0529 -1.1416 18.6550 16.7475 -1.1371 5.9537
# 5 -2.6193 -13.0248 -9.7072 -1.1371 44.1292 2.8605
# 6 -12.2417 -12.9690 -0.7542 5.9537 2.8605 10.7182
#
#
#
# Elastic Compliance Matrix: (Units=1/GPa)
#
#
# Indices 1 2 3 4 5 6 
#
# 1 0.012470 0.001766 -0.001122 -0.014102 -0.000929 0.024382
# 2 0.001766 0.046103 0.004460 -0.027301 0.009402 0.070771
# 3 -0.001122 0.004460 0.010573 -0.015214 0.002362 0.012681
# 4 -0.014102 -0.027301 -0.015214 0.124676 -0.001308 -0.119116
# 5 -0.000929 0.009402 0.002362 -0.001308 0.025583 0.004381
# 6 0.024382 0.070771 0.012681 -0.119116 0.004381 0.272668
#
#
# Mechanical properties :
#
#
# Convention : Reuss Voigt Hill
#
# Bulk Modulus (GPa) = 12.60162 43.02053 27.81107
# Shear Modulus (GPa) = 9.83642 29.95423 19.89532
#
# Velocity S-wave (km/s) = 2.17337 3.79266 3.09094
# Velocity P-wave (km/s) = 3.51418 6.31173 5.10820
#
# Compressibility (1/GPa) = 0.07935489
#
# Stress axis : x y z
#
# Youngs Moduli (GPa) = 80.19020 21.69067 94.58290
#
# Poissons Ratio (x) = -0.03830 0.10611
# Poissons Ratio (y) = -0.14161 -0.42188
# Poissons Ratio (z) = 0.08996 -0.09675
#
# Static dielectric constant tensor:
#      x y z
#    x 1.825370 -0.028960 0.009190 
#    y -0.028960 1.753370 -0.018720 
#    z 0.009190 -0.018720 1.767180 
# 
# From -- ./inp_files/5783.got.cif
#   From: 2010.05.17/outbox.cif.g08.bks.cpg/sg1_3_cif.got.tgz:5783.got - 2010.05.17 20:27:59.
