data_PCOD9000358
_publ_section_title
;
Structure prediction by ZEFSAII (Michael W. Deem and Ramdas Pophale) SiO2 
 PCOD9000358
Probable space group: P 1
;
_chemical_formula_sum "Si O2"
_cell_formula_units_Z 8
_cell_length_a 5.780283
_cell_length_b 13.938947
_cell_length_c 5.780319
_cell_angle_alpha 52.500743
_cell_angle_beta 70.996603
_cell_angle_gamma 60.614901
_cell_volume 321.707055
_symmetry_space_group_name_H-M "P 1"
_symmetry_group_IT_number 1
_symmetry_cell_setting 'triclinic'
loop_
_space_group_symop_operation_xyz
x,y,z
loop_
_atom_site_type_symbol
_atom_site_label
_atom_site_fract_x
_atom_site_fract_y
_atom_site_fract_z
Si Si1 0.893620 0.229090 0.500000
Si Si2 0.489839 0.386452 0.778240
Si Si3 0.159217 0.583744 0.277366
Si Si4 0.500551 0.157498 0.422263
Si Si5 0.685108 0.499804 0.919354
Si Si6 0.977522 0.926049 0.408202
Si Si7 0.198440 0.854459 0.944450
Si Si8 0.791404 0.697095 0.855395
O O1 0.742722 0.295732 0.683664
O O2 0.699663 0.159581 0.563884
O O3 0.861222 0.350172 0.156832
O O4 0.209996 0.153121 0.554846
O O5 0.227979 0.462114 0.605254
O O6 0.439065 0.296763 0.118384
O O7 0.563001 0.497238 0.714618
O O8 0.441995 0.541774 0.118193
O O9 0.097431 0.733377 0.154214
O O10 0.949346 0.586310 0.150132
O O11 0.688014 0.041772 0.364210
O O12 0.769742 0.621433 0.744858
O O13 0.952179 0.786782 0.625248
O O14 0.101353 0.930426 0.108894
O O15 0.123303 0.923969 0.611479
O O16 0.515387 0.787818 0.926828
#
# Coordination Sequence:
#
# PCOD9000358 Si02
#       8
#     1   1   1   1   1   1   1   1
#     4  10  25  47  69 106 143 190 244 303 367 437
#     4  10  23  45  72 103 147 188 238 304 374 440
#     4   9  21  42  65 105 141 181 235 296 369 442
#     4  11  27  48  72 105 146 192 251 301 368 439
#     4   9  21  42  65 105 141 181 235 296 369 442
#     4  11  27  48  72 105 146 192 251 301 368 439
#     4  10  25  47  69 106 143 190 244 303 367 437
#     4  10  23  45  72 103 147 188 238 304 374 440
#
# _framework density 24.867343999999999
#
# number of rings (size 3 to 8) (size 9 to 14) (size 15 to 20)
#    0.000    2.000    0.000    0.000   14.000    4.000 
#   18.000    0.000    0.000    0.000    0.000    0.000 
#    0.000    0.000    0.000    0.000    0.000    0.000 
#
# Total GULP energy -44680.201815 kJ/mol
# GULP energy per Si atom -5585.025227 kJ/mol
# Density = 2.481074 g / cm^3
# Si number density = 24.867344 Si / 1000 Ang^3
#
#
#
# Elastic Constant Matrix: (Units=GPa)
#
#
# Indices 1 2 3 4 5 6 
#
# 1 118.7928 41.2524 42.4044 7.1236 15.2027 -11.3006
# 2 41.2524 122.0463 21.5025 26.4574 16.6933 -12.6787
# 3 42.4044 21.5025 88.8294 8.7186 7.1454 7.4498
# 4 7.1236 26.4574 8.7186 39.2156 -1.9894 -2.1232
# 5 15.2027 16.6933 7.1454 -1.9894 35.8677 -1.2523
# 6 -11.3006 -12.6787 7.4498 -2.1232 -1.2523 47.5227
#
#
#
# Elastic Compliance Matrix: (Units=1/GPa)
#
#
# Indices 1 2 3 4 5 6 
#
# 1 0.011673 -0.002567 -0.005054 0.000757 -0.002604 0.002848
# 2 -0.002567 0.011610 -0.000683 -0.007327 -0.004511 0.002148
# 3 -0.005054 -0.000683 0.014405 -0.002060 -0.000655 -0.003752
# 4 0.000757 -0.007327 -0.002060 0.031033 0.005223 0.000072
# 5 -0.002604 -0.004511 -0.000655 0.005223 0.031481 -0.000657
# 6 0.002848 0.002148 -0.003752 0.000072 -0.000657 0.022867
#
#
# Mechanical properties :
#
#
# Convention : Reuss Voigt Hill
#
# Bulk Modulus (GPa) = 47.44096 59.99857 53.71977
# Shear Modulus (GPa) = 34.08229 39.48847 36.78538
#
# Velocity S-wave (km/s) = 3.70613 3.98925 3.85029
# Velocity P-wave (km/s) = 6.11824 6.73785 6.43551
#
# Compressibility (1/GPa) = 0.02107883
#
# Stress axis : x y z
#
# Youngs Moduli (GPa) = 85.67144 86.13148 69.41932
#
# Poissons Ratio (x) = 0.22109 0.35088
# Poissons Ratio (y) = 0.21991 0.04743
# Poissons Ratio (z) = 0.43302 0.05884
#
# Static dielectric constant tensor:
#      x y z
#    x 2.004800 0.016200 -0.015810 
#    y 0.016200 1.966760 -0.005450 
#    z -0.015810 -0.005450 2.022680 
# 
# From -- ./inp_files/373.got.cif
#   From: 2010.05.17/outbox.cif.g08.bks.cpg/sg1_1_cif.got.tgz:373.got - 2010.05.17 20:27:59.
