data_PCOD9000490
_publ_section_title
;
Structure prediction by ZEFSAII (Michael W. Deem and Ramdas Pophale) SiO2 
 PCOD9000490
Probable space group: P 1
;
_chemical_formula_sum "Si O2"
_cell_formula_units_Z 8
_cell_length_a 5.273981
_cell_length_b 13.932016
_cell_length_c 5.169398
_cell_angle_alpha 49.090052
_cell_angle_beta 94.774433
_cell_angle_gamma 89.317748
_cell_volume 284.944250
_symmetry_space_group_name_H-M "P 1"
_symmetry_group_IT_number 1
_symmetry_cell_setting 'triclinic'
loop_
_space_group_symop_operation_xyz
x,y,z
loop_
_atom_site_type_symbol
_atom_site_label
_atom_site_fract_x
_atom_site_fract_y
_atom_site_fract_z
Si Si1 0.602230 0.139800 0.704530
Si Si2 0.606825 0.879864 0.894053
Si Si3 0.912070 0.002993 0.369655
Si Si4 0.943800 0.268328 0.874129
Si Si5 0.095372 0.593204 0.605982
Si Si6 0.304558 0.826661 0.459243
Si Si7 0.283936 0.389135 0.334295
Si Si8 0.609722 0.510608 0.488196
O O1 0.840970 0.219784 0.670711
O O2 0.387803 0.255257 0.461194
O O3 0.642028 0.048406 0.125543
O O4 0.569671 0.034519 0.671763
O O5 0.885275 0.888699 0.770397
O O6 0.443617 0.820978 0.758320
O O7 0.514185 0.826000 0.250266
O O8 0.105288 0.951968 0.251104
O O9 0.998477 0.134454 0.258011
O O10 0.726352 0.364251 0.813767
O O11 0.172335 0.348757 0.671762
O O12 0.127252 0.715377 0.568687
O O13 0.361844 0.564753 0.527177
O O14 0.843675 0.596542 0.400205
O O15 0.077808 0.472539 0.006078
O O16 0.503087 0.485067 0.237425
#
# Coordination Sequence:
#
# PCOD9000490 Si02
#       8
#     1   1   1   1   1   1   1   1
#     4   9  23  42  77 118 160 203 266 340 420 490
#     4  12  26  50  77 114 158 216 268 347 410 492
#     4  10  25  47  77 116 163 203 272 339 417 490
#     4   9  21  44  76 118 152 208 257 342 412 494
#     4  12  31  48  80 116 162 224 277 343 405 506
#     4  12  30  51  77 117 160 224 283 335 417 498
#     4  11  24  49  77 118 167 208 275 340 425 500
#     4  11  26  49  75 115 160 208 276 332 422 480
#
# _framework density 28.075665999999998
#
# number of rings (size 3 to 8) (size 9 to 14) (size 15 to 20)
#    0.750    0.500    2.500    0.750   10.500    1.000 
#    2.250    0.000    0.000    0.000    0.000    0.000 
#    0.000    0.000    0.000    0.000    0.000    0.000 
#
# Total GULP energy -44657.092048 kJ/mol
# GULP energy per Si atom -5582.136506 kJ/mol
# Density = 2.801176 g / cm^3
# Si number density = 28.075666 Si / 1000 Ang^3
#
#
#
# Elastic Constant Matrix: (Units=GPa)
#
#
# Indices 1 2 3 4 5 6 
#
# 1 120.5668 60.0184 30.4571 -4.1914 -17.5528 13.6750
# 2 60.0184 185.2490 24.3416 10.1816 6.9136 20.9045
# 3 30.4571 24.3416 102.4154 10.3103 -8.1670 7.9753
# 4 -4.1914 10.1816 10.3103 44.5685 -2.1715 5.5965
# 5 -17.5528 6.9136 -8.1670 -2.1715 31.5304 3.1091
# 6 13.6750 20.9045 7.9753 5.5965 3.1091 48.7892
#
#
#
# Elastic Compliance Matrix: (Units=1/GPa)
#
#
# Indices 1 2 3 4 5 6 
#
# 1 0.012262 -0.003878 -0.002273 0.003215 0.007532 -0.002253
# 2 -0.003878 0.007134 -0.000550 -0.001877 -0.003855 -0.001419
# 3 -0.002273 -0.000550 0.011005 -0.002462 0.001610 -0.000746
# 4 0.003215 -0.001877 -0.002462 0.024247 0.003500 -0.002699
# 5 0.007532 -0.003855 0.001610 0.003500 0.037760 -0.003530
# 6 -0.002253 -0.001419 -0.000746 -0.002699 -0.003530 0.022392
#
#
# Mechanical properties :
#
#
# Convention : Reuss Voigt Hill
#
# Bulk Modulus (GPa) = 58.82370 70.87395 64.84882
# Shear Modulus (GPa) = 37.34998 44.53856 40.94427
#
# Velocity S-wave (km/s) = 3.65133 3.98725 3.82298
# Velocity P-wave (km/s) = 6.22685 6.81882 6.52954
#
# Compressibility (1/GPa) = 0.01699995
#
# Stress axis : x y z
#
# Youngs Moduli (GPa) = 81.55010 140.17485 90.86651
#
# Poissons Ratio (x) = 0.54357 0.20651
# Poissons Ratio (y) = 0.31624 0.05001
# Poissons Ratio (z) = 0.18533 0.07714
#
# Static dielectric constant tensor:
#      x y z
#    x 2.258340 0.015030 -0.062640 
#    y 0.015030 2.218760 0.000090 
#    z -0.062640 0.000090 2.346540 
# 
# From -- ./inp_files/599.got.cif
#   From: 2010.05.17/outbox.cif.g08.bks.cpg/sg1_1_cif.got.tgz:599.got - 2010.05.17 20:27:59.
