data_PCOD9000202
_publ_section_title
;
Structure prediction by ZEFSAII (Michael W. Deem and Ramdas Pophale) SiO2 
 PCOD9000202
Probable space group: P 1
;
_chemical_formula_sum "Si O2"
_cell_formula_units_Z 8
_cell_length_a 8.433187
_cell_length_b 9.075006
_cell_length_c 7.096867
_cell_angle_alpha 79.312619
_cell_angle_beta 104.090028
_cell_angle_gamma 48.177786
_cell_volume 344.142176
_symmetry_space_group_name_H-M "P 1"
_symmetry_group_IT_number 1
_symmetry_cell_setting 'triclinic'
loop_
_space_group_symop_operation_xyz
x,y,z
loop_
_atom_site_type_symbol
_atom_site_label
_atom_site_fract_x
_atom_site_fract_y
_atom_site_fract_z
Si Si1 0.957420 0.903560 0.091590
Si Si2 0.612651 0.886001 0.102427
Si Si3 0.357738 0.080490 0.587893
Si Si4 0.571552 0.401716 0.025913
Si Si5 0.860762 0.333393 0.450669
Si Si6 0.438223 0.762120 0.381232
Si Si7 0.549387 0.155355 0.322146
Si Si8 0.056983 0.870634 0.691161
O O1 0.872502 0.796257 0.164255
O O2 0.196969 0.827074 0.260069
O O3 0.732566 0.173078 0.009563
O O4 0.994304 0.871980 0.886491
O O5 0.548054 0.780624 0.227525
O O6 0.468747 0.104542 0.140381
O O7 0.504984 0.944908 0.850417
O O8 0.392383 0.917393 0.490964
O O9 0.450470 0.162501 0.485978
O O10 0.077240 0.303754 0.508848
O O11 0.747882 0.393235 0.193048
O O12 0.476019 0.370492 0.186942
O O13 0.339563 0.631035 0.799423
O O14 0.668611 0.492026 0.525492
O O15 0.006848 0.080403 0.599857
O O16 0.846526 0.944046 0.481218
#
# Coordination Sequence:
#
# PCOD9000202 Si02
#       8
#     1   1   1   1   1   1   1   1
#     4  11  21  44  72 100 135 185 225 278 355 397
#     4  10  23  45  70 102 141 178 232 284 337 417
#     4  11  22  45  69  98 144 182 223 285 355 396
#     4  10  22  42  70 100 135 177 229 287 335 414
#     4  11  24  42  66 101 140 179 232 283 337 418
#     4  11  24  45  69 104 141 179 233 288 335 415
#     4   9  22  44  68 101 137 174 235 282 336 421
#     4  11  22  43  70 100 137 178 233 283 342 408
#
# _framework density 23.246206999999998
#
# number of rings (size 3 to 8) (size 9 to 14) (size 15 to 20)
#    0.000    1.500    3.750    0.750    0.000    2.000 
#    9.000    0.000    0.000    0.000    0.000    0.000 
#    0.000    0.000    0.000    0.000    0.000    0.000 
#
# Total GULP energy -44625.256989 kJ/mol
# GULP energy per Si atom -5578.157124 kJ/mol
# Density = 2.319330 g / cm^3
# Si number density = 23.246207 Si / 1000 Ang^3
#
#
#
# Elastic Constant Matrix: (Units=GPa)
#
#
# Indices 1 2 3 4 5 6 
#
# 1 130.5285 14.5902 37.9956 -6.2785 12.0474 -15.9367
# 2 14.5902 72.9308 35.6104 -15.9373 9.9295 -19.0192
# 3 37.9956 35.6104 104.0219 0.1474 9.9614 -3.5013
# 4 -6.2785 -15.9373 0.1474 46.6582 -10.7438 8.2828
# 5 12.0474 9.9295 9.9614 -10.7438 33.6398 5.5601
# 6 -15.9367 -19.0192 -3.5013 8.2828 5.5601 29.3566
#
#
#
# Elastic Compliance Matrix: (Units=1/GPa)
#
#
# Indices 1 2 3 4 5 6 
#
# 1 0.009747 0.002274 -0.003683 -0.000170 -0.004314 0.007190
# 2 0.002274 0.022553 -0.007421 0.003842 -0.006545 0.015116
# 3 -0.003683 -0.007421 0.013400 -0.002398 -0.000490 -0.004440
# 4 -0.000170 0.003842 -0.002398 0.026065 0.009113 -0.006969
# 5 -0.004314 -0.006545 -0.000490 0.009113 0.039003 -0.016599
# 6 0.007190 0.015116 -0.004440 -0.006969 -0.016599 0.052341
#
#
# Mechanical properties :
#
#
# Convention : Reuss Voigt Hill
#
# Bulk Modulus (GPa) = 35.66453 53.76373 44.71413
# Shear Modulus (GPa) = 26.29958 36.54992 31.42475
#
# Velocity S-wave (km/s) = 3.36720 3.96952 3.68070
# Velocity P-wave (km/s) = 5.52203 6.64738 6.11066
#
# Compressibility (1/GPa) = 0.02803906
#
# Stress axis : x y z
#
# Youngs Moduli (GPa) = 102.59552 44.33960 74.62589
#
# Poissons Ratio (x) = -0.10082 0.27487
# Poissons Ratio (y) = -0.23328 0.55381
# Poissons Ratio (z) = 0.37789 0.32905
#
# Static dielectric constant tensor:
#      x y z
#    x 1.977530 0.012570 -0.009510 
#    y 0.012570 1.959280 -0.020540 
#    z -0.009510 -0.020540 1.864250 
# 
# From -- ./inp_files/4257.got.cif
#   From: 2010.05.17/outbox.cif.g08.bks.cpg/sg1_3_cif.got.tgz:4257.got - 2010.05.17 20:27:59.
