data_PCOD9000598
_publ_section_title
;
Structure prediction by ZEFSAII (Michael W. Deem and Ramdas Pophale) SiO2 
 PCOD9000598
Probable space group: P 1
;
_chemical_formula_sum "Si O2"
_cell_formula_units_Z 8
_cell_length_a 8.902661
_cell_length_b 11.184106
_cell_length_c 14.020976
_cell_angle_alpha 148.169687
_cell_angle_beta 28.954105
_cell_angle_gamma 142.622091
_cell_volume 349.191548
_symmetry_space_group_name_H-M "P 1"
_symmetry_group_IT_number 1
_symmetry_cell_setting 'triclinic'
loop_
_space_group_symop_operation_xyz
x,y,z
loop_
_atom_site_type_symbol
_atom_site_label
_atom_site_fract_x
_atom_site_fract_y
_atom_site_fract_z
Si Si1 0.165320 0.809350 0.354830
Si Si2 0.454925 0.755788 0.753574
Si Si3 0.384043 0.349529 0.398368
Si Si4 0.555911 0.597437 0.279617
Si Si5 0.238363 0.841601 0.121327
Si Si6 0.490304 0.066644 0.526430
Si Si7 0.063336 0.289026 0.053600
Si Si8 0.137520 0.158654 0.130820
O O1 0.316739 0.826021 0.177548
O O2 0.314751 0.992165 0.473616
O O3 0.171608 0.550584 0.208724
O O4 0.795504 0.818181 0.556438
O O5 0.310489 0.491321 0.627106
O O6 0.497255 0.800998 0.873473
O O7 0.236173 0.924821 0.952761
O O8 0.395895 0.521685 0.419530
O O9 0.729493 0.289013 0.186647
O O10 0.171539 0.101238 0.325997
O O11 0.488892 0.828313 0.423881
O O12 0.428918 0.372041 0.133169
O O13 0.928342 0.657092 0.137875
O O14 0.838763 0.189807 0.381767
O O15 0.307985 0.220009 0.796336
O O16 0.042984 0.139325 0.059356
#
# Coordination Sequence:
#
# PCOD9000598 Si02
#       8
#     1   1   1   1   1   1   1   1
#     4  11  26  47  72 107 140 185 242 284 353 425
#     4  11  24  45  77 103 140 188 235 290 349 421
#     4  11  24  48  72 108 140 187 240 288 350 427
#     4  12  23  48  71 102 149 178 239 289 345 424
#     4  12  24  46  73 103 140 189 233 286 353 413
#     4  12  26  49  72 104 144 190 227 297 358 409
#     4  11  25  47  73 102 148 182 233 298 348 416
#     4  12  26  48  72 109 141 187 239 288 354 423
#
# _framework density 22.910060999999999
#
# number of rings (size 3 to 8) (size 9 to 14) (size 15 to 20)
#    0.000    0.500    6.250    2.250    0.000    4.000 
#   11.250    0.000    0.000    0.000    0.000    0.000 
#    0.000    0.000    0.000    0.000    0.000    0.000 
#
# Total GULP energy -44733.621593 kJ/mol
# GULP energy per Si atom -5591.702699 kJ/mol
# Density = 2.285792 g / cm^3
# Si number density = 22.910061 Si / 1000 Ang^3
#
#
#
# Elastic Constant Matrix: (Units=GPa)
#
#
# Indices 1 2 3 4 5 6 
#
# 1 114.5030 13.0045 26.0644 -16.5564 19.0924 -4.9240
# 2 13.0045 78.8995 14.3277 -0.5361 6.9434 13.5982
# 3 26.0644 14.3277 110.3636 -6.0853 17.1370 4.4774
# 4 -16.5564 -0.5361 -6.0853 16.2888 -0.2989 12.3639
# 5 19.0924 6.9434 17.1370 -0.2989 31.4450 -0.1881
# 6 -4.9240 13.5982 4.4774 12.3639 -0.1881 43.3189
#
#
#
# Elastic Compliance Matrix: (Units=1/GPa)
#
#
# Indices 1 2 3 4 5 6 
#
# 1 0.011930 -0.000779 -0.000895 0.013255 -0.006470 -0.002118
# 2 -0.000779 0.014111 -0.000908 0.003394 -0.002148 -0.005402
# 3 -0.000895 -0.000908 0.010502 0.004589 -0.004950 -0.002233
# 4 0.013255 0.003394 0.004589 0.097730 -0.010537 -0.027973
# 5 -0.006470 -0.002148 -0.004950 -0.010537 0.038823 0.003626
# 6 -0.002118 -0.005402 -0.002233 -0.027973 0.003626 0.032770
#
#
# Mechanical properties :
#
#
# Convention : Reuss Voigt Hill
#
# Bulk Modulus (GPa) = 31.86851 45.61771 38.74311
# Shear Modulus (GPa) = 22.57434 34.90184 28.73809
#
# Velocity S-wave (km/s) = 3.14243 3.90735 3.54558
# Velocity P-wave (km/s) = 5.20643 6.34912 5.80596
#
# Compressibility (1/GPa) = 0.03137894
#
# Stress axis : x y z
#
# Youngs Moduli (GPa) = 83.82237 70.86730 95.21701
#
# Poissons Ratio (x) = 0.05523 0.08520
# Poissons Ratio (y) = 0.06532 0.08646
# Poissons Ratio (z) = 0.07500 0.06435
#
# Static dielectric constant tensor:
#      x y z
#    x 1.884310 0.001860 -0.001050 
#    y 0.001860 1.908400 -0.005250 
#    z -0.001050 -0.005250 1.802430 
# 
# From -- ./inp_files/5603.got.cif
#   From: 2010.05.17/outbox.cif.g08.bks.cpg/sg1_3_cif.got.tgz:5603.got - 2010.05.17 20:27:59.
