data_PCOD9000741
_publ_section_title
;
Structure prediction by ZEFSAII (Michael W. Deem and Ramdas Pophale) SiO2 
 PCOD9000741
Probable space group: P 1
;
_chemical_formula_sum "Si O2"
_cell_formula_units_Z 8
_cell_length_a 5.953455
_cell_length_b 8.954872
_cell_length_c 10.893358
_cell_angle_alpha 130.636539
_cell_angle_beta 117.362491
_cell_angle_gamma 52.840618
_cell_volume 349.112077
_symmetry_space_group_name_H-M "P 1"
_symmetry_group_IT_number 1
_symmetry_cell_setting 'triclinic'
loop_
_space_group_symop_operation_xyz
x,y,z
loop_
_atom_site_type_symbol
_atom_site_label
_atom_site_fract_x
_atom_site_fract_y
_atom_site_fract_z
Si Si1 0.400510 0.998250 0.103300
Si Si2 0.497301 0.157069 0.961148
Si Si3 0.317623 0.577003 0.834106
Si Si4 0.700358 0.097406 0.722297
Si Si5 0.690215 0.250678 0.411694
Si Si6 0.126291 0.648315 0.541079
Si Si7 0.100133 0.279184 0.715207
Si Si8 0.839049 0.359482 0.259466
O O1 0.596763 0.057120 0.275403
O O2 0.362967 0.781734 0.999101
O O3 0.094467 0.206670 0.153387
O O4 0.510522 0.007149 0.998578
O O5 0.720695 0.046310 0.846721
O O6 0.202940 0.235235 0.857519
O O7 0.559020 0.355596 0.132229
O O8 0.233523 0.601389 0.683383
O O9 0.085922 0.518562 0.810677
O O10 0.389652 0.110585 0.624068
O O11 0.608182 0.354671 0.816185
O O12 0.969691 0.910373 0.624631
O O13 0.407630 0.486019 0.452151
O O14 0.881429 0.237921 0.336347
O O15 0.844950 0.256363 0.577489
O O16 0.883957 0.572057 0.411310
#
# Coordination Sequence:
#
# PCOD9000741 Si02
#       8
#     1   1   1   1   1   1   1   1
#     4  10  20  37  71 102 128 179 217 276 337 391
#     4   8  19  39  66  94 134 169 220 273 326 397
#     4   9  20  40  67  98 130 174 217 273 335 389
#     4   8  20  40  67  97 133 176 215 273 327 401
#     4  10  21  40  66 101 134 174 224 270 331 397
#     4  11  20  38  70  93 131 181 218 269 332 394
#     4   8  19  44  64  97 137 163 222 277 324 391
#     4  10  19  38  63 100 133 174 221 271 334 386
#
# _framework density 22.915279000000002
#
# number of rings (size 3 to 8) (size 9 to 14) (size 15 to 20)
#    1.500    1.000    1.250    0.750    0.000    1.000 
#   11.250    7.500    0.000    6.000    0.000    0.000 
#    0.000    0.000    0.000    0.000    0.000    0.000 
#
# Total GULP energy -44544.022706 kJ/mol
# GULP energy per Si atom -5568.002838 kJ/mol
# Density = 2.286312 g / cm^3
# Si number density = 22.915279 Si / 1000 Ang^3
#
#
#
# Elastic Constant Matrix: (Units=GPa)
#
#
# Indices 1 2 3 4 5 6 
#
# 1 43.8994 23.6144 49.1599 -4.2496 16.1911 -7.0007
# 2 23.6144 83.0930 59.2387 14.9972 12.1430 -5.4787
# 3 49.1599 59.2387 147.4335 7.0239 43.0692 0.6751
# 4 -4.2496 14.9972 7.0239 31.9220 -3.4431 2.1144
# 5 16.1911 12.1430 43.0692 -3.4431 48.2148 0.7262
# 6 -7.0007 -5.4787 0.6751 2.1144 0.7262 25.9125
#
#
#
# Elastic Compliance Matrix: (Units=1/GPa)
#
#
# Indices 1 2 3 4 5 6 
#
# 1 0.041859 -0.003773 -0.012516 0.009276 -0.001416 0.010120
# 2 -0.003773 0.019314 -0.006618 -0.008196 0.001671 0.003859
# 3 -0.012516 -0.006618 0.016363 -0.002802 -0.008876 -0.004729
# 4 0.009276 -0.008196 -0.002802 0.037633 0.004174 -0.002342
# 5 -0.001416 0.001671 -0.008876 0.004174 0.029036 -0.000953
# 6 0.010120 0.003859 -0.004729 -0.002342 -0.000953 0.042482
#
#
# Mechanical properties :
#
#
# Convention : Reuss Voigt Hill
#
# Bulk Modulus (GPa) = 31.52302 59.82799 45.67551
# Shear Modulus (GPa) = 20.56975 30.70405 25.63690
#
# Velocity S-wave (km/s) = 2.99932 3.66443 3.34843
# Velocity P-wave (km/s) = 5.07748 6.63845 5.90973
#
# Compressibility (1/GPa) = 0.03172285
#
# Stress axis : x y z
#
# Youngs Moduli (GPa) = 23.88989 51.77496 61.11383
#
# Poissons Ratio (x) = 0.19536 0.76488
# Poissons Ratio (y) = 0.09014 0.40443
# Poissons Ratio (z) = 0.29900 0.34263
#
# Static dielectric constant tensor:
#      x y z
#    x 1.933520 0.016580 0.004540 
#    y 0.016580 1.846010 -0.003270 
#    z 0.004540 -0.003270 1.853870 
# 
# From -- ./inp_files/5997.got.cif
#   From: 2010.05.17/outbox.cif.g08.bks.cpg/sg1_3_cif.got.tgz:5997.got - 2010.05.17 20:27:59.
