data_PCOD9000059
_publ_section_title
;
Structure prediction by ZEFSAII (Michael W. Deem and Ramdas Pophale) SiO2 
 PCOD9000059
Probable space group: P 1
;
_chemical_formula_sum "Si O2"
_cell_formula_units_Z 8
_cell_length_a 4.973121
_cell_length_b 13.230312
_cell_length_c 13.582583
_cell_angle_alpha 22.795784
_cell_angle_beta 88.771386
_cell_angle_gamma 91.006521
_cell_volume 344.562724
_symmetry_space_group_name_H-M "P 1"
_symmetry_group_IT_number 1
_symmetry_cell_setting 'triclinic'
loop_
_space_group_symop_operation_xyz
x,y,z
loop_
_atom_site_type_symbol
_atom_site_label
_atom_site_fract_x
_atom_site_fract_y
_atom_site_fract_z
Si Si1 0.696270 0.702700 0.048070
Si Si2 0.861742 0.869592 0.109226
Si Si3 0.655403 0.181264 0.391164
Si Si4 0.163336 0.297472 0.179136
Si Si5 0.360099 0.190469 0.882506
Si Si6 0.204219 0.819578 0.835381
Si Si7 0.974881 0.206865 0.042979
Si Si8 0.750417 0.642308 0.512054
O O1 0.779684 0.721044 0.143631
O O2 0.717634 0.424855 0.245496
O O3 0.385469 0.750000 0.990587
O O4 0.920414 0.894248 0.813664
O O5 0.900244 0.678029 0.372962
O O6 0.617325 0.037327 0.992882
O O7 0.124894 0.076852 0.912845
O O8 0.474801 0.250943 0.235396
O O9 0.938273 0.105245 0.413478
O O10 0.429070 0.000243 0.613020
O O11 0.142119 0.573777 0.984405
O O12 0.076484 0.295797 0.069066
O O13 0.228176 0.134212 0.040921
O O14 0.461650 0.497870 0.611118
O O15 0.857107 0.440106 0.772031
O O16 0.779711 0.935085 0.293335
#
# Coordination Sequence:
#
# PCOD9000059 Si02
#       8
#     1   1   1   1   1   1   1   1
#     4  10  22  41  65 100 129 172 222 274 339 402
#     4  11  25  43  71  99 140 183 232 280 347 403
#     4  10  22  42  64  99 133 170 220 281 330 410
#     4  10  24  40  65  98 130 174 225 269 340 402
#     4  11  24  46  64  99 138 182 226 288 327 409
#     4  10  21  42  66  94 138 165 222 277 337 401
#     4  11  27  45  72 102 141 184 228 282 343 405
#     4  11  25  47  67 101 141 178 233 285 331 410
#
# _framework density 23.217832000000001
#
# number of rings (size 3 to 8) (size 9 to 14) (size 15 to 20)
#    0.000    1.500    2.500    1.500    7.000    3.000 
#    0.000    0.000    0.000    0.000    0.000    0.000 
#    0.000    0.000    0.000    0.000    0.000    0.000 
#
# Total GULP energy -44624.558685 kJ/mol
# GULP energy per Si atom -5578.069836 kJ/mol
# Density = 2.316499 g / cm^3
# Si number density = 23.217832 Si / 1000 Ang^3
#
#
#
# Elastic Constant Matrix: (Units=GPa)
#
#
# Indices 1 2 3 4 5 6 
#
# 1 113.3208 51.3532 20.9058 -24.6515 0.0051 10.4270
# 2 51.3532 147.7353 46.3521 15.3212 -8.3375 62.4999
# 3 20.9058 46.3521 105.9290 -15.1899 -13.3871 21.6095
# 4 -24.6515 15.3212 -15.1899 20.1454 10.7335 -8.4441
# 5 0.0051 -8.3375 -13.3871 10.7335 34.2917 3.5250
# 6 10.4270 62.4999 21.6095 -8.4441 3.5250 34.7552
#
#
#
# Elastic Compliance Matrix: (Units=1/GPa)
#
#
# Indices 1 2 3 4 5 6 
#
# 1 0.005135 0.007099 -0.001465 -0.010411 0.006113 -0.016545
# 2 0.007099 -0.006296 0.000350 0.026861 -0.011517 0.016669
# 3 -0.001465 0.000350 0.011996 0.000786 0.005345 -0.008000
# 4 -0.010411 0.026861 0.000786 -0.012521 0.015932 -0.050328
# 5 0.006113 -0.011517 0.005345 0.015932 0.021690 0.017224
# 6 -0.016545 0.016669 -0.008000 -0.050328 0.017224 -0.005239
#
#
# Mechanical properties :
#
#
# Convention : Reuss Voigt Hill
#
# Bulk Modulus (GPa) = 43.85418 67.13414 55.49416
# Shear Modulus (GPa) = 480.84251 34.39673 257.61962
#
# Velocity S-wave (km/s) = 14.40660 3.85317 10.54507
# Velocity P-wave (km/s) = 17.19484 6.98381 13.12319
#
# Compressibility (1/GPa) = 0.02280284
#
# Stress axis : x y z
#
# Youngs Moduli (GPa) = 194.73912 -158.83258 83.35818
#
# Poissons Ratio (x) = 1.12750 0.12212
# Poissons Ratio (y) = -1.38239 -0.02917
# Poissons Ratio (z) = 0.28529 0.05558
#
# Static dielectric constant tensor:
#      x y z
#    x 1.956910 0.028300 -0.013690 
#    y 0.028300 1.822630 0.037930 
#    z -0.013690 0.037930 2.025940 
# 
# From -- ./inp_files/480.got.cif
#   From: 2010.05.17/outbox.cif.g08.bks.cpg/sg1_1_cif.got.tgz:480.got - 2010.05.17 20:27:59.
