data_PCOD9000576
_publ_section_title
;
Structure prediction by ZEFSAII (Michael W. Deem and Ramdas Pophale) SiO2 
 PCOD9000576
Probable space group: P 1
;
_chemical_formula_sum "Si O2"
_cell_formula_units_Z 8
_cell_length_a 10.997525
_cell_length_b 7.974888
_cell_length_c 5.103973
_cell_angle_alpha 88.885821
_cell_angle_beta 91.555746
_cell_angle_gamma 42.619632
_cell_volume 302.482884
_symmetry_space_group_name_H-M "P 1"
_symmetry_group_IT_number 1
_symmetry_cell_setting 'triclinic'
loop_
_space_group_symop_operation_xyz
x,y,z
loop_
_atom_site_type_symbol
_atom_site_label
_atom_site_fract_x
_atom_site_fract_y
_atom_site_fract_z
Si Si1 0.189450 0.221420 0.759400
Si Si2 0.123258 0.504381 0.241354
Si Si3 0.386148 0.750101 0.564391
Si Si4 0.707026 0.227295 0.371718
Si Si5 0.608535 0.992533 0.624466
Si Si6 0.011536 0.167156 0.389450
Si Si7 0.771195 0.710920 0.144375
Si Si8 0.397210 0.436122 0.956713
O O1 0.142850 0.409278 0.534261
O O2 0.048675 0.213515 0.677967
O O3 0.374504 0.939827 0.704504
O O4 0.179639 0.302911 0.042830
O O5 0.252022 0.524225 0.161314
O O6 0.909926 0.727838 0.176468
O O7 0.579121 0.504734 0.474725
O O8 0.337470 0.650247 0.765811
O O9 0.223100 0.927130 0.337444
O O10 0.707354 0.069979 0.571803
O O11 0.903075 0.106213 0.361937
O O12 0.582584 0.297493 0.117607
O O13 0.611902 0.904358 0.340186
O O14 0.440904 0.236421 0.770864
O O15 0.713805 0.772309 0.841198
O O16 0.883932 0.432825 0.235212
#
# Coordination Sequence:
#
# PCOD9000576 Si02
#       8
#     1   1   1   1   1   1   1   1
#     4   9  23  46  68 107 136 187 241 294 355 421
#     4  11  24  43  75 101 143 182 242 295 354 426
#     4   9  24  45  69 108 142 191 242 290 367 431
#     4  11  24  48  68 108 147 192 235 299 364 433
#     4  11  25  47  67 105 142 187 241 291 359 425
#     4   9  23  47  71 104 141 190 239 299 354 437
#     4  11  23  47  72 104 137 188 246 294 357 420
#     4  11  26  45  72 107 148 189 240 298 366 427
#
# _framework density 26.447779000000001
#
# number of rings (size 3 to 8) (size 9 to 14) (size 15 to 20)
#    0.750    1.000    1.250    1.500    7.000    3.000 
#   13.500    0.000    0.000    0.000    0.000    0.000 
#    0.000    0.000    0.000    0.000    0.000    0.000 
#
# Total GULP energy -44709.299203 kJ/mol
# GULP energy per Si atom -5588.662400 kJ/mol
# Density = 2.638758 g / cm^3
# Si number density = 26.447779 Si / 1000 Ang^3
#
#
#
# Elastic Constant Matrix: (Units=GPa)
#
#
# Indices 1 2 3 4 5 6 
#
# 1 113.2185 -7.9295 22.8973 -10.4959 7.0403 -27.1942
# 2 -7.9295 89.5693 29.3127 -6.4590 -2.6999 -4.7638
# 3 22.8973 29.3127 96.2230 -8.9978 -1.0957 -4.2724
# 4 -10.4959 -6.4590 -8.9978 56.4860 -1.0456 -5.3133
# 5 7.0403 -2.6999 -1.0957 -1.0456 41.2582 2.8944
# 6 -27.1942 -4.7638 -4.2724 -5.3133 2.8944 32.3657
#
#
#
# Elastic Compliance Matrix: (Units=1/GPa)
#
#
# Indices 1 2 3 4 5 6 
#
# 1 0.012985 0.002972 -0.003199 0.003293 -0.002845 0.011720
# 2 0.002972 0.013209 -0.004383 0.001755 -0.000006 0.004151
# 3 -0.003199 -0.004383 0.012496 0.000755 0.000724 -0.001624
# 4 0.003293 0.001755 0.000755 0.019223 -0.000383 0.006315
# 5 -0.002845 -0.000006 0.000724 -0.000383 0.025055 -0.004599
# 6 0.011720 0.004151 -0.001624 0.006315 -0.004599 0.042589
#
#
# Mechanical properties :
#
#
# Convention : Reuss Voigt Hill
#
# Bulk Modulus (GPa) = 33.93414 43.06353 38.49884
# Shear Modulus (GPa) = 34.57810 43.00400 38.79105
#
# Velocity S-wave (km/s) = 3.61974 4.03674 3.83391
# Velocity P-wave (km/s) = 5.50713 6.16805 5.84694
#
# Compressibility (1/GPa) = 0.02946885
#
# Stress axis : x y z
#
# Youngs Moduli (GPa) = 77.01280 75.70566 80.02751
#
# Poissons Ratio (x) = -0.22496 0.25603
# Poissons Ratio (y) = -0.22885 0.35074
# Poissons Ratio (z) = 0.24638 0.33180
#
# Static dielectric constant tensor:
#      x y z
#    x 2.176070 -0.014820 -0.026650 
#    y -0.014820 2.133440 0.073620 
#    z -0.026650 0.073620 2.069260 
# 
# From -- ./inp_files/2187.got.cif
#   From: 2010.05.17/outbox.cif.g08.bks.cpg/sg1_2_cif.got.tgz:2187.got - 2010.05.17 20:27:59.
