data_PCOD9000401
_publ_section_title
;
Structure prediction by ZEFSAII (Michael W. Deem and Ramdas Pophale) SiO2 
 PCOD9000401
Probable space group: P 1
;
_chemical_formula_sum "Si O2"
_cell_formula_units_Z 8
_cell_length_a 7.094804
_cell_length_b 7.107685
_cell_length_c 9.680271
_cell_angle_alpha 133.022333
_cell_angle_beta 65.782156
_cell_angle_gamma 94.063259
_cell_volume 309.067533
_symmetry_space_group_name_H-M "P 1"
_symmetry_group_IT_number 1
_symmetry_cell_setting 'triclinic'
loop_
_space_group_symop_operation_xyz
x,y,z
loop_
_atom_site_type_symbol
_atom_site_label
_atom_site_fract_x
_atom_site_fract_y
_atom_site_fract_z
Si Si1 0.500000 0.997740 0.339410
Si Si2 0.643401 0.866403 0.917107
Si Si3 0.091317 0.422421 0.748109
Si Si4 0.786165 0.371375 0.451834
Si Si5 0.669038 0.274817 0.891494
Si Si6 0.203756 0.447345 0.034240
Si Si7 0.729164 0.770365 0.420828
Si Si8 0.172730 0.960364 0.977242
O O1 0.599022 0.911187 0.114661
O O2 0.422786 0.476122 0.049126
O O3 0.243844 0.158279 0.491955
O O4 0.613201 0.222693 0.461989
O O5 0.413149 0.869364 0.921553
O O6 0.801036 0.576472 0.670869
O O7 0.699463 0.113837 0.947532
O O8 0.866583 0.383242 0.847156
O O9 0.213947 0.433241 0.861276
O O10 0.091387 0.711473 0.831241
O O11 0.708271 0.549566 0.426657
O O12 0.008981 0.142643 0.231016
O O13 0.673508 0.046085 0.661230
O O14 0.583125 0.791926 0.339517
O O15 0.982934 0.678082 0.257047
O O16 0.178554 0.166087 0.956338
#
# Coordination Sequence:
#
# PCOD9000401 Si02
#       8
#     1   1   1   1   1   1   1   1
#     4  12  25  46  77 120 152 200 253 314 387 458
#     4  10  24  50  78 113 152 200 259 316 382 451
#     4  12  25  46  77 120 152 200 253 314 387 458
#     4  10  23  50  76 103 151 204 255 318 375 445
#     4  10  24  50  78 113 152 200 259 316 382 451
#     4  10  23  50  76 103 151 204 255 318 375 445
#     4  10  23  50  77 106 154 202 255 319 374 450
#     4  10  23  50  77 106 154 202 255 319 374 450
#
# _framework density 25.884312000000001
#
# number of rings (size 3 to 8) (size 9 to 14) (size 15 to 20)
#    0.000    1.500    2.500    0.750    3.500    2.000 
#   18.000    5.000    0.000    0.000    0.000    0.000 
#    0.000    0.000    0.000    0.000    0.000    0.000 
#
# Total GULP energy -44864.655211 kJ/mol
# GULP energy per Si atom -5608.081901 kJ/mol
# Density = 2.582540 g / cm^3
# Si number density = 25.884312 Si / 1000 Ang^3
#
#
#
# Elastic Constant Matrix: (Units=GPa)
#
#
# Indices 1 2 3 4 5 6 
#
# 1 102.7268 43.3729 53.6097 9.4418 -4.6777 19.3042
# 2 43.3729 146.2171 29.6323 -11.8878 9.5621 8.2836
# 3 53.6097 29.6323 129.5629 -21.3371 -15.8319 -13.4164
# 4 9.4418 -11.8878 -21.3371 37.7634 0.6211 5.5965
# 5 -4.6777 9.5621 -15.8319 0.6211 57.3219 -10.1560
# 6 19.3042 8.2836 -13.4164 5.5965 -10.1560 43.3032
#
#
#
# Elastic Compliance Matrix: (Units=1/GPa)
#
#
# Indices 1 2 3 4 5 6 
#
# 1 0.019453 -0.003796 -0.010226 -0.010267 -0.002323 -0.010332
# 2 -0.003796 0.008462 -0.000080 0.003731 -0.001941 -0.000889
# 3 -0.010226 -0.000080 0.015094 0.009624 0.004864 0.009147
# 4 -0.010267 0.003731 0.009624 0.035256 0.001274 0.002587
# 5 -0.002323 -0.001941 0.004864 0.001274 0.020237 0.007496
# 6 -0.010332 -0.000889 0.009147 0.002587 0.007496 0.032126
#
#
# Mechanical properties :
#
#
# Convention : Reuss Voigt Hill
#
# Bulk Modulus (GPa) = 67.53309 70.19297 68.86303
# Shear Modulus (GPa) = 30.53145 44.47048 37.50097
#
# Velocity S-wave (km/s) = 3.43816 4.14943 3.81043
# Velocity P-wave (km/s) = 6.47366 7.08053 6.78388
#
# Compressibility (1/GPa) = 0.01480756
#
# Stress axis : x y z
#
# Youngs Moduli (GPa) = 51.40622 118.17782 66.25117
#
# Poissons Ratio (x) = 0.44855 0.67745
# Poissons Ratio (y) = 0.19512 0.00527
# Poissons Ratio (z) = 0.52566 0.00940
#
# Static dielectric constant tensor:
#      x y z
#    x 2.064340 -0.045930 -0.083520 
#    y -0.045930 2.018730 0.055810 
#    z -0.083520 0.055810 2.093480 
# 
# From -- ./inp_files/6522.got.cif
#   From: 2010.05.17/outbox.cif.g08.bks.cpg/sg1_4_cif.got.tgz:6522.got - 2010.05.17 20:27:59.
