data_PCOD9000113
_publ_section_title
;
Structure prediction by ZEFSAII (Michael W. Deem and Ramdas Pophale) SiO2 
 PCOD9000113
Probable space group: P 1
;
_chemical_formula_sum "Si O2"
_cell_formula_units_Z 8
_cell_length_a 6.680237
_cell_length_b 5.204613
_cell_length_c 15.117179
_cell_angle_alpha 99.421320
_cell_angle_beta 137.893716
_cell_angle_gamma 74.994338
_cell_volume 340.070886
_symmetry_space_group_name_H-M "P 1"
_symmetry_group_IT_number 1
_symmetry_cell_setting 'triclinic'
loop_
_space_group_symop_operation_xyz
x,y,z
loop_
_atom_site_type_symbol
_atom_site_label
_atom_site_fract_x
_atom_site_fract_y
_atom_site_fract_z
Si Si1 0.380390 0.534510 0.665360
Si Si2 0.982843 0.040560 0.651044
Si Si3 0.752928 0.384132 0.446833
Si Si4 0.496426 0.462460 0.176048
Si Si5 0.855868 0.891325 0.238511
Si Si6 0.480798 0.803205 0.534279
Si Si7 0.530075 0.284503 0.870721
Si Si8 0.860193 0.735683 0.036427
O O1 0.501064 0.655334 0.625858
O O2 0.583421 0.323122 0.785255
O O3 0.087402 0.423875 0.533057
O O4 0.236149 0.777640 0.698236
O O5 0.814466 0.110402 0.505442
O O6 0.175282 0.257444 0.755977
O O7 0.712543 0.002671 0.623693
O O8 0.557902 0.405784 0.297143
O O9 0.609110 0.595826 0.486316
O O10 0.682903 0.678102 0.214089
O O11 0.138320 0.581590 0.059139
O O12 0.626640 0.173059 0.162104
O O13 0.972770 0.791269 0.174315
O O14 0.135322 0.922442 0.396113
O O15 0.623837 0.539512 0.960295
O O16 0.720233 0.016238 0.960660
#
# Coordination Sequence:
#
# PCOD9000113 Si02
#       8
#     1   1   1   1   1   1   1   1
#     4  10  21  45  69 106 145 189 242 304 364 437
#     4  10  23  42  72 108 142 195 237 308 368 426
#     4  10  22  39  69 106 153 183 232 309 375 429
#     4  12  26  47  72 113 149 189 251 300 369 442
#     4  12  27  46  77 113 146 192 243 310 371 446
#     4  11  23  41  74 116 145 186 241 304 390 431
#     4  11  24  49  77  99 148 204 246 299 360 436
#     4  12  26  51  76 103 152 202 248 298 365 429
#
# _framework density 23.524505000000001
#
# number of rings (size 3 to 8) (size 9 to 14) (size 15 to 20)
#    0.000    1.000    3.750    2.250    3.500    3.000 
#    2.250    6.250    0.000    0.000    0.000    0.000 
#    0.000    0.000    0.000    0.000    0.000    0.000 
#
# Total GULP energy -44743.213831 kJ/mol
# GULP energy per Si atom -5592.901729 kJ/mol
# Density = 2.347096 g / cm^3
# Si number density = 23.524505 Si / 1000 Ang^3
#
#
#
# Elastic Constant Matrix: (Units=GPa)
#
#
# Indices 1 2 3 4 5 6 
#
# 1 115.0890 40.0000 30.2420 -7.6494 2.5624 29.0957
# 2 40.0000 123.8189 32.0812 -15.7495 0.4955 16.7417
# 3 30.2420 32.0812 88.9402 -15.7640 -6.7160 13.8748
# 4 -7.6494 -15.7495 -15.7640 36.0032 0.7890 -6.7704
# 5 2.5624 0.4955 -6.7160 0.7890 14.8651 -3.1559
# 6 29.0957 16.7417 13.8748 -6.7704 -3.1559 45.4037
#
#
#
# Elastic Compliance Matrix: (Units=1/GPa)
#
#
# Indices 1 2 3 4 5 6 
#
# 1 0.011863 -0.002365 -0.002667 -0.000776 -0.004476 -0.006342
# 2 -0.002365 0.009917 -0.002217 0.002676 -0.001312 -0.001156
# 3 -0.002667 -0.002217 0.014357 0.004466 0.006627 -0.000734
# 4 -0.000776 0.002676 0.004466 0.031255 0.001014 0.002877
# 5 -0.004476 -0.001312 0.006627 0.001014 0.072410 0.006511
# 6 -0.006342 -0.001156 -0.000734 0.002877 0.006511 0.027621
#
#
# Mechanical properties :
#
#
# Convention : Reuss Voigt Hill
#
# Bulk Modulus (GPa) = 46.21454 59.16607 52.69031
# Shear Modulus (GPa) = 26.43642 34.28939 30.36290
#
# Velocity S-wave (km/s) = 3.35592 3.82200 3.59652
# Velocity P-wave (km/s) = 5.89103 6.68448 6.30026
#
# Compressibility (1/GPa) = 0.02163821
#
# Stress axis : x y z
#
# Youngs Moduli (GPa) = 84.29571 100.84024 69.65387
#
# Poissons Ratio (x) = 0.23845 0.18577
# Poissons Ratio (y) = 0.19933 0.15445
# Poissons Ratio (z) = 0.22482 0.22360
#
# Static dielectric constant tensor:
#      x y z
#    x 1.868670 -0.021310 0.015730 
#    y -0.021310 1.946980 -0.011590 
#    z 0.015730 -0.011590 1.885640 
# 
# From -- ./inp_files/1980.got.cif
#   From: 2010.05.17/outbox.cif.g08.bks.cpg/sg1_1_cif.got.tgz:1980.got - 2010.05.17 20:27:59.
