data_PCOD9000957
_publ_section_title
;
Structure prediction by ZEFSAII (Michael W. Deem and Ramdas Pophale) SiO2 
 PCOD9000957
Probable space group: P 1
;
_chemical_formula_sum "Si O2"
_cell_formula_units_Z 8
_cell_length_a 10.823771
_cell_length_b 5.416127
_cell_length_c 6.901077
_cell_angle_alpha 78.631276
_cell_angle_beta 127.224938
_cell_angle_gamma 97.168613
_cell_volume 315.810002
_symmetry_space_group_name_H-M "P 1"
_symmetry_group_IT_number 1
_symmetry_cell_setting 'triclinic'
loop_
_space_group_symop_operation_xyz
x,y,z
loop_
_atom_site_type_symbol
_atom_site_label
_atom_site_fract_x
_atom_site_fract_y
_atom_site_fract_z
Si Si1 0.445070 0.176640 0.739660
Si Si2 0.324881 0.687499 0.582981
Si Si3 0.723054 0.401284 0.511914
Si Si4 0.961862 0.780695 0.172612
Si Si5 0.792813 0.270996 0.048138
Si Si6 0.891528 0.911010 0.636139
Si Si7 0.238661 0.023056 0.935311
Si Si8 0.362625 0.511637 0.097082
O O1 0.380012 0.440023 0.559053
O O2 0.619492 0.223012 0.965013
O O3 0.338998 0.100564 0.832339
O O4 0.431149 0.936838 0.622100
O O5 0.346371 0.599791 0.842115
O O6 0.145778 0.753556 0.374788
O O7 0.761163 0.338484 0.781519
O O8 0.807570 0.666541 0.507240
O O9 0.790050 0.162749 0.497464
O O10 0.539960 0.437417 0.308573
O O11 0.880907 0.512404 0.180331
O O12 0.923285 0.843298 0.902739
O O13 0.890961 0.015900 0.184387
O O14 0.063736 0.968574 0.717133
O O15 0.253313 0.264700 0.051688
O O16 0.308068 0.761622 0.118677
#
# Coordination Sequence:
#
# PCOD9000957 Si02
#       8
#     1   1   1   1   1   1   1   1
#     4  10  21  38  56  83 117 149 188 228 279 338
#     4  10  21  38  56  83 117 149 188 228 279 338
#     4  10  21  38  60  85 113 147 188 234 282 332
#     4  10  21  38  60  85 113 147 188 234 282 332
#     4  10  21  38  60  85 113 147 188 234 282 332
#     4  10  21  38  60  85 113 147 188 234 282 332
#     4  10  21  38  56  83 117 149 188 228 279 338
#     4  10  21  38  56  83 117 149 188 228 279 338
#
# _framework density 25.331685
#
# number of rings (size 3 to 8) (size 9 to 14) (size 15 to 20)
#    0.000    2.000    0.000    3.000    0.000    2.000 
#    0.000   30.000    0.000    0.000    0.000    0.000 
#    0.000    0.000    0.000    0.000    0.000    0.000 
#
# Total GULP energy -44839.138739 kJ/mol
# GULP energy per Si atom -5604.892342 kJ/mol
# Density = 2.527403 g / cm^3
# Si number density = 25.331685 Si / 1000 Ang^3
#
#
#
# Elastic Constant Matrix: (Units=GPa)
#
#
# Indices 1 2 3 4 5 6 
#
# 1 102.9666 52.3142 32.7368 -4.4508 30.7884 5.1519
# 2 52.3142 253.6294 81.8060 -14.1980 35.2344 -5.1222
# 3 32.7368 81.8060 136.9717 -21.7693 36.7939 4.9755
# 4 -4.4508 -14.1980 -21.7693 43.9247 -4.3740 13.0250
# 5 30.7884 35.2344 36.7939 -4.3740 59.8367 1.9372
# 6 5.1519 -5.1222 4.9755 13.0250 1.9372 41.5927
#
#
#
# Elastic Compliance Matrix: (Units=1/GPa)
#
#
# Indices 1 2 3 4 5 6 
#
# 1 0.012308 -0.001708 -0.000461 0.000443 -0.004960 -0.001588
# 2 -0.001708 0.005248 -0.002633 -0.000224 -0.000650 0.001273
# 3 -0.000461 -0.002633 0.011124 0.005037 -0.004589 -0.002961
# 4 0.000443 -0.000224 0.005037 0.027936 -0.000847 -0.009394
# 5 -0.004960 -0.000650 -0.004589 -0.000847 0.022396 0.000305
# 6 -0.001588 0.001273 -0.002961 -0.009394 0.000305 0.027678
#
#
# Mechanical properties :
#
#
# Convention : Reuss Voigt Hill
#
# Bulk Modulus (GPa) = 52.42433 91.92016 72.17225
# Shear Modulus (GPa) = 40.76496 50.85152 45.80824
#
# Velocity S-wave (km/s) = 4.01590 4.48529 4.25707
# Velocity P-wave (km/s) = 6.49949 7.94916 7.26060
#
# Compressibility (1/GPa) = 0.01907511
#
# Stress axis : x y z
#
# Youngs Moduli (GPa) = 81.24800 190.55279 89.89231
#
# Poissons Ratio (x) = 0.32550 0.04144
# Poissons Ratio (y) = 0.13879 0.23672
# Poissons Ratio (z) = 0.03745 0.50181
#
# Static dielectric constant tensor:
#      x y z
#    x 1.758850 0.000130 0.172590 
#    y 0.000130 2.040570 -0.020810 
#    z 0.172590 -0.020810 1.641510 
# 
# From -- ./inp_files/347.got.cif
#   From: 2010.05.17/outbox.cif.g08.bks.cpg/sg1_1_cif.got.tgz:347.got - 2010.05.17 20:27:59.
