data_PCOD9000222
_publ_section_title
;
Structure prediction by ZEFSAII (Michael W. Deem and Ramdas Pophale) SiO2 
 PCOD9000222
Probable space group: P 1
;
_chemical_formula_sum "Si O2"
_cell_formula_units_Z 8
_cell_length_a 7.215835
_cell_length_b 7.480019
_cell_length_c 6.823863
_cell_angle_alpha 102.892692
_cell_angle_beta 68.621371
_cell_angle_gamma 110.874283
_cell_volume 318.615643
_symmetry_space_group_name_H-M "P 1"
_symmetry_group_IT_number 1
_symmetry_cell_setting 'triclinic'
loop_
_space_group_symop_operation_xyz
x,y,z
loop_
_atom_site_type_symbol
_atom_site_label
_atom_site_fract_x
_atom_site_fract_y
_atom_site_fract_z
Si Si1 0.970930 0.603010 0.544660
Si Si2 0.673088 0.060021 0.071810
Si Si3 0.387403 0.842716 0.630084
Si Si4 0.973213 0.252640 0.699426
Si Si5 0.352643 0.150512 0.451408
Si Si6 0.540947 0.547490 0.249642
Si Si7 0.957127 0.449140 0.117886
Si Si8 0.568664 0.676478 0.874497
O O1 0.959567 0.392246 0.569849
O O2 0.046743 0.597683 0.291736
O O3 0.740482 0.620385 0.664781
O O4 0.144447 0.748998 0.644297
O O5 0.441087 0.047511 0.219864
O O6 0.826851 0.229692 0.184886
O O7 0.749517 0.142667 0.847691
O O8 0.701322 0.852976 0.004934
O O9 0.457008 0.526954 0.051435
O O10 0.436905 0.774386 0.808359
O O11 0.430734 0.063861 0.594637
O O12 0.106825 0.114098 0.559512
O O13 0.080508 0.393660 0.875763
O O14 0.432196 0.372320 0.400248
O O15 0.772096 0.528644 0.128834
O O16 0.508206 0.733654 0.412692
#
# Coordination Sequence:
#
# PCOD9000222 Si02
#       8
#     1   1   1   1   1   1   1   1
#     4  12  23  44  77 103 149 193 248 305 369 441
#     4   9  22  43  68 102 144 187 241 293 368 427
#     4  12  27  44  74 112 146 195 250 301 377 443
#     4  10  22  43  69 107 143 193 244 295 373 437
#     4  11  22  48  69 107 150 185 252 300 361 451
#     4  11  22  48  72 103 150 195 245 304 371 436
#     4   9  22  44  69 104 140 198 238 299 367 437
#     4  12  24  48  76 106 152 196 240 317 370 436
#
# _framework density 25.108620999999999
#
# number of rings (size 3 to 8) (size 9 to 14) (size 15 to 20)
#    0.750    0.500    5.000    0.750    0.000    3.000 
#    6.750    0.000    0.000    0.000    0.000    0.000 
#    0.000    0.000    0.000    0.000    0.000    0.000 
#
# Total GULP energy -44562.776405 kJ/mol
# GULP energy per Si atom -5570.347051 kJ/mol
# Density = 2.505147 g / cm^3
# Si number density = 25.108621 Si / 1000 Ang^3
#
#
#
# Elastic Constant Matrix: (Units=GPa)
#
#
# Indices 1 2 3 4 5 6 
#
# 1 96.5844 25.0960 49.1273 -8.2196 -2.5313 -19.8234
# 2 25.0960 90.8374 18.9185 -14.2900 13.5686 -21.0308
# 3 49.1273 18.9185 109.9621 -16.8729 1.9224 -2.1286
# 4 -8.2196 -14.2900 -16.8729 42.7847 -15.9670 2.6609
# 5 -2.5313 13.5686 1.9224 -15.9670 49.5148 5.6954
# 6 -19.8234 -21.0308 -2.1286 2.6609 5.6954 31.3777
#
#
#
# Elastic Compliance Matrix: (Units=1/GPa)
#
#
# Indices 1 2 3 4 5 6 
#
# 1 0.015877 -0.001004 -0.006822 -0.000463 0.000179 0.008902
# 2 -0.001004 0.014885 -0.001560 0.001821 -0.004624 0.009921
# 3 -0.006822 -0.001560 0.012921 0.004141 0.001499 -0.005103
# 4 -0.000463 0.001821 0.004141 0.029073 0.009025 -0.002895
# 5 0.000179 -0.004624 0.001499 0.009025 0.025272 -0.008237
# 6 0.008902 0.009921 -0.005103 -0.002895 -0.008237 0.045538
#
#
# Mechanical properties :
#
#
# Convention : Reuss Voigt Hill
#
# Bulk Modulus (GPa) = 40.14457 53.74082 46.94270
# Shear Modulus (GPa) = 29.30119 38.35158 33.82639
#
# Velocity S-wave (km/s) = 3.41981 3.91247 3.67441
# Velocity P-wave (km/s) = 5.62286 6.46991 6.06120
#
# Compressibility (1/GPa) = 0.02490997
#
# Stress axis : x y z
#
# Youngs Moduli (GPa) = 62.98416 67.18122 77.39449
#
# Poissons Ratio (x) = 0.06745 0.52801
# Poissons Ratio (y) = 0.06324 0.12074
# Poissons Ratio (z) = 0.42970 0.10481
#
# Static dielectric constant tensor:
#      x y z
#    x 2.027280 0.107980 0.023010 
#    y 0.107980 2.108520 -0.071890 
#    z 0.023010 -0.071890 2.001300 
# 
# From -- ./inp_files/1208.got.cif
#   From: 2010.05.17/outbox.cif.g08.bks.cpg/sg1_1_cif.got.tgz:1208.got - 2010.05.17 20:27:59.
