data_PCOD9000955
_publ_section_title
;
Structure prediction by ZEFSAII (Michael W. Deem and Ramdas Pophale) SiO2 
 PCOD9000955
Probable space group: P 1
;
_chemical_formula_sum "Si O2"
_cell_formula_units_Z 8
_cell_length_a 11.412713
_cell_length_b 5.706966
_cell_length_c 8.798793
_cell_angle_alpha 97.749429
_cell_angle_beta 63.217432
_cell_angle_gamma 52.603436
_cell_volume 332.250523
_symmetry_space_group_name_H-M "P 1"
_symmetry_group_IT_number 1
_symmetry_cell_setting 'triclinic'
loop_
_space_group_symop_operation_xyz
x,y,z
loop_
_atom_site_type_symbol
_atom_site_label
_atom_site_fract_x
_atom_site_fract_y
_atom_site_fract_z
Si Si1 0.457820 0.990000 0.144590
Si Si2 0.785330 0.672283 0.423002
Si Si3 0.452708 0.502988 0.220514
Si Si4 0.895671 0.413129 0.018946
Si Si5 0.815810 0.942516 0.711763
Si Si6 0.456259 0.426864 0.562566
Si Si7 0.082757 0.636657 0.784613
Si Si8 0.556996 0.644375 0.741872
O O1 0.366675 0.864580 0.240327
O O2 0.669520 0.722311 0.098313
O O3 0.350231 0.387667 0.255724
O O4 0.482774 0.913961 0.942361
O O5 0.918897 0.396057 0.186165
O O6 0.630883 0.677925 0.554097
O O7 0.834551 0.698879 0.563910
O O8 0.677300 0.036207 0.434613
O O9 0.465403 0.519511 0.396382
O O10 0.648913 0.183122 0.968440
O O11 0.008218 0.498072 0.899882
O O12 0.977209 0.038536 0.905521
O O13 0.743070 0.257817 0.678879
O O14 0.022706 0.669807 0.651093
O O15 0.406573 0.658302 0.757415
O O16 0.312077 0.395891 0.648119
#
# Coordination Sequence:
#
# PCOD9000955 Si02
#       8
#     1   1   1   1   1   1   1   1
#     4  11  19  39  67  92 119 161 219 259 297 369
#     4  11  22  40  70  95 122 170 224 262 306 386
#     4  11  20  39  64  96 118 170 211 259 307 379
#     4  12  23  42  70  92 129 172 219 256 317 385
#     4  10  21  40  65  95 124 166 221 262 309 380
#     4  11  26  39  64  98 133 165 210 268 327 376
#     4  12  26  44  63  97 133 172 204 270 328 373
#     4  10  21  37  65  95 126 164 216 262 309 378
#
# _framework density 24.078220000000002
#
# number of rings (size 3 to 8) (size 9 to 14) (size 15 to 20)
#    0.000    1.000    6.250    0.750    5.250    0.000 
#    0.000    5.000    0.000    0.000    0.000    0.000 
#    0.000    0.000    0.000    0.000    0.000    0.000 
#
# Total GULP energy -44538.836406 kJ/mol
# GULP energy per Si atom -5567.354551 kJ/mol
# Density = 2.402342 g / cm^3
# Si number density = 24.078220 Si / 1000 Ang^3
#
#
#
# Elastic Constant Matrix: (Units=GPa)
#
#
# Indices 1 2 3 4 5 6 
#
# 1 128.0903 25.2250 55.0303 -6.4243 34.7868 20.7691
# 2 25.2250 103.5542 38.8372 -24.6442 0.8966 34.5994
# 3 55.0303 38.8372 100.0421 -29.5985 18.6392 4.4013
# 4 -6.4243 -24.6442 -29.5985 34.1227 3.1062 -0.6704
# 5 34.7868 0.8966 18.6392 3.1062 34.2782 -2.7129
# 6 20.7691 34.5994 4.4013 -0.6704 -2.7129 35.1690
#
#
#
# Elastic Compliance Matrix: (Units=1/GPa)
#
#
# Indices 1 2 3 4 5 6 
#
# 1 0.015801 0.003051 -0.006712 0.000338 -0.013487 -0.012527
# 2 0.003051 0.020594 -0.004656 0.011335 -0.003836 -0.021559
# 3 -0.006712 -0.004656 0.020049 0.013309 -0.004706 0.005926
# 4 0.000338 0.011335 0.013309 0.050067 -0.013450 -0.013099
# 5 -0.013487 -0.003836 -0.004706 -0.013450 0.047987 0.015773
# 6 -0.012527 -0.021559 0.005926 -0.013099 0.015773 0.057267
#
#
# Mechanical properties :
#
#
# Convention : Reuss Voigt Hill
#
# Bulk Modulus (GPa) = 25.11996 63.31908 44.21952
# Shear Modulus (GPa) = 20.68945 34.88692 27.78819
#
# Velocity S-wave (km/s) = 2.93449 3.81057 3.40086
# Velocity P-wave (km/s) = 4.68369 6.76128 5.81601
#
# Compressibility (1/GPa) = 0.03980897
#
# Stress axis : x y z
#
# Youngs Moduli (GPa) = 63.28829 48.55808 49.87756
#
# Poissons Ratio (x) = -0.14815 0.33478
# Poissons Ratio (y) = -0.19309 0.23224
# Poissons Ratio (z) = 0.42479 0.22610
#
# Static dielectric constant tensor:
#      x y z
#    x 2.009670 0.055850 -0.007550 
#    y 0.055850 1.946850 0.060240 
#    z -0.007550 0.060240 2.008740 
# 
# From -- ./inp_files/1161.got.cif
#   From: 2010.05.17/outbox.cif.g08.bks.cpg/sg1_1_cif.got.tgz:1161.got - 2010.05.17 20:27:59.
