data_PCOD9001425
_publ_section_title
;
Structure prediction by ZEFSAII (Michael W. Deem and Ramdas Pophale) SiO2 
 PCOD9001425
Probable space group: P -1
;
_chemical_formula_sum "Si O2"
_cell_formula_units_Z 14
_cell_length_a 7.305425
_cell_length_b 20.141453
_cell_length_c 7.013808
_cell_angle_alpha 126.736783
_cell_angle_beta 53.705916
_cell_angle_gamma 126.678128
_cell_volume 617.516200
_symmetry_space_group_name_H-M "P -1"
_symmetry_group_IT_number 2
_symmetry_cell_setting 'triclinic'
loop_
_space_group_symop_operation_xyz
x,y,z
-x,-y,-z
loop_
_atom_site_type_symbol
_atom_site_label
_atom_site_fract_x
_atom_site_fract_y
_atom_site_fract_z
Si Si1 0.345789 0.465876 0.229228
Si Si2 0.282804 0.781211 0.299493
Si Si3 0.091123 0.879690 0.823063
Si Si4 0.443747 0.821963 0.688052
Si Si5 0.647517 0.925373 0.075384
Si Si6 0.210610 0.625629 0.578800
Si Si7 0.767965 0.410258 0.949575
O O1 0.299911 0.551724 0.488552
O O2 0.072693 0.395903 0.234556
O O3 0.500000 0.500000 0.000000
O O4 0.514835 0.424710 0.166542
O O5 0.051694 0.799500 0.559734
O O6 0.460616 0.806903 0.424178
O O7 0.401545 0.853804 0.190017
O O8 0.230039 0.679300 0.105693
O O9 0.203574 0.849145 0.883271
O O10 0.304697 0.970641 0.770325
O O11 0.860433 0.906585 0.024638
O O12 0.384690 0.727850 0.665660
O O13 0.653161 0.898239 0.803460
O O14 0.211175 0.608466 0.320619
O O15 0.000000 0.500000 0.000000
#
# Coordination Sequence:
#
# PCOD9001425 Si02
#       7
#     2   2   2   2   2   2   2
#     4   9  19  34  56  76 109 149 194 232 286 344
#     4   9  22  38  57  87 120 151 198 245 280 360
#     4   9  22  40  58  91 120 146 205 243 283 367
#     4   9  21  39  59  87 120 150 196 241 294 350
#     4  11  20  40  63  84 119 160 188 246 304 336
#     4   9  19  38  53  80 116 151 193 246 281 347
#     4  10  21  35  55  84 116 153 192 239 294 343
#
# _framework density 22.671467
#
# number of rings (size 3 to 8) (size 9 to 14) (size 15 to 20)
#    0.857    1.714    0.000    0.857    2.000    5.143 
#    2.571    1.429    0.000    0.000    0.000    0.000 
#    0.000    0.000    0.000    0.000    0.000    0.000 
#
# Total GULP energy -77995.260490 kJ/mol
# GULP energy per Si atom -5571.090035 kJ/mol
# Density = 2.261987 g / cm^3
# Si number density = 22.671467 Si / 1000 Ang^3
#
#
#
# Elastic Constant Matrix: (Units=GPa)
#
#
# Indices 1 2 3 4 5 6 
#
# 1 49.8252 8.9552 24.0263 10.1121 -1.1333 1.1361
# 2 8.9552 47.5808 41.4044 21.4682 -15.3851 -6.5046
# 3 24.0263 41.4044 48.9873 18.9178 -10.8449 1.3868
# 4 10.1121 21.4682 18.9178 44.2619 -7.5058 -1.5765
# 5 -1.1333 -15.3851 -10.8449 -7.5058 38.4494 2.8476
# 6 1.1361 -6.5046 1.3868 -1.5765 2.8476 27.1769
#
#
#
# Elastic Compliance Matrix: (Units=1/GPa)
#
#
# Indices 1 2 3 4 5 6 
#
# 1 0.040354 0.047778 -0.057351 -0.007138 0.001844 0.012068
# 2 0.047778 0.166660 -0.153223 -0.021781 0.017470 0.042616
# 3 -0.057351 -0.153223 0.173217 0.010372 -0.009041 -0.041565
# 4 -0.007138 -0.021781 0.010372 0.030253 0.000180 -0.003708
# 5 0.001844 0.017470 -0.009041 0.000180 0.030435 0.001387
# 6 0.012068 0.042616 -0.041565 -0.003708 0.001387 0.048252
#
#
# Mechanical properties :
#
#
# Convention : Reuss Voigt Hill
#
# Bulk Modulus (GPa) = 18.30210 32.79613 25.54911
# Shear Modulus (GPa) = 6.00257 26.77813 16.39035
#
# Velocity S-wave (km/s) = 1.62892 3.44050 2.69169
# Velocity P-wave (km/s) = 3.41000 5.50272 4.57756
#
# Compressibility (1/GPa) = 0.05463853
#
# Stress axis : x y z
#
# Youngs Moduli (GPa) = 24.78085 6.00022 5.77312
#
# Poissons Ratio (x) = -0.28668 0.33109
# Poissons Ratio (y) = -1.18398 0.88458
# Poissons Ratio (z) = 1.42121 0.91937
#
# Static dielectric constant tensor:
#      x y z
#    x 1.873840 -0.022730 0.011980 
#    y -0.022730 1.836180 -0.000030 
#    z 0.011980 -0.000030 1.896540 
# 
# From -- ./inp_files/226589.got.cif
#   From: 2010.05.17/outbox.cif.g08.bks.cpg/sg2_114_cif.got.tgz:226589.got - 2010.06.03 11:33:40.
