data_PCOD9001036
_publ_section_title
;
Structure prediction by ZEFSAII (Michael W. Deem and Ramdas Pophale) SiO2 
 PCOD9001036
Probable space group: P -1
;
_chemical_formula_sum "Si O2"
_cell_formula_units_Z 16
_cell_length_a 25.335144
_cell_length_b 5.862175
_cell_length_c 15.238661
_cell_angle_alpha 50.211729
_cell_angle_beta 28.051139
_cell_angle_gamma 61.814987
_cell_volume 790.605968
_symmetry_space_group_name_H-M "P -1"
_symmetry_group_IT_number 2
_symmetry_cell_setting 'triclinic'
loop_
_space_group_symop_operation_xyz
x,y,z
-x,-y,-z
loop_
_atom_site_type_symbol
_atom_site_label
_atom_site_fract_x
_atom_site_fract_y
_atom_site_fract_z
Si Si1 0.075190 0.181098 0.547726
Si Si2 0.869785 0.881022 0.144155
Si Si3 0.898412 0.600705 0.902215
Si Si4 0.148658 0.539350 0.179778
Si Si5 0.478650 0.271885 0.672052
Si Si6 0.405488 0.782321 0.756038
Si Si7 0.121210 0.999077 0.705752
Si Si8 0.727462 0.450785 0.343593
O O1 0.145859 0.358272 0.319166
O O2 0.141473 0.189294 0.539915
O O3 0.961630 0.314631 0.692784
O O4 0.020504 0.826143 0.691247
O O5 0.868901 0.810932 0.265333
O O6 0.747673 0.716007 0.321209
O O7 0.894623 0.243414 0.002245
O O8 0.984629 0.812800 0.950270
O O9 0.867895 0.671236 0.830753
O O10 0.800932 0.614976 0.112087
O O11 0.273100 0.777172 0.930036
O O12 0.500000 0.500000 0.500000
O O13 0.413186 0.437564 0.799814
O O14 0.601096 0.291010 0.534552
O O15 0.429277 0.937741 0.780271
O O16 0.500000 0.000000 0.500000
O O17 0.206970 0.784330 0.650546
#
# Coordination Sequence:
#
# PCOD9001036 Si02
#       8
#     2   2   2   2   2   2   2   2
#     4  11  24  39  58  88 128 166 203 243 313 389
#     4  10  21  33  55  88 125 162 196 255 309 372
#     4  11  20  34  58  88 127 158 200 249 308 377
#     4  11  24  40  60  87 125 168 202 251 315 380
#     4  10  23  38  60  92 121 158 203 261 321 365
#     4  10  23  40  63  90 121 159 211 264 311 365
#     4  10  21  35  54  87 122 160 205 248 307 375
#     4  11  22  34  62  88 127 157 199 263 315 367
#
# _framework density 20.237641
#
# number of rings (size 3 to 8) (size 9 to 14) (size 15 to 20)
#    0.000    1.500    2.500    2.250   15.750    0.000 
#    0.000    0.000    0.000    1.500    0.000    0.000 
#    0.000    0.000    0.000    0.000    0.000    0.000 
#
# Total GULP energy -89188.023051 kJ/mol
# GULP energy per Si atom -5574.251441 kJ/mol
# Density = 2.019158 g / cm^3
# Si number density = 20.237641 Si / 1000 Ang^3
#
#
#
# Elastic Constant Matrix: (Units=GPa)
#
#
# Indices 1 2 3 4 5 6 
#
# 1 146.5980 31.9304 32.0868 3.4347 17.3303 7.1255
# 2 31.9304 80.6326 10.1230 2.4078 2.5389 6.3628
# 3 32.0868 10.1230 46.2256 9.6362 8.6596 -3.1005
# 4 3.4347 2.4078 9.6362 11.4378 -2.8611 -4.8301
# 5 17.3303 2.5389 8.6596 -2.8611 40.5880 -4.9120
# 6 7.1255 6.3628 -3.1005 -4.8301 -4.9120 35.4324
#
#
#
# Elastic Compliance Matrix: (Units=1/GPa)
#
#
# Indices 1 2 3 4 5 6 
#
# 1 0.008998 -0.002654 -0.005497 0.000948 -0.002685 -0.002057
# 2 -0.002654 0.013816 -0.000840 -0.002396 -0.000005 -0.002348
# 3 -0.005497 -0.000840 0.032547 -0.027461 -0.006546 -0.000547
# 4 0.000948 -0.002396 -0.027461 0.121895 0.016218 0.016702
# 5 -0.002685 -0.000005 -0.006546 0.016218 0.029076 0.006210
# 6 -0.002057 -0.002348 -0.000547 0.016702 0.006210 0.032148
#
#
# Mechanical properties :
#
#
# Convention : Reuss Voigt Hill
#
# Bulk Modulus (GPa) = 26.75412 46.85961 36.80686
# Shear Modulus (GPa) = 18.59283 30.77937 24.68610
#
# Velocity S-wave (km/s) = 3.03434 3.90410 3.49637
# Velocity P-wave (km/s) = 5.05222 6.59754 5.87591
#
# Compressibility (1/GPa) = 0.03737743
#
# Stress axis : x y z
#
# Youngs Moduli (GPa) = 111.13707 72.38229 30.72501
#
# Poissons Ratio (x) = 0.19214 0.16889
# Poissons Ratio (y) = 0.29501 0.02581
# Poissons Ratio (z) = 0.61091 0.06080
#
# Static dielectric constant tensor:
#      x y z
#    x 1.747110 0.037790 -0.000980 
#    y 0.037790 1.847460 0.011180 
#    z -0.000980 0.011180 1.686950 
# 
# From -- ./inp_files/542002.got.cif
#   From: 2010.05.17/outbox.cif.g08.bks.cpg/sg2_272_cif.got.tgz:542002.got - 2010.06.03 11:33:40.
