data_PCOD9001422
_publ_section_title
;
Structure prediction by ZEFSAII (Michael W. Deem and Ramdas Pophale) SiO2 
 PCOD9001422
Probable space group: P -1
;
_chemical_formula_sum "Si O2"
_cell_formula_units_Z 14
_cell_length_a 8.313916
_cell_length_b 6.222260
_cell_length_c 18.853053
_cell_angle_alpha 75.083506
_cell_angle_beta 45.701210
_cell_angle_gamma 58.556823
_cell_volume 586.326325
_symmetry_space_group_name_H-M "P -1"
_symmetry_group_IT_number 2
_symmetry_cell_setting 'triclinic'
loop_
_space_group_symop_operation_xyz
x,y,z
-x,-y,-z
loop_
_atom_site_type_symbol
_atom_site_label
_atom_site_fract_x
_atom_site_fract_y
_atom_site_fract_z
Si Si1 0.456114 0.690722 0.579605
Si Si2 0.888920 0.767459 0.357530
Si Si3 0.134776 0.574046 0.855135
Si Si4 0.766328 0.648863 0.615028
Si Si5 0.436889 0.224011 0.666133
Si Si6 0.707031 0.404997 0.040572
Si Si7 0.293227 0.903006 0.063603
O O1 0.669773 0.734811 0.471010
O O2 0.520509 0.684826 0.643999
O O3 0.498576 0.408974 0.582717
O O4 0.181158 0.941928 0.627542
O O5 0.805986 0.765256 0.302273
O O6 0.150103 0.531356 0.326613
O O7 0.333921 0.354941 0.761728
O O8 0.258026 0.618030 0.884208
O O9 0.967858 0.856654 0.849364
O O10 0.923571 0.483182 0.945560
O O11 0.000000 0.500000 0.500000
O O12 0.683992 0.945201 0.624607
O O13 0.422818 0.638386 0.088821
O O14 0.740971 0.170320 0.000567
O O15 0.500000 0.000000 0.000000
#
# Coordination Sequence:
#
# PCOD9001422 Si02
#       7
#     2   2   2   2   2   2   2
#     4   9  19  36  55  78 108 146 191 237 288 343
#     4   9  19  36  55  75 108 150 188 232 290 344
#     4  10  21  35  55  84 115 150 190 235 291 341
#     4   9  20  37  55  79 112 152 194 233 286 347
#     4  11  22  34  55  88 114 143 195 245 283 338
#     4   9  19  38  59  78 113 154 186 229 286 352
#     4   9  18  35  59  84 106 146 195 228 279 351
#
# _framework density 23.877490000000002
#
# number of rings (size 3 to 8) (size 9 to 14) (size 15 to 20)
#    0.000    2.571    0.000    1.714    0.000    6.857 
#    0.000    4.286    0.000    0.000    0.000    0.000 
#    0.000    0.000    0.000    0.000    0.000    0.000 
#
# Total GULP energy -78049.191373 kJ/mol
# GULP energy per Si atom -5574.942241 kJ/mol
# Density = 2.382314 g / cm^3
# Si number density = 23.877490 Si / 1000 Ang^3
#
#
#
# Elastic Constant Matrix: (Units=GPa)
#
#
# Indices 1 2 3 4 5 6 
#
# 1 111.3934 47.0997 22.8379 11.6381 17.4730 -4.0362
# 2 47.0997 165.1099 47.3416 45.5070 -3.1375 -22.0028
# 3 22.8379 47.3416 79.0480 18.4852 0.7725 -7.9017
# 4 11.6381 45.5070 18.4852 34.8338 3.8960 -2.6545
# 5 17.4730 -3.1375 0.7725 3.8960 27.3650 -0.1783
# 6 -4.0362 -22.0028 -7.9017 -2.6545 -0.1783 38.0692
#
#
#
# Elastic Compliance Matrix: (Units=1/GPa)
#
#
# Indices 1 2 3 4 5 6 
#
# 1 0.012065 -0.004146 -0.001798 0.003201 -0.008592 -0.001307
# 2 -0.004146 0.012731 -0.002642 -0.014128 0.006228 0.005414
# 3 -0.001798 -0.002642 0.015900 -0.004403 0.001031 0.001280
# 4 0.003201 -0.014128 -0.004403 0.049206 -0.010580 -0.005358
# 5 -0.008592 0.006228 0.001031 -0.010580 0.044236 0.002372
# 6 -0.001307 0.005414 0.001280 -0.005358 0.002372 0.029162
#
#
# Mechanical properties :
#
#
# Convention : Reuss Voigt Hill
#
# Bulk Modulus (GPa) = 42.51150 65.56773 54.03962
# Shear Modulus (GPa) = 26.55161 35.93842 31.24502
#
# Velocity S-wave (km/s) = 3.33827 3.88379 3.62132
# Velocity P-wave (km/s) = 5.71852 6.90156 6.33770
#
# Compressibility (1/GPa) = 0.02352304
#
# Stress axis : x y z
#
# Youngs Moduli (GPa) = 82.88625 78.55130 62.89315
#
# Poissons Ratio (x) = 0.32565 0.11308
# Poissons Ratio (y) = 0.34362 0.16619
# Poissons Ratio (z) = 0.14903 0.20757
#
# Static dielectric constant tensor:
#      x y z
#    x 1.973100 0.036040 0.045000 
#    y 0.036040 2.008420 -0.009890 
#    z 0.045000 -0.009890 2.062110 
# 
# From -- ./inp_files/585639.got.cif
#   From: 2010.05.17/outbox.cif.g08.bks.cpg/sg2_293_cif.got.tgz:585639.got - 2010.06.03 11:33:40.
