data_PCOD9001989
_publ_section_title
;
Structure prediction by ZEFSAII (Michael W. Deem and Ramdas Pophale) SiO2 
 PCOD9001989
Probable space group: P -1
;
_chemical_formula_sum "Si O2"
_cell_formula_units_Z 14
_cell_length_a 9.136581
_cell_length_b 21.014363
_cell_length_c 5.787417
_cell_angle_alpha 117.271105
_cell_angle_beta 128.732718
_cell_angle_gamma 43.865163
_cell_volume 600.610717
_symmetry_space_group_name_H-M "P -1"
_symmetry_group_IT_number 2
_symmetry_cell_setting 'triclinic'
loop_
_space_group_symop_operation_xyz
x,y,z
-x,-y,-z
loop_
_atom_site_type_symbol
_atom_site_label
_atom_site_fract_x
_atom_site_fract_y
_atom_site_fract_z
Si Si1 0.703733 0.790353 0.436320
Si Si2 0.047176 0.047265 0.928378
Si Si3 0.054875 0.151958 0.490802
Si Si4 0.099582 0.365475 0.304770
Si Si5 0.486207 0.717781 0.805850
Si Si6 0.332414 0.953046 0.661339
Si Si7 0.207172 0.461128 0.948521
O O1 0.897489 0.704927 0.649644
O O2 0.560598 0.878299 0.611054
O O3 0.820666 0.802497 0.354501
O O4 0.529969 0.770197 0.126088
O O5 0.838670 0.075678 0.592641
O O6 0.305787 0.972288 0.940645
O O7 0.026373 0.127589 0.161662
O O8 0.000000 0.000000 0.000000
O O9 0.788255 0.218754 0.439479
O O10 0.215343 0.054365 0.616276
O O11 0.320359 0.311226 0.251134
O O12 0.853386 0.446917 0.066620
O O13 0.162222 0.414807 0.624319
O O14 0.554308 0.624703 0.833206
O O15 0.000000 0.500000 0.000000
#
# Coordination Sequence:
#
# PCOD9001989 Si02
#       7
#     2   2   2   2   2   2   2
#     4  11  23  36  56  86 115 151 194 234 280 338
#     4   9  20  36  57  78 108 151 198 236 279 329
#     4  11  23  37  55  84 117 152 192 233 283 336
#     4   9  19  34  62  85 111 150 188 231 288 337
#     4  10  21  37  59  82 117 148 187 237 283 338
#     4  10  21  36  56  79 115 154 193 235 282 332
#     4   8  16  36  60  87 110 145 188 231 285 341
#
# _framework density 23.309605999999999
#
# number of rings (size 3 to 8) (size 9 to 14) (size 15 to 20)
#    0.000    2.286    1.429    0.429    6.000    1.714 
#    0.000    0.714    0.000   29.143    0.000    0.000 
#    0.000    0.000    0.000    0.000    0.000    0.000 
#
# Total GULP energy -78114.183154 kJ/mol
# GULP energy per Si atom -5579.584511 kJ/mol
# Density = 2.325655 g / cm^3
# Si number density = 23.309606 Si / 1000 Ang^3
#
#
#
# Elastic Constant Matrix: (Units=GPa)
#
#
# Indices 1 2 3 4 5 6 
#
# 1 93.4443 56.1321 18.0315 -0.4090 -5.4911 9.4467
# 2 56.1321 161.1707 3.0733 -11.5194 -2.7986 17.8475
# 3 18.0315 3.0733 31.5109 11.2372 -14.9065 -12.2692
# 4 -0.4090 -11.5194 11.2372 23.8311 -8.4894 -19.8042
# 5 -5.4911 -2.7986 -14.9065 -8.4894 35.7982 2.9376
# 6 9.4467 17.8475 -12.2692 -19.8042 2.9376 30.2086
#
#
#
# Elastic Compliance Matrix: (Units=1/GPa)
#
#
# Indices 1 2 3 4 5 6 
#
# 1 0.017316 -0.004998 -0.013560 -0.007679 -0.004168 -0.012598
# 2 -0.004998 0.008269 0.001138 0.002872 0.001124 -0.001086
# 3 -0.013560 0.001138 0.058946 0.002518 0.020926 0.027125
# 4 -0.007679 0.002872 0.002518 0.107481 0.019818 0.070262
# 5 -0.004168 0.001124 0.020926 0.019818 0.039294 0.018310
# 6 -0.012598 -0.001086 0.027125 0.070262 0.018310 0.092983
#
#
# Mechanical properties :
#
#
# Convention : Reuss Voigt Hill
#
# Bulk Modulus (GPa) = 20.12451 48.95553 34.54002
# Shear Modulus (GPa) = 13.30882 31.89351 22.60117
#
# Velocity S-wave (km/s) = 2.39207 3.70301 3.11723
# Velocity P-wave (km/s) = 4.03505 6.27144 5.27316
#
# Compressibility (1/GPa) = 0.04969064
#
# Stress axis : x y z
#
# Youngs Moduli (GPa) = 57.75143 120.93711 16.96475
#
# Poissons Ratio (x) = 0.60447 0.23004
# Poissons Ratio (y) = 0.28865 -0.01931
# Poissons Ratio (z) = 0.78309 -0.13764
#
# Static dielectric constant tensor:
#      x y z
#    x 1.885020 0.005780 -0.018190 
#    y 0.005780 1.948950 -0.054560 
#    z -0.018190 -0.054560 1.965010 
# 
# From -- ./inp_files/53842.got.cif
#   From: 2010.05.17/outbox.cif.g08.bks.cpg/sg2_27_cif.got.tgz:53842.got - 2010.06.03 11:33:40.
