data_PCOD9001849
_publ_section_title
;
Structure prediction by ZEFSAII (Michael W. Deem and Ramdas Pophale) SiO2 
 PCOD9001849
Probable space group: P -1
;
_chemical_formula_sum "Si O2"
_cell_formula_units_Z 16
_cell_length_a 11.305151
_cell_length_b 15.124156
_cell_length_c 6.993538
_cell_angle_alpha 102.034041
_cell_angle_beta 98.847482
_cell_angle_gamma 137.569454
_cell_volume 698.013469
_symmetry_space_group_name_H-M "P -1"
_symmetry_group_IT_number 2
_symmetry_cell_setting 'triclinic'
loop_
_space_group_symop_operation_xyz
x,y,z
-x,-y,-z
loop_
_atom_site_type_symbol
_atom_site_label
_atom_site_fract_x
_atom_site_fract_y
_atom_site_fract_z
Si Si1 0.014930 0.783739 0.075735
Si Si2 0.736642 0.155304 0.133785
Si Si3 0.378988 0.386181 0.602891
Si Si4 0.176999 0.175126 0.146412
Si Si5 0.344127 0.724893 0.070571
Si Si6 0.373379 0.580046 0.721799
Si Si7 0.724178 0.459240 0.752525
Si Si8 0.672343 0.048430 0.451122
O O1 0.153418 0.858551 0.955564
O O2 0.860533 0.769988 0.994305
O O3 0.891993 0.617863 0.969382
O O4 0.162315 0.884761 0.331791
O O5 0.777434 0.175487 0.377310
O O6 0.770506 0.265481 0.067090
O O7 0.500000 0.000000 0.000000
O O8 0.500000 0.500000 0.500000
O O9 0.189178 0.227211 0.384023
O O10 0.518276 0.390175 0.717772
O O11 0.340360 0.456926 0.732682
O O12 0.394453 0.266474 0.205853
O O13 0.000000 0.000000 0.000000
O O14 0.333961 0.632702 0.889025
O O15 0.273826 0.641612 0.217402
O O16 0.558893 0.897893 0.249894
O O17 0.257656 0.522703 0.465478
O O18 0.500000 0.000000 0.500000
#
# Coordination Sequence:
#
# PCOD9001849 Si02
#       8
#     2   2   2   2   2   2   2   2
#     4  12  22  44  70  94 136 168 220 266 326 392
#     4  10  24  44  64  93 127 171 216 273 335 375
#     4   8  16  41  59  89 134 173 205 246 336 368
#     4  10  21  35  68 101 126 175 210 264 319 383
#     4  11  25  40  69  99 120 180 224 259 329 390
#     4  10  21  43  65  92 143 166 214 263 322 389
#     4  10  22  41  68  98 128 179 214 262 327 387
#     4  11  25  45  67  91 128 173 216 272 333 383
#
# _framework density 22.922193
#
# number of rings (size 3 to 8) (size 9 to 14) (size 15 to 20)
#    0.000    2.000    6.250    0.000    8.750    2.000 
#    0.000    3.125    0.000    0.000    0.000    0.000 
#    0.000    0.000    0.000    0.000    0.000    0.000 
#
# Total GULP energy -89293.591886 kJ/mol
# GULP energy per Si atom -5580.849493 kJ/mol
# Density = 2.287002 g / cm^3
# Si number density = 22.922193 Si / 1000 Ang^3
#
#
#
# Elastic Constant Matrix: (Units=GPa)
#
#
# Indices 1 2 3 4 5 6 
#
# 1 37.4281 1.6808 12.9713 -8.5865 -14.8252 -5.0089
# 2 1.6808 89.5209 6.6606 -3.5407 -4.0814 -10.3394
# 3 12.9713 6.6606 101.7612 11.3221 -27.4560 3.9017
# 4 -8.5865 -3.5407 11.3221 47.3575 -1.7394 -1.7877
# 5 -14.8252 -4.0814 -27.4560 -1.7394 16.1409 6.1362
# 6 -5.0089 -10.3394 3.9017 -1.7877 6.1362 18.2325
#
#
#
# Elastic Compliance Matrix: (Units=1/GPa)
#
#
# Indices 1 2 3 4 5 6 
#
# 1 0.053454 0.000274 0.014272 0.008694 0.079784 -0.014213
# 2 0.000274 0.012292 -0.002540 0.001767 -0.004268 0.009199
# 3 0.014272 -0.002540 0.029207 -0.002992 0.072668 -0.028520
# 4 0.008694 0.001767 -0.002992 0.023877 0.004005 0.005024
# 5 0.079784 -0.004268 0.072668 0.004005 0.294187 -0.094670
# 6 -0.014213 0.009199 -0.028520 0.005024 -0.094670 0.094617
#
#
# Mechanical properties :
#
#
# Convention : Reuss Voigt Hill
#
# Bulk Modulus (GPa) = 8.40580 30.14840 19.27710
# Shear Modulus (GPa) = 9.55519 30.17268 19.86394
#
# Velocity S-wave (km/s) = 2.04391 3.63203 2.94697
# Velocity P-wave (km/s) = 3.04059 5.54707 4.47298
#
# Compressibility (1/GPa) = 0.11896552
#
# Stress axis : x y z
#
# Youngs Moduli (GPa) = 18.70773 81.35231 34.23861
#
# Poissons Ratio (x) = -0.02232 -0.48866
# Poissons Ratio (y) = -0.00513 0.08698
# Poissons Ratio (z) = -0.26700 0.20666
#
# Static dielectric constant tensor:
#      x y z
#    x 1.913260 0.023320 -0.017150 
#    y 0.023320 1.960370 -0.028600 
#    z -0.017150 -0.028600 1.907990 
# 
# From -- ./inp_files/435002.got.cif
#   From: 2010.05.17/outbox.cif.g08.bks.cpg/sg2_218_cif.got.tgz:435002.got - 2010.06.03 11:33:40.
