data_PCOD9001632
_publ_section_title
;
Structure prediction by ZEFSAII (Michael W. Deem and Ramdas Pophale) SiO2 
 PCOD9001632
Probable space group: P -1
;
_chemical_formula_sum "Si O2"
_cell_formula_units_Z 16
_cell_length_a 14.764148
_cell_length_b 9.092600
_cell_length_c 13.624393
_cell_angle_alpha 122.384535
_cell_angle_beta 133.215470
_cell_angle_gamma 95.149920
_cell_volume 754.918953
_symmetry_space_group_name_H-M "P -1"
_symmetry_group_IT_number 2
_symmetry_cell_setting 'triclinic'
loop_
_space_group_symop_operation_xyz
x,y,z
-x,-y,-z
loop_
_atom_site_type_symbol
_atom_site_label
_atom_site_fract_x
_atom_site_fract_y
_atom_site_fract_z
Si Si1 0.945194 0.208379 0.287569
Si Si2 0.096201 0.540032 0.321225
Si Si3 0.432810 0.506682 0.108388
Si Si4 0.566187 0.282103 0.475794
Si Si5 0.388744 0.351757 0.213973
Si Si6 0.266806 0.686215 0.062126
Si Si7 0.357324 0.115261 0.785604
Si Si8 0.259666 0.654776 0.810521
O O1 0.806457 0.220532 0.225213
O O2 0.027326 0.351782 0.294174
O O3 0.114778 0.377937 0.549891
O O4 0.816783 0.909232 0.068841
O O5 0.247446 0.599557 0.389827
O O6 0.921977 0.419509 0.083822
O O7 0.193750 0.812068 0.536566
O O8 0.514927 0.502052 0.264308
O O9 0.570509 0.734583 0.212208
O O10 0.313359 0.540651 0.076363
O O11 0.319597 0.243676 0.870267
O O12 0.453858 0.258648 0.295972
O O13 0.600709 0.466240 0.646999
O O14 0.439111 0.992907 0.316844
O O15 0.239578 0.636012 0.906284
O O16 0.529468 0.188946 0.989401
#
# Coordination Sequence:
#
# PCOD9001632 Si02
#       8
#     2   2   2   2   2   2   2   2
#     4  10  21  35  59  99 125 165 208 260 323 371
#     4  11  21  39  68  89 126 171 210 259 308 380
#     4  10  23  41  61  93 131 164 208 262 316 379
#     4  11  23  45  67  88 128 171 218 258 309 373
#     4  11  24  43  63  94 128 167 211 269 313 360
#     4  10  21  44  61  92 127 172 207 252 321 372
#     4  10  21  39  62  95 126 170 206 252 325 380
#     4   9  18  36  58  88 131 158 206 252 309 389
#
# _framework density 21.194327000000001
#
# number of rings (size 3 to 8) (size 9 to 14) (size 15 to 20)
#    0.000    1.750    5.000    0.000    7.000    2.000 
#    4.500    0.625    0.000    0.000    0.000    0.000 
#    0.000    0.000    0.000    0.000    0.000    0.000 
#
# Total GULP energy -89344.420027 kJ/mol
# GULP energy per Si atom -5584.026252 kJ/mol
# Density = 2.114609 g / cm^3
# Si number density = 21.194327 Si / 1000 Ang^3
#
#
#
# Elastic Constant Matrix: (Units=GPa)
#
#
# Indices 1 2 3 4 5 6 
#
# 1 75.7478 13.7975 40.6092 24.0904 4.4675 -9.5625
# 2 13.7975 54.6978 27.8941 29.4798 -8.6800 5.2437
# 3 40.6092 27.8941 86.6086 13.2208 7.2694 0.7810
# 4 24.0904 29.4798 13.2208 12.6624 2.7675 -4.9047
# 5 4.4675 -8.6800 7.2694 2.7675 24.9077 -2.8383
# 6 -9.5625 5.2437 0.7810 -4.9047 -2.8383 22.9417
#
#
#
# Elastic Compliance Matrix: (Units=1/GPa)
#
#
# Indices 1 2 3 4 5 6 
#
# 1 0.013293 -0.015647 -0.004040 0.022071 -0.007626 0.013030
# 2 -0.015647 -0.009946 0.002819 0.053916 -0.006750 0.006347
# 3 -0.004040 0.002819 0.015348 -0.017148 -0.001633 -0.006719
# 4 0.022071 0.053916 -0.017148 -0.083134 0.027140 -0.016955
# 5 -0.007626 -0.006750 -0.001633 0.027140 0.037636 0.008878
# 6 0.013030 0.006347 -0.006719 -0.016955 0.008878 0.045271
#
#
# Mechanical properties :
#
#
# Convention : Reuss Voigt Hill
#
# Bulk Modulus (GPa) = -66.48312 42.40620 -12.03846
# Shear Modulus (GPa) = 105.95331 21.08593 63.51962
#
# Velocity S-wave (km/s) = 7.07813 3.15760 5.48043
# Velocity P-wave (km/s) = 5.94671 5.77457 5.86127
#
# Compressibility (1/GPa) = -0.01504141
#
# Stress axis : x y z
#
# Youngs Moduli (GPa) = 75.22694 -100.54046 65.15675
#
# Poissons Ratio (x) = -1.57320 0.26322
# Poissons Ratio (y) = 1.17711 -0.18370
# Poissons Ratio (z) = 0.30390 0.28346
#
# Static dielectric constant tensor:
#      x y z
#    x 1.781590 -0.013870 0.020080 
#    y -0.013870 1.813550 -0.025310 
#    z 0.020080 -0.025310 1.737510 
# 
# From -- ./inp_files/530154.got.cif
#   From: 2010.05.17/outbox.cif.g08.bks.cpg/sg2_266_cif.got.tgz:530154.got - 2010.06.03 11:33:40.
