data_PCOD9001572
_publ_section_title
;
Structure prediction by ZEFSAII (Michael W. Deem and Ramdas Pophale) SiO2 
 PCOD9001572
Probable space group: P -1
;
_chemical_formula_sum "Si O2"
_cell_formula_units_Z 16
_cell_length_a 12.150508
_cell_length_b 12.218653
_cell_length_c 14.890311
_cell_angle_alpha 161.260179
_cell_angle_beta 87.036788
_cell_angle_gamma 94.179279
_cell_volume 707.296716
_symmetry_space_group_name_H-M "P -1"
_symmetry_group_IT_number 2
_symmetry_cell_setting 'triclinic'
loop_
_space_group_symop_operation_xyz
x,y,z
-x,-y,-z
loop_
_atom_site_type_symbol
_atom_site_label
_atom_site_fract_x
_atom_site_fract_y
_atom_site_fract_z
Si Si1 0.180293 0.366586 0.144539
Si Si2 0.368090 0.451002 0.450337
Si Si3 0.623227 0.200815 0.462749
Si Si4 0.760705 0.565298 0.002147
Si Si5 0.223282 0.838934 0.882445
Si Si6 0.040796 0.327274 0.580856
Si Si7 0.447431 0.857099 0.300483
Si Si8 0.078575 0.561758 0.958516
O O1 0.309254 0.498708 0.252670
O O2 0.163236 0.382266 0.049585
O O3 0.088501 0.604032 0.373899
O O4 0.173364 0.033987 0.949967
O O5 0.500000 0.500000 0.500000
O O6 0.354402 0.717912 0.577755
O O7 0.302384 0.565368 0.627746
O O8 0.303368 0.103616 0.144187
O O9 0.494643 0.123951 0.430628
O O10 0.685480 0.877784 0.238696
O O11 0.681475 0.218249 0.735538
O O12 0.811791 0.558041 0.092754
O O13 0.121486 0.640406 0.783609
O O14 0.074958 0.970210 0.260892
O O15 0.056304 0.344190 0.701028
O O16 0.500000 0.000000 0.500000
O O17 0.500000 0.500000 0.000000
O O18 0.000000 0.500000 0.000000
#
# Coordination Sequence:
#
# PCOD9001572 Si02
#       8
#     2   2   2   2   2   2   2   2
#     4  11  22  41  71  93 133 179 223 276 329 401
#     4  11  24  45  72  98 134 178 222 277 343 404
#     4  10  22  40  64  96 131 169 225 273 337 396
#     4  11  22  40  65  94 132 174 224 269 340 392
#     4  11  25  46  69 104 133 175 231 277 335 398
#     4  12  27  44  67 100 141 177 226 279 335 395
#     4  10  21  35  58  90 124 157 212 272 320 385
#     4  12  26  43  67  96 136 184 223 274 336 409
#
# _framework density 22.62134
#
# number of rings (size 3 to 8) (size 9 to 14) (size 15 to 20)
#    0.000    1.000    3.750    2.625    1.750    2.000 
#    0.000    4.375    0.000    0.000    0.000    0.000 
#    0.000    0.000    0.000    0.000    0.000    0.000 
#
# Total GULP energy -89238.682930 kJ/mol
# GULP energy per Si atom -5577.417683 kJ/mol
# Density = 2.256985 g / cm^3
# Si number density = 22.621340 Si / 1000 Ang^3
#
#
#
# Elastic Constant Matrix: (Units=GPa)
#
#
# Indices 1 2 3 4 5 6 
#
# 1 68.7894 24.1502 17.4481 6.0346 13.0664 3.9153
# 2 24.1502 59.2263 14.6974 3.0007 9.0948 15.3012
# 3 17.4481 14.6974 84.3379 -12.0728 4.9242 6.4431
# 4 6.0346 3.0007 -12.0728 37.1446 7.8315 5.4151
# 5 13.0664 9.0948 4.9242 7.8315 34.2508 8.1683
# 6 3.9153 15.3012 6.4431 5.4151 8.1683 44.2626
#
#
#
# Elastic Compliance Matrix: (Units=1/GPa)
#
#
# Indices 1 2 3 4 5 6 
#
# 1 0.018637 -0.006561 -0.003003 -0.002786 -0.004845 0.002292
# 2 -0.006561 0.021926 -0.001894 -0.000067 -0.001496 -0.006440
# 3 -0.003003 -0.001894 0.013804 0.005617 -0.001252 -0.001545
# 4 -0.002786 -0.000067 0.005617 0.030947 -0.006035 -0.003220
# 5 -0.004845 -0.001496 -0.001252 -0.006035 0.034056 -0.004418
# 6 0.002292 -0.006440 -0.001545 -0.003220 -0.004418 0.026050
#
#
# Mechanical properties :
#
#
# Convention : Reuss Voigt Hill
#
# Bulk Modulus (GPa) = 31.79626 36.10501 33.95064
# Shear Modulus (GPa) = 27.96115 33.53544 30.74830
#
# Velocity S-wave (km/s) = 3.51957 3.85446 3.69081
# Velocity P-wave (km/s) = 5.53198 5.98368 5.76226
#
# Compressibility (1/GPa) = 0.03145024
#
# Stress axis : x y z
#
# Youngs Moduli (GPa) = 53.65785 45.60697 72.44504
#
# Poissons Ratio (x) = 0.29922 0.21757
# Poissons Ratio (y) = 0.35204 0.13721
# Poissons Ratio (z) = 0.16115 0.08638
#
# Static dielectric constant tensor:
#      x y z
#    x 2.024420 -0.028400 0.041230 
#    y -0.028400 1.888170 0.010870 
#    z 0.041230 0.010870 1.882970 
# 
# From -- ./inp_files/71680.got.cif
#   From: 2010.05.17/outbox.cif.g08.bks.cpg/sg2_36_cif.got.tgz:71680.got - 2010.06.03 11:33:40.
