data_PCOD9001205
_publ_section_title
;
Structure prediction by ZEFSAII (Michael W. Deem and Ramdas Pophale) SiO2 
 PCOD9001205
Probable space group: P -1
;
_chemical_formula_sum "Si O2"
_cell_formula_units_Z 14
_cell_length_a 6.821417
_cell_length_b 10.030238
_cell_length_c 14.768320
_cell_angle_alpha 125.963124
_cell_angle_beta 69.732227
_cell_angle_gamma 73.742480
_cell_volume 591.649480
_symmetry_space_group_name_H-M "P -1"
_symmetry_group_IT_number 2
_symmetry_cell_setting 'triclinic'
loop_
_space_group_symop_operation_xyz
x,y,z
-x,-y,-z
loop_
_atom_site_type_symbol
_atom_site_label
_atom_site_fract_x
_atom_site_fract_y
_atom_site_fract_z
Si Si1 0.184902 0.713860 0.670540
Si Si2 0.741718 0.251877 0.136138
Si Si3 0.567570 0.112676 0.965310
Si Si4 0.819039 0.673141 0.462221
Si Si5 0.521777 0.106447 0.767647
Si Si6 0.131557 0.816755 0.525595
Si Si7 0.661501 0.662922 0.289132
O O1 0.349274 0.693496 0.722986
O O2 0.153230 0.531972 0.601090
O O3 0.271746 0.738897 0.570217
O O4 0.881043 0.930819 0.817950
O O5 0.800164 0.413672 0.170730
O O6 0.551608 0.280947 0.098127
O O7 0.000000 0.000000 0.000000
O O8 0.430655 0.176759 0.913894
O O9 0.500000 0.000000 0.000000
O O10 0.590693 0.882604 0.641483
O O11 0.769483 0.710132 0.376823
O O12 0.075262 0.658681 0.438953
O O13 0.823797 0.037212 0.676798
O O14 0.325747 0.268477 0.785046
O O15 0.341816 0.798765 0.419206
#
# Coordination Sequence:
#
# PCOD9001205 Si02
#       7
#     2   2   2   2   2   2   2
#     4   9  18  37  53  79 115 135 182 245 270 315
#     4   9  21  37  55  78 109 148 193 230 264 322
#     4  10  21  34  57  79 107 149 191 226 271 324
#     4   9  20  33  57  81 119 136 180 234 279 331
#     4   9  21  36  52  84 118 141 183 233 272 335
#     4   9  20  32  57  86 112 141 180 226 287 334
#     4  11  20  36  59  80 114 152 178 224 291 331
#
# _framework density 23.662659000000001
#
# number of rings (size 3 to 8) (size 9 to 14) (size 15 to 20)
#    0.857    1.714    0.000    1.286    2.000    4.000 
#    0.000    0.000    0.000    4.286    0.000    0.000 
#    0.000    0.000    0.000    0.000    0.000    0.000 
#
# Total GULP energy -78085.257457 kJ/mol
# GULP energy per Si atom -5577.518390 kJ/mol
# Density = 2.360880 g / cm^3
# Si number density = 23.662659 Si / 1000 Ang^3
#
#
#
# Elastic Constant Matrix: (Units=GPa)
#
#
# Indices 1 2 3 4 5 6 
#
# 1 73.9078 6.5852 32.3555 -18.8609 31.6398 -6.6000
# 2 6.5852 81.1285 44.0240 -37.2962 28.3581 -18.8216
# 3 32.3555 44.0240 112.2325 -34.0374 36.0558 -10.3373
# 4 -18.8609 -37.2962 -34.0374 51.4954 -16.4446 12.1655
# 5 31.6398 28.3581 36.0558 -16.4446 56.7098 -5.1179
# 6 -6.6000 -18.8216 -10.3373 12.1655 -5.1179 23.6059
#
#
#
# Elastic Compliance Matrix: (Units=1/GPa)
#
#
# Indices 1 2 3 4 5 6 
#
# 1 0.021384 0.008443 -0.003151 0.006897 -0.011676 0.005245
# 2 0.008443 0.026613 -0.004418 0.013193 -0.010244 0.012625
# 3 -0.003151 -0.004418 0.013839 0.003846 -0.003820 -0.001154
# 4 0.006897 0.013193 0.003846 0.033915 -0.003425 -0.004089
# 5 -0.011676 -0.010244 -0.003820 -0.003425 0.030276 -0.004777
# 6 0.005245 0.012625 -0.001154 -0.004089 -0.004777 0.054462
#
#
# Mechanical properties :
#
#
# Convention : Reuss Voigt Hill
#
# Bulk Modulus (GPa) = 15.72718 48.13313 31.93015
# Shear Modulus (GPa) = 25.00800 38.64915 31.82857
#
# Velocity S-wave (km/s) = 3.25446 4.04584 3.67154
# Velocity P-wave (km/s) = 4.55882 6.49697 5.61220
#
# Compressibility (1/GPa) = 0.06358420
#
# Stress axis : x y z
#
# Youngs Moduli (GPa) = 46.76284 37.57527 72.26012
#
# Poissons Ratio (x) = -0.31724 0.22768
# Poissons Ratio (y) = -0.39481 0.31926
# Poissons Ratio (z) = 0.14734 0.16601
#
# Static dielectric constant tensor:
#      x y z
#    x 1.971450 -0.038060 0.016260 
#    y -0.038060 1.909820 0.008700 
#    z 0.016260 0.008700 1.927800 
# 
# From -- ./inp_files/382907.got.cif
#   From: 2010.05.17/outbox.cif.g08.bks.cpg/sg2_192_cif.got.tgz:382907.got - 2010.06.03 11:33:40.
