data_PCOD9001344
_publ_section_title
;
Structure prediction by ZEFSAII (Michael W. Deem and Ramdas Pophale) SiO2 
 PCOD9001344
Probable space group: P -1
;
_chemical_formula_sum "Si O2"
_cell_formula_units_Z 14
_cell_length_a 14.363207
_cell_length_b 16.899261
_cell_length_c 8.185172
_cell_angle_alpha 53.828119
_cell_angle_beta 120.791373
_cell_angle_gamma 161.027123
_cell_volume 513.280494
_symmetry_space_group_name_H-M "P -1"
_symmetry_group_IT_number 2
_symmetry_cell_setting 'triclinic'
loop_
_space_group_symop_operation_xyz
x,y,z
-x,-y,-z
loop_
_atom_site_type_symbol
_atom_site_label
_atom_site_fract_x
_atom_site_fract_y
_atom_site_fract_z
Si Si1 0.814608 0.247028 0.832204
Si Si2 0.344516 0.368407 0.254719
Si Si3 0.788417 0.294504 0.219506
Si Si4 0.576031 0.896699 0.250484
Si Si5 0.846149 0.110616 0.548711
Si Si6 0.540000 0.395547 0.662181
Si Si7 0.059168 0.155692 0.940937
O O1 0.134355 0.566018 0.730846
O O2 0.649740 0.205908 0.798937
O O3 0.557476 0.994181 0.786783
O O4 0.842552 0.182567 0.066774
O O5 0.323416 0.279524 0.499316
O O6 0.450260 0.558230 0.201717
O O7 0.606697 0.539984 0.178759
O O8 0.080470 0.166072 0.142015
O O9 0.846085 0.229281 0.402107
O O10 0.000000 0.500000 0.000000
O O11 0.500413 0.751582 0.230705
O O12 0.614230 0.883981 0.479879
O O13 0.139640 0.317429 0.474170
O O14 0.855679 0.066276 0.785263
O O15 0.000000 0.000000 0.000000
#
# Coordination Sequence:
#
# PCOD9001344 Si02
#       7
#     2   2   2   2   2   2   2
#     4  10  18  26  48  72 119 135 175 215 282 311
#     4   9  21  35  52  74 102 140 173 227 267 318
#     4  11  15  30  44  80 110 140 169 231 268 323
#     4  10  17  27  45  77 104 138 162 221 266 327
#     4  10  19  28  52  78 103 137 177 217 275 318
#     4  10  18  33  51  76 107 131 177 222 276 319
#     4  10  20  37  52  71 104 142 180 217 261 328
#
# _framework density 27.275535000000001
#
# number of rings (size 3 to 8) (size 9 to 14) (size 15 to 20)
#    0.000    2.000    5.714    0.857    0.000    1.143 
#    0.000    4.286    0.000    0.000    0.000   17.000 
#    0.000    1.286    0.000    0.000    0.000    0.000 
#
# Total GULP energy -78122.555297 kJ/mol
# GULP energy per Si atom -5580.182521 kJ/mol
# Density = 2.721346 g / cm^3
# Si number density = 27.275535 Si / 1000 Ang^3
#
#
#
# Elastic Constant Matrix: (Units=GPa)
#
#
# Indices 1 2 3 4 5 6 
#
# 1 84.9003 30.1630 41.2959 3.3482 4.4013 -19.2077
# 2 30.1630 147.0157 69.9352 30.4880 5.2885 -37.1678
# 3 41.2959 69.9352 173.0810 33.9249 20.3115 -12.6467
# 4 3.3482 30.4880 33.9249 55.6780 3.6344 5.6826
# 5 4.4013 5.2885 20.3115 3.6344 36.2552 -10.8544
# 6 -19.2077 -37.1678 -12.6467 5.6826 -10.8544 41.5630
#
#
#
# Elastic Compliance Matrix: (Units=1/GPa)
#
#
# Indices 1 2 3 4 5 6 
#
# 1 0.014703 0.000001 -0.003358 0.000401 0.001918 0.006220
# 2 0.000001 0.012783 -0.003527 -0.006408 0.004467 0.012401
# 3 -0.003358 -0.003527 0.008863 -0.002673 -0.004629 -0.002853
# 4 0.000401 -0.006408 -0.002673 0.024358 -0.003210 -0.010527
# 5 0.001918 0.004467 -0.004629 -0.003210 0.033395 0.012632
# 6 0.006220 0.012401 -0.002853 -0.010527 0.012632 0.041894
#
#
# Mechanical properties :
#
#
# Convention : Reuss Voigt Hill
#
# Bulk Modulus (GPa) = 44.28514 76.42056 60.35285
# Shear Modulus (GPa) = 31.78807 44.27278 38.03043
#
# Velocity S-wave (km/s) = 3.41756 4.03323 3.73809
# Velocity P-wave (km/s) = 5.64309 7.05465 6.38798
#
# Compressibility (1/GPa) = 0.02258094
#
# Stress axis : x y z
#
# Youngs Moduli (GPa) = 68.01165 78.22818 112.83013
#
# Poissons Ratio (x) = -0.00008 0.37885
# Poissons Ratio (y) = -0.00007 0.39800
# Poissons Ratio (z) = 0.22836 0.27595
#
# Static dielectric constant tensor:
#      x y z
#    x 2.123730 0.060660 -0.095440 
#    y 0.060660 2.367660 0.031770 
#    z -0.095440 0.031770 2.235850 
# 
# From -- ./inp_files/323760.got.cif
#   From: 2010.05.17/outbox.cif.g08.bks.cpg/sg2_162_cif.got.tgz:323760.got - 2010.06.03 11:33:40.
