data_PCOD9001247
_publ_section_title
;
Structure prediction by ZEFSAII (Michael W. Deem and Ramdas Pophale) SiO2 
 PCOD9001247
Probable space group: P -1
;
_chemical_formula_sum "Si O2"
_cell_formula_units_Z 16
_cell_length_a 15.277024
_cell_length_b 8.966898
_cell_length_c 10.757630
_cell_angle_alpha 104.151463
_cell_angle_beta 86.744521
_cell_angle_gamma 33.535258
_cell_volume 689.725143
_symmetry_space_group_name_H-M "P -1"
_symmetry_group_IT_number 2
_symmetry_cell_setting 'triclinic'
loop_
_space_group_symop_operation_xyz
x,y,z
-x,-y,-z
loop_
_atom_site_type_symbol
_atom_site_label
_atom_site_fract_x
_atom_site_fract_y
_atom_site_fract_z
Si Si1 0.857080 0.094881 0.585027
Si Si2 0.703188 0.517114 0.351815
Si Si3 0.360776 0.714070 0.666715
Si Si4 0.375321 0.732310 0.943574
Si Si5 0.973572 0.461432 0.626499
Si Si6 0.549322 0.143388 0.201168
Si Si7 0.966893 0.802301 0.793775
Si Si8 0.601000 0.893478 0.665846
O O1 0.899674 0.972236 0.698677
O O2 0.886197 0.896212 0.457848
O O3 0.658211 0.476031 0.684368
O O4 0.000000 0.000000 0.500000
O O5 0.756080 0.261272 0.327016
O O6 0.674856 0.657665 0.509257
O O7 0.853983 0.375915 0.233964
O O8 0.515846 0.814120 0.351313
O O9 0.500000 0.500000 0.500000
O O10 0.318328 0.960718 0.739225
O O11 0.439780 0.571470 0.772496
O O12 0.183346 0.954789 0.038435
O O13 0.500000 0.500000 0.000000
O O14 0.383726 0.902564 0.948378
O O15 0.995191 0.575020 0.735366
O O16 0.770194 0.705687 0.686134
O O17 0.000000 0.500000 0.500000
O O18 0.531678 0.994579 0.208035
#
# Coordination Sequence:
#
# PCOD9001247 Si02
#       8
#     2   2   2   2   2   2   2   2
#     4  11  19  34  63  93 125 156 212 270 314 364
#     4  11  22  36  61  90 129 168 209 262 318 388
#     4  10  22  39  65  92 121 169 216 260 320 380
#     4  10  22  40  67  92 125 169 214 267 324 382
#     4  10  21  34  58  92 121 164 206 258 317 377
#     4  10  21  39  62  89 125 159 212 263 314 373
#     4  11  22  41  59  91 130 165 215 261 326 379
#     4  11  21  37  58  93 128 162 212 263 320 378
#
# _framework density 23.197648000000001
#
# number of rings (size 3 to 8) (size 9 to 14) (size 15 to 20)
#    0.750    0.750    6.250    0.000    5.250    0.500 
#    0.000    1.250    2.750    0.000    0.000    0.000 
#    0.000    0.000    0.000    0.000    0.000    0.000 
#
# Total GULP energy -89124.897023 kJ/mol
# GULP energy per Si atom -5570.306064 kJ/mol
# Density = 2.314485 g / cm^3
# Si number density = 23.197648 Si / 1000 Ang^3
#
#
#
# Elastic Constant Matrix: (Units=GPa)
#
#
# Indices 1 2 3 4 5 6 
#
# 1 144.5366 13.3326 24.4772 0.4597 -24.4245 14.8731
# 2 13.3326 93.7215 18.6406 -6.9980 -2.8321 4.1276
# 3 24.4772 18.6406 77.5077 -23.6302 -28.2834 4.2260
# 4 0.4597 -6.9980 -23.6302 17.6190 7.1542 -9.6927
# 5 -24.4245 -2.8321 -28.2834 7.1542 41.4049 -2.1866
# 6 14.8731 4.1276 4.2260 -9.6927 -2.1866 29.4532
#
#
#
# Elastic Compliance Matrix: (Units=1/GPa)
#
#
# Indices 1 2 3 4 5 6 
#
# 1 0.009345 -0.000874 -0.004826 -0.013026 0.003990 -0.007894
# 2 -0.000874 0.011397 -0.002649 0.001512 -0.001828 -0.000414
# 3 -0.004826 -0.002649 0.032640 0.045658 0.012121 0.014050
# 4 -0.013026 0.001512 0.045658 0.144595 0.001131 0.047484
# 5 0.003990 -0.001828 0.012121 0.001131 0.034435 -0.000569
# 6 -0.007894 -0.000414 0.014050 0.047484 -0.000569 0.051565
#
#
# Mechanical properties :
#
#
# Convention : Reuss Voigt Hill
#
# Bulk Modulus (GPa) = 27.25956 47.62963 37.44459
# Shear Modulus (GPa) = 15.97949 34.98311 25.48130
#
# Velocity S-wave (km/s) = 2.62742 3.88757 3.31787
# Velocity P-wave (km/s) = 4.58050 6.38182 5.55466
#
# Compressibility (1/GPa) = 0.03668438
#
# Stress axis : x y z
#
# Youngs Moduli (GPa) = 107.01418 87.74318 30.63726
#
# Poissons Ratio (x) = 0.07668 0.14785
# Poissons Ratio (y) = 0.09352 0.08115
# Poissons Ratio (z) = 0.51645 0.23240
#
# Static dielectric constant tensor:
#      x y z
#    x 1.950290 0.003650 0.054970 
#    y 0.003650 2.002050 0.002430 
#    z 0.054970 0.002430 1.866620 
# 
# From -- ./inp_files/447839.got.cif
#   From: 2010.05.17/outbox.cif.g08.bks.cpg/sg2_224_cif.got.tgz:447839.got - 2010.06.03 11:33:40.
