data_PCOD9001511
_publ_section_title
;
Structure prediction by ZEFSAII (Michael W. Deem and Ramdas Pophale) SiO2 
 PCOD9001511
Probable space group: P -1
;
_chemical_formula_sum "Si O2"
_cell_formula_units_Z 16
_cell_length_a 19.975944
_cell_length_b 9.394691
_cell_length_c 9.546455
_cell_angle_alpha 135.654684
_cell_angle_beta 90.300616
_cell_angle_gamma 119.584970
_cell_volume 879.671437
_symmetry_space_group_name_H-M "P -1"
_symmetry_group_IT_number 2
_symmetry_cell_setting 'triclinic'
loop_
_space_group_symop_operation_xyz
x,y,z
-x,-y,-z
loop_
_atom_site_type_symbol
_atom_site_label
_atom_site_fract_x
_atom_site_fract_y
_atom_site_fract_z
Si Si1 0.698796 0.232901 0.091439
Si Si2 0.853145 0.738597 0.253376
Si Si3 0.022904 0.391839 0.801653
Si Si4 0.476647 0.091683 0.344978
Si Si5 0.815460 0.074608 0.001197
Si Si6 0.463904 0.628370 0.160339
Si Si7 0.262117 0.331719 0.048900
Si Si8 0.325647 0.555764 0.498424
O O1 0.782371 0.553047 0.252162
O O2 0.668124 0.253887 0.255649
O O3 0.744776 0.112345 0.024324
O O4 0.612728 0.049013 0.850704
O O5 0.911510 0.654588 0.177445
O O6 0.788423 0.649908 0.057398
O O7 0.928044 0.080490 0.522669
O O8 0.084446 0.640642 0.859110
O O9 0.000000 0.500000 0.000000
O O10 0.481361 0.213995 0.581031
O O11 0.574060 0.343841 0.439139
O O12 0.477703 0.853608 0.217708
O O13 0.812416 0.975307 0.087300
O O14 0.762055 0.784237 0.706206
O O15 0.351483 0.397273 0.036615
O O16 0.500000 0.500000 0.000000
O O17 0.303750 0.560073 0.337797
#
# Coordination Sequence:
#
# PCOD9001511 Si02
#       8
#     2   2   2   2   2   2   2   2
#     4  11  20  37  60  85 116 161 193 240 296 338
#     4  10  21  40  64  84 119 149 194 250 287 358
#     4  10  21  41  64  88 112 149 196 244 306 352
#     4  10  21  35  57  85 119 157 206 235 286 347
#     4   9  22  38  57  84 121 146 195 246 287 353
#     4  10  21  38  57  86 125 159 198 247 279 338
#     4   9  20  43  55  88 121 152 195 241 286 349
#     4   9  21  36  56  82 127 149 196 243 287 339
#
# _framework density 18.188609
#
# number of rings (size 3 to 8) (size 9 to 14) (size 15 to 20)
#    0.750    1.500    1.250    1.125    1.750    2.000 
#    6.750    0.625    0.000    0.000    0.000    0.000 
#    0.000    0.000    0.000    0.000    0.000    0.000 
#
# Total GULP energy -89139.764429 kJ/mol
# GULP energy per Si atom -5571.235277 kJ/mol
# Density = 1.814721 g / cm^3
# Si number density = 18.188609 Si / 1000 Ang^3
#
#
#
# Elastic Constant Matrix: (Units=GPa)
#
#
# Indices 1 2 3 4 5 6 
#
# 1 48.6214 17.8781 34.3495 -23.9261 -4.2696 12.9939
# 2 17.8781 56.1705 13.6787 -3.8612 0.3655 7.2790
# 3 34.3495 13.6787 60.7785 -12.3490 -8.0775 12.9534
# 4 -23.9261 -3.8612 -12.3490 31.7046 5.7573 2.0519
# 5 -4.2696 0.3655 -8.0775 5.7573 24.9667 2.2986
# 6 12.9939 7.2790 12.9534 2.0519 2.2986 20.4497
#
#
#
# Elastic Compliance Matrix: (Units=1/GPa)
#
#
# Indices 1 2 3 4 5 6 
#
# 1 0.070602 -0.009833 -0.021879 0.046086 -0.002557 -0.031839
# 2 -0.009833 0.020695 -0.000072 -0.004738 -0.000869 -0.000500
# 3 -0.021879 -0.000072 0.029749 -0.006003 0.007746 -0.005185
# 4 0.046086 -0.004738 -0.006003 0.066526 -0.006596 -0.029728
# 5 -0.002557 -0.000869 0.007746 -0.006596 0.044327 -0.007293
# 6 -0.031839 -0.000500 -0.005185 -0.029728 -0.007293 0.076396
#
#
# Mechanical properties :
#
#
# Convention : Reuss Voigt Hill
#
# Bulk Modulus (GPa) = 17.39782 33.04257 25.22020
# Shear Modulus (GPa) = 12.78700 22.06847 17.42773
#
# Velocity S-wave (km/s) = 2.65433 3.48704 3.09879
# Velocity P-wave (km/s) = 4.35660 5.86674 5.16714
#
# Compressibility (1/GPa) = 0.05747846
#
# Stress axis : x y z
#
# Youngs Moduli (GPa) = 14.16392 48.32124 33.61464
#
# Poissons Ratio (x) = 0.47514 0.73544
# Poissons Ratio (y) = 0.13927 0.00242
# Poissons Ratio (z) = 0.30989 0.00348
#
# Static dielectric constant tensor:
#      x y z
#    x 1.589690 0.009080 0.003520 
#    y 0.009080 1.655620 0.029830 
#    z 0.003520 0.029830 1.621810 
# 
# From -- ./inp_files/328062.got.cif
#   From: 2010.05.17/outbox.cif.g08.bks.cpg/sg2_165_cif.got.tgz:328062.got - 2010.06.03 11:33:40.
