data_PCOD9001983
_publ_section_title
;
Structure prediction by ZEFSAII (Michael W. Deem and Ramdas Pophale) SiO2 
 PCOD9001983
Probable space group: P -1
;
_chemical_formula_sum "Si O2"
_cell_formula_units_Z 12
_cell_length_a 11.653165
_cell_length_b 5.596300
_cell_length_c 14.202012
_cell_angle_alpha 90.627055
_cell_angle_beta 135.620292
_cell_angle_gamma 60.129209
_cell_volume 461.973483
_symmetry_space_group_name_H-M "P -1"
_symmetry_group_IT_number 2
_symmetry_cell_setting 'triclinic'
loop_
_space_group_symop_operation_xyz
x,y,z
-x,-y,-z
loop_
_atom_site_type_symbol
_atom_site_label
_atom_site_fract_x
_atom_site_fract_y
_atom_site_fract_z
Si Si1 0.900763 0.230198 0.761345
Si Si2 0.654754 0.291285 0.294282
Si Si3 0.730980 0.916890 0.146255
Si Si4 0.221854 0.470650 0.114771
Si Si5 0.938018 0.368442 0.386489
Si Si6 0.200906 0.178639 0.260612
O O1 0.145510 0.024263 0.852505
O O2 0.756690 0.620150 0.654810
O O3 0.922167 0.249548 0.886312
O O4 0.772916 0.106621 0.677899
O O5 0.424311 0.437047 0.204728
O O6 0.694712 0.513658 0.279640
O O7 0.693372 0.100581 0.221038
O O8 0.862128 0.031351 0.489174
O O9 0.913325 0.519859 0.273881
O O10 0.500000 0.000000 0.000000
O O11 0.312799 0.142515 0.224397
O O12 0.066672 0.565759 0.934227
O O13 0.000000 0.500000 0.500000
#
# Coordination Sequence:
#
# PCOD9001983 Si02
#       6
#     2   2   2   2   2   2
#     4  10  21  36  55  89 129 160 199 264 313 373
#     4  10  21  41  66  88 122 171 213 258 313 385
#     4  11  24  36  62  96 129 163 205 268 326 375
#     4   9  20  34  61  86 121 169 210 254 309 382
#     4   9  22  42  60  88 125 167 217 257 310 384
#     4   9  20  35  58  87 132 162 206 255 315 380
#
# _framework density 25.975517
#
# number of rings (size 3 to 8) (size 9 to 14) (size 15 to 20)
#    1.000    1.333    0.000    1.500    4.667    3.333 
#    0.000    0.833    0.000   10.000    0.000    0.000 
#    0.000    0.000    0.000    0.000    0.000    0.000 
#
# Total GULP energy -66849.794051 kJ/mol
# GULP energy per Si atom -5570.816171 kJ/mol
# Density = 2.591640 g / cm^3
# Si number density = 25.975517 Si / 1000 Ang^3
#
#
#
# Elastic Constant Matrix: (Units=GPa)
#
#
# Indices 1 2 3 4 5 6 
#
# 1 242.4133 52.1689 45.1417 1.5218 12.3274 27.9765
# 2 52.1689 84.8953 12.0347 12.9891 0.8194 36.6340
# 3 45.1417 12.0347 42.0146 6.6732 1.8538 4.3098
# 4 1.5218 12.9891 6.6732 23.5528 11.1465 4.6310
# 5 12.3274 0.8194 1.8538 11.1465 34.7314 5.6982
# 6 27.9765 36.6340 4.3098 4.6310 5.6982 57.8888
#
#
#
# Elastic Compliance Matrix: (Units=1/GPa)
#
#
# Indices 1 2 3 4 5 6 
#
# 1 0.006233 -0.003489 -0.006297 0.004955 -0.003318 -0.000406
# 2 -0.003489 0.020300 0.000680 -0.012039 0.006371 -0.010875
# 3 -0.006297 0.000680 0.031870 -0.011001 0.003928 0.000733
# 4 0.004955 -0.012039 -0.011001 0.061232 -0.021067 0.003219
# 5 -0.003318 0.006371 0.003928 -0.021067 0.037141 -0.004692
# 6 -0.000406 -0.010875 0.000733 0.003219 -0.004692 0.024502
#
#
# Mechanical properties :
#
#
# Convention : Reuss Voigt Hill
#
# Bulk Modulus (GPa) = 24.87969 65.33486 45.10728
# Shear Modulus (GPa) = 23.48678 40.56645 32.02662
#
# Velocity S-wave (km/s) = 3.01024 3.95615 3.51515
# Velocity P-wave (km/s) = 4.65628 6.78787 5.82049
#
# Compressibility (1/GPa) = 0.04019342
#
# Stress axis : x y z
#
# Youngs Moduli (GPa) = 160.43870 49.26108 31.37704
#
# Poissons Ratio (x) = 0.17186 0.19757
# Poissons Ratio (y) = 0.55972 -0.02135
# Poissons Ratio (z) = 1.01021 -0.03351
#
# Static dielectric constant tensor:
#      x y z
#    x 2.044630 0.063870 -0.016700 
#    y 0.063870 2.268210 -0.078570 
#    z -0.016700 -0.078570 2.056570 
# 
# From -- ./inp_files/105607.got.cif
#   From: 2010.05.17/outbox.cif.g08.bks.cpg/sg2_53_cif.got.tgz:105607.got - 2010.06.03 11:33:40.
