data_PCOD9001357
_publ_section_title
;
Structure prediction by ZEFSAII (Michael W. Deem and Ramdas Pophale) SiO2 
 PCOD9001357
Probable space group: P -1
;
_chemical_formula_sum "Si O2"
_cell_formula_units_Z 16
_cell_length_a 16.304266
_cell_length_b 5.480791
_cell_length_c 14.089820
_cell_angle_alpha 71.466223
_cell_angle_beta 66.547340
_cell_angle_gamma 113.466441
_cell_volume 873.435289
_symmetry_space_group_name_H-M "P -1"
_symmetry_group_IT_number 2
_symmetry_cell_setting 'triclinic'
loop_
_space_group_symop_operation_xyz
x,y,z
-x,-y,-z
loop_
_atom_site_type_symbol
_atom_site_label
_atom_site_fract_x
_atom_site_fract_y
_atom_site_fract_z
Si Si1 0.602178 0.169849 0.073573
Si Si2 0.248455 0.219865 0.185772
Si Si3 0.995331 0.188592 0.569575
Si Si4 0.451505 0.311249 0.698854
Si Si5 0.234943 0.577323 0.491700
Si Si6 0.666570 0.680828 0.665574
Si Si7 0.597359 0.347838 0.453467
Si Si8 0.410934 0.110100 0.091151
O O1 0.474857 0.058370 0.148798
O O2 0.619781 0.035817 0.175915
O O3 0.698825 0.542752 0.958139
O O4 0.594915 0.002221 0.998873
O O5 0.318787 0.409832 0.224934
O O6 0.286096 0.988759 0.185696
O O7 0.121015 0.048470 0.290943
O O8 0.101985 0.323955 0.570838
O O9 0.000000 0.500000 0.500000
O O10 0.000000 0.000000 0.500000
O O11 0.540057 0.538942 0.712392
O O12 0.534778 0.366421 0.570063
O O13 0.379707 0.408014 0.670624
O O14 0.283230 0.447691 0.411792
O O15 0.294237 0.606037 0.560540
O O16 0.266720 0.932176 0.415992
O O17 0.500000 0.000000 0.500000
O O18 0.500000 0.500000 0.000000
#
# Coordination Sequence:
#
# PCOD9001357 Si02
#       8
#     2   2   2   2   2   2   2   2
#     4  10  21  35  52  81 120 154 194 240 298 361
#     4  11  23  34  56  84 120 158 201 237 293 364
#     4  12  24  40  60  88 119 163 204 244 294 350
#     4  10  21  35  55  86 113 155 193 246 301 361
#     4  11  22  39  57  87 119 157 192 254 291 343
#     4  11  21  34  61  83 121 155 193 237 301 351
#     4  10  21  36  58  82 116 149 203 244 305 353
#     4   9  19  33  51  81 115 157 190 233 291 364
#
# _framework density 18.318470999999999
#
# number of rings (size 3 to 8) (size 9 to 14) (size 15 to 20)
#    0.000    1.500    3.750    2.250    7.000    2.000 
#    0.000    0.000    0.000    0.750    0.000    1.750 
#    0.000    0.000    0.000    0.000    0.000    0.000 
#
# Total GULP energy -89125.180439 kJ/mol
# GULP energy per Si atom -5570.323777 kJ/mol
# Density = 1.827678 g / cm^3
# Si number density = 18.318471 Si / 1000 Ang^3
#
#
#
# Elastic Constant Matrix: (Units=GPa)
#
#
# Indices 1 2 3 4 5 6 
#
# 1 130.5918 26.7556 65.6774 -13.6762 5.7172 11.3583
# 2 26.7556 59.6875 14.7884 -5.2697 -0.8895 -3.8536
# 3 65.6774 14.7884 96.1489 -22.4827 11.1796 -4.3360
# 4 -13.6762 -5.2697 -22.4827 24.9980 -5.5876 -1.0647
# 5 5.7172 -0.8895 11.1796 -5.5876 43.2128 -2.0319
# 6 11.3583 -3.8536 -4.3360 -1.0647 -2.0319 32.5164
#
#
#
# Elastic Compliance Matrix: (Units=1/GPa)
#
#
# Indices 1 2 3 4 5 6 
#
# 1 0.013674 -0.004409 -0.009488 -0.002277 -0.000052 -0.006642
# 2 -0.004409 0.019070 0.000752 0.002755 0.001329 0.004074
# 3 -0.009488 0.000752 0.020351 0.013097 -0.001999 0.006421
# 4 -0.002277 0.002755 0.013097 0.052206 0.003947 0.004824
# 5 -0.000052 0.001329 -0.001999 0.003947 0.024276 0.001555
# 6 -0.006642 0.004074 0.006421 0.004824 0.001555 0.034668
#
#
# Mechanical properties :
#
#
# Convention : Reuss Voigt Hill
#
# Bulk Modulus (GPa) = 37.30763 55.65233 46.47998
# Shear Modulus (GPa) = 25.06636 32.09255 28.57945
#
# Velocity S-wave (km/s) = 3.70315 4.19014 3.95415
# Velocity P-wave (km/s) = 6.22052 7.33867 6.80261
#
# Compressibility (1/GPa) = 0.02680417
#
# Stress axis : x y z
#
# Youngs Moduli (GPa) = 73.13002 52.43789 49.13849
#
# Poissons Ratio (x) = 0.23122 0.46624
# Poissons Ratio (y) = 0.32246 -0.03696
# Poissons Ratio (z) = 0.69388 -0.03944
#
# Static dielectric constant tensor:
#      x y z
#    x 1.684090 -0.069990 0.012290 
#    y -0.069990 1.771580 0.004400 
#    z 0.012290 0.004400 1.667260 
# 
# From -- ./inp_files/74450.got.cif
#   From: 2010.05.17/outbox.cif.g08.bks.cpg/sg2_38_cif.got.tgz:74450.got - 2010.06.03 11:33:40.
