data_PCOD9001657
_publ_section_title
;
Structure prediction by ZEFSAII (Michael W. Deem and Ramdas Pophale) SiO2 
 PCOD9001657
Probable space group: P -1
;
_chemical_formula_sum "Si O2"
_cell_formula_units_Z 16
_cell_length_a 23.636526
_cell_length_b 11.238152
_cell_length_c 11.552057
_cell_angle_alpha 139.203031
_cell_angle_beta 39.810739
_cell_angle_gamma 157.668349
_cell_volume 732.759887
_symmetry_space_group_name_H-M "P -1"
_symmetry_group_IT_number 2
_symmetry_cell_setting 'triclinic'
loop_
_space_group_symop_operation_xyz
x,y,z
-x,-y,-z
loop_
_atom_site_type_symbol
_atom_site_label
_atom_site_fract_x
_atom_site_fract_y
_atom_site_fract_z
Si Si1 0.683387 0.333841 0.471242
Si Si2 0.571722 0.353700 0.998841
Si Si3 0.263047 0.219592 0.167679
Si Si4 0.758731 0.335421 0.610885
Si Si5 0.230528 0.853769 0.127736
Si Si6 0.949357 0.610506 0.108749
Si Si7 0.920291 0.191232 0.459119
Si Si8 0.664401 0.754860 0.366400
O O1 0.714652 0.599936 0.631439
O O2 0.736209 0.341457 0.516288
O O3 0.793224 0.428857 0.274141
O O4 0.500000 0.000000 0.500000
O O5 0.637487 0.585475 0.171282
O O6 0.386440 0.024911 0.052603
O O7 0.615835 0.534574 0.943440
O O8 0.646025 0.279645 0.816899
O O9 0.270442 0.038359 0.085524
O O10 0.097966 0.974881 0.184330
O O11 0.932606 0.671580 0.627142
O O12 0.719078 0.054843 0.477073
O O13 0.169839 0.883983 0.344022
O O14 0.090699 0.487523 0.035056
O O15 0.000000 0.500000 0.000000
O O16 0.000000 0.500000 0.500000
O O17 0.795603 0.896517 0.350285
O O18 0.500000 0.500000 0.500000
#
# Coordination Sequence:
#
# PCOD9001657 Si02
#       8
#     2   2   2   2   2   2   2   2
#     4  11  23  40  63  98 136 174 212 266 340 398
#     4  11  24  42  67 102 129 172 221 274 336 397
#     4  10  23  38  64  98 134 168 218 270 330 410
#     4  10  24  43  66  95 136 168 221 278 324 395
#     4  11  22  41  66  95 132 172 220 272 333 394
#     4  10  21  35  60  90 126 172 207 263 324 392
#     4  10  23  44  67  91 129 177 221 274 327 385
#     4  11  24  44  70  95 128 178 226 273 332 384
#
# _framework density 21.835256999999999
#
# number of rings (size 3 to 8) (size 9 to 14) (size 15 to 20)
#    0.000    1.500    1.250    3.750    8.750    2.000 
#    0.000    2.500    0.000    0.000    0.000    0.000 
#    0.000    0.000    0.000    0.000    0.000    0.000 
#
# Total GULP energy -89362.685120 kJ/mol
# GULP energy per Si atom -5585.167820 kJ/mol
# Density = 2.178556 g / cm^3
# Si number density = 21.835257 Si / 1000 Ang^3
#
#
#
# Elastic Constant Matrix: (Units=GPa)
#
#
# Indices 1 2 3 4 5 6 
#
# 1 65.8241 19.6656 13.3133 1.1577 7.3947 34.9795
# 2 19.6656 66.9127 -0.7650 -2.6408 -5.4823 37.0832
# 3 13.3133 -0.7650 94.7544 12.5620 9.7500 16.4424
# 4 1.1577 -2.6408 12.5620 33.0347 7.1230 0.4340
# 5 7.3947 -5.4823 9.7500 7.1230 22.8558 -5.9808
# 6 34.9795 37.0832 16.4424 0.4340 -5.9808 42.3705
#
#
#
# Elastic Compliance Matrix: (Units=1/GPa)
#
#
# Indices 1 2 3 4 5 6 
#
# 1 0.040807 0.015761 0.005972 0.004154 -0.027316 -0.053699
# 2 0.015761 0.037703 0.007963 0.003075 -0.013776 -0.051076
# 3 0.005972 0.007963 0.014476 -0.002598 -0.010347 -0.018951
# 4 0.004154 0.003075 -0.002598 0.034036 -0.011977 -0.007152
# 5 -0.027316 -0.013776 -0.010347 -0.011977 0.070163 0.048650
# 6 -0.053699 -0.051076 -0.018951 -0.007152 0.048650 0.126929
#
#
# Mechanical properties :
#
#
# Convention : Reuss Voigt Hill
#
# Bulk Modulus (GPa) = 6.56267 32.43545 19.49906
# Shear Modulus (GPa) = 15.84710 32.67069 24.25889
#
# Velocity S-wave (km/s) = 2.69691 3.87232 3.33678
# Velocity P-wave (km/s) = 3.56509 5.90593 4.87800
#
# Compressibility (1/GPa) = 0.15237699
#
# Stress axis : x y z
#
# Youngs Moduli (GPa) = 24.50563 26.52337 69.07815
#
# Poissons Ratio (x) = -0.41803 -0.41252
# Poissons Ratio (y) = -0.38623 -0.55005
# Poissons Ratio (z) = -0.14634 -0.21120
#
# Static dielectric constant tensor:
#      x y z
#    x 1.827200 -0.010320 -0.006930 
#    y -0.010320 1.844730 0.035950 
#    z -0.006930 0.035950 1.786150 
# 
# From -- ./inp_files/178070.got.cif
#   From: 2010.05.17/outbox.cif.g08.bks.cpg/sg2_90_cif.got.tgz:178070.got - 2010.06.03 11:33:40.
