data_PCOD9001691
_publ_section_title
;
Structure prediction by ZEFSAII (Michael W. Deem and Ramdas Pophale) SiO2 
 PCOD9001691
Probable space group: P -1
;
_chemical_formula_sum "Si O2"
_cell_formula_units_Z 14
_cell_length_a 11.837829
_cell_length_b 12.927332
_cell_length_c 12.285027
_cell_angle_alpha 139.060608
_cell_angle_beta 145.729674
_cell_angle_gamma 35.459597
_cell_volume 594.333494
_symmetry_space_group_name_H-M "P -1"
_symmetry_group_IT_number 2
_symmetry_cell_setting 'triclinic'
loop_
_space_group_symop_operation_xyz
x,y,z
-x,-y,-z
loop_
_atom_site_type_symbol
_atom_site_label
_atom_site_fract_x
_atom_site_fract_y
_atom_site_fract_z
Si Si1 0.080142 0.998015 0.895479
Si Si2 0.983435 0.573136 0.201426
Si Si3 0.912060 0.286532 0.817968
Si Si4 0.342612 0.363438 0.662816
Si Si5 0.269737 0.120479 0.574757
Si Si6 0.204348 0.712443 0.926046
Si Si7 0.550220 0.735124 0.575548
O O1 0.093436 0.105276 0.887188
O O2 0.259555 0.803435 0.938783
O O3 0.874209 0.960259 0.664250
O O4 0.006570 0.136770 0.049259
O O5 0.980513 0.689594 0.188098
O O6 0.248604 0.400995 0.290712
O O7 0.888937 0.708161 0.336233
O O8 0.845606 0.467837 0.980712
O O9 0.682035 0.276403 0.602773
O O10 0.358392 0.197121 0.610760
O O11 0.153761 0.560614 0.718808
O O12 0.340626 0.342784 0.517703
O O13 0.581072 0.361892 0.879574
O O14 0.462798 0.951775 0.667707
#
# Coordination Sequence:
#
# PCOD9001691 Si02
#       7
#     2   2   2   2   2   2   2
#     4  10  21  38  60  91 125 162 209 260 314 369
#     4  11  25  44  69  89 129 171 209 270 313 366
#     4  10  23  46  65  93 126 165 220 259 312 384
#     4  11  22  39  58  93 131 160 208 256 315 384
#     4  11  24  40  61  98 128 162 217 258 311 388
#     4  10  21  35  61  88 122 171 195 254 320 370
#     4  11  24  43  66  97 127 170 206 267 316 373
#
# _framework density 23.555799
#
# number of rings (size 3 to 8) (size 9 to 14) (size 15 to 20)
#    0.000    1.429    2.857    2.571    4.000    5.714 
#    0.000    4.286    0.000    0.000    0.000    0.000 
#    0.000    0.000    0.000    0.000    0.000    0.000 
#
# Total GULP energy -78272.287521 kJ/mol
# GULP energy per Si atom -5590.877680 kJ/mol
# Density = 2.350218 g / cm^3
# Si number density = 23.555799 Si / 1000 Ang^3
#
#
#
# Elastic Constant Matrix: (Units=GPa)
#
#
# Indices 1 2 3 4 5 6 
#
# 1 66.3662 18.3363 13.9344 6.2625 2.2254 34.4748
# 2 18.3363 102.2247 8.4523 1.9381 -6.2588 30.2369
# 3 13.9344 8.4523 61.2919 17.8350 -1.2140 6.1127
# 4 6.2625 1.9381 17.8350 45.3375 2.3877 -4.8451
# 5 2.2254 -6.2588 -1.2140 2.3877 25.3658 5.8333
# 6 34.4748 30.2369 6.1127 -4.8451 5.8333 50.3609
#
#
#
# Elastic Compliance Matrix: (Units=1/GPa)
#
#
# Indices 1 2 3 4 5 6 
#
# 1 0.025221 0.001443 -0.002684 -0.004617 0.002719 -0.018565
# 2 0.001443 0.012684 -0.000514 -0.001815 0.005295 -0.009329
# 3 -0.002684 -0.000514 0.019313 -0.007432 0.001996 -0.001144
# 4 -0.004617 -0.001815 -0.007432 0.026837 -0.004832 0.008294
# 5 0.002719 0.005295 0.001996 -0.004832 0.043522 -0.010789
# 6 -0.018565 -0.009329 -0.001144 0.008294 -0.010789 0.040353
#
#
# Mechanical properties :
#
#
# Convention : Reuss Voigt Hill
#
# Bulk Modulus (GPa) = 18.61899 34.59209 26.60554
# Shear Modulus (GPa) = 26.40722 36.82349 31.61536
#
# Velocity S-wave (km/s) = 3.35184 3.95808 3.66751
# Velocity P-wave (km/s) = 4.78551 5.96704 5.40864
#
# Compressibility (1/GPa) = 0.05370862
#
# Stress axis : x y z
#
# Youngs Moduli (GPa) = 39.64936 78.83946 51.77938
#
# Poissons Ratio (x) = -0.11379 0.13898
# Poissons Ratio (y) = -0.05723 0.02660
# Poissons Ratio (z) = 0.10642 0.04051
#
# Static dielectric constant tensor:
#      x y z
#    x 1.868110 -0.039310 0.033710 
#    y -0.039310 1.999370 -0.009820 
#    z 0.033710 -0.009820 1.919740 
# 
# From -- ./inp_files/177144.got.cif
#   From: 2010.05.17/outbox.cif.g08.bks.cpg/sg2_89_cif.got.tgz:177144.got - 2010.06.03 11:33:40.
