data_PCOD9001120
_publ_section_title
;
Structure prediction by ZEFSAII (Michael W. Deem and Ramdas Pophale) SiO2 
 PCOD9001120
Probable space group: P -1
;
_chemical_formula_sum "Si O2"
_cell_formula_units_Z 16
_cell_length_a 8.777310
_cell_length_b 10.440323
_cell_length_c 17.370625
_cell_angle_alpha 152.239572
_cell_angle_beta 89.013511
_cell_angle_gamma 100.799230
_cell_volume 688.818767
_symmetry_space_group_name_H-M "P -1"
_symmetry_group_IT_number 2
_symmetry_cell_setting 'triclinic'
loop_
_space_group_symop_operation_xyz
x,y,z
-x,-y,-z
loop_
_atom_site_type_symbol
_atom_site_label
_atom_site_fract_x
_atom_site_fract_y
_atom_site_fract_z
Si Si1 0.204956 0.813475 0.224592
Si Si2 0.665112 0.075590 0.988372
Si Si3 0.256619 0.243909 0.905715
Si Si4 0.341939 0.260663 0.336709
Si Si5 0.054990 0.452139 0.685137
Si Si6 0.578973 0.547168 0.149196
Si Si7 0.744669 0.974714 0.503239
Si Si8 0.030818 0.220060 0.398433
O O1 0.310817 0.962118 0.228132
O O2 0.307876 0.954779 0.375062
O O3 0.055869 0.931360 0.284696
O O4 0.161226 0.467293 0.039750
O O5 0.652345 0.805475 0.788372
O O6 0.831995 0.220504 0.113123
O O7 0.666246 0.337688 0.070978
O O8 0.500000 0.000000 0.000000
O O9 0.345159 0.313321 0.858712
O O10 0.393396 0.334055 0.018438
O O11 0.129615 0.914342 0.722799
O O12 0.500000 0.500000 0.500000
O O13 0.187312 0.339639 0.405594
O O14 0.159337 0.247533 0.598004
O O15 0.031303 0.420920 0.577243
O O16 0.878198 0.283682 0.635640
O O17 0.611745 0.803337 0.349334
#
# Coordination Sequence:
#
# PCOD9001120 Si02
#       8
#     2   2   2   2   2   2   2   2
#     4   9  20  30  55  80 109 134 177 224 270 310
#     4  11  22  35  57  79 104 140 185 223 260 315
#     4  11  19  34  54  83 114 140 169 217 276 325
#     4  10  21  34  52  82 104 136 180 224 268 302
#     4   9  17  30  51  79 104 134 171 224 262 306
#     4  10  21  34  54  80 114 143 171 215 269 328
#     4   9  17  30  50  78 110 134 170 217 270 311
#     4   9  18  32  54  79 111 135 177 223 266 310
#
# _framework density 23.228169999999999
#
# number of rings (size 3 to 8) (size 9 to 14) (size 15 to 20)
#    0.750    1.500    2.500    1.125    5.250    0.500 
#    0.000    0.000    0.000    5.250    0.000    0.000 
#    0.000    0.000    0.000    0.000    0.000    0.000 
#
# Total GULP energy -89255.402487 kJ/mol
# GULP energy per Si atom -5578.462655 kJ/mol
# Density = 2.317530 g / cm^3
# Si number density = 23.228170 Si / 1000 Ang^3
#
#
#
# Elastic Constant Matrix: (Units=GPa)
#
#
# Indices 1 2 3 4 5 6 
#
# 1 34.9755 15.7823 35.5142 -6.2788 21.4857 -5.0927
# 2 15.7823 65.7423 47.6874 -22.7561 1.3222 14.1889
# 3 35.5142 47.6874 183.0272 -46.0436 36.1312 5.9978
# 4 -6.2788 -22.7561 -46.0436 37.9626 0.1753 -3.6603
# 5 21.4857 1.3222 36.1312 0.1753 43.6025 2.5892
# 6 -5.0927 14.1889 5.9978 -3.6603 2.5892 30.4079
#
#
#
# Elastic Compliance Matrix: (Units=1/GPa)
#
#
# Indices 1 2 3 4 5 6 
#
# 1 0.057806 -0.016142 -0.002671 -0.001314 -0.026957 0.019877
# 2 -0.016142 0.027481 -0.003793 0.007725 0.011112 -0.014795
# 3 -0.002671 -0.003793 0.011343 0.011187 -0.008079 0.001120
# 4 -0.001314 0.007725 0.011187 0.044372 -0.009040 0.000080
# 5 -0.026957 0.011112 -0.008079 -0.009040 0.043377 -0.012888
# 6 0.019877 -0.014795 0.001120 0.000080 -0.012888 0.044005
#
#
# Mechanical properties :
#
#
# Convention : Reuss Voigt Hill
#
# Bulk Modulus (GPa) = 19.44922 53.52364 36.48643
# Shear Modulus (GPa) = 17.19768 34.71201 25.95485
#
# Velocity S-wave (km/s) = 2.72395 3.86993 3.34636
# Velocity P-wave (km/s) = 4.27603 6.56209 5.53830
#
# Compressibility (1/GPa) = 0.05141593
#
# Stress axis : x y z
#
# Youngs Moduli (GPa) = 17.29933 36.38858 88.16091
#
# Poissons Ratio (x) = 0.58739 0.23549
# Poissons Ratio (y) = 0.27925 0.33444
# Poissons Ratio (z) = 0.04621 0.13804
#
# Static dielectric constant tensor:
#      x y z
#    x 1.921130 -0.037910 -0.005410 
#    y -0.037910 1.868350 0.014210 
#    z -0.005410 0.014210 1.910230 
# 
# From -- ./inp_files/568346.got.cif
#   From: 2010.05.17/outbox.cif.g08.bks.cpg/sg2_285_cif.got.tgz:568346.got - 2010.06.03 11:33:40.
