data_PCOD9001358
_publ_section_title
;
Structure prediction by ZEFSAII (Michael W. Deem and Ramdas Pophale) SiO2 
 PCOD9001358
Probable space group: P -1
;
_chemical_formula_sum "Si O2"
_cell_formula_units_Z 16
_cell_length_a 5.206578
_cell_length_b 15.309482
_cell_length_c 14.187514
_cell_angle_alpha 38.193671
_cell_angle_beta 115.121456
_cell_angle_gamma 107.471279
_cell_volume 631.979856
_symmetry_space_group_name_H-M "P -1"
_symmetry_group_IT_number 2
_symmetry_cell_setting 'triclinic'
loop_
_space_group_symop_operation_xyz
x,y,z
-x,-y,-z
loop_
_atom_site_type_symbol
_atom_site_label
_atom_site_fract_x
_atom_site_fract_y
_atom_site_fract_z
Si Si1 0.881265 0.817587 0.205629
Si Si2 0.821427 0.061167 0.695424
Si Si3 0.338957 0.302418 0.908062
Si Si4 0.479057 0.649760 0.417889
Si Si5 0.998603 0.660722 0.991730
Si Si6 0.350880 0.614940 0.628649
Si Si7 0.151515 0.050453 0.575460
Si Si8 0.113968 0.346443 0.232020
O O1 0.725971 0.810332 0.086911
O O2 0.662906 0.755051 0.298924
O O3 0.013216 0.949171 0.169633
O O4 0.157155 0.713302 0.317521
O O5 0.812015 0.232722 0.531554
O O6 0.492262 0.024494 0.665117
O O7 0.002481 0.997933 0.690657
O O8 0.676238 0.316819 0.950213
O O9 0.213301 0.464372 0.727203
O O10 0.206759 0.274403 0.013825
O O11 0.500000 0.500000 0.500000
O O12 0.553120 0.620602 0.562788
O O13 0.954186 0.491662 0.117577
O O14 0.961616 0.705070 0.839747
O O15 0.555799 0.616462 0.748868
O O16 0.093863 0.218164 0.408611
O O17 0.000000 0.000000 0.500000
#
# Coordination Sequence:
#
# PCOD9001358 Si02
#       8
#     2   2   2   2   2   2   2   2
#     4  11  21  32  49  72 112 143 178 221 262 320
#     4  10  21  35  52  82 107 140 174 220 277 330
#     4  11  21  32  49  76 104 150 182 213 254 310
#     4  11  20  29  44  73 103 148 182 211 256 322
#     4  10  22  35  52  76 110 145 186 212 259 315
#     4   9  19  31  51  73 111 143 182 211 267 322
#     4  11  22  39  60  83 107 136 179 228 281 326
#     4   9  20  37  54  77 108 143 176 229 265 312
#
# _framework density 25.317263000000001
#
# number of rings (size 3 to 8) (size 9 to 14) (size 15 to 20)
#    0.000    1.750    1.250    4.500    3.500    6.500 
#    0.000    0.000    0.000    0.000    0.000    5.250 
#    0.000    0.000    0.000    0.000    0.000    0.000 
#
# Total GULP energy -89402.836464 kJ/mol
# GULP energy per Si atom -5587.677279 kJ/mol
# Density = 2.525964 g / cm^3
# Si number density = 25.317263 Si / 1000 Ang^3
#
#
#
# Elastic Constant Matrix: (Units=GPa)
#
#
# Indices 1 2 3 4 5 6 
#
# 1 125.2411 50.4615 31.2014 21.1650 -30.8759 -14.3573
# 2 50.4615 194.0074 33.9868 54.0975 -11.3674 5.7729
# 3 31.2014 33.9868 59.0598 -1.1131 -20.3944 4.2810
# 4 21.1650 54.0975 -1.1131 39.3506 -1.7140 -2.8505
# 5 -30.8759 -11.3674 -20.3944 -1.7140 28.4918 3.8012
# 6 -14.3573 5.7729 4.2810 -2.8505 3.8012 32.7083
#
#
#
# Elastic Compliance Matrix: (Units=1/GPa)
#
#
# Indices 1 2 3 4 5 6 
#
# 1 0.013197 -0.001001 -0.003121 -0.005002 0.010740 0.004694
# 2 -0.001001 0.010444 -0.006226 -0.014259 -0.001900 -0.002490
# 3 -0.003121 -0.006226 0.028099 0.011365 0.015566 -0.004768
# 4 -0.005002 -0.014259 0.011365 0.048230 -0.000485 0.003093
# 5 0.010740 -0.001900 0.015566 -0.000485 0.057588 -0.003723
# 6 0.004694 -0.002490 -0.004768 0.003093 -0.003723 0.034399
#
#
# Mechanical properties :
#
#
# Convention : Reuss Voigt Hill
#
# Bulk Modulus (GPa) = 32.21336 67.73420 49.97378
# Shear Modulus (GPa) = 22.42126 37.62069 30.02098
#
# Velocity S-wave (km/s) = 2.97915 3.85901 3.44727
# Velocity P-wave (km/s) = 4.95835 6.83141 5.96881
#
# Compressibility (1/GPa) = 0.03104302
#
# Stress axis : x y z
#
# Youngs Moduli (GPa) = 75.77539 95.74587 35.58867
#
# Poissons Ratio (x) = 0.09587 0.11109
# Poissons Ratio (y) = 0.07588 0.22156
# Poissons Ratio (z) = 0.23653 0.59609
#
# Static dielectric constant tensor:
#      x y z
#    x 1.955680 0.007790 0.005560 
#    y 0.007790 2.127990 -0.025520 
#    z 0.005560 -0.025520 2.089280 
# 
# From -- ./inp_files/82713.got.cif
#   From: 2010.05.17/outbox.cif.g08.bks.cpg/sg2_42_cif.got.tgz:82713.got - 2010.06.03 11:33:40.
