data_PCOD9001935
_publ_section_title
;
Structure prediction by ZEFSAII (Michael W. Deem and Ramdas Pophale) SiO2 
 PCOD9001935
Probable space group: P -1
;
_chemical_formula_sum "Si O2"
_cell_formula_units_Z 14
_cell_length_a 8.792101
_cell_length_b 15.893494
_cell_length_c 21.220206
_cell_angle_alpha 151.615618
_cell_angle_beta 151.445423
_cell_angle_gamma 38.361202
_cell_volume 672.958215
_symmetry_space_group_name_H-M "P -1"
_symmetry_group_IT_number 2
_symmetry_cell_setting 'triclinic'
loop_
_space_group_symop_operation_xyz
x,y,z
-x,-y,-z
loop_
_atom_site_type_symbol
_atom_site_label
_atom_site_fract_x
_atom_site_fract_y
_atom_site_fract_z
Si Si1 0.047962 0.366008 0.136922
Si Si2 0.313481 0.501501 0.498275
Si Si3 0.824934 0.660049 0.502327
Si Si4 0.052265 0.791711 0.867149
Si Si5 0.869886 0.977182 0.138828
Si Si6 0.233269 0.242571 0.931418
Si Si7 0.913960 0.406575 0.808734
O O1 0.427964 0.403548 0.302088
O O2 0.933975 0.535977 0.164828
O O3 0.938446 0.322321 0.139093
O O4 0.994603 0.188100 0.961665
O O5 0.500000 0.500000 0.500000
O O6 0.979701 0.613641 0.459184
O O7 0.217728 0.296740 0.331780
O O8 0.447631 0.654133 0.366859
O O9 0.000000 0.500000 0.500000
O O10 0.948335 0.847304 0.690256
O O11 0.386598 0.765946 0.937020
O O12 0.000000 0.000000 0.000000
O O13 0.881459 0.924594 0.182092
O O14 0.500000 0.000000 0.000000
O O15 0.112995 0.267866 0.833156
O O16 0.116053 0.412021 0.041854
#
# Coordination Sequence:
#
# PCOD9001935 Si02
#       7
#     2   2   2   2   2   2   2
#     4  10  21  37  57  86 118 153 191 245 291 343
#     4  10  21  36  54  89 115 149 192 239 292 334
#     4  12  21  35  63  86 113 156 196 241 292 346
#     4  11  23  35  61  88 119 154 195 242 296 344
#     4  11  21  35  60  87 116 144 197 247 288 342
#     4  10  22  39  58  86 117 156 194 242 290 348
#     4  10  21  39  60  83 118 155 200 236 291 352
#
# _framework density 20.80367
#
# number of rings (size 3 to 8) (size 9 to 14) (size 15 to 20)
#    0.000    1.429    4.286    1.714    4.000    1.143 
#    0.000    0.000    0.000    1.714    0.000    0.000 
#    0.000    0.000    0.000    0.000    0.000    0.000 
#
# Total GULP energy -78013.585448 kJ/mol
# GULP energy per Si atom -5572.398961 kJ/mol
# Density = 2.075632 g / cm^3
# Si number density = 20.803670 Si / 1000 Ang^3
#
#
#
# Elastic Constant Matrix: (Units=GPa)
#
#
# Indices 1 2 3 4 5 6 
#
# 1 88.5745 12.5891 6.8585 12.3192 9.6398 28.6185
# 2 12.5891 62.5673 30.3878 9.4585 6.1736 32.7857
# 3 6.8585 30.3878 126.7838 27.7840 12.2171 18.7284
# 4 12.3192 9.4585 27.7840 24.3204 0.6930 3.3723
# 5 9.6398 6.1736 12.2171 0.6930 26.6107 5.9124
# 6 28.6185 32.7857 18.7284 3.3723 5.9124 34.7088
#
#
#
# Elastic Compliance Matrix: (Units=1/GPa)
#
#
# Indices 1 2 3 4 5 6 
#
# 1 0.021242 0.011257 0.004353 -0.016071 -0.005672 -0.027969
# 2 0.011257 0.039791 0.000046 -0.014913 -0.002957 -0.044939
# 3 0.004353 0.000046 0.012741 -0.015504 -0.005231 -0.008109
# 4 -0.016071 -0.014913 -0.015504 0.068704 0.008482 0.027584
# 5 -0.005672 -0.002957 -0.005231 0.008482 0.041986 0.002317
# 6 -0.027969 -0.044939 -0.008109 0.027584 0.002317 0.095623
#
#
# Mechanical properties :
#
#
# Convention : Reuss Voigt Hill
#
# Bulk Modulus (GPa) = 9.51617 41.95518 25.73567
# Shear Modulus (GPa) = 17.61780 32.33399 24.97590
#
# Velocity S-wave (km/s) = 2.91324 3.94667 3.46866
# Velocity P-wave (km/s) = 3.98750 6.40150 5.33289
#
# Compressibility (1/GPa) = 0.10508432
#
# Stress axis : x y z
#
# Youngs Moduli (GPa) = 47.07577 25.13159 78.48862
#
# Poissons Ratio (x) = -0.28291 -0.34164
# Poissons Ratio (y) = -0.52993 -0.00357
# Poissons Ratio (z) = -0.20491 -0.00114
#
# Static dielectric constant tensor:
#      x y z
#    x 1.869880 0.079660 -0.038250 
#    y 0.079660 1.779880 -0.021310 
#    z -0.038250 -0.021310 1.754880 
# 
# From -- ./inp_files/174995.got.cif
#   From: 2010.05.17/outbox.cif.g08.bks.cpg/sg2_88_cif.got.tgz:174995.got - 2010.06.03 11:33:40.
