data_PCOD9001276
_publ_section_title
;
Structure prediction by ZEFSAII (Michael W. Deem and Ramdas Pophale) SiO2 
 PCOD9001276
Probable space group: P -1
;
_chemical_formula_sum "Si O2"
_cell_formula_units_Z 14
_cell_length_a 8.480000
_cell_length_b 15.486042
_cell_length_c 9.233023
_cell_angle_alpha 76.286311
_cell_angle_beta 76.724126
_cell_angle_gamma 30.589737
_cell_volume 598.631970
_symmetry_space_group_name_H-M "P -1"
_symmetry_group_IT_number 2
_symmetry_cell_setting 'triclinic'
loop_
_space_group_symop_operation_xyz
x,y,z
-x,-y,-z
loop_
_atom_site_type_symbol
_atom_site_label
_atom_site_fract_x
_atom_site_fract_y
_atom_site_fract_z
Si Si1 0.811099 0.067240 0.865117
Si Si2 0.861354 0.803818 0.473372
Si Si3 0.667863 0.749672 0.717278
Si Si4 0.217601 0.642437 0.160637
Si Si5 0.005382 0.916808 0.421282
Si Si6 0.399030 0.688370 0.864684
Si Si7 0.707834 0.818123 0.985361
O O1 0.054337 0.882921 0.818660
O O2 0.758384 0.169896 0.721616
O O3 0.487293 0.174043 0.920755
O O4 0.000000 0.000000 0.000000
O O5 0.885576 0.691193 0.570188
O O6 0.040359 0.800760 0.516330
O O7 0.988055 0.754917 0.301554
O O8 0.500000 0.000000 0.500000
O O9 0.637790 0.660404 0.808895
O O10 0.732260 0.784548 0.824805
O O11 0.320272 0.925999 0.659573
O O12 0.486998 0.445110 0.206806
O O13 0.350659 0.668911 0.044602
O O14 0.022899 0.687078 0.054536
O O15 0.000000 0.000000 0.500000
O O16 0.500000 0.000000 0.000000
#
# Coordination Sequence:
#
# PCOD9001276 Si02
#       7
#     2   2   2   2   2   2   2
#     4  11  20  39  63  91 124 161 209 262 304 362
#     4  10  22  40  59  95 124 157 207 265 304 364
#     4  10  23  39  59  89 132 159 202 263 311 367
#     4  11  24  40  68  92 126 166 210 257 312 378
#     4  10  21  34  60  89 122 159 202 257 310 363
#     4  10  22  43  62  91 129 169 204 255 319 370
#     4  12  22  35  66  98 119 162 214 259 306 365
#
# _framework density 23.386657
#
# number of rings (size 3 to 8) (size 9 to 14) (size 15 to 20)
#    0.000    1.429    4.286    2.571    6.000    1.143 
#    0.000    0.000    0.000    6.857    0.000    0.000 
#    0.000    0.000    0.000    0.000    0.000    0.000 
#
# Total GULP energy -77987.359413 kJ/mol
# GULP energy per Si atom -5570.525672 kJ/mol
# Density = 2.333343 g / cm^3
# Si number density = 23.386657 Si / 1000 Ang^3
#
#
#
# Elastic Constant Matrix: (Units=GPa)
#
#
# Indices 1 2 3 4 5 6 
#
# 1 134.6437 -2.1892 77.9160 1.7825 -35.8161 1.4941
# 2 -2.1892 53.7763 19.0765 8.6004 -1.4990 8.2077
# 3 77.9160 19.0765 136.4517 21.4083 -24.7263 -0.0045
# 4 1.7825 8.6004 21.4083 28.0120 -7.3303 -0.3408
# 5 -35.8161 -1.4990 -24.7263 -7.3303 64.6827 -4.5709
# 6 1.4941 8.2077 -0.0045 -0.3408 -4.5709 28.0275
#
#
#
# Elastic Compliance Matrix: (Units=1/GPa)
#
#
# Indices 1 2 3 4 5 6 
#
# 1 0.013365 0.002698 -0.008001 0.005740 0.005011 -0.000617
# 2 0.002698 0.021777 -0.004048 -0.003968 -0.000468 -0.006646
# 3 -0.008001 -0.004048 0.013824 -0.008831 -0.000135 0.001485
# 4 0.005740 -0.003968 -0.008831 0.044616 0.004922 0.002200
# 5 0.005011 -0.000468 -0.000135 0.004922 0.018943 0.003019
# 6 -0.000617 -0.006646 0.001485 0.002200 0.003019 0.038178
#
#
# Mechanical properties :
#
#
# Convention : Reuss Voigt Hill
#
# Bulk Modulus (GPa) = 33.04162 57.16427 45.10295
# Shear Modulus (GPa) = 27.85615 39.48233 33.66924
#
# Velocity S-wave (km/s) = 3.45499 4.11328 3.79842
# Velocity P-wave (km/s) = 5.48407 6.85966 6.21007
#
# Compressibility (1/GPa) = 0.03026486
#
# Stress axis : x y z
#
# Youngs Moduli (GPa) = 74.82233 45.91950 72.33599
#
# Poissons Ratio (x) = -0.12391 0.57879
# Poissons Ratio (y) = -0.20189 0.29280
# Poissons Ratio (z) = 0.59868 0.18587
#
# Static dielectric constant tensor:
#      x y z
#    x 2.130480 0.085170 0.043780 
#    y 0.085170 2.022010 -0.024210 
#    z 0.043780 -0.024210 2.196280 
# 
# From -- ./inp_files/214992.got.cif
#   From: 2010.05.17/outbox.cif.g08.bks.cpg/sg2_108_cif.got.tgz:214992.got - 2010.06.03 11:33:40.
