data_PCOD9001978
_publ_section_title
;
Structure prediction by ZEFSAII (Michael W. Deem and Ramdas Pophale) SiO2 
 PCOD9001978
Probable space group: P -1
;
_chemical_formula_sum "Si O2"
_cell_formula_units_Z 16
_cell_length_a 5.333032
_cell_length_b 26.865551
_cell_length_c 5.417884
_cell_angle_alpha 115.706264
_cell_angle_beta 61.268030
_cell_angle_gamma 92.008429
_cell_volume 598.342823
_symmetry_space_group_name_H-M "P -1"
_symmetry_group_IT_number 2
_symmetry_cell_setting 'triclinic'
loop_
_space_group_symop_operation_xyz
x,y,z
-x,-y,-z
loop_
_atom_site_type_symbol
_atom_site_label
_atom_site_fract_x
_atom_site_fract_y
_atom_site_fract_z
Si Si1 0.174227 0.453884 0.002229
Si Si2 0.300394 0.816561 0.432090
Si Si3 0.758453 0.952624 0.396784
Si Si4 0.465259 0.709532 0.413958
Si Si5 0.309217 0.158887 0.079435
Si Si6 0.799095 0.434452 0.534377
Si Si7 0.160855 0.327992 0.347644
Si Si8 0.648048 0.075356 0.115717
O O1 0.261660 0.497192 0.261717
O O2 0.956029 0.421527 0.170110
O O3 0.483798 0.420511 0.685009
O O4 0.000000 0.500000 0.000000
O O5 0.408353 0.777000 0.530412
O O6 0.289483 0.883289 0.609220
O O7 0.963491 0.812472 0.556571
O O8 0.541595 0.800654 0.070319
O O9 0.633915 0.946441 0.713676
O O10 0.500000 0.000000 0.500000
O O11 0.807218 0.887163 0.134903
O O12 0.059652 0.967079 0.196548
O O13 0.662157 0.690363 0.521985
O O14 0.138685 0.696649 0.571043
O O15 0.631750 0.685092 0.025189
O O16 0.555500 0.117209 0.024357
O O17 0.018901 0.395801 0.538185
#
# Coordination Sequence:
#
# PCOD9001978 Si02
#       8
#     2   2   2   2   2   2   2   2
#     4  10  21  40  65  96 127 178 230 280 343 406
#     4  10  23  39  64  87 123 161 219 275 322 408
#     4  10  21  36  55  88 122 155 203 254 321 402
#     4  12  28  49  73 107 142 192 240 295 366 425
#     4  10  21  39  60  89 118 162 210 266 328 388
#     4  10  23  39  65  96 133 177 230 284 342 418
#     4  12  28  49  73 109 147 191 236 297 364 427
#     4  10  21  37  59  85 116 163 204 262 324 382
#
# _framework density 26.740523
#
# number of rings (size 3 to 8) (size 9 to 14) (size 15 to 20)
#    0.000    1.500    0.000    3.750    7.000    1.000 
#    0.000    0.000    0.000    0.000    0.000    0.000 
#    0.000    0.000    0.000    0.000    0.000    0.000 
#
# Total GULP energy -89388.370105 kJ/mol
# GULP energy per Si atom -5586.773132 kJ/mol
# Density = 2.667966 g / cm^3
# Si number density = 26.740523 Si / 1000 Ang^3
#
#
#
# Elastic Constant Matrix: (Units=GPa)
#
#
# Indices 1 2 3 4 5 6 
#
# 1 120.1266 31.5475 71.1385 -15.1717 -41.8380 -20.1522
# 2 31.5475 100.3117 45.2881 -7.1092 -7.6478 -12.6509
# 3 71.1385 45.2881 178.6791 -32.7562 -44.3596 13.8054
# 4 -15.1717 -7.1092 -32.7562 49.5525 3.4595 4.8249
# 5 -41.8380 -7.6478 -44.3596 3.4595 52.5042 -1.7453
# 6 -20.1522 -12.6509 13.8054 4.8249 -1.7453 55.2985
#
#
#
# Elastic Compliance Matrix: (Units=1/GPa)
#
#
# Indices 1 2 3 4 5 6 
#
# 1 0.015244 -0.001523 -0.003865 0.000655 0.008829 0.006393
# 2 -0.001523 0.012163 -0.003479 -0.001172 -0.002201 0.003129
# 3 -0.003865 -0.003479 0.010637 0.005514 0.004864 -0.005187
# 4 0.000655 -0.001172 0.005514 0.023957 0.003319 -0.003392
# 5 0.008829 -0.002201 0.004864 0.003319 0.029723 0.002148
# 6 0.006393 0.003129 -0.005187 -0.003392 0.002148 0.022788
#
#
# Mechanical properties :
#
#
# Convention : Reuss Voigt Hill
#
# Bulk Modulus (GPa) = 49.24225 77.22950 63.23587
# Shear Modulus (GPa) = 35.96745 48.21393 42.09069
#
# Velocity S-wave (km/s) = 3.67148 4.25082 3.97172
# Velocity P-wave (km/s) = 6.03555 7.28261 6.68820
#
# Compressibility (1/GPa) = 0.02030777
#
# Stress axis : x y z
#
# Youngs Moduli (GPa) = 65.60155 82.21987 94.01585
#
# Poissons Ratio (x) = 0.12525 0.36336
# Poissons Ratio (y) = 0.09993 0.32710
# Poissons Ratio (z) = 0.25354 0.28606
#
# Static dielectric constant tensor:
#      x y z
#    x 2.290990 0.155200 0.021490 
#    y 0.155200 2.115370 0.014390 
#    z 0.021490 0.014390 2.274210 
# 
# From -- ./inp_files/13499.got.cif
#   From: 2010.05.17/outbox.cif.g08.bks.cpg/sg2_7_cif.got.tgz:13499.got - 2010.06.03 11:33:40.
