data_PCOD9001313
_publ_section_title
;
Structure prediction by ZEFSAII (Michael W. Deem and Ramdas Pophale) SiO2 
 PCOD9001313
Probable space group: P -1
;
_chemical_formula_sum "Si O2"
_cell_formula_units_Z 16
_cell_length_a 9.665361
_cell_length_b 18.642711
_cell_length_c 11.373894
_cell_angle_alpha 131.109006
_cell_angle_beta 37.544656
_cell_angle_gamma 142.071616
_cell_volume 764.840962
_symmetry_space_group_name_H-M "P -1"
_symmetry_group_IT_number 2
_symmetry_cell_setting 'triclinic'
loop_
_space_group_symop_operation_xyz
x,y,z
-x,-y,-z
loop_
_atom_site_type_symbol
_atom_site_label
_atom_site_fract_x
_atom_site_fract_y
_atom_site_fract_z
Si Si1 0.579391 0.109462 0.987754
Si Si2 0.314968 0.095142 0.922292
Si Si3 0.922969 0.637240 0.728390
Si Si4 0.441752 0.259595 0.368673
Si Si5 0.540508 0.823287 0.477788
Si Si6 0.102299 0.499600 0.617710
Si Si7 0.495011 0.304897 0.876349
Si Si8 0.177217 0.903918 0.417252
O O1 0.617837 0.212917 0.149335
O O2 0.335720 0.075972 0.024575
O O3 0.812108 0.133743 0.764737
O O4 0.500000 0.000000 0.000000
O O5 0.392465 0.219395 0.964384
O O6 0.564351 0.090942 0.692982
O O7 0.000000 0.000000 0.000000
O O8 0.831481 0.566992 0.591782
O O9 0.209180 0.766297 0.652547
O O10 0.006347 0.569056 0.681683
O O11 0.682316 0.642294 0.950144
O O12 0.395890 0.221830 0.496404
O O13 0.628132 0.399164 0.384883
O O14 0.140770 0.190958 0.434557
O O15 0.564173 0.768149 0.282997
O O16 0.731742 0.963749 0.499409
O O17 0.825608 0.402106 0.768039
#
# Coordination Sequence:
#
# PCOD9001313 Si02
#       8
#     2   2   2   2   2   2   2   2
#     4  10  23  42  64  92 131 165 208 255 311 378
#     4  10  24  43  62  94 128 167 211 256 319 378
#     4   9  19  38  60  92 126 158 216 263 309 361
#     4  11  21  39  62  91 127 163 214 256 312 375
#     4  10  21  34  62  98 122 159 209 263 310 373
#     4   9  21  38  60  92 121 166 216 259 302 378
#     4  11  22  39  63  91 127 165 211 262 321 362
#     4  10  23  38  58  93 125 163 201 256 318 375
#
# _framework density 20.919381999999999
#
# number of rings (size 3 to 8) (size 9 to 14) (size 15 to 20)
#    0.750    1.250    1.250    2.250    1.750    3.500 
#    4.500    1.250    0.000    0.000    0.000    0.000 
#    0.000    0.000    0.000    0.000    0.000    0.000 
#
# Total GULP energy -89209.378597 kJ/mol
# GULP energy per Si atom -5575.586162 kJ/mol
# Density = 2.087177 g / cm^3
# Si number density = 20.919382 Si / 1000 Ang^3
#
#
#
# Elastic Constant Matrix: (Units=GPa)
#
#
# Indices 1 2 3 4 5 6 
#
# 1 56.6208 26.1417 12.8843 1.9357 -0.0789 9.1069
# 2 26.1417 126.4919 30.4061 -15.7938 -6.7576 34.5083
# 3 12.8843 30.4061 99.0969 0.5965 -4.2401 22.6389
# 4 1.9357 -15.7938 0.5965 17.4969 2.8196 -3.0230
# 5 -0.0789 -6.7576 -4.2401 2.8196 15.9314 -3.3960
# 6 9.1069 34.5083 22.6389 -3.0230 -3.3960 28.7414
#
#
#
# Elastic Compliance Matrix: (Units=1/GPa)
#
#
# Indices 1 2 3 4 5 6 
#
# 1 0.020366 -0.004539 -0.001044 -0.006292 -0.001199 -0.000984
# 2 -0.004539 0.014161 -0.000619 0.010760 0.000967 -0.013831
# 3 -0.001044 -0.000619 0.012533 -0.002671 0.001647 -0.008885
# 4 -0.006292 0.010760 -0.002671 0.068627 -0.008890 -0.002654
# 5 -0.001199 0.000967 0.001647 -0.008890 0.066210 0.004810
# 6 -0.000984 -0.013831 -0.008885 -0.002654 0.004810 0.058998
#
#
# Mechanical properties :
#
#
# Convention : Reuss Voigt Hill
#
# Bulk Modulus (GPa) = 28.85418 46.78598 37.82008
# Shear Modulus (GPa) = 18.87857 26.61912 22.74885
#
# Velocity S-wave (km/s) = 3.00733 3.57103 3.30123
# Velocity P-wave (km/s) = 5.08741 6.27825 5.71394
#
# Compressibility (1/GPa) = 0.03465702
#
# Stress axis : x y z
#
# Youngs Moduli (GPa) = 49.10051 70.61773 79.78995
#
# Poissons Ratio (x) = 0.32055 0.08328
# Poissons Ratio (y) = 0.22288 0.04936
# Poissons Ratio (z) = 0.05125 0.04368
#
# Static dielectric constant tensor:
#      x y z
#    x 1.779800 0.019170 -0.019340 
#    y 0.019170 1.742590 -0.014520 
#    z -0.019340 -0.014520 2.586660 
# 
# From -- ./inp_files/523786.got.cif
#   From: 2010.05.17/outbox.cif.g08.bks.cpg/sg2_262_cif.got.tgz:523786.got - 2010.06.03 11:33:40.
