data_PCOD9001557
_publ_section_title
;
Structure prediction by ZEFSAII (Michael W. Deem and Ramdas Pophale) SiO2 
 PCOD9001557
Probable space group: P -1
;
_chemical_formula_sum "Si O2"
_cell_formula_units_Z 16
_cell_length_a 16.248584
_cell_length_b 16.650150
_cell_length_c 8.248141
_cell_angle_alpha 56.638795
_cell_angle_beta 57.607675
_cell_angle_gamma 24.372055
_cell_volume 765.169804
_symmetry_space_group_name_H-M "P -1"
_symmetry_group_IT_number 2
_symmetry_cell_setting 'triclinic'
loop_
_space_group_symop_operation_xyz
x,y,z
-x,-y,-z
loop_
_atom_site_type_symbol
_atom_site_label
_atom_site_fract_x
_atom_site_fract_y
_atom_site_fract_z
Si Si1 0.587948 0.230525 0.009899
Si Si2 0.987746 0.712808 0.463052
Si Si3 0.186827 0.143628 0.878234
Si Si4 0.992697 0.519615 0.292516
Si Si5 0.205549 0.517028 0.947594
Si Si6 0.243903 0.903568 0.658312
Si Si7 0.126635 0.866838 0.354917
Si Si8 0.650653 0.523122 0.481571
O O1 0.353807 0.446636 0.987590
O O2 0.726807 0.176277 0.811323
O O3 0.660849 0.183613 0.167132
O O4 0.626970 0.086087 0.077026
O O5 0.919094 0.769607 0.284583
O O6 0.990079 0.602896 0.653861
O O7 0.210378 0.562346 0.420364
O O8 0.836666 0.917917 0.479678
O O9 0.202262 0.243668 0.793291
O O10 0.019799 0.247007 0.063537
O O11 0.000000 0.500000 0.500000
O O12 0.165156 0.442498 0.131666
O O13 0.298647 0.448701 0.749461
O O14 0.419249 0.723777 0.549873
O O15 0.046763 0.008521 0.731312
O O16 0.265083 0.653040 0.464592
O O17 0.000000 0.000000 0.500000
#
# Coordination Sequence:
#
# PCOD9001557 Si02
#       8
#     2   2   2   2   2   2   2   2
#     4  11  21  38  61  86 116 153 192 239 280 337
#     4   9  18  39  59  81 118 151 190 236 283 332
#     4   8  18  36  58  84 111 148 191 240 273 326
#     4   8  17  37  61  85 112 150 195 235 280 335
#     4  10  21  35  58  87 116 149 193 233 284 336
#     4  10  23  39  58  88 115 151 194 235 285 340
#     4  11  24  40  62  83 115 153 192 238 289 343
#     4  11  23  38  57  87 119 153 188 235 290 342
#
# _framework density 20.910392999999999
#
# number of rings (size 3 to 8) (size 9 to 14) (size 15 to 20)
#    0.750    1.500    0.000    2.625    0.000    5.000 
#    2.250    2.500    0.000    0.000    0.000    0.000 
#    0.000    0.000    0.000    0.000    0.000    0.000 
#
# Total GULP energy -89135.918241 kJ/mol
# GULP energy per Si atom -5570.994890 kJ/mol
# Density = 2.086280 g / cm^3
# Si number density = 20.910393 Si / 1000 Ang^3
#
#
#
# Elastic Constant Matrix: (Units=GPa)
#
#
# Indices 1 2 3 4 5 6 
#
# 1 51.6010 13.0076 7.3172 -7.9259 -8.1237 8.8145
# 2 13.0076 72.4669 14.2830 11.3764 -8.1156 10.4155
# 3 7.3172 14.2830 75.9183 7.2598 -12.4383 9.0220
# 4 -7.9259 11.3764 7.2598 19.6283 -1.8817 1.9434
# 5 -8.1237 -8.1156 -12.4383 -1.8817 25.4132 -5.9236
# 6 8.8145 10.4155 9.0220 1.9434 -5.9236 24.3382
#
#
#
# Elastic Compliance Matrix: (Units=1/GPa)
#
#
# Indices 1 2 3 4 5 6 
#
# 1 0.024987 -0.005026 -0.001226 0.014597 0.005396 -0.006297
# 2 -0.005026 0.017414 -0.000966 -0.011207 0.001729 -0.003958
# 3 -0.001226 -0.000966 0.015215 -0.004718 0.005693 -0.003020
# 4 0.014597 -0.011207 -0.004718 0.065683 0.002876 -0.003286
# 5 0.005396 0.001729 0.005693 0.002876 0.046066 0.006178
# 6 -0.006297 -0.003958 -0.003020 -0.003286 0.006178 0.047948
#
#
# Mechanical properties :
#
#
# Convention : Reuss Voigt Hill
#
# Bulk Modulus (GPa) = 23.15942 29.91132 26.53537
# Shear Modulus (GPa) = 20.31344 24.90117 22.60731
#
# Velocity S-wave (km/s) = 3.12019 3.45462 3.29165
# Velocity P-wave (km/s) = 4.90718 5.49982 5.21193
#
# Compressibility (1/GPa) = 0.04317897
#
# Stress axis : x y z
#
# Youngs Moduli (GPa) = 40.02013 57.42539 65.72541
#
# Poissons Ratio (x) = 0.28861 0.08061
# Poissons Ratio (y) = 0.20113 0.06352
# Poissons Ratio (z) = 0.04908 0.05550
#
# Static dielectric constant tensor:
#      x y z
#    x 1.796020 0.038170 0.023520 
#    y 0.038170 1.760100 -0.029430 
#    z 0.023520 -0.029430 1.752920 
# 
# From -- ./inp_files/336473.got.cif
#   From: 2010.05.17/outbox.cif.g08.bks.cpg/sg2_169_cif.got.tgz:336473.got - 2010.06.03 11:33:40.
