data_PCOD9001606
_publ_section_title
;
Structure prediction by ZEFSAII (Michael W. Deem and Ramdas Pophale) SiO2 
 PCOD9001606
Probable space group: P -1
;
_chemical_formula_sum "Si O2"
_cell_formula_units_Z 16
_cell_length_a 20.603103
_cell_length_b 7.703364
_cell_length_c 5.497198
_cell_angle_alpha 124.397868
_cell_angle_beta 103.020844
_cell_angle_gamma 68.244587
_cell_volume 668.491406
_symmetry_space_group_name_H-M "P -1"
_symmetry_group_IT_number 2
_symmetry_cell_setting 'triclinic'
loop_
_space_group_symop_operation_xyz
x,y,z
-x,-y,-z
loop_
_atom_site_type_symbol
_atom_site_label
_atom_site_fract_x
_atom_site_fract_y
_atom_site_fract_z
Si Si1 0.052854 0.847659 0.612834
Si Si2 0.828025 0.307808 0.720510
Si Si3 0.084723 0.126243 0.252347
Si Si4 0.204073 0.321095 0.603385
Si Si5 0.551823 0.754996 0.364235
Si Si6 0.409950 0.456891 0.273990
Si Si7 0.294029 0.885870 0.617833
Si Si8 0.317005 0.217223 0.254773
O O1 0.114002 0.658725 0.389913
O O2 0.089099 0.011878 0.903938
O O3 0.000000 0.000000 0.500000
O O4 0.998234 0.780392 0.688798
O O5 0.875115 0.084055 0.715703
O O6 0.762855 0.243973 0.502152
O O7 0.803824 0.491169 0.053697
O O8 0.129174 0.290433 0.463369
O O9 0.242679 0.347083 0.407122
O O10 0.255098 0.091614 0.576632
O O11 0.544693 0.625934 0.506282
O O12 0.627702 0.789007 0.491450
O O13 0.500000 0.000000 0.500000
O O14 0.552456 0.623800 0.012113
O O15 0.365466 0.713574 0.443948
O O16 0.350769 0.329775 0.161310
O O17 0.311860 0.988536 0.963969
#
# Coordination Sequence:
#
# PCOD9001606 Si02
#       8
#     2   2   2   2   2   2   2   2
#     4   9  18  38  58  81 118 164 210 268 324 392
#     4  10  21  35  59  88 125 162 217 264 337 381
#     4   9  20  37  59  84 121 163 212 266 329 392
#     4  11  23  38  61  92 129 164 219 269 328 392
#     4  10  22  45  71  99 134 175 217 267 323 387
#     4  10  24  42  70  96 133 175 215 270 324 384
#     4  11  22  39  61  95 127 171 217 269 324 387
#     4  10  23  37  65  91 133 166 217 267 322 386
#
# _framework density 23.934488999999999
#
# number of rings (size 3 to 8) (size 9 to 14) (size 15 to 20)
#    0.750    1.250    0.000    3.375    1.750    3.500 
#    0.000    6.875    0.000    0.000    0.000    0.000 
#    0.000    0.000    0.000    0.000    0.000    0.000 
#
# Total GULP energy -89364.993743 kJ/mol
# GULP energy per Si atom -5585.312109 kJ/mol
# Density = 2.388001 g / cm^3
# Si number density = 23.934489 Si / 1000 Ang^3
#
#
#
# Elastic Constant Matrix: (Units=GPa)
#
#
# Indices 1 2 3 4 5 6 
#
# 1 63.5714 17.3905 45.3106 7.0586 -4.3883 -0.6651
# 2 17.3905 103.3941 28.1510 7.8859 -13.5721 -5.8491
# 3 45.3106 28.1510 161.6903 -2.9638 -11.4666 7.5370
# 4 7.0586 7.8859 -2.9638 31.8938 -6.0889 -0.1649
# 5 -4.3883 -13.5721 -11.4666 -6.0889 53.9118 4.8099
# 6 -0.6651 -5.8491 7.5370 -0.1649 4.8099 36.5383
#
#
#
# Elastic Compliance Matrix: (Units=1/GPa)
#
#
# Indices 1 2 3 4 5 6 
#
# 1 0.020761 -0.001559 -0.005741 -0.004849 -0.000594 0.001369
# 2 -0.001559 0.010832 -0.001434 -0.002094 0.001903 0.001741
# 3 -0.005741 -0.001434 0.008297 0.002659 0.001435 -0.002222
# 4 -0.004849 -0.002094 0.002659 0.033870 0.003584 -0.001291
# 5 -0.000594 0.001903 0.001435 0.003584 0.019922 -0.002609
# 6 0.001369 0.001741 -0.002222 -0.001291 -0.002609 0.028468
#
#
# Mechanical properties :
#
#
# Convention : Reuss Voigt Hill
#
# Bulk Modulus (GPa) = 44.59875 56.70667 50.65271
# Shear Modulus (GPa) = 33.99222 40.32235 37.15728
#
# Velocity S-wave (km/s) = 3.77267 4.10896 3.94440
# Velocity P-wave (km/s) = 6.13608 6.80112 6.47714
#
# Compressibility (1/GPa) = 0.02242215
#
# Stress axis : x y z
#
# Youngs Moduli (GPa) = 48.16820 92.31565 120.52311
#
# Poissons Ratio (x) = 0.14396 0.69193
# Poissons Ratio (y) = 0.07511 0.17278
# Poissons Ratio (z) = 0.27653 0.13234
#
# Static dielectric constant tensor:
#      x y z
#    x 1.948460 0.035400 -0.029030 
#    y 0.035400 1.998690 -0.059550 
#    z -0.029030 -0.059550 1.876510 
# 
# From -- ./inp_files/116485.got.cif
#   From: 2010.05.17/outbox.cif.g08.bks.cpg/sg2_59_cif.got.tgz:116485.got - 2010.06.03 11:33:40.
