data_PCOD9001622
_publ_section_title
;
Structure prediction by ZEFSAII (Michael W. Deem and Ramdas Pophale) SiO2 
 PCOD9001622
Probable space group: P -1
;
_chemical_formula_sum "Si O2"
_cell_formula_units_Z 16
_cell_length_a 26.782498
_cell_length_b 9.619191
_cell_length_c 16.948190
_cell_angle_alpha 35.676026
_cell_angle_beta 18.034018
_cell_angle_gamma 37.099895
_cell_volume 780.632602
_symmetry_space_group_name_H-M "P -1"
_symmetry_group_IT_number 2
_symmetry_cell_setting 'triclinic'
loop_
_space_group_symop_operation_xyz
x,y,z
-x,-y,-z
loop_
_atom_site_type_symbol
_atom_site_label
_atom_site_fract_x
_atom_site_fract_y
_atom_site_fract_z
Si Si1 0.733247 0.740181 0.614353
Si Si2 0.971866 0.832930 0.803731
Si Si3 0.807769 0.038363 0.212993
Si Si4 0.473009 0.483009 0.872099
Si Si5 0.342492 0.101415 0.641097
Si Si6 0.100703 0.617098 0.362869
Si Si7 0.102730 0.628273 0.951177
Si Si8 0.721259 0.196554 0.529597
O O1 0.745547 0.877403 0.451178
O O2 0.881500 0.535816 0.511704
O O3 0.733836 0.933987 0.594297
O O4 0.570169 0.621464 0.930031
O O5 0.815252 0.838138 0.094573
O O6 0.964931 0.620252 0.848734
O O7 0.133460 0.784181 0.636250
O O8 0.963777 0.102790 0.658170
O O9 0.694701 0.076778 0.289976
O O10 0.842436 0.285887 0.085963
O O11 0.968753 0.861403 0.023968
O O12 0.603128 0.667634 0.591243
O O13 0.552408 0.278246 0.788299
O O14 0.293279 0.597417 0.059378
O O15 0.500000 0.000000 0.500000
O O16 0.000000 0.500000 0.500000
O O17 0.249797 0.634934 0.665732
#
# Coordination Sequence:
#
# PCOD9001622 Si02
#       8
#     2   2   2   2   2   2   2   2
#     4   9  21  37  58  87 128 169 203 246 316 371
#     4  12  20  37  64  95 123 159 218 258 303 367
#     4  10  22  40  59  92 130 166 202 262 314 375
#     4  10  21  35  59  94 122 160 213 253 303 366
#     4  12  22  38  64  93 125 163 209 259 318 371
#     4  10  21  38  60  91 128 167 203 259 310 369
#     4  10  21  35  62  95 123 162 207 259 315 360
#     4  11  18  34  64  95 124 155 219 260 293 367
#
# _framework density 20.496198
#
# number of rings (size 3 to 8) (size 9 to 14) (size 15 to 20)
#    0.750    0.750    5.000    1.500    0.000    0.500 
#    0.000    1.250    0.000    1.500    0.000    0.000 
#    0.000    0.000    0.000    0.000    0.000    0.000 
#
# Total GULP energy -89168.698708 kJ/mol
# GULP energy per Si atom -5573.043669 kJ/mol
# Density = 2.044955 g / cm^3
# Si number density = 20.496198 Si / 1000 Ang^3
#
#
#
# Elastic Constant Matrix: (Units=GPa)
#
#
# Indices 1 2 3 4 5 6 
#
# 1 98.3300 39.8247 13.3990 0.0680 -18.1061 21.2818
# 2 39.8247 97.0689 7.5924 -15.1233 -13.8797 22.7500
# 3 13.3990 7.5924 50.0338 7.4852 7.2894 2.3082
# 4 0.0680 -15.1233 7.4852 37.1495 0.3344 -6.7430
# 5 -18.1061 -13.8797 7.2894 0.3344 36.8020 -5.1136
# 6 21.2818 22.7500 2.3082 -6.7430 -5.1136 19.4157
#
#
#
# Elastic Compliance Matrix: (Units=1/GPa)
#
#
# Indices 1 2 3 4 5 6 
#
# 1 0.015597 -0.002717 -0.003553 -0.002830 0.005571 -0.013005
# 2 -0.002717 0.015755 -0.002217 0.004513 0.003224 -0.012802
# 3 -0.003553 -0.002217 0.023137 -0.005502 -0.007123 -0.000045
# 4 -0.002830 0.004513 -0.005502 0.031686 0.002520 0.010136
# 5 0.005571 0.003224 -0.007123 0.002520 0.032575 0.000417
# 6 -0.013005 -0.012802 -0.000045 0.010136 0.000417 0.084396
#
#
# Mechanical properties :
#
#
# Convention : Reuss Voigt Hill
#
# Bulk Modulus (GPa) = 26.65665 40.78499 33.72082
# Shear Modulus (GPa) = 21.49371 30.98121 26.23746
#
# Velocity S-wave (km/s) = 3.24183 3.89209 3.58175
# Velocity P-wave (km/s) = 5.20062 6.33560 5.79596
#
# Compressibility (1/GPa) = 0.03751409
#
# Stress axis : x y z
#
# Youngs Moduli (GPa) = 64.11467 63.47312 43.22000
#
# Poissons Ratio (x) = 0.17248 0.15356
# Poissons Ratio (y) = 0.17422 0.09583
# Poissons Ratio (z) = 0.22779 0.14074
#
# Static dielectric constant tensor:
#      x y z
#    x 1.739350 -0.018820 0.025270 
#    y -0.018820 1.770950 -0.048070 
#    z 0.025270 -0.048070 1.799340 
# 
# From -- ./inp_files/579619.got.cif
#   From: 2010.05.17/outbox.cif.g08.bks.cpg/sg2_290_cif.got.tgz:579619.got - 2010.06.03 11:33:40.
