data_PCOD9001295
_publ_section_title
;
Structure prediction by ZEFSAII (Michael W. Deem and Ramdas Pophale) SiO2 
 PCOD9001295
Probable space group: P -1
;
_chemical_formula_sum "Si O2"
_cell_formula_units_Z 14
_cell_length_a 15.852944
_cell_length_b 10.398593
_cell_length_c 10.365292
_cell_angle_alpha 28.840175
_cell_angle_beta 109.444748
_cell_angle_gamma 92.417386
_cell_volume 649.931818
_symmetry_space_group_name_H-M "P -1"
_symmetry_group_IT_number 2
_symmetry_cell_setting 'triclinic'
loop_
_space_group_symop_operation_xyz
x,y,z
-x,-y,-z
loop_
_atom_site_type_symbol
_atom_site_label
_atom_site_fract_x
_atom_site_fract_y
_atom_site_fract_z
Si Si1 0.049033 0.337715 0.528775
Si Si2 0.627199 0.031220 0.682046
Si Si3 0.840845 0.414815 0.346168
Si Si4 0.588671 0.496067 0.742700
Si Si5 0.347792 0.573047 0.867900
Si Si6 0.166938 0.669725 0.293795
Si Si7 0.618686 0.865820 0.225799
O O1 0.103288 0.513464 0.347681
O O2 0.000000 0.500000 0.500000
O O3 0.946969 0.369164 0.381439
O O4 0.135535 0.971385 0.927083
O O5 0.541544 0.285646 0.514313
O O6 0.627218 0.215953 0.393553
O O7 0.750833 0.791338 0.996906
O O8 0.593053 0.784677 0.846127
O O9 0.776112 0.312339 0.315631
O O10 0.864762 0.244157 0.647557
O O11 0.630115 0.689283 0.521531
O O12 0.622323 0.438320 0.959656
O O13 0.629473 0.162410 0.989761
O O14 0.292064 0.400488 0.588214
O O15 0.500000 0.000000 0.000000
#
# Coordination Sequence:
#
# PCOD9001295 Si02
#       7
#     2   2   2   2   2   2   2
#     4  10  21  36  61  89 120 154 190 252 304 348
#     4  10  21  34  61  92 122 148 195 246 308 344
#     4   9  22  34  64  91 120 144 197 249 311 342
#     4  12  23  42  61  87 126 159 204 234 298 355
#     4  10  22  36  62  91 123 152 192 255 304 345
#     4  11  23  39  59  87 125 154 199 239 299 354
#     4  12  27  42  62  86 121 170 198 237 279 363
#
# _framework density 21.540721999999999
#
# number of rings (size 3 to 8) (size 9 to 14) (size 15 to 20)
#    0.857    0.571    0.000    6.429    8.000    0.000 
#    0.000    0.000    0.000    5.143    0.000    0.000 
#    0.000    0.000    0.000    0.000    0.000    0.000 
#
# Total GULP energy -78222.209560 kJ/mol
# GULP energy per Si atom -5587.300683 kJ/mol
# Density = 2.149169 g / cm^3
# Si number density = 21.540722 Si / 1000 Ang^3
#
#
#
# Elastic Constant Matrix: (Units=GPa)
#
#
# Indices 1 2 3 4 5 6 
#
# 1 68.0740 9.0858 11.3740 1.7648 10.7328 12.0712
# 2 9.0858 29.3601 17.0407 1.9225 -3.0078 7.8368
# 3 11.3740 17.0407 104.6730 -6.8389 -8.1166 0.8724
# 4 1.7648 1.9225 -6.8389 28.6024 -5.3924 -3.1076
# 5 10.7328 -3.0078 -8.1166 -5.3924 37.3307 5.4767
# 6 12.0712 7.8368 0.8724 -3.1076 5.4767 24.6047
#
#
#
# Elastic Compliance Matrix: (Units=1/GPa)
#
#
# Indices 1 2 3 4 5 6 
#
# 1 0.017499 -0.002739 -0.001997 -0.003087 -0.005121 -0.006892
# 2 -0.002739 0.043166 -0.006625 -0.005032 0.004111 -0.013721
# 3 -0.001997 -0.006625 0.011303 0.004063 0.002703 0.002601
# 4 -0.003087 -0.005032 0.004063 0.038288 0.005945 0.006486
# 5 -0.005121 0.004111 0.002703 0.005945 0.030770 -0.004991
# 6 -0.006892 -0.013721 0.002601 0.006486 -0.004991 0.050232
#
#
# Mechanical properties :
#
#
# Convention : Reuss Voigt Hill
#
# Bulk Modulus (GPa) = 20.30688 30.78979 25.54834
# Shear Modulus (GPa) = 21.70197 29.08132 25.39165
#
# Velocity S-wave (km/s) = 3.17754 3.67831 3.43705
# Velocity P-wave (km/s) = 4.78644 5.68900 5.25712
#
# Compressibility (1/GPa) = 0.04924439
#
# Stress axis : x y z
#
# Youngs Moduli (GPa) = 57.14749 23.16647 88.47550
#
# Poissons Ratio (x) = 0.06345 0.17667
# Poissons Ratio (y) = 0.15653 0.58619
# Poissons Ratio (z) = 0.11412 0.15349
#
# Static dielectric constant tensor:
#      x y z
#    x 1.832720 0.042590 0.025460 
#    y 0.042590 1.756820 0.003280 
#    z 0.025460 0.003280 1.816550 
# 
# From -- ./inp_files/80096.got.cif
#   From: 2010.05.17/outbox.cif.g08.bks.cpg/sg2_41_cif.got.tgz:80096.got - 2010.06.03 11:33:40.
