data_PCOD9001769
_publ_section_title
;
Structure prediction by ZEFSAII (Michael W. Deem and Ramdas Pophale) SiO2 
 PCOD9001769
Probable space group: P -1
;
_chemical_formula_sum "Si O2"
_cell_formula_units_Z 16
_cell_length_a 17.256760
_cell_length_b 10.972957
_cell_length_c 14.817691
_cell_angle_alpha 47.991408
_cell_angle_beta 160.946291
_cell_angle_gamma 127.356509
_cell_volume 676.751952
_symmetry_space_group_name_H-M "P -1"
_symmetry_group_IT_number 2
_symmetry_cell_setting 'triclinic'
loop_
_space_group_symop_operation_xyz
x,y,z
-x,-y,-z
loop_
_atom_site_type_symbol
_atom_site_label
_atom_site_fract_x
_atom_site_fract_y
_atom_site_fract_z
Si Si1 0.410596 0.727010 0.207464
Si Si2 0.076713 0.608568 0.762234
Si Si3 0.366627 0.996222 0.448860
Si Si4 0.221571 0.807458 0.670918
Si Si5 0.339630 0.095873 0.005332
Si Si6 0.853731 0.342436 0.900540
Si Si7 0.177866 0.171804 0.493974
Si Si8 0.056288 0.731037 0.168111
O O1 0.627490 0.715741 0.383716
O O2 0.341095 0.926100 0.033076
O O3 0.405410 0.665321 0.334717
O O4 0.231966 0.612840 0.021263
O O5 0.889390 0.762788 0.511762
O O6 0.971791 0.437221 0.727340
O O7 0.229899 0.654108 0.823727
O O8 0.500000 0.000000 0.500000
O O9 0.549562 0.963249 0.747511
O O10 0.200780 0.848019 0.330011
O O11 0.194115 0.164429 0.183283
O O12 0.448147 0.804364 0.853836
O O13 0.241798 0.977043 0.664024
O O14 0.934751 0.824320 0.320597
O O15 0.004915 0.201308 0.198769
O O16 0.834259 0.308737 0.790590
O O17 0.000000 0.500000 0.000000
#
# Coordination Sequence:
#
# PCOD9001769 Si02
#       8
#     2   2   2   2   2   2   2   2
#     4  10  21  35  62  95 139 179 224 276 345 412
#     4  11  23  41  62 103 140 179 226 286 349 407
#     4  11  27  46  76  94 131 182 240 295 345 415
#     4  11  24  42  71 100 144 186 234 280 339 425
#     4  11  24  45  72  99 132 188 239 280 344 406
#     4  11  19  38  59  98 138 171 215 282 351 411
#     4  10  21  36  61  96 141 185 225 265 345 425
#     4  11  24  45  68 101 138 175 233 291 355 413
#
# _framework density 23.642340000000001
#
# number of rings (size 3 to 8) (size 9 to 14) (size 15 to 20)
#    0.000    1.250    5.000    2.625    5.250    2.500 
#    2.250    1.250    0.000    0.000    0.000    0.000 
#    0.000    0.000    0.000    0.000    0.000    0.000 
#
# Total GULP energy -89164.270024 kJ/mol
# GULP energy per Si atom -5572.766877 kJ/mol
# Density = 2.358853 g / cm^3
# Si number density = 23.642340 Si / 1000 Ang^3
#
#
#
# Elastic Constant Matrix: (Units=GPa)
#
#
# Indices 1 2 3 4 5 6 
#
# 1 92.0513 13.8985 6.7405 0.2629 17.8494 40.3453
# 2 13.8985 75.6725 3.0207 -3.1970 0.6272 22.8837
# 3 6.7405 3.0207 72.4732 14.4994 -3.2980 -0.6424
# 4 0.2629 -3.1970 14.4994 18.8287 10.4796 0.6539
# 5 17.8494 0.6272 -3.2980 10.4796 29.9054 11.9922
# 6 40.3453 22.8837 -0.6424 0.6539 11.9922 39.2486
#
#
#
# Elastic Compliance Matrix: (Units=1/GPa)
#
#
# Indices 1 2 3 4 5 6 
#
# 1 0.021996 0.003353 -0.004515 0.008872 -0.007825 -0.022396
# 2 0.003353 0.017055 -0.001822 0.003772 0.001738 -0.014014
# 3 -0.004515 -0.001822 0.019062 -0.021186 0.011061 0.002989
# 4 0.008872 0.003772 -0.021186 0.091954 -0.039479 -0.001135
# 5 -0.007825 0.001738 0.011061 -0.039479 0.056949 -0.009532
# 6 -0.022396 -0.014014 0.002989 -0.001135 -0.009532 0.059652
#
#
# Mechanical properties :
#
#
# Convention : Reuss Voigt Hill
#
# Bulk Modulus (GPa) = 19.17784 31.94628 25.56206
# Shear Modulus (GPa) = 17.24030 32.03234 24.63632
#
# Velocity S-wave (km/s) = 2.70332 3.68485 3.23157
# Velocity P-wave (km/s) = 4.22767 5.62546 4.97589
#
# Compressibility (1/GPa) = 0.05214350
#
# Stress axis : x y z
#
# Youngs Moduli (GPa) = 45.46290 58.63537 52.45902
#
# Poissons Ratio (x) = -0.19659 0.23686
# Poissons Ratio (y) = -0.15242 0.09560
# Poissons Ratio (z) = 0.20527 0.10685
#
# Static dielectric constant tensor:
#      x y z
#    x 1.958310 -0.036260 0.206780 
#    y -0.036260 1.927270 -0.097090 
#    z 0.206780 -0.097090 2.264980 
# 
# From -- ./inp_files/538431.got.cif
#   From: 2010.05.17/outbox.cif.g08.bks.cpg/sg2_270_cif.got.tgz:538431.got - 2010.06.03 11:33:40.
