data_PCOD9001596
_publ_section_title
;
Structure prediction by ZEFSAII (Michael W. Deem and Ramdas Pophale) SiO2 
 PCOD9001596
Probable space group: P -1
;
_chemical_formula_sum "Si O2"
_cell_formula_units_Z 12
_cell_length_a 9.308918
_cell_length_b 7.164866
_cell_length_c 12.426775
_cell_angle_alpha 89.769561
_cell_angle_beta 134.727437
_cell_angle_gamma 101.252884
_cell_volume 566.865519
_symmetry_space_group_name_H-M "P -1"
_symmetry_group_IT_number 2
_symmetry_cell_setting 'triclinic'
loop_
_space_group_symop_operation_xyz
x,y,z
-x,-y,-z
loop_
_atom_site_type_symbol
_atom_site_label
_atom_site_fract_x
_atom_site_fract_y
_atom_site_fract_z
Si Si1 0.493226 0.484212 0.840941
Si Si2 0.770905 0.138883 0.514042
Si Si3 0.870783 0.322459 0.358511
Si Si4 0.561030 0.615032 0.642700
Si Si5 0.072648 0.152528 0.277697
Si Si6 0.195460 0.254820 0.846033
O O1 0.345050 0.628520 0.783270
O O2 0.518125 0.480393 0.726236
O O3 0.366293 0.294112 0.839217
O O4 0.709234 0.589027 0.013299
O O5 0.824262 0.139840 0.415851
O O6 0.579195 0.232808 0.421834
O O7 0.977654 0.275397 0.681470
O O8 0.761133 0.938848 0.569295
O O9 0.000000 0.500000 0.500000
O O10 0.993942 0.283934 0.320617
O O11 0.500000 0.500000 0.500000
O O12 0.804163 0.733008 0.757734
O O13 0.876990 0.966479 0.150544
#
# Coordination Sequence:
#
# PCOD9001596 Si02
#       6
#     2   2   2   2   2   2
#     4  10  21  39  58  83 113 153 188 235 274 344
#     4   9  20  36  56  82 111 152 188 229 277 334
#     4  11  18  33  61  84 111 145 195 233 274 330
#     4  11  23  35  60  86 116 144 192 237 288 327
#     4  10  21  35  59  84 115 146 189 236 284 332
#     4   9  21  38  61  76 117 151 194 224 284 331
#
# _framework density 21.169042999999999
#
# number of rings (size 3 to 8) (size 9 to 14) (size 15 to 20)
#    1.000    1.000    1.667    3.000    0.000    1.333 
#    0.000    0.833    0.000    0.000    0.000    0.000 
#    0.000    0.000    0.000    0.000    0.000    0.000 
#
# Total GULP energy -66884.183670 kJ/mol
# GULP energy per Si atom -5573.681972 kJ/mol
# Density = 2.112086 g / cm^3
# Si number density = 21.169043 Si / 1000 Ang^3
#
#
#
# Elastic Constant Matrix: (Units=GPa)
#
#
# Indices 1 2 3 4 5 6 
#
# 1 115.6481 19.0561 22.8205 15.5004 -10.2890 19.8732
# 2 19.0561 43.7224 -2.4647 15.7194 -3.7369 17.3054
# 3 22.8205 -2.4647 63.4518 8.5568 -3.8104 8.6805
# 4 15.5004 15.7194 8.5568 24.8002 5.0741 4.5322
# 5 -10.2890 -3.7369 -3.8104 5.0741 24.4443 -3.2826
# 6 19.8732 17.3054 8.6805 4.5322 -3.2826 37.8160
#
#
#
# Elastic Compliance Matrix: (Units=1/GPa)
#
#
# Indices 1 2 3 4 5 6 
#
# 1 0.011147 -0.001047 -0.002475 -0.005765 0.004846 -0.003699
# 2 -0.001047 0.040887 0.008486 -0.027476 0.010703 -0.015887
# 3 -0.002475 0.008486 0.019418 -0.010522 0.004746 -0.005367
# 4 -0.005765 -0.027476 -0.010522 0.067855 -0.021273 0.008040
# 5 0.004846 0.010703 0.004746 -0.021273 0.049514 -0.001686
# 6 -0.003699 -0.015887 -0.005367 0.008040 -0.001686 0.035780
#
#
# Mechanical properties :
#
#
# Convention : Reuss Voigt Hill
#
# Bulk Modulus (GPa) = 12.28792 33.51623 22.90207
# Shear Modulus (GPa) = 20.67816 29.63947 25.15881
#
# Velocity S-wave (km/s) = 3.12879 3.74589 3.45116
# Velocity P-wave (km/s) = 4.34393 5.88014 5.16941
#
# Compressibility (1/GPa) = 0.08138077
#
# Stress axis : x y z
#
# Youngs Moduli (GPa) = 89.70682 24.45739 51.49861
#
# Poissons Ratio (x) = 0.02561 0.12747
# Poissons Ratio (y) = 0.09392 -0.43703
# Poissons Ratio (z) = 0.22205 -0.20755
#
# Static dielectric constant tensor:
#      x y z
#    x 1.768500 0.064480 0.022190 
#    y 0.064480 1.835920 0.002150 
#    z 0.022190 0.002150 1.789410 
# 
# From -- ./inp_files/150369.got.cif
#   From: 2010.05.17/outbox.cif.g08.bks.cpg/sg2_76_cif.got.tgz:150369.got - 2010.06.03 11:33:40.
