data_PCOD9002064
_publ_section_title
;
Structure prediction by ZEFSAII (Michael W. Deem and Ramdas Pophale) SiO2 
 PCOD9002064
Probable space group: P -1
;
_chemical_formula_sum "Si O2"
_cell_formula_units_Z 16
_cell_length_a 30.403197
_cell_length_b 5.228879
_cell_length_c 7.889322
_cell_angle_alpha 90.000109
_cell_angle_beta 49.554360
_cell_angle_gamma 116.503197
_cell_volume 773.160641
_symmetry_space_group_name_H-M "P -1"
_symmetry_group_IT_number 2
_symmetry_cell_setting 'triclinic'
loop_
_space_group_symop_operation_xyz
x,y,z
-x,-y,-z
loop_
_atom_site_type_symbol
_atom_site_label
_atom_site_fract_x
_atom_site_fract_y
_atom_site_fract_z
Si Si1 0.440372 0.791127 0.010492
Si Si2 0.559628 0.708874 0.212352
Si Si3 0.079982 0.247490 0.730786
Si Si4 0.847493 0.411612 0.769086
Si Si5 0.920018 0.252510 0.130698
Si Si6 0.278086 0.421601 0.420303
Si Si7 0.721914 0.078400 0.810734
Si Si8 0.152507 0.088388 0.006552
O O1 0.447540 0.526685 0.914785
O O2 0.447541 0.026686 0.847513
O O3 0.359678 0.612934 0.281118
O O4 0.500000 0.000000 0.000000
O O5 0.500000 0.500000 0.500000
O O6 0.640322 0.887069 0.079507
O O7 0.087146 0.366194 0.523416
O O8 0.114011 0.556970 0.761715
O O9 0.114011 0.056970 0.668227
O O10 0.000000 0.000000 0.000000
O O11 0.778527 0.253126 0.819850
O O12 0.848806 0.639116 0.903996
O O13 0.848806 0.139115 0.851976
O O14 0.912854 0.133807 0.959146
O O15 0.000000 0.500000 0.000000
O O16 0.269941 0.670436 0.344659
O O17 0.221473 0.246873 0.712487
O O18 0.269941 0.170437 0.305637
#
# Coordination Sequence:
#
# PCOD9002064 Si02
#       8
#     2   2   2   2   2   2   2   2
#     4  10  21  36  57  84 116 154 196 238 284 338
#     4  10  21  36  57  84 116 154 196 238 284 338
#     4  10  21  41  63  82 111 156 189 217 281 356
#     4  12  24  38  60  92 118 142 189 250 289 324
#     4  10  21  41  63  82 111 156 189 217 281 356
#     4  10  21  39  60  82 114 160 197 225 282 358
#     4  10  21  39  60  82 114 160 197 225 282 358
#     4  12  24  38  60  92 118 142 189 250 289 324
#
# _framework density 20.694277
#
# number of rings (size 3 to 8) (size 9 to 14) (size 15 to 20)
#    0.000    1.500    0.000    5.250    0.000    2.000 
#    0.000   15.000    0.000    0.000    0.000    0.000 
#    0.000    0.000    0.000    0.000    0.000    0.000 
#
# Total GULP energy -89396.586451 kJ/mol
# GULP energy per Si atom -5587.286653 kJ/mol
# Density = 2.064718 g / cm^3
# Si number density = 20.694277 Si / 1000 Ang^3
#
#
#
# Elastic Constant Matrix: (Units=GPa)
#
#
# Indices 1 2 3 4 5 6 
#
# 1 74.7046 25.1291 16.6965 -9.9199 -2.8484 19.7565
# 2 25.1291 112.2497 4.4146 3.1434 -4.5639 -3.8479
# 3 16.6965 4.4146 103.5838 -23.7358 -10.6248 11.4387
# 4 -9.9199 3.1434 -23.7358 39.3815 -0.0015 6.0198
# 5 -2.8484 -4.5639 -10.6248 -0.0015 27.8460 -7.5592
# 6 19.7565 -3.8479 11.4387 6.0198 -7.5592 56.7326
#
#
#
# Elastic Compliance Matrix: (Units=1/GPa)
#
#
# Indices 1 2 3 4 5 6 
#
# 1 0.017521 -0.004326 -0.000753 0.005368 -0.001093 -0.006958
# 2 -0.004326 0.010137 -0.000455 -0.002601 0.001806 0.002802
# 3 -0.000753 -0.000455 0.012204 0.007589 0.003820 -0.002525
# 4 0.005368 -0.002601 0.007589 0.032578 0.001152 -0.006879
# 5 -0.001093 0.001806 0.003820 0.001152 0.038853 0.004788
# 6 -0.006958 0.002802 -0.002525 -0.006879 0.004788 0.022117
#
#
# Mechanical properties :
#
#
# Convention : Reuss Voigt Hill
#
# Bulk Modulus (GPa) = 34.72976 42.55761 38.64369
# Shear Modulus (GPa) = 32.45118 41.07854 36.76486
#
# Velocity S-wave (km/s) = 3.96425 4.46019 4.21951
# Velocity P-wave (km/s) = 6.14593 6.86542 6.51561
#
# Compressibility (1/GPa) = 0.02879375
#
# Stress axis : x y z
#
# Youngs Moduli (GPa) = 57.07435 98.64447 81.93749
#
# Poissons Ratio (x) = 0.42674 0.06173
# Poissons Ratio (y) = 0.24691 0.03729
# Poissons Ratio (z) = 0.04300 0.04489
#
# Static dielectric constant tensor:
#      x y z
#    x 1.852640 -0.017750 -0.080440 
#    y -0.017750 1.761430 -0.006940 
#    z -0.080440 -0.006940 1.762750 
# 
# From -- ./inp_files/127983.got.cif
#   From: 2010.05.17/outbox.cif.g08.bks.cpg/sg2_64_cif.got.tgz:127983.got - 2010.06.03 11:33:40.
