data_PCOD9002254
_publ_section_title
;
Structure prediction by ZEFSAII (Michael W. Deem and Ramdas Pophale) SiO2 
 PCOD9002254
Probable space group: P -1
;
_chemical_formula_sum "Si O2"
_cell_formula_units_Z 15
_cell_length_a 9.323495
_cell_length_b 16.066987
_cell_length_c 5.223380
_cell_angle_alpha 71.968392
_cell_angle_beta 107.318448
_cell_angle_gamma 114.297003
_cell_volume 664.908022
_symmetry_space_group_name_H-M "P -1"
_symmetry_group_IT_number 2
_symmetry_cell_setting 'triclinic'
loop_
_space_group_symop_operation_xyz
x,y,z
-x,-y,-z
loop_
_atom_site_type_symbol
_atom_site_label
_atom_site_fract_x
_atom_site_fract_y
_atom_site_fract_z
Si Si1 0.258004 0.453694 0.866649
Si Si2 0.517150 0.064302 0.198547
Si Si3 0.437838 0.200319 0.323923
Si Si4 0.300531 0.632512 0.965166
Si Si5 0.738028 0.694413 0.610095
Si Si6 0.980189 0.330700 0.536289
Si Si7 0.714391 0.220449 0.831383
Si Si8 0.500000 0.500000 0.500000
O O1 0.288793 0.525122 0.058019
O O2 0.395149 0.504377 0.693731
O O3 0.088300 0.421686 0.665336
O O4 0.257411 0.357732 0.072686
O O5 0.399021 0.121564 0.157053
O O6 0.500000 0.000000 0.500000
O O7 0.679046 0.152644 0.123443
O O8 0.500000 0.000000 0.000000
O O9 0.541224 0.298873 0.154078
O O10 0.303207 0.215699 0.415957
O O11 0.566922 0.180201 0.597785
O O12 0.148076 0.640354 0.723280
O O13 0.290755 0.678929 0.183830
O O14 0.597994 0.616440 0.453440
O O15 0.901267 0.702504 0.543896
O O16 0.881040 0.246365 0.750698
#
# Coordination Sequence:
#
# PCOD9002254 Si02
#       8
#     2   2   2   2   2   2   2   1
#     4  11  22  37  56  83 128 176 227 265 307 366
#     4  11  22  43  72 104 124 157 209 272 335 399
#     4  10  22  39  63  97 125 163 209 272 322 385
#     4  10  21  36  59  86 121 174 224 269 310 356
#     4  11  23  37  57  88 127 175 217 261 319 367
#     4  10  23  38  55  87 127 181 213 262 315 378
#     4  10  22  40  64  94 130 157 211 267 324 386
#     4  10  22  34  52  80 122 166 220 264 304 360
#
# _framework density 22.559511000000001
#
# number of rings (size 3 to 8) (size 9 to 14) (size 15 to 20)
#    0.000    1.600    2.667    1.600    1.867    6.400 
#    0.000    0.000    0.000    1.600    0.000    0.000 
#    0.000    0.000    0.000    0.000    0.000    0.000 
#
# Total GULP energy -83537.161213 kJ/mol
# GULP energy per Si atom -5569.144081 kJ/mol
# Density = 2.250816 g / cm^3
# Si number density = 22.559511 Si / 1000 Ang^3
#
#
#
# Elastic Constant Matrix: (Units=GPa)
#
#
# Indices 1 2 3 4 5 6 
#
# 1 98.5021 40.6734 29.2146 -18.2305 -34.5083 -7.5376
# 2 40.6734 106.6659 25.6605 11.9475 -12.9422 -33.1653
# 3 29.2146 25.6605 99.0357 -10.1191 -29.6041 0.5370
# 4 -18.2305 11.9475 -10.1191 46.3547 5.3776 -14.1609
# 5 -34.5083 -12.9422 -29.6041 5.3776 38.6852 5.2989
# 6 -7.5376 -33.1653 0.5370 -14.1609 5.2989 25.0277
#
#
#
# Elastic Compliance Matrix: (Units=1/GPa)
#
#
# Indices 1 2 3 4 5 6 
#
# 1 0.019337 -0.007965 0.001728 0.006986 0.015497 -0.004097
# 2 -0.007965 0.021470 -0.005839 -0.000584 -0.008084 0.027559
# 3 0.001728 -0.005839 0.014892 0.001140 0.012121 -0.009458
# 4 0.006986 -0.000584 0.001140 0.030331 0.000167 0.018431
# 5 0.015497 -0.008084 0.012121 0.000167 0.048477 -0.016475
# 6 -0.004097 0.027559 -0.009458 0.018431 -0.016475 0.089361
#
#
# Mechanical properties :
#
#
# Convention : Reuss Voigt Hill
#
# Bulk Modulus (GPa) = 31.69960 55.03341 43.36650
# Shear Modulus (GPa) = 19.33970 35.92385 27.63177
#
# Velocity S-wave (km/s) = 2.93110 3.99482 3.50357
# Velocity P-wave (km/s) = 5.05343 6.76209 5.96922
#
# Compressibility (1/GPa) = 0.03154614
#
# Stress axis : x y z
#
# Youngs Moduli (GPa) = 51.71458 46.57602 67.15236
#
# Poissons Ratio (x) = 0.37098 -0.11603
# Poissons Ratio (y) = 0.41191 0.39211
# Poissons Ratio (z) = -0.08936 0.27196
#
# Static dielectric constant tensor:
#      x y z
#    x 1.763100 0.010640 -0.125290 
#    y 0.010640 1.864590 0.052610 
#    z -0.125290 0.052610 1.660710 
# 
# From -- ./inp_files/35208.got.cif
#   From: 2010.05.17/outbox.cif.g08.bks.cpg/sg2_18_cif.got.tgz:35208.got - 2010.06.03 11:33:40.
