data_PCOD9002357
_publ_section_title
;
Structure prediction by ZEFSAII (Michael W. Deem and Ramdas Pophale) SiO2 
 PCOD9002357
Probable space group: P -1
;
_chemical_formula_sum "Si O2"
_cell_formula_units_Z 16
_cell_length_a 14.715150
_cell_length_b 10.258447
_cell_length_c 15.301120
_cell_angle_alpha 44.078598
_cell_angle_beta 151.622786
_cell_angle_gamma 129.572883
_cell_volume 763.574949
_symmetry_space_group_name_H-M "P -1"
_symmetry_group_IT_number 2
_symmetry_cell_setting 'triclinic'
loop_
_space_group_symop_operation_xyz
x,y,z
-x,-y,-z
loop_
_atom_site_type_symbol
_atom_site_label
_atom_site_fract_x
_atom_site_fract_y
_atom_site_fract_z
Si Si1 0.958646 0.210008 0.399485
Si Si2 0.087976 0.159811 0.933825
Si Si3 0.773748 0.474160 0.504689
Si Si4 0.514683 0.156799 0.358731
Si Si5 0.333703 0.960854 0.643831
Si Si6 0.308712 0.566370 0.350620
Si Si7 0.751218 0.065678 0.966777
Si Si8 0.985801 0.721167 0.776322
O O1 0.137365 0.321556 0.541420
O O2 0.925355 0.308530 0.230495
O O3 0.787318 0.195454 0.330250
O O4 0.139696 0.821883 0.919565
O O5 0.953715 0.337098 0.733526
O O6 0.299482 0.201494 0.127636
O O7 0.114583 0.084394 0.893651
O O8 0.000000 0.000000 0.000000
O O9 0.624121 0.349143 0.384195
O O10 0.682729 0.494543 0.513164
O O11 0.622728 0.079544 0.401399
O O12 0.500000 0.000000 0.500000
O O13 0.541277 0.989627 0.850262
O O14 0.198298 0.141458 0.448579
O O15 0.500000 0.500000 0.500000
O O16 0.291992 0.787088 0.218528
O O17 0.118329 0.472864 0.193678
O O18 0.000000 0.000000 0.500000
#
# Coordination Sequence:
#
# PCOD9002357 Si02
#       8
#     2   2   2   2   2   2   2   2
#     4   9  22  44  62  83 121 166 212 253 293 355
#     4  11  21  37  60  91 127 154 193 251 306 371
#     4  11  22  41  61  89 125 159 203 252 303 360
#     4  11  22  36  63  96 121 159 198 246 317 369
#     4  10  21  40  59  83 121 155 205 256 292 357
#     4  11  21  36  56  89 126 156 196 253 305 368
#     4  11  21  36  59  89 119 157 199 249 313 357
#     4  10  21  36  60  86 114 164 205 244 307 359
#
# _framework density 20.954066000000001
#
# number of rings (size 3 to 8) (size 9 to 14) (size 15 to 20)
#    0.000    1.500    3.750    1.875    0.000    1.000 
#    4.500    5.000    0.000    0.000    0.000    0.000 
#    0.000    0.000    0.000    0.000    0.000    0.000 
#
# Total GULP energy -89254.117358 kJ/mol
# GULP energy per Si atom -5578.382335 kJ/mol
# Density = 2.090637 g / cm^3
# Si number density = 20.954066 Si / 1000 Ang^3
#
#
#
# Elastic Constant Matrix: (Units=GPa)
#
#
# Indices 1 2 3 4 5 6 
#
# 1 139.4586 51.1281 18.7630 17.5512 7.2975 17.5128
# 2 51.1281 155.4932 14.4170 32.7413 -0.5810 10.5344
# 3 18.7630 14.4170 22.4293 14.8613 4.6308 3.3384
# 4 17.5512 32.7413 14.8613 36.2006 -8.9442 0.8437
# 5 7.2975 -0.5810 4.6308 -8.9442 18.4663 6.4384
# 6 17.5128 10.5344 3.3384 0.8437 6.4384 34.3673
#
#
#
# Elastic Compliance Matrix: (Units=1/GPa)
#
#
# Indices 1 2 3 4 5 6 
#
# 1 0.009238 -0.002194 -0.004917 -0.000839 -0.001776 -0.003204
# 2 -0.002194 0.008830 0.003075 -0.009071 -0.003680 -0.000975
# 3 -0.004917 0.003075 0.085818 -0.046232 -0.042696 0.002360
# 4 -0.000839 -0.009071 -0.046232 0.066270 0.044529 -0.002270
# 5 -0.001776 -0.003680 -0.042696 0.044529 0.091196 -0.011997
# 6 -0.003204 -0.000975 0.002360 -0.002270 -0.011997 0.033103
#
#
# Mechanical properties :
#
#
# Convention : Reuss Voigt Hill
#
# Bulk Modulus (GPa) = 10.43699 53.99968 32.21834
# Shear Modulus (GPa) = 14.94925 33.34504 24.14714
#
# Velocity S-wave (km/s) = 2.67391 3.99349 3.39836
# Velocity P-wave (km/s) = 3.81114 6.86224 5.55046
#
# Compressibility (1/GPa) = 0.09581303
#
# Stress axis : x y z
#
# Youngs Moduli (GPa) = 108.25391 113.25122 11.65254
#
# Poissons Ratio (x) = 0.24851 0.05730
# Poissons Ratio (y) = 0.23754 -0.03584
# Poissons Ratio (z) = 0.53233 -0.34830
#
# Static dielectric constant tensor:
#      x y z
#    x 1.762850 -0.000690 -0.026430 
#    y -0.000690 1.882780 -0.017150 
#    z -0.026430 -0.017150 1.771140 
# 
# From -- ./inp_files/531668.got.cif
#   From: 2010.05.17/outbox.cif.g08.bks.cpg/sg2_266_cif.got.tgz:531668.got - 2010.06.03 11:33:40.
