data_PCOD9002328
_publ_section_title
;
Structure prediction by ZEFSAII (Michael W. Deem and Ramdas Pophale) SiO2 
 PCOD9002328
Probable space group: P -1
;
_chemical_formula_sum "Si O2"
_cell_formula_units_Z 15
_cell_length_a 21.621412
_cell_length_b 11.520784
_cell_length_c 6.861703
_cell_angle_alpha 125.790572
_cell_angle_beta 144.132404
_cell_angle_gamma 35.831240
_cell_volume 573.123522
_symmetry_space_group_name_H-M "P -1"
_symmetry_group_IT_number 2
_symmetry_cell_setting 'triclinic'
loop_
_space_group_symop_operation_xyz
x,y,z
-x,-y,-z
loop_
_atom_site_type_symbol
_atom_site_label
_atom_site_fract_x
_atom_site_fract_y
_atom_site_fract_z
Si Si1 0.728660 0.954979 0.397057
Si Si2 0.227730 0.209014 0.250106
Si Si3 0.519905 0.586056 0.325201
Si Si4 0.446459 0.213088 0.675611
Si Si5 0.739923 0.337179 0.195318
Si Si6 0.924468 0.380470 0.499116
Si Si7 0.176026 0.833984 0.330179
Si Si8 0.000000 0.500000 0.500000
O O1 0.708884 0.947806 0.569008
O O2 0.873929 0.723248 0.490162
O O3 0.763215 0.077010 0.517718
O O4 0.577465 0.052942 0.002576
O O5 0.339255 0.179484 0.356738
O O6 0.149240 0.423323 0.362687
O O7 0.101048 0.240284 0.847929
O O8 0.499928 0.763282 0.362755
O O9 0.692509 0.400105 0.641451
O O10 0.500000 0.500000 0.000000
O O11 0.387903 0.652150 0.189242
O O12 0.350568 0.433385 0.746442
O O13 0.812081 0.198135 0.436325
O O14 0.865699 0.283652 0.323463
O O15 0.907471 0.445316 0.297216
O O16 0.000000 0.000000 0.000000
#
# Coordination Sequence:
#
# PCOD9002328 Si02
#       8
#     2   2   2   2   2   2   2   1
#     4  11  18  33  48  79 108 137 173 208 256 320
#     4   9  18  28  53  77  99 127 174 226 258 285
#     4   8  14  27  45  75 100 127 161 216 267 301
#     4   9  15  29  51  75 103 130 171 215 263 306
#     4   9  15  30  51  72 101 129 167 216 266 298
#     4   9  18  35  48  73 102 135 173 216 256 308
#     4  10  17  27  51  83 108 126 165 226 271 294
#     4  10  24  34  50  68 110 148 174 200 258 324
#
# _framework density 26.172369
#
# number of rings (size 3 to 8) (size 9 to 14) (size 15 to 20)
#    0.000    2.933    4.000    1.200    0.000    3.200 
#    0.000    1.333    0.000    0.000    0.000    1.867 
#    0.000    1.467    0.000    0.000    0.000    0.000 
#
# Total GULP energy -83554.664649 kJ/mol
# GULP energy per Si atom -5570.310977 kJ/mol
# Density = 2.611280 g / cm^3
# Si number density = 26.172369 Si / 1000 Ang^3
#
#
#
# Elastic Constant Matrix: (Units=GPa)
#
#
# Indices 1 2 3 4 5 6 
#
# 1 1419.4363 443.2159 1650.8729-1222.1139 -458.7863 544.3220
# 2 443.2159 232.9382 540.3602 -416.6844 -165.5764 181.3733
# 3 1650.8729 540.3602 2171.1633-1587.9982 -624.9107 659.7427
# 4 -1222.1139 -416.6844-1587.9982 1267.3514 529.6033 -494.0739
# 5 -458.7863 -165.5764 -624.9107 529.6033 264.8450 -195.2426
# 6 544.3220 181.3733 659.7427 -494.0739 -195.2426 246.4014
#
#
#
# Elastic Compliance Matrix: (Units=1/GPa)
#
#
# Indices 1 2 3 4 5 6 
#
# 1 0.009440 -0.001395 -0.002973 0.004495 -0.006315 -0.007857
# 2 -0.001395 0.011472 0.000390 0.002056 -0.000288 -0.002511
# 3 -0.002973 0.000390 0.008718 0.008878 -0.003711 -0.002202
# 4 0.004495 0.002056 0.008878 0.026109 -0.022977 -0.001066
# 5 -0.006315 -0.000288 -0.003711 -0.022977 0.032817 0.004031
# 6 -0.007857 -0.002511 -0.002202 -0.001066 0.004031 0.030215
#
#
# Mechanical properties :
#
#
# Convention : Reuss Voigt Hill
#
# Bulk Modulus (GPa) = 46.14053 1010.27063 528.20558
# Shear Modulus (GPa) = 37.32635 434.99215 236.15925
#
# Velocity S-wave (km/s) = 3.78057 12.90595 9.50937
# Velocity P-wave (km/s) = 6.06009 24.67649 17.96739
#
# Compressibility (1/GPa) = 0.02167292
#
# Stress axis : x y z
#
# Youngs Moduli (GPa) = 105.93565 87.16544 114.70073
#
# Poissons Ratio (x) = 0.12162 0.34101
# Poissons Ratio (y) = 0.14781 -0.04469
# Poissons Ratio (z) = 0.31495 -0.03396
#
# Static dielectric constant tensor:
#      x y z
#    x 2.040330 0.058510 -0.027640 
#    y 0.058510 1.983580 -0.014780 
#    z -0.027640 -0.014780 2.113410 
# 
# From -- ./inp_files/346251.got.cif
#   From: 2010.05.17/outbox.cif.g08.bks.cpg/sg2_174_cif.got.tgz:346251.got - 2010.06.03 11:33:40.
