data_PCOD9002856
_publ_section_title
;
Structure prediction by ZEFSAII (Michael W. Deem and Ramdas Pophale) SiO2 
 PCOD9002856
Probable space group: P -1
;
_chemical_formula_sum "Si O2"
_cell_formula_units_Z 16
_cell_length_a 5.400813
_cell_length_b 18.197433
_cell_length_c 9.002142
_cell_angle_alpha 94.600689
_cell_angle_beta 52.563268
_cell_angle_gamma 93.894002
_cell_volume 700.036308
_symmetry_space_group_name_H-M "P -1"
_symmetry_group_IT_number 2
_symmetry_cell_setting 'triclinic'
loop_
_space_group_symop_operation_xyz
x,y,z
-x,-y,-z
loop_
_atom_site_type_symbol
_atom_site_label
_atom_site_fract_x
_atom_site_fract_y
_atom_site_fract_z
Si Si1 0.860446 0.491605 0.325091
Si Si2 0.664515 0.279813 0.959083
Si Si3 0.726332 0.236672 0.608093
Si Si4 0.754723 0.406638 0.624823
Si Si5 0.973038 0.019483 0.339742
Si Si6 0.155971 0.379628 0.981492
Si Si7 0.362269 0.118540 0.580727
Si Si8 0.300760 0.161145 0.266477
O O1 0.500000 0.500000 0.500000
O O2 0.954739 0.440058 0.423480
O O3 0.052206 0.567707 0.295717
O O4 0.957273 0.440155 0.147977
O O5 0.383947 0.330833 0.999242
O O6 0.531738 0.215064 0.103238
O O7 0.920319 0.327001 0.966197
O O8 0.805660 0.241152 0.754419
O O9 0.702065 0.321547 0.591942
O O10 0.426839 0.183966 0.683404
O O11 0.977027 0.204003 0.400149
O O12 0.399241 0.426398 0.795870
O O13 0.661861 0.066575 0.453548
O O14 0.244283 0.078622 0.207686
O O15 0.915801 0.938564 0.278655
O O16 0.000000 0.000000 0.500000
O O17 0.350992 0.149788 0.422755
#
# Coordination Sequence:
#
# PCOD9002856 Si02
#       8
#     2   2   2   2   2   2   2   2
#     4  11  26  42  71  97 129 173 227 270 334 400
#     4  11  27  42  68 100 133 175 226 268 333 398
#     4  10  23  40  63  93 129 172 215 274 329 393
#     4  10  25  44  64  96 132 172 219 274 332 401
#     4   8  16  34  57  93 124 171 215 264 325 387
#     4  11  27  46  68  94 138 176 219 276 333 396
#     4   9  18  34  64  90 127 169 218 265 329 387
#     4  10  21  36  66  92 131 169 219 275 325 389
#
# _framework density 22.855958999999999
#
# number of rings (size 3 to 8) (size 9 to 14) (size 15 to 20)
#    0.000    2.000    0.000    1.125   17.500    0.500 
#    0.000    0.625    0.000   25.500    0.000    0.000 
#    0.000    0.000    0.000    0.000    0.000    0.000 
#
# Total GULP energy -89135.042588 kJ/mol
# GULP energy per Si atom -5570.940162 kJ/mol
# Density = 2.280394 g / cm^3
# Si number density = 22.855959 Si / 1000 Ang^3
#
#
#
# Elastic Constant Matrix: (Units=GPa)
#
#
# Indices 1 2 3 4 5 6 
#
# 1 81.7026 29.7444 -6.4220 3.5706 -4.5979 28.7208
# 2 29.7444 124.3088 25.2766 5.1480 1.0653 36.4859
# 3 -6.4220 25.2766 56.3090 -13.4971 -2.2324 13.6847
# 4 3.5706 5.1480 -13.4971 24.4173 7.9885 10.8881
# 5 -4.5979 1.0653 -2.2324 7.9885 20.5264 0.4020
# 6 28.7208 36.4859 13.6847 10.8881 0.4020 52.9904
#
#
#
# Elastic Compliance Matrix: (Units=1/GPa)
#
#
# Indices 1 2 3 4 5 6 
#
# 1 0.017512 -0.002826 0.007423 0.006021 0.002743 -0.010721
# 2 -0.002826 0.011090 -0.004860 -0.002446 -0.000700 -0.004342
# 3 0.007423 -0.004860 0.029345 0.023142 -0.003646 -0.012983
# 4 0.006021 -0.002446 0.023142 0.070708 -0.023096 -0.021909
# 5 0.002743 -0.000700 -0.003646 -0.023096 0.057878 0.004243
# 6 -0.010721 -0.004342 -0.012983 -0.021909 0.004243 0.035494
#
#
# Mechanical properties :
#
#
# Convention : Reuss Voigt Hill
#
# Bulk Modulus (GPa) = 17.41483 39.94648 28.68065
# Shear Modulus (GPa) = 20.68754 33.83493 27.26124
#
# Velocity S-wave (km/s) = 3.01180 3.85171 3.45735
# Velocity P-wave (km/s) = 4.44190 6.10707 5.33980
#
# Compressibility (1/GPa) = 0.05742234
#
# Stress axis : x y z
#
# Youngs Moduli (GPa) = 57.10510 90.16815 34.07739
#
# Poissons Ratio (x) = 0.25480 -0.25296
# Poissons Ratio (y) = 0.16137 0.16560
# Poissons Ratio (z) = -0.42390 0.43818
#
# Static dielectric constant tensor:
#      x y z
#    x 2.182970 -0.101550 -0.036320 
#    y -0.101550 1.972690 -0.018120 
#    z -0.036320 -0.018120 1.835290 
# 
# From -- ./inp_files/139110.got.cif
#   From: 2010.05.17/outbox.cif.g08.bks.cpg/sg2_70_cif.got.tgz:139110.got - 2010.06.03 11:33:40.
