data_PCOD9002322
_publ_section_title
;
Structure prediction by ZEFSAII (Michael W. Deem and Ramdas Pophale) SiO2 
 PCOD9002322
Probable space group: P -1
;
_chemical_formula_sum "Si O2"
_cell_formula_units_Z 14
_cell_length_a 14.455936
_cell_length_b 14.697720
_cell_length_c 8.040812
_cell_angle_alpha 79.770760
_cell_angle_beta 63.277517
_cell_angle_gamma 26.918264
_cell_volume 575.872250
_symmetry_space_group_name_H-M "P -1"
_symmetry_group_IT_number 2
_symmetry_cell_setting 'triclinic'
loop_
_space_group_symop_operation_xyz
x,y,z
-x,-y,-z
loop_
_atom_site_type_symbol
_atom_site_label
_atom_site_fract_x
_atom_site_fract_y
_atom_site_fract_z
Si Si1 0.376812 0.988199 0.100786
Si Si2 0.744864 0.357890 0.281069
Si Si3 0.185639 0.493623 0.784345
Si Si4 0.183052 0.490063 0.174047
Si Si5 0.430367 0.989496 0.409602
Si Si6 0.256092 0.636004 0.101558
Si Si7 0.901161 0.971039 0.593197
O O1 0.483970 0.961190 0.177896
O O2 0.092873 0.257778 0.170408
O O3 0.320896 0.931418 0.250156
O O4 0.619606 0.756484 0.856516
O O5 0.500000 0.500000 0.500000
O O6 0.665971 0.529590 0.315278
O O7 0.988413 0.138933 0.276037
O O8 0.816243 0.281843 0.057018
O O9 0.110289 0.533473 0.023777
O O10 0.382950 0.254600 0.626650
O O11 0.332083 0.465435 0.090176
O O12 0.895895 0.742839 0.410307
O O13 0.500000 0.000000 0.500000
O O14 0.035641 0.831686 0.355835
O O15 0.500000 0.500000 0.000000
O O16 0.000000 0.000000 0.500000
#
# Coordination Sequence:
#
# PCOD9002322 Si02
#       7
#     2   2   2   2   2   2   2
#     4  10  22  43  64  93 131 172 211 280 331 387
#     4  10  21  36  59  93 134 173 223 274 326 396
#     4   9  23  42  62  95 134 166 218 277 328 392
#     4  10  22  42  65  93 130 170 222 269 334 403
#     4  11  24  43  69  96 127 173 221 275 337 398
#     4  11  20  36  62  94 130 182 221 268 339 391
#     4  11  22  37  60  93 134 175 225 274 323 399
#
# _framework density 24.310948
#
# number of rings (size 3 to 8) (size 9 to 14) (size 15 to 20)
#    0.000    1.714    2.857    0.857    4.000    4.571 
#    0.000    4.286    0.000    0.000    0.000    0.000 
#    0.000    0.000    0.000    0.000    0.000    0.000 
#
# Total GULP energy -77965.799489 kJ/mol
# GULP energy per Si atom -5568.985678 kJ/mol
# Density = 2.425562 g / cm^3
# Si number density = 24.310948 Si / 1000 Ang^3
#
#
#
# Elastic Constant Matrix: (Units=GPa)
#
#
# Indices 1 2 3 4 5 6 
#
# 1 131.4688 33.0290 29.3767 6.6970 31.1180 -1.2799
# 2 33.0290 123.3692 33.0190 15.7725 28.1086 -1.1838
# 3 29.3767 33.0190 114.4618 16.8228 32.1490 2.2930
# 4 6.6970 15.7725 16.8228 36.1662 -6.2262 13.2197
# 5 31.1180 28.1086 32.1490 -6.2262 54.0393 2.2570
# 6 -1.2799 -1.1838 2.2930 13.2197 2.2570 39.8359
#
#
#
# Elastic Compliance Matrix: (Units=1/GPa)
#
#
# Indices 1 2 3 4 5 6 
#
# 1 0.009236 -0.000905 -0.000370 -0.002514 -0.004976 0.001408
# 2 -0.000905 0.010532 -0.000395 -0.006172 -0.005545 0.002669
# 3 -0.000370 -0.000395 0.012214 -0.007605 -0.007817 0.002240
# 4 -0.002514 -0.006172 -0.007605 0.042232 0.014661 -0.014672
# 5 -0.004976 -0.005545 -0.007817 0.014661 0.030865 -0.006489
# 6 0.001408 0.002669 0.002240 -0.014672 -0.006489 0.030335
#
#
# Mechanical properties :
#
#
# Convention : Reuss Voigt Hill
#
# Bulk Modulus (GPa) = 34.91454 62.23879 48.57666
# Shear Modulus (GPa) = 33.71500 44.26661 38.99080
#
# Velocity S-wave (km/s) = 3.72805 4.27177 4.00914
# Velocity P-wave (km/s) = 5.73794 7.07018 6.43861
#
# Compressibility (1/GPa) = 0.02864136
#
# Stress axis : x y z
#
# Youngs Moduli (GPa) = 108.27154 94.95180 81.87239
#
# Poissons Ratio (x) = 0.08592 0.03033
# Poissons Ratio (y) = 0.09797 0.03233
# Poissons Ratio (z) = 0.04011 0.03750
#
# Static dielectric constant tensor:
#      x y z
#    x 2.086450 0.041480 -0.117000 
#    y 0.041480 2.017480 0.042240 
#    z -0.117000 0.042240 1.945100 
# 
# From -- ./inp_files/315203.got.cif
#   From: 2010.05.17/outbox.cif.g08.bks.cpg/sg2_158_cif.got.tgz:315203.got - 2010.06.03 11:33:40.
