data_PCOD9002544
_publ_section_title
;
Structure prediction by ZEFSAII (Michael W. Deem and Ramdas Pophale) SiO2 
 PCOD9002544
Probable space group: P -1
;
_chemical_formula_sum "Si O2"
_cell_formula_units_Z 12
_cell_length_a 7.074473
_cell_length_b 9.504748
_cell_length_c 17.530489
_cell_angle_alpha 142.125119
_cell_angle_beta 55.656467
_cell_angle_gamma 98.238231
_cell_volume 479.888575
_symmetry_space_group_name_H-M "P -1"
_symmetry_group_IT_number 2
_symmetry_cell_setting 'triclinic'
loop_
_space_group_symop_operation_xyz
x,y,z
-x,-y,-z
loop_
_atom_site_type_symbol
_atom_site_label
_atom_site_fract_x
_atom_site_fract_y
_atom_site_fract_z
Si Si1 0.370334 0.549088 0.466347
Si Si2 0.192051 0.686019 0.858931
Si Si3 0.171700 0.876539 0.302847
Si Si4 0.251978 0.522788 0.278737
Si Si5 0.256565 0.141456 0.225800
Si Si6 0.708801 0.649082 0.007445
O O1 0.500000 0.500000 0.500000
O O2 0.599451 0.531292 0.349218
O O3 0.339738 0.307974 0.334387
O O4 0.037413 0.805194 0.663375
O O5 0.415830 0.640166 0.850533
O O6 0.982447 0.640361 0.930067
O O7 0.000000 0.000000 0.000000
O O8 0.146877 0.715074 0.309938
O O9 0.188056 0.673455 0.147172
O O10 0.477926 0.820088 0.200712
O O11 0.929672 0.209859 0.505791
O O12 0.204457 0.292030 0.220030
O O13 0.521061 0.819742 0.046530
#
# Coordination Sequence:
#
# PCOD9002544 Si02
#       6
#     2   2   2   2   2   2
#     4  10  21  36  61  97 122 161 208 266 318 365
#     4  11  22  39  64  96 124 157 217 274 305 366
#     4  10  24  40  64  89 129 172 202 253 336 388
#     4  10  22  43  63  92 123 172 210 255 320 385
#     4  10  21  42  69  89 131 165 216 272 306 375
#     4  11  22  42  63  94 127 165 207 266 320 376
#
# _framework density 25.005806
#
# number of rings (size 3 to 8) (size 9 to 14) (size 15 to 20)
#    0.000    1.667    3.333    3.000    2.333    3.333 
#    0.000    0.000    0.000    0.000    0.000    0.000 
#    0.000    0.000    0.000    0.000    0.000    0.000 
#
# Total GULP energy -66902.996998 kJ/mol
# GULP energy per Si atom -5575.249750 kJ/mol
# Density = 2.494889 g / cm^3
# Si number density = 25.005806 Si / 1000 Ang^3
#
#
#
# Elastic Constant Matrix: (Units=GPa)
#
#
# Indices 1 2 3 4 5 6 
#
# 1 68.9633 -2.9234 23.8691 -3.5431 -24.2127 5.5938
# 2 -2.9234 130.9926 23.0510 7.4949 -1.4641 17.0379
# 3 23.8691 23.0510 115.2414 19.2689 -32.4424 31.2988
# 4 -3.5431 7.4949 19.2689 50.0738 7.6001 -3.3415
# 5 -24.2127 -1.4641 -32.4424 7.6001 34.9189 -14.0652
# 6 5.5938 17.0379 31.2988 -3.3415 -14.0652 39.4232
#
#
#
# Elastic Compliance Matrix: (Units=1/GPa)
#
#
# Indices 1 2 3 4 5 6 
#
# 1 0.019444 0.000414 -0.000920 -0.000245 0.013782 0.002688
# 2 0.000414 0.008312 -0.001175 -0.000736 -0.001654 -0.003370
# 3 -0.000920 -0.001175 0.016660 -0.008887 0.013257 -0.008612
# 4 -0.000245 -0.000736 -0.008887 0.025644 -0.011887 0.005341
# 5 0.013782 -0.001654 0.013257 -0.011887 0.055920 0.007177
# 6 0.002688 -0.003370 -0.008612 0.005341 0.007177 0.036291
#
#
# Mechanical properties :
#
#
# Convention : Reuss Voigt Hill
#
# Bulk Modulus (GPa) = 24.35790 44.79896 34.57843
# Shear Modulus (GPa) = 27.88344 42.96321 35.42333
#
# Velocity S-wave (km/s) = 3.34290 4.14953 3.76786
# Velocity P-wave (km/s) = 4.96609 6.39628 5.72601
#
# Compressibility (1/GPa) = 0.04105444
#
# Stress axis : x y z
#
# Youngs Moduli (GPa) = 51.42862 120.30609 60.02457
#
# Poissons Ratio (x) = -0.04982 0.05520
# Poissons Ratio (y) = -0.02130 0.07056
# Poissons Ratio (z) = 0.04730 0.14142
#
# Static dielectric constant tensor:
#      x y z
#    x 2.047640 -0.078100 0.099030 
#    y -0.078100 2.083600 -0.143840 
#    z 0.099030 -0.143840 2.087070 
# 
# From -- ./inp_files/554657.got.cif
#   From: 2010.05.17/outbox.cif.g08.bks.cpg/sg2_278_cif.got.tgz:554657.got - 2010.06.03 11:33:40.
