data_PCOD9002244
_publ_section_title
;
Structure prediction by ZEFSAII (Michael W. Deem and Ramdas Pophale) SiO2 
 PCOD9002244
Probable space group: P -1
;
_chemical_formula_sum "Si O2"
_cell_formula_units_Z 16
_cell_length_a 14.168595
_cell_length_b 7.738719
_cell_length_c 8.076197
_cell_angle_alpha 89.247671
_cell_angle_beta 50.452680
_cell_angle_gamma 99.429134
_cell_volume 665.528180
_symmetry_space_group_name_H-M "P -1"
_symmetry_group_IT_number 2
_symmetry_cell_setting 'triclinic'
loop_
_space_group_symop_operation_xyz
x,y,z
-x,-y,-z
loop_
_atom_site_type_symbol
_atom_site_label
_atom_site_fract_x
_atom_site_fract_y
_atom_site_fract_z
Si Si1 0.826661 0.710123 0.969873
Si Si2 0.819321 0.554300 0.632288
Si Si3 0.692510 0.940678 0.950213
Si Si4 0.682171 0.774999 0.614142
Si Si5 0.194220 0.638607 0.853739
Si Si6 0.090496 0.751987 0.316124
Si Si7 0.917331 0.082427 0.226308
Si Si8 0.546914 0.160502 0.320994
O O1 0.779757 0.589456 0.862692
O O2 0.726500 0.833897 0.074675
O O3 0.967787 0.825222 0.784193
O O4 0.835243 0.575497 0.111342
O O5 0.721765 0.589271 0.606995
O O6 0.865419 0.373831 0.594586
O O7 0.942625 0.709410 0.467952
O O8 0.645055 0.833046 0.839296
O O9 0.829741 0.054261 0.745367
O O10 0.609066 0.074286 0.099463
O O11 0.566326 0.762291 0.622277
O O12 0.800900 0.926396 0.415331
O O13 0.142305 0.756496 0.775931
O O14 0.342815 0.703166 0.711731
O O15 0.132283 0.693366 0.090781
O O16 0.000000 0.000000 0.000000
O O17 0.500000 0.000000 0.500000
#
# Coordination Sequence:
#
# PCOD9002244 Si02
#       8
#     2   2   2   2   2   2   2   2
#     4  10  21  36  59  85 120 149 195 247 300 349
#     4   9  18  34  56  89 118 150 189 245 294 356
#     4  10  21  39  61  87 114 156 199 246 293 350
#     4  11  22  37  61  90 118 154 202 238 293 348
#     4  10  21  38  56  85 118 160 193 244 293 346
#     4   9  17  34  59  83 122 150 189 239 304 347
#     4  12  22  35  61  89 122 158 195 239 300 361
#     4  11  22  42  63  81 119 161 202 243 289 351
#
# _framework density 24.041055
#
# number of rings (size 3 to 8) (size 9 to 14) (size 15 to 20)
#    0.000    1.750    1.250    4.500    0.000    2.000 
#    0.000   13.125    0.000    0.000    0.000    0.000 
#    0.000    0.000    0.000    0.000    0.000    0.000 
#
# Total GULP energy -89369.964806 kJ/mol
# GULP energy per Si atom -5585.622800 kJ/mol
# Density = 2.398634 g / cm^3
# Si number density = 24.041055 Si / 1000 Ang^3
#
#
#
# Elastic Constant Matrix: (Units=GPa)
#
#
# Indices 1 2 3 4 5 6 
#
# 1 154.9081 39.3804 15.7661 2.3613 -15.3469 -46.8284
# 2 39.3804 47.5126 1.6150 -2.9699 -13.6883 -23.2357
# 3 15.7661 1.6150 51.5315 -3.6330 -3.2558 -3.1406
# 4 2.3613 -2.9699 -3.6330 22.9922 4.0670 -0.5930
# 5 -15.3469 -13.6883 -3.2558 4.0670 25.9616 8.7659
# 6 -46.8284 -23.2357 -3.1406 -0.5930 8.7659 44.8831
#
#
#
# Elastic Compliance Matrix: (Units=1/GPa)
#
#
# Indices 1 2 3 4 5 6 
#
# 1 0.010461 -0.004371 -0.002637 -0.002036 0.001090 0.008228
# 2 -0.004371 0.033203 0.001880 0.003357 0.011037 0.010649
# 3 -0.002637 0.001880 0.020463 0.003435 0.001672 -0.000627
# 4 -0.002036 0.003357 0.003435 0.045928 -0.006802 0.001789
# 5 0.001090 0.011037 0.001672 -0.006802 0.047037 -0.002309
# 6 0.008228 0.010649 -0.000627 0.001789 -0.002309 0.036808
#
#
# Mechanical properties :
#
#
# Convention : Reuss Voigt Hill
#
# Bulk Modulus (GPa) = 18.56263 40.83059 29.69661
# Shear Modulus (GPa) = 22.51108 31.91341 27.21224
#
# Velocity S-wave (km/s) = 3.06332 3.64738 3.36803
# Velocity P-wave (km/s) = 4.49999 5.89562 5.24444
#
# Compressibility (1/GPa) = 0.05387167
#
# Stress axis : x y z
#
# Youngs Moduli (GPa) = 95.59230 30.11749 48.86859
#
# Poissons Ratio (x) = 0.13163 0.12886
# Poissons Ratio (y) = 0.41780 -0.09185
# Poissons Ratio (z) = 0.25206 -0.05661
#
# Static dielectric constant tensor:
#      x y z
#    x 1.918750 -0.010790 0.066090 
#    y -0.010790 1.994220 0.029900 
#    z 0.066090 0.029900 1.992160 
# 
# From -- ./inp_files/179204.got.cif
#   From: 2010.05.17/outbox.cif.g08.bks.cpg/sg2_90_cif.got.tgz:179204.got - 2010.06.03 11:33:40.
