data_PCOD9002587
_publ_section_title
;
Structure prediction by ZEFSAII (Michael W. Deem and Ramdas Pophale) SiO2 
 PCOD9002587
Probable space group: P -1
;
_chemical_formula_sum "Si O2"
_cell_formula_units_Z 14
_cell_length_a 5.397214
_cell_length_b 24.395917
_cell_length_c 5.397223
_cell_angle_alpha 117.758270
_cell_angle_beta 106.123151
_cell_angle_gamma 100.548714
_cell_volume 561.862179
_symmetry_space_group_name_H-M "P -1"
_symmetry_group_IT_number 2
_symmetry_cell_setting 'triclinic'
loop_
_space_group_symop_operation_xyz
x,y,z
-x,-y,-z
loop_
_atom_site_type_symbol
_atom_site_label
_atom_site_fract_x
_atom_site_fract_y
_atom_site_fract_z
Si Si1 0.071744 0.454124 0.123237
Si Si2 0.536277 0.691763 0.675257
Si Si3 0.789894 0.922280 0.493700
Si Si4 0.669114 0.954124 0.025862
Si Si5 0.983494 0.191761 0.728044
Si Si6 0.428577 0.577721 0.787831
Si Si7 0.079172 0.749999 0.670815
O O1 0.248136 0.502199 0.493572
O O2 0.285796 0.421863 0.018025
O O3 0.781755 0.405363 0.052764
O O4 0.000000 0.500000 0.000000
O O5 0.490477 0.623293 0.657840
O O6 0.253427 0.703377 0.581137
O O7 0.752598 0.708146 0.542617
O O8 0.712463 0.750003 0.037531
O O9 0.596168 0.921861 0.207648
O O10 0.965473 0.876711 0.386251
O O11 0.647397 0.905363 0.687108
O O12 0.008622 0.997803 0.749668
O O13 0.500000 0.000000 0.000000
O O14 0.877765 0.203381 0.456825
O O15 0.834479 0.208147 0.960757
#
# Coordination Sequence:
#
# PCOD9002587 Si02
#       7
#     2   2   2   2   2   2   2
#     4  10  21  36  62  89 121 163 198 256 308 367
#     4  10  24  40  63  92 126 171 209 266 314 380
#     4  10  21  39  58  89 123 153 213 246 312 373
#     4  10  21  36  62  89 121 163 198 256 308 367
#     4  10  24  40  63  92 126 171 209 266 314 380
#     4  10  21  39  58  89 123 153 213 246 312 373
#     4  10  24  40  64  88 128 164 216 252 326 368
#
# _framework density 24.917145000000001
#
# number of rings (size 3 to 8) (size 9 to 14) (size 15 to 20)
#    0.857    1.143    0.000    2.571    2.000    4.571 
#    0.000    0.000    0.000    0.000    0.000    0.000 
#    0.000    0.000    0.000    0.000    0.000    0.000 
#
# Total GULP energy -78270.823154 kJ/mol
# GULP energy per Si atom -5590.773082 kJ/mol
# Density = 2.486043 g / cm^3
# Si number density = 24.917145 Si / 1000 Ang^3
#
#
#
# Elastic Constant Matrix: (Units=GPa)
#
#
# Indices 1 2 3 4 5 6 
#
# 1 167.7462 49.9425 47.8562 -18.5572 -4.9458 -12.0162
# 2 49.9425 103.8397 35.5272 -30.4453 -4.2638 -7.1433
# 3 47.8562 35.5272 126.9265 -19.4315 -17.1115 -3.3908
# 4 -18.5572 -30.4453 -19.4315 54.0635 0.8902 3.9640
# 5 -4.9458 -4.2638 -17.1115 0.8902 35.4186 1.6265
# 6 -12.0162 -7.1433 -3.3908 3.9640 1.6265 52.3755
#
#
#
# Elastic Compliance Matrix: (Units=1/GPa)
#
#
# Indices 1 2 3 4 5 6 
#
# 1 0.007460 -0.002772 -0.002020 0.000191 -0.000328 0.001198
# 2 -0.002772 0.013336 -0.001743 0.005883 0.000200 0.000619
# 3 -0.002020 -0.001743 0.009985 0.001867 0.004300 -0.000330
# 4 0.000191 0.005883 0.001867 0.022585 0.001105 -0.000777
# 5 -0.000328 0.000200 0.004300 0.001105 0.030298 -0.000794
# 6 0.001198 0.000619 -0.000330 -0.000777 -0.000794 0.019514
#
#
# Mechanical properties :
#
#
# Convention : Reuss Voigt Hill
#
# Bulk Modulus (GPa) = 56.46431 73.90714 65.18572
# Shear Modulus (GPa) = 40.93256 46.05063 43.49159
#
# Velocity S-wave (km/s) = 4.05748 4.30368 4.18239
# Velocity P-wave (km/s) = 6.68288 7.37706 7.03853
#
# Compressibility (1/GPa) = 0.01771030
#
# Stress axis : x y z
#
# Youngs Moduli (GPa) = 134.04391 74.98762 100.15160
#
# Poissons Ratio (x) = 0.20786 0.20229
# Poissons Ratio (y) = 0.37156 0.17461
# Poissons Ratio (z) = 0.27074 0.13074
#
# Static dielectric constant tensor:
#      x y z
#    x 1.998690 0.042320 0.006270 
#    y 0.042320 1.902740 0.025130 
#    z 0.006270 0.025130 2.024600 
# 
# From -- ./inp_files/13633.got.cif
#   From: 2010.05.17/outbox.cif.g08.bks.cpg/sg2_7_cif.got.tgz:13633.got - 2010.06.03 11:33:40.
