data_PCOD9002551
_publ_section_title
;
Structure prediction by ZEFSAII (Michael W. Deem and Ramdas Pophale) SiO2 
 PCOD9002551
Probable space group: P -1
;
_chemical_formula_sum "Si O2"
_cell_formula_units_Z 14
_cell_length_a 8.612781
_cell_length_b 19.115747
_cell_length_c 11.213920
_cell_angle_alpha 149.328259
_cell_angle_beta 102.507119
_cell_angle_gamma 55.706731
_cell_volume 600.429278
_symmetry_space_group_name_H-M "P -1"
_symmetry_group_IT_number 2
_symmetry_cell_setting 'triclinic'
loop_
_space_group_symop_operation_xyz
x,y,z
-x,-y,-z
loop_
_atom_site_type_symbol
_atom_site_label
_atom_site_fract_x
_atom_site_fract_y
_atom_site_fract_z
Si Si1 0.363168 0.190302 0.846484
Si Si2 0.913532 0.040171 0.372927
Si Si3 0.875242 0.350732 0.726386
Si Si4 0.155647 0.387599 0.716269
Si Si5 0.727376 0.740723 0.798095
Si Si6 0.627351 0.090978 0.197992
Si Si7 0.609687 0.287127 0.917800
O O1 0.491688 0.251141 0.931418
O O2 0.500000 0.000000 0.500000
O O3 0.081593 0.392406 0.061559
O O4 0.357198 0.156566 0.934378
O O5 0.961915 0.172306 0.563196
O O6 0.821636 0.054971 0.249599
O O7 0.725383 0.151187 0.614763
O O8 0.158198 0.803690 0.108216
O O9 0.085844 0.275335 0.568158
O O10 0.620679 0.469925 0.799878
O O11 0.804149 0.539252 0.056900
O O12 0.392327 0.247779 0.473554
O O13 0.504466 0.797080 0.786700
O O14 0.000000 0.500000 0.500000
O O15 0.739094 0.865330 0.896383
#
# Coordination Sequence:
#
# PCOD9002551 Si02
#       7
#     2   2   2   2   2   2   2
#     4  11  22  40  69 100 128 169 221 279 327 379
#     4  11  22  39  61  96 137 174 212 270 332 383
#     4  10  21  36  61  98 140 164 213 273 331 376
#     4  10  21  38  65 103 130 168 223 275 321 390
#     4  11  25  45  67  95 134 175 220 271 334 392
#     4  11  24  42  67  95 128 176 228 263 325 406
#     4  10  22  35  57  95 131 165 214 266 317 391
#
# _framework density 23.316652999999999
#
# number of rings (size 3 to 8) (size 9 to 14) (size 15 to 20)
#    0.000    1.429    2.857    2.143    6.000    2.286 
#    0.000    0.714    0.000    2.571    0.000    0.000 
#    0.000    0.000    0.000    0.000    0.000    0.000 
#
# Total GULP energy -78129.728229 kJ/mol
# GULP energy per Si atom -5580.694873 kJ/mol
# Density = 2.326358 g / cm^3
# Si number density = 23.316653 Si / 1000 Ang^3
#
#
#
# Elastic Constant Matrix: (Units=GPa)
#
#
# Indices 1 2 3 4 5 6 
#
# 1 25.5584 22.8929 -0.5989 6.1809 -0.2667 -8.2493
# 2 22.8929 147.3463 32.7591 9.5831 -8.6644 -23.9639
# 3 -0.5989 32.7591 65.5231 16.5916 -8.7875 -7.6466
# 4 6.1809 9.5831 16.5916 48.2865 -7.0779 -10.7582
# 5 -0.2667 -8.6644 -8.7875 -7.0779 24.3549 3.1899
# 6 -8.2493 -23.9639 -7.6466 -10.7582 3.1899 40.2244
#
#
#
# Elastic Compliance Matrix: (Units=1/GPa)
#
#
# Indices 1 2 3 4 5 6 
#
# 1 0.049562 -0.008006 0.006274 -0.006131 -0.002498 0.005145
# 2 -0.008006 0.009636 -0.004697 0.001764 0.001694 0.003543
# 3 0.006274 -0.004697 0.019732 -0.006032 0.003721 0.000331
# 4 -0.006131 0.001764 -0.006032 0.025055 0.005017 0.004950
# 5 -0.002498 0.001694 0.003721 0.005017 0.044565 -0.000988
# 6 0.005145 0.003543 0.000331 0.004950 -0.000988 0.029492
#
#
# Mechanical properties :
#
#
# Convention : Reuss Voigt Hill
#
# Bulk Modulus (GPa) = 15.13511 38.72600 26.93056
# Shear Modulus (GPa) = 23.48238 34.79814 29.14026
#
# Velocity S-wave (km/s) = 3.17694 3.86737 3.53903
# Velocity P-wave (km/s) = 4.46794 6.04871 5.31739
#
# Compressibility (1/GPa) = 0.06607153
#
# Stress axis : x y z
#
# Youngs Moduli (GPa) = 20.17677 103.77646 50.67788
#
# Poissons Ratio (x) = 0.83089 -0.31794
# Poissons Ratio (y) = 0.16155 0.23803
# Poissons Ratio (z) = -0.12659 0.48742
#
# Static dielectric constant tensor:
#      x y z
#    x 1.907230 -0.055780 0.012460 
#    y -0.055780 2.020820 -0.021470 
#    z 0.012460 -0.021470 1.886470 
# 
# From -- ./inp_files/260828.got.cif
#   From: 2010.05.17/outbox.cif.g08.bks.cpg/sg2_131_cif.got.tgz:260828.got - 2010.06.03 11:33:40.
