data_PCOD9002143
_publ_section_title
;
Structure prediction by ZEFSAII (Michael W. Deem and Ramdas Pophale) SiO2 
 PCOD9002143
Probable space group: P -1
;
_chemical_formula_sum "Si O2"
_cell_formula_units_Z 12
_cell_length_a 8.679219
_cell_length_b 7.531583
_cell_length_c 11.463672
_cell_angle_alpha 44.300845
_cell_angle_beta 120.337539
_cell_angle_gamma 121.047920
_cell_volume 436.661125
_symmetry_space_group_name_H-M "P -1"
_symmetry_group_IT_number 2
_symmetry_cell_setting 'triclinic'
loop_
_space_group_symop_operation_xyz
x,y,z
-x,-y,-z
loop_
_atom_site_type_symbol
_atom_site_label
_atom_site_fract_x
_atom_site_fract_y
_atom_site_fract_z
Si Si1 0.618178 0.337317 0.190144
Si Si2 0.713063 0.967202 0.684344
Si Si3 0.708723 0.396864 0.668507
Si Si4 0.049984 0.777040 0.958275
Si Si5 0.956245 0.330125 0.445544
Si Si6 0.616899 0.913011 0.190450
O O1 0.486495 0.232714 0.299989
O O2 0.823204 0.459913 0.255414
O O3 0.632048 0.113333 0.209161
O O4 0.500000 0.500000 0.000000
O O5 0.856376 0.846161 0.869001
O O6 0.683455 0.208447 0.635376
O O7 0.819229 0.056236 0.562767
O O8 0.855899 0.660602 0.556500
O O9 0.513534 0.358542 0.679101
O O10 0.829701 0.271902 0.864167
O O11 0.179863 0.019273 0.819842
O O12 0.000000 0.500000 0.000000
O O13 0.000000 0.500000 0.500000
O O14 0.500000 0.000000 0.000000
#
# Coordination Sequence:
#
# PCOD9002143 Si02
#       6
#     2   2   2   2   2   2
#     4  11  21  38  63  88 113 153 201 241 283 346
#     4  10  21  36  58  84 114 153 194 239 290 343
#     4   9  19  37  57  80 113 156 196 235 283 348
#     4  11  20  35  57  86 117 151 194 242 288 343
#     4  10  21  37  59  89 120 151 192 245 293 341
#     4   9  20  35  56  85 117 148 190 244 289 333
#
# _framework density 27.481268
#
# number of rings (size 3 to 8) (size 9 to 14) (size 15 to 20)
#    0.000    2.000    0.000    4.000    0.000    6.667 
#    0.000    4.167    0.000    4.000    0.000    0.000 
#    0.000    0.000    0.000    0.000    0.000    0.000 
#
# Total GULP energy -67140.616478 kJ/mol
# GULP energy per Si atom -5595.051373 kJ/mol
# Density = 2.741872 g / cm^3
# Si number density = 27.481268 Si / 1000 Ang^3
#
#
#
# Elastic Constant Matrix: (Units=GPa)
#
#
# Indices 1 2 3 4 5 6 
#
# 1 154.5712 73.7327 31.7018 -2.1403 -12.6064 47.0624
# 2 73.7327 89.1712 35.5516 21.5500 -8.3338 9.9266
# 3 31.7018 35.5516 112.6307 3.9743 -17.3757 10.2534
# 4 -2.1403 21.5500 3.9743 44.3213 19.0178 -9.3739
# 5 -12.6064 -8.3338 -17.3757 19.0178 65.0213 -12.3361
# 6 47.0624 9.9266 10.2534 -9.3739 -12.3361 76.1354
#
#
#
# Elastic Compliance Matrix: (Units=1/GPa)
#
#
# Indices 1 2 3 4 5 6 
#
# 1 0.014860 -0.013343 0.000115 0.006599 -0.002053 -0.006982
# 2 -0.013343 0.027439 -0.003987 -0.014895 0.005015 0.004186
# 3 0.000115 -0.003987 0.010507 -0.000084 0.002227 -0.000616
# 4 0.006599 -0.014895 -0.000084 0.034838 -0.010762 0.000420
# 5 -0.002053 0.005015 0.002227 -0.010762 0.019784 0.002196
# 6 -0.006982 0.004186 -0.000616 0.000420 0.002196 0.017395
#
#
# Mechanical properties :
#
#
# Convention : Reuss Voigt Hill
#
# Bulk Modulus (GPa) = 54.41745 70.92726 62.67236
# Shear Modulus (GPa) = 30.23363 51.45473 40.84418
#
# Velocity S-wave (km/s) = 3.32046 4.33177 3.85938
# Velocity P-wave (km/s) = 5.87752 7.13332 6.53565
#
# Compressibility (1/GPa) = 0.01837646
#
# Stress axis : x y z
#
# Youngs Moduli (GPa) = 67.29335 36.44423 95.17153
#
# Poissons Ratio (x) = 0.48627 -0.01094
# Poissons Ratio (y) = 0.89788 0.37948
# Poissons Ratio (z) = -0.00773 0.14531
#
# Static dielectric constant tensor:
#      x y z
#    x 2.092640 0.112900 -0.044440 
#    y 0.112900 2.111940 -0.086720 
#    z -0.044440 -0.086720 2.269380 
# 
# From -- ./inp_files/144575.got.cif
#   From: 2010.05.17/outbox.cif.g08.bks.cpg/sg2_73_cif.got.tgz:144575.got - 2010.06.03 11:33:40.
