data_PCOD9002661
_publ_section_title
;
Structure prediction by ZEFSAII (Michael W. Deem and Ramdas Pophale) SiO2 
 PCOD9002661
Probable space group: P -1
;
_chemical_formula_sum "Si O2"
_cell_formula_units_Z 16
_cell_length_a 12.010601
_cell_length_b 12.460838
_cell_length_c 9.804006
_cell_angle_alpha 89.938380
_cell_angle_beta 74.279734
_cell_angle_gamma 144.804862
_cell_volume 745.734762
_symmetry_space_group_name_H-M "P -1"
_symmetry_group_IT_number 2
_symmetry_cell_setting 'triclinic'
loop_
_space_group_symop_operation_xyz
x,y,z
-x,-y,-z
loop_
_atom_site_type_symbol
_atom_site_label
_atom_site_fract_x
_atom_site_fract_y
_atom_site_fract_z
Si Si1 0.310717 0.050547 0.777889
Si Si2 0.354259 0.749332 0.683462
Si Si3 0.746267 0.469987 0.742275
Si Si4 0.214257 0.826036 0.550013
Si Si5 0.264668 0.438358 0.650073
Si Si6 0.208839 0.881864 0.101572
Si Si7 0.536587 0.603168 0.290457
Si Si8 0.712621 0.299526 0.992206
O O1 0.570375 0.251513 0.730900
O O2 0.288295 0.160618 0.758103
O O3 0.256767 0.939060 0.664200
O O4 0.191483 0.912159 0.951616
O O5 0.241760 0.729026 0.601715
O O6 0.367101 0.635724 0.641765
O O7 0.231205 0.659287 0.867759
O O8 0.592306 0.992764 0.617271
O O9 0.614223 0.478057 0.786323
O O10 0.968753 0.650022 0.584077
O O11 0.803534 0.467712 0.870619
O O12 0.366883 0.479150 0.473651
O O13 0.347927 0.419187 0.735885
O O14 0.003271 0.245148 0.747114
O O15 0.448131 0.107085 0.072539
O O16 0.224459 0.765016 0.093279
#
# Coordination Sequence:
#
# PCOD9002661 Si02
#       8
#     2   2   2   2   2   2   2   2
#     4   9  19  41  59  87 120 153 202 246 289 366
#     4  11  23  36  58  95 122 149 205 250 294 371
#     4   9  21  39  61  83 122 163 191 249 302 344
#     4  11  21  38  62  92 120 159 194 249 315 348
#     4  11  22  40  64  85 118 164 200 248 304 343
#     4  10  21  36  63  88 117 165 190 244 312 353
#     4   9  22  44  59  83 122 157 212 248 279 368
#     4  10  21  38  56  93 128 145 203 247 292 379
#
# _framework density 21.455349999999999
#
# number of rings (size 3 to 8) (size 9 to 14) (size 15 to 20)
#    0.750    1.250    2.500    0.750    3.500    1.500 
#    0.000    5.000    0.000    0.000    0.000    0.000 
#    0.000    0.000    0.000    0.000    0.000    0.000 
#
# Total GULP energy -89277.255916 kJ/mol
# GULP energy per Si atom -5579.828495 kJ/mol
# Density = 2.140652 g / cm^3
# Si number density = 21.455350 Si / 1000 Ang^3
#
#
#
# Elastic Constant Matrix: (Units=GPa)
#
#
# Indices 1 2 3 4 5 6 
#
# 1 140.2866 25.2890 26.5142 -23.7988 2.5854 -22.1972
# 2 25.2890 44.3084 8.3042 -16.0016 -5.6006 -1.9528
# 3 26.5142 8.3042 73.7113 -13.9879 6.1197 5.1991
# 4 -23.7988 -16.0016 -13.9879 24.4140 2.2493 -4.1761
# 5 2.5854 -5.6006 6.1197 2.2493 34.7722 -10.0551
# 6 -22.1972 -1.9528 5.1991 -4.1761 -10.0551 24.0340
#
#
#
# Elastic Compliance Matrix: (Units=1/GPa)
#
#
# Indices 1 2 3 4 5 6 
#
# 1 0.012343 -0.001091 -0.003457 0.011680 0.003223 0.015436
# 2 -0.001091 0.031702 -0.000399 0.020244 0.006193 0.007763
# 3 -0.003457 -0.000399 0.016868 0.005123 -0.005504 -0.008286
# 4 0.011680 0.020244 0.005123 0.072555 0.004229 0.025700
# 5 0.003223 0.006193 -0.005504 0.004229 0.036148 0.020529
# 6 0.015436 0.007763 -0.008286 0.025700 0.020529 0.071342
#
#
# Mechanical properties :
#
#
# Convention : Reuss Voigt Hill
#
# Bulk Modulus (GPa) = 19.60035 42.05787 30.82911
# Shear Modulus (GPa) = 18.66654 29.85731 24.26192
#
# Velocity S-wave (km/s) = 2.95281 3.73447 3.36640
# Velocity P-wave (km/s) = 4.55858 6.18385 5.43234
#
# Compressibility (1/GPa) = 0.05101950
#
# Stress axis : x y z
#
# Youngs Moduli (GPa) = 81.01953 31.54335 59.28247
#
# Poissons Ratio (x) = 0.03441 0.20493
# Poissons Ratio (y) = 0.08839 0.02367
# Poissons Ratio (z) = 0.28007 0.01259
#
# Static dielectric constant tensor:
#      x y z
#    x 1.799500 0.031670 0.028870 
#    y 0.031670 1.782090 -0.015290 
#    z 0.028870 -0.015290 1.816170 
# 
# From -- ./inp_files/425954.got.cif
#   From: 2010.05.17/outbox.cif.g08.bks.cpg/sg2_213_cif.got.tgz:425954.got - 2010.06.03 11:33:40.
