data_PCOD9002155
_publ_section_title
;
Structure prediction by ZEFSAII (Michael W. Deem and Ramdas Pophale) SiO2 
 PCOD9002155
Probable space group: P -1
;
_chemical_formula_sum "Si O2"
_cell_formula_units_Z 10
_cell_length_a 13.415793
_cell_length_b 11.989577
_cell_length_c 8.171370
_cell_angle_alpha 36.098756
_cell_angle_beta 133.611759
_cell_angle_gamma 145.471426
_cell_volume 437.795568
_symmetry_space_group_name_H-M "P -1"
_symmetry_group_IT_number 2
_symmetry_cell_setting 'triclinic'
loop_
_space_group_symop_operation_xyz
x,y,z
-x,-y,-z
loop_
_atom_site_type_symbol
_atom_site_label
_atom_site_fract_x
_atom_site_fract_y
_atom_site_fract_z
Si Si1 0.587856 0.130703 0.617821
Si Si2 0.789484 0.677458 0.197896
Si Si3 0.860019 0.151173 0.737661
Si Si4 0.036871 0.226311 0.364057
Si Si5 0.763816 0.261555 0.165758
O O1 0.635705 0.392404 0.363942
O O2 0.771938 0.172714 0.769343
O O3 0.500000 0.000000 0.500000
O O4 0.445269 0.948033 0.806518
O O5 0.881434 0.744854 0.399476
O O6 0.860204 0.196538 0.231774
O O7 0.753457 0.867790 0.907620
O O8 0.840558 0.276765 0.414430
O O9 0.062809 0.260757 0.839735
O O10 0.174539 0.479015 0.126113
O O11 0.000000 0.000000 0.500000
#
# Coordination Sequence:
#
# PCOD9002155 Si02
#       5
#     2   2   2   2   2
#     4  10  21  36  58  85 115 143 178 233 283 322
#     4  10  21  36  58  87 111 143 189 225 270 334
#     4   9  20  37  60  84 111 144 184 231 276 324
#     4  10  22  40  58  78 112 152 186 226 273 325
#     4   9  21  38  58  83 111 146 188 225 274 335
#
# _framework density 22.841712000000001
#
# number of rings (size 3 to 8) (size 9 to 14) (size 15 to 20)
#    0.000    2.400    0.000    0.600    0.000   20.000 
#    0.000    2.000    0.000    0.000    0.000    0.000 
#    0.000    0.000    0.000    0.000    0.000    0.000 
#
# Total GULP energy -55907.036935 kJ/mol
# GULP energy per Si atom -5590.703694 kJ/mol
# Density = 2.278972 g / cm^3
# Si number density = 22.841712 Si / 1000 Ang^3
#
#
#
# Elastic Constant Matrix: (Units=GPa)
#
#
# Indices 1 2 3 4 5 6 
#
# 1 115.1240 27.9991 68.8944 -27.4824 -30.5684 11.1448
# 2 27.9991 90.2907 46.8042 -22.3989 -3.5227 -14.1637
# 3 68.8944 46.8042 175.9441 -46.0169 -19.7305 -4.8467
# 4 -27.4824 -22.3989 -46.0169 51.1399 2.3270 1.4551
# 5 -30.5684 -3.5227 -19.7305 2.3270 38.8774 -8.1010
# 6 11.1448 -14.1637 -4.8467 1.4551 -8.1010 21.8063
#
#
#
# Elastic Compliance Matrix: (Units=1/GPa)
#
#
# Indices 1 2 3 4 5 6 
#
# 1 0.015291 -0.002889 -0.003586 0.003575 0.008121 -0.007710
# 2 -0.002889 0.015449 -0.001780 0.003285 0.000324 0.011017
# 3 -0.003586 -0.001780 0.009318 0.005494 0.002076 0.003152
# 4 0.003575 0.003285 0.005494 0.027613 0.004529 0.001367
# 5 0.008121 0.000324 0.002076 0.004529 0.034827 0.009158
# 6 -0.007710 0.011017 0.003152 0.001367 0.009158 0.060965
#
#
# Mechanical properties :
#
#
# Convention : Reuss Voigt Hill
#
# Bulk Modulus (GPa) = 42.46316 74.30603 58.38460
# Shear Modulus (GPa) = 26.62114 38.20879 32.41496
#
# Velocity S-wave (km/s) = 3.41759 4.09438 3.77120
# Velocity P-wave (km/s) = 5.84840 7.41306 6.67672
#
# Compressibility (1/GPa) = 0.02354982
#
# Stress axis : x y z
#
# Youngs Moduli (GPa) = 65.39924 64.72766 107.32454
#
# Poissons Ratio (x) = 0.18697 0.38481
# Poissons Ratio (y) = 0.18891 0.19101
# Poissons Ratio (z) = 0.23449 0.11520
#
# Static dielectric constant tensor:
#      x y z
#    x 1.928400 0.046760 0.009250 
#    y 0.046760 1.868440 0.016420 
#    z 0.009250 0.016420 1.826880 
# 
# From -- ./inp_files/61529.got.cif
#   From: 2010.05.17/outbox.cif.g08.bks.cpg/sg2_31_cif.got.tgz:61529.got - 2010.06.03 11:33:40.
