data_PCOD9002306
_publ_section_title
;
Structure prediction by ZEFSAII (Michael W. Deem and Ramdas Pophale) SiO2 
 PCOD9002306
Probable space group: P -1
;
_chemical_formula_sum "Si O2"
_cell_formula_units_Z 16
_cell_length_a 8.905732
_cell_length_b 12.569887
_cell_length_c 13.217494
_cell_angle_alpha 102.361764
_cell_angle_beta 136.602647
_cell_angle_gamma 48.898875
_cell_volume 659.335550
_symmetry_space_group_name_H-M "P -1"
_symmetry_group_IT_number 2
_symmetry_cell_setting 'triclinic'
loop_
_space_group_symop_operation_xyz
x,y,z
-x,-y,-z
loop_
_atom_site_type_symbol
_atom_site_label
_atom_site_fract_x
_atom_site_fract_y
_atom_site_fract_z
Si Si1 0.983453 0.211520 0.567878
Si Si2 0.644559 0.893351 0.754712
Si Si3 0.333122 0.391525 0.714585
Si Si4 0.791023 0.916314 0.051707
Si Si5 0.555803 0.228359 0.480288
Si Si6 0.974327 0.590039 0.246285
Si Si7 0.318142 0.564505 0.233577
Si Si8 0.801274 0.046468 0.766318
O O1 0.890718 0.139228 0.571514
O O2 0.101075 0.266032 0.708270
O O3 0.646919 0.380122 0.389865
O O4 0.265482 0.075161 0.600162
O O5 0.660067 0.765404 0.699606
O O6 0.842183 0.908259 0.791437
O O7 0.737389 0.872437 0.912529
O O8 0.527033 0.431553 0.790649
O O9 0.575650 0.201064 0.764424
O O10 0.000000 0.500000 0.500000
O O11 0.243069 0.412538 0.793464
O O12 0.142146 0.739762 0.225705
O O13 0.853430 0.019525 0.085628
O O14 0.500000 0.000000 0.000000
O O15 0.335916 0.417380 0.426424
O O16 0.622456 0.128371 0.588448
O O17 0.036427 0.587474 0.154950
#
# Coordination Sequence:
#
# PCOD9002306 Si02
#       8
#     2   2   2   2   2   2   2   2
#     4  11  20  38  65  93 120 171 221 260 306 388
#     4  12  24  40  62  99 135 167 203 272 336 380
#     4  11  17  31  61  96 120 155 220 273 302 364
#     4  11  24  42  65  92 130 171 217 264 323 390
#     4  11  23  37  62  98 136 161 210 273 328 379
#     4  11  19  35  62  93 124 165 217 266 312 372
#     4  10  21  36  59  92 120 159 217 268 308 369
#     4  11  21  39  62  93 127 172 215 261 315 398
#
# _framework density 24.266857000000002
#
# number of rings (size 3 to 8) (size 9 to 14) (size 15 to 20)
#    0.000    1.000    3.750    6.375    0.000    0.000 
#    0.000    2.500    0.000    4.500    0.000    0.000 
#    0.000    0.000    0.000    0.000    0.000    0.000 
#
# Total GULP energy -89107.827125 kJ/mol
# GULP energy per Si atom -5569.239195 kJ/mol
# Density = 2.421162 g / cm^3
# Si number density = 24.266857 Si / 1000 Ang^3
#
#
#
# Elastic Constant Matrix: (Units=GPa)
#
#
# Indices 1 2 3 4 5 6 
#
# 1 211.3508 15.8992 25.1120 8.4938 21.0743 14.7600
# 2 15.8992 46.8495 12.2546 -7.7118 4.9050 10.6641
# 3 25.1120 12.2546 34.9849 5.3605 7.4638 6.0709
# 4 8.4938 -7.7118 5.3605 26.8996 -5.0990 -0.0945
# 5 21.0743 4.9050 7.4638 -5.0990 35.2548 -11.4172
# 6 14.7600 10.6641 6.0709 -0.0945 -11.4172 23.1885
#
#
#
# Elastic Compliance Matrix: (Units=1/GPa)
#
#
# Indices 1 2 3 4 5 6 
#
# 1 0.006031 -0.000072 -0.001617 -0.002694 -0.005640 -0.006170
# 2 -0.000072 0.028502 -0.007709 0.008643 -0.005479 -0.013706
# 3 -0.001617 -0.007709 0.038611 -0.011603 -0.011446 -0.011217
# 4 -0.002694 0.008643 -0.011603 0.045024 0.011525 0.006635
# 5 -0.005640 -0.005479 -0.011446 0.011525 0.047057 0.032323
# 6 -0.006170 -0.013706 -0.011217 0.006635 0.032323 0.072234
#
#
# Mechanical properties :
#
#
# Convention : Reuss Voigt Hill
#
# Bulk Modulus (GPa) = 18.39996 44.41299 31.40648
# Shear Modulus (GPa) = 18.22356 33.06321 25.64338
#
# Velocity S-wave (km/s) = 2.74335 3.69519 3.25426
# Velocity P-wave (km/s) = 4.19921 6.04546 5.20485
#
# Compressibility (1/GPa) = 0.05434795
#
# Stress axis : x y z
#
# Youngs Moduli (GPa) = 165.82201 35.08509 25.89937
#
# Poissons Ratio (x) = 0.00253 0.04187
# Poissons Ratio (y) = 0.01194 0.19966
# Poissons Ratio (z) = 0.26808 0.27048
#
# Static dielectric constant tensor:
#      x y z
#    x 2.035150 0.033130 -0.016100 
#    y 0.033130 1.879040 -0.030780 
#    z -0.016100 -0.030780 2.074640 
# 
# From -- ./inp_files/500613.got.cif
#   From: 2010.05.17/outbox.cif.g08.bks.cpg/sg2_251_cif.got.tgz:500613.got - 2010.06.03 11:33:40.
