data_PCOD9002348
_publ_section_title
;
Structure prediction by ZEFSAII (Michael W. Deem and Ramdas Pophale) SiO2 
 PCOD9002348
Probable space group: P -1
;
_chemical_formula_sum "Si O2"
_cell_formula_units_Z 16
_cell_length_a 6.559520
_cell_length_b 5.578701
_cell_length_c 25.864437
_cell_angle_alpha 62.860300
_cell_angle_beta 128.410480
_cell_angle_gamma 103.227775
_cell_volume 657.955250
_symmetry_space_group_name_H-M "P -1"
_symmetry_group_IT_number 2
_symmetry_cell_setting 'triclinic'
loop_
_space_group_symop_operation_xyz
x,y,z
-x,-y,-z
loop_
_atom_site_type_symbol
_atom_site_label
_atom_site_fract_x
_atom_site_fract_y
_atom_site_fract_z
Si Si1 0.141974 0.966243 0.184125
Si Si2 0.760988 0.348103 0.036865
Si Si3 0.519015 0.565248 0.693205
Si Si4 0.936987 0.916289 0.719836
Si Si5 0.194927 0.040813 0.473542
Si Si6 0.821621 0.271091 0.935152
Si Si7 0.428793 0.616088 0.788692
Si Si8 0.018094 0.354978 0.605925
O O1 0.082789 0.026377 0.228611
O O2 0.376942 0.153795 0.187461
O O3 0.880490 0.051587 0.101857
O O4 0.259711 0.660537 0.231018
O O5 0.978718 0.529708 0.075444
O O6 0.500000 0.500000 0.000000
O O7 0.743954 0.365202 0.971040
O O8 0.661725 0.812487 0.668427
O O9 0.379840 0.650601 0.716670
O O10 0.314810 0.436537 0.637087
O O11 0.161263 0.680639 0.768930
O O12 0.011849 0.169687 0.674196
O O13 0.150902 0.367286 0.435317
O O14 0.500000 0.000000 0.500000
O O15 0.000000 0.000000 0.500000
O O16 0.064273 0.832922 0.434912
O O17 0.567282 0.322944 0.854805
O O18 0.000000 0.000000 0.000000
#
# Coordination Sequence:
#
# PCOD9002348 Si02
#       8
#     2   2   2   2   2   2   2   2
#     4  10  22  38  62  93 143 182 248 320 389 462
#     4  10  21  37  56  89 124 181 244 311 380 463
#     4  11  25  42  70 107 147 191 252 314 393 456
#     4  11  25  42  71 106 145 199 241 317 394 455
#     4  12  31  59  90 128 173 223 264 324 386 465
#     4  10  21  36  60  83 126 181 246 309 382 458
#     4  10  21  42  56  96 141 185 247 322 390 458
#     4  12  28  52  85 120 165 206 269 317 385 479
#
# _framework density 24.317765000000001
#
# number of rings (size 3 to 8) (size 9 to 14) (size 15 to 20)
#    0.000    1.250    1.250    3.000    7.000    1.500 
#    0.000    0.000    0.000    0.000    0.000    0.000 
#    0.000    0.000    0.000    0.000    0.000    0.000 
#
# Total GULP energy -89217.288013 kJ/mol
# GULP energy per Si atom -5576.080501 kJ/mol
# Density = 2.426242 g / cm^3
# Si number density = 24.317765 Si / 1000 Ang^3
#
#
#
# Elastic Constant Matrix: (Units=GPa)
#
#
# Indices 1 2 3 4 5 6 
#
# 1 141.1932 32.3442 42.9696 8.6242 13.3674 -10.8426
# 2 32.3442 74.8392 30.7505 -0.5319 12.6371 -11.8301
# 3 42.9696 30.7505 63.9118 -4.7764 10.7827 -9.3226
# 4 8.6242 -0.5319 -4.7764 40.4117 -6.8694 5.4619
# 5 13.3674 12.6371 10.7827 -6.8694 17.6391 -4.3438
# 6 -10.8426 -11.8301 -9.3226 5.4619 -4.3438 36.6736
#
#
#
# Elastic Compliance Matrix: (Units=1/GPa)
#
#
# Indices 1 2 3 4 5 6 
#
# 1 0.009687 -0.001085 -0.005346 -0.003623 -0.004419 0.001171
# 2 -0.001085 0.018387 -0.006364 -0.002169 -0.008490 0.003310
# 3 -0.005346 -0.006364 0.023438 0.002919 -0.004238 0.001388
# 4 -0.003623 -0.002169 0.002919 0.028501 0.012686 -0.003771
# 5 -0.004419 -0.008490 -0.004238 0.012686 0.074090 0.001764
# 6 0.001171 0.003310 0.001388 -0.003771 0.001764 0.029805
#
#
# Mechanical properties :
#
#
# Convention : Reuss Voigt Hill
#
# Bulk Modulus (GPa) = 38.57467 54.67475 46.62471
# Shear Modulus (GPa) = 22.92107 30.53686 26.72896
#
# Velocity S-wave (km/s) = 3.07345 3.54749 3.31895
# Velocity P-wave (km/s) = 5.33779 6.26992 5.82254
#
# Compressibility (1/GPa) = 0.02592375
#
# Stress axis : x y z
#
# Youngs Moduli (GPa) = 103.22653 54.38526 42.66499
#
# Poissons Ratio (x) = 0.05899 0.22807
# Poissons Ratio (y) = 0.11197 0.27154
# Poissons Ratio (z) = 0.55180 0.34613
#
# Static dielectric constant tensor:
#      x y z
#    x 1.937940 -0.013430 0.048480 
#    y -0.013430 1.951120 -0.056440 
#    z 0.048480 -0.056440 2.070990 
# 
# From -- ./inp_files/614855.got.cif
#   From: 2010.05.17/outbox.cif.g08.bks.cpg/sg2_308_cif.got.tgz:614855.got - 2010.06.03 11:33:40.
