data_PCOD9002741
_publ_section_title
;
Structure prediction by ZEFSAII (Michael W. Deem and Ramdas Pophale) SiO2 
 PCOD9002741
Probable space group: P -1
;
_chemical_formula_sum "Si O2"
_cell_formula_units_Z 10
_cell_length_a 8.136360
_cell_length_b 6.486590
_cell_length_c 11.079095
_cell_angle_alpha 122.502876
_cell_angle_beta 105.396607
_cell_angle_gamma 54.956623
_cell_volume 402.953476
_symmetry_space_group_name_H-M "P -1"
_symmetry_group_IT_number 2
_symmetry_cell_setting 'triclinic'
loop_
_space_group_symop_operation_xyz
x,y,z
-x,-y,-z
loop_
_atom_site_type_symbol
_atom_site_label
_atom_site_fract_x
_atom_site_fract_y
_atom_site_fract_z
Si Si1 0.492318 0.373768 0.328352
Si Si2 0.329479 0.187683 0.926743
Si Si3 0.940535 0.170053 0.916668
Si Si4 0.070693 0.668965 0.398321
Si Si5 0.847918 0.405740 0.336087
O O1 0.500000 0.500000 0.500000
O O2 0.257450 0.524453 0.298408
O O3 0.635453 0.427268 0.286109
O O4 0.584367 0.032384 0.238732
O O5 0.124206 0.206962 0.928829
O O6 0.263191 0.520150 0.011116
O O7 0.500000 0.000000 0.000000
O O8 0.968501 0.924893 0.751864
O O9 0.000000 0.000000 0.000000
O O10 0.153032 0.526648 0.501380
O O11 0.899263 0.597972 0.323329
O O12 0.000000 0.000000 0.500000
#
# Coordination Sequence:
#
# PCOD9002741 Si02
#       5
#     2   2   2   2   2
#     4   9  20  40  60  89 127 163 208 264 325 370
#     4  10  23  41  65  94 128 168 221 264 315 392
#     4  10  23  41  63  90 134 169 207 269 325 376
#     4  10  21  36  64  88 120 164 207 262 318 376
#     4   9  21  40  56  91 123 157 216 255 314 387
#
# _framework density 24.816759999999999
#
# number of rings (size 3 to 8) (size 9 to 14) (size 15 to 20)
#    0.000    2.400    0.000    0.000    5.600    6.400 
#    0.000    4.000    0.000    0.000    0.000    0.000 
#    0.000    0.000    0.000    0.000    0.000    0.000 
#
# Total GULP energy -55803.226934 kJ/mol
# GULP energy per Si atom -5580.322693 kJ/mol
# Density = 2.476028 g / cm^3
# Si number density = 24.816760 Si / 1000 Ang^3
#
#
#
# Elastic Constant Matrix: (Units=GPa)
#
#
# Indices 1 2 3 4 5 6 
#
# 1 152.2831 47.6491 20.0311 47.1551 -8.9096 7.4642
# 2 47.6491 133.5415 53.0075 50.8877 -6.5567 -9.0467
# 3 20.0311 53.0075 135.1529 37.6319 -11.3816 -6.5988
# 4 47.1551 50.8877 37.6319 48.3837 -7.5167 -0.7671
# 5 -8.9096 -6.5567 -11.3816 -7.5167 33.4388 7.3828
# 6 7.4642 -9.0467 -6.5988 -0.7671 7.3828 26.7057
#
#
#
# Elastic Compliance Matrix: (Units=1/GPa)
#
#
# Indices 1 2 3 4 5 6 
#
# 1 0.009904 -0.000368 0.001498 -0.010252 0.001485 -0.003228
# 2 -0.000368 0.013231 -0.001585 -0.012538 -0.001819 0.004336
# 3 0.001498 -0.001585 0.010016 -0.007311 0.001667 0.000848
# 4 -0.010252 -0.012538 -0.007311 0.050145 0.004238 -0.002920
# 5 0.001485 -0.001819 0.001667 0.004238 0.033627 -0.009794
# 6 -0.003228 0.004336 0.000848 -0.002920 -0.009794 0.042649
#
#
# Mechanical properties :
#
#
# Convention : Reuss Voigt Hill
#
# Bulk Modulus (GPa) = 31.01532 73.59477 52.30504
# Shear Modulus (GPa) = 29.20053 41.72494 35.46274
#
# Velocity S-wave (km/s) = 3.43395 4.10484 3.78429
# Velocity P-wave (km/s) = 5.31484 7.22398 6.34167
#
# Compressibility (1/GPa) = 0.03224214
#
# Stress axis : x y z
#
# Youngs Moduli (GPa) = 100.96604 75.57984 99.83904
#
# Poissons Ratio (x) = 0.02781 -0.14959
# Poissons Ratio (y) = 0.03715 0.15825
# Poissons Ratio (z) = -0.15128 0.11980
#
# Static dielectric constant tensor:
#      x y z
#    x 2.085860 0.041590 0.013080 
#    y 0.041590 2.154440 -0.107350 
#    z 0.013080 -0.107350 2.102240 
# 
# From -- ./inp_files/18043.got.cif
#   From: 2010.05.17/outbox.cif.g08.bks.cpg/sg2_10_cif.got.tgz:18043.got - 2010.06.03 11:33:40.
