data_PCOD9002608
_publ_section_title
;
Structure prediction by ZEFSAII (Michael W. Deem and Ramdas Pophale) SiO2 
 PCOD9002608
Probable space group: P -1
;
_chemical_formula_sum "Si O2"
_cell_formula_units_Z 14
_cell_length_a 5.410782
_cell_length_b 21.614980
_cell_length_c 15.425501
_cell_angle_alpha 154.505959
_cell_angle_beta 67.165097
_cell_angle_gamma 122.747069
_cell_volume 627.584474
_symmetry_space_group_name_H-M "P -1"
_symmetry_group_IT_number 2
_symmetry_cell_setting 'triclinic'
loop_
_space_group_symop_operation_xyz
x,y,z
-x,-y,-z
loop_
_atom_site_type_symbol
_atom_site_label
_atom_site_fract_x
_atom_site_fract_y
_atom_site_fract_z
Si Si1 0.695777 0.810535 0.217177
Si Si2 0.848602 0.929297 0.068090
Si Si3 0.543400 0.343603 0.771995
Si Si4 0.621781 0.764213 0.540613
Si Si5 0.210409 0.858799 0.809778
Si Si6 0.190864 0.489906 0.805207
Si Si7 0.693429 0.186736 0.873625
O O1 0.630579 0.796965 0.310952
O O2 0.526326 0.882556 0.269741
O O3 0.047401 0.866220 0.222013
O O4 0.501393 0.619335 0.973034
O O5 0.533538 0.855421 0.068629
O O6 0.847761 0.050351 0.147493
O O7 0.121217 0.047102 0.244212
O O8 0.936214 0.805551 0.848874
O O9 0.438993 0.280404 0.608707
O O10 0.904562 0.403207 0.798579
O O11 0.500000 0.500000 0.000000
O O12 0.323926 0.739907 0.602593
O O13 0.749075 0.649397 0.418404
O O14 0.500000 0.000000 0.000000
O O15 0.135509 0.615185 0.911781
#
# Coordination Sequence:
#
# PCOD9002608 Si02
#       7
#     2   2   2   2   2   2   2
#     4  10  22  36  62  90 129 173 213 249 314 371
#     4  10  22  42  66  91 123 167 211 268 323 384
#     4  12  19  37  62  92 129 175 216 254 307 375
#     4  11  22  36  65  96 127 161 220 267 307 381
#     4   9  21  41  66  89 119 164 215 262 326 382
#     4  10  21  36  62  92 129 165 217 257 310 365
#     4  10  22  39  63  93 128 172 207 262 323 376
#
# _framework density 22.307756000000001
#
# number of rings (size 3 to 8) (size 9 to 14) (size 15 to 20)
#    0.857    0.857    2.857    1.286    6.000    0.000 
#    0.000    2.143    0.000   12.857    0.000    0.000 
#    0.000    0.000    0.000    0.000    0.000    0.000 
#
# Total GULP energy -78097.042953 kJ/mol
# GULP energy per Si atom -5578.360211 kJ/mol
# Density = 2.225698 g / cm^3
# Si number density = 22.307756 Si / 1000 Ang^3
#
#
#
# Elastic Constant Matrix: (Units=GPa)
#
#
# Indices 1 2 3 4 5 6 
#
# 1 117.3079 27.3088 36.3017 -18.4052 -0.1663 23.8085
# 2 27.3088 93.3740 31.8969 -24.8298 4.4322 28.8542
# 3 36.3017 31.8969 86.1782 -40.3367 -15.4843 7.0938
# 4 -18.4052 -24.8298 -40.3367 11.3090 -10.6024 -6.0035
# 5 -0.1663 4.4322 -15.4843 -10.6024 30.6437 -13.9384
# 6 23.8085 28.8542 7.0938 -6.0035 -13.9384 41.9640
#
#
#
# Elastic Compliance Matrix: (Units=1/GPa)
#
#
# Indices 1 2 3 4 5 6 
#
# 1 0.011316 0.001361 -0.002691 0.005364 -0.002861 -0.007084
# 2 0.001361 0.019124 -0.005616 0.005717 -0.010774 -0.015733
# 3 -0.002691 -0.005616 -0.000375 -0.028858 -0.010336 -0.002110
# 4 0.005364 0.005717 -0.028858 -0.040985 -0.039086 -0.020942
# 5 -0.002861 -0.010774 -0.010336 -0.039086 0.020955 0.012147
# 6 -0.007084 -0.015733 -0.002110 -0.020942 0.012147 0.040062
#
#
# Mechanical properties :
#
#
# Convention : Reuss Voigt Hill
#
# Bulk Modulus (GPa) = 61.83402 54.20833 58.02118
# Shear Modulus (GPa) = 72.06834 30.20683 51.13759
#
# Velocity S-wave (km/s) = 5.69004 3.68380 4.79306
# Velocity P-wave (km/s) = 8.42303 6.51512 7.52975
#
# Compressibility (1/GPa) = 0.01617233
#
# Stress axis : x y z
#
# Youngs Moduli (GPa) = 88.37305 52.29135 -2666.17439
#
# Poissons Ratio (x) = -0.07116 -7.17383
# Poissons Ratio (y) = -0.12027 -14.97373
# Poissons Ratio (z) = 0.23778 0.29368
#
# Static dielectric constant tensor:
#      x y z
#    x 1.903220 -0.002560 0.011420 
#    y -0.002560 1.808290 -0.013630 
#    z 0.011420 -0.013630 1.859500 
# 
# From -- ./inp_files/485834.got.cif
#   From: 2010.05.17/outbox.cif.g08.bks.cpg/sg2_243_cif.got.tgz:485834.got - 2010.06.03 11:33:40.
