data_PCOD9002150
_publ_section_title
;
Structure prediction by ZEFSAII (Michael W. Deem and Ramdas Pophale) SiO2 
 PCOD9002150
Probable space group: P -1
;
_chemical_formula_sum "Si O2"
_cell_formula_units_Z 12
_cell_length_a 16.458160
_cell_length_b 8.970722
_cell_length_c 13.241382
_cell_angle_alpha 116.949370
_cell_angle_beta 156.097509
_cell_angle_gamma 50.825608
_cell_volume 563.942351
_symmetry_space_group_name_H-M "P -1"
_symmetry_group_IT_number 2
_symmetry_cell_setting 'triclinic'
loop_
_space_group_symop_operation_xyz
x,y,z
-x,-y,-z
loop_
_atom_site_type_symbol
_atom_site_label
_atom_site_fract_x
_atom_site_fract_y
_atom_site_fract_z
Si Si1 0.251376 0.959538 0.397624
Si Si2 0.260186 0.099028 0.827929
Si Si3 0.720762 0.285443 0.235613
Si Si4 0.798865 0.710901 0.974021
Si Si5 0.791676 0.342962 0.887116
Si Si6 0.725554 0.300448 0.488082
O O1 0.528842 0.896567 0.678625
O O2 0.231281 0.801615 0.258582
O O3 0.234853 0.897708 0.473529
O O4 0.024718 0.190640 0.178915
O O5 0.997300 0.218522 0.506285
O O6 0.286238 0.907839 0.857066
O O7 0.232988 0.253454 0.929600
O O8 0.500000 0.000000 0.000000
O O9 0.701893 0.300969 0.340942
O O10 0.500000 0.500000 0.000000
O O11 0.837480 0.496029 0.930565
O O12 0.034649 0.706138 0.214684
O O13 0.529586 0.494762 0.694308
#
# Coordination Sequence:
#
# PCOD9002150 Si02
#       6
#     2   2   2   2   2   2
#     4  10  22  39  58  83 115 147 186 233 281 332
#     4  10  21  38  58  83 113 148 188 232 278 328
#     4  10  23  39  57  85 116 148 188 230 277 332
#     4  10  21  36  58  85 112 147 189 229 277 334
#     4  10  22  38  58  85 113 147 188 231 280 333
#     4  10  21  38  59  82 114 150 183 231 281 329
#
# _framework density 21.278770000000002
#
# number of rings (size 3 to 8) (size 9 to 14) (size 15 to 20)
#    0.000    2.000    0.000    4.000    0.000   12.667 
#    0.000    3.333    0.000    0.000    0.000    0.000 
#    0.000    0.000    0.000    0.000    0.000    0.000 
#
# Total GULP energy -67071.069128 kJ/mol
# GULP energy per Si atom -5589.255761 kJ/mol
# Density = 2.123034 g / cm^3
# Si number density = 21.278770 Si / 1000 Ang^3
#
#
#
# Elastic Constant Matrix: (Units=GPa)
#
#
# Indices 1 2 3 4 5 6 
#
# 1 57.9822 3.2847 26.2991 -13.1350 -4.2297 -3.0949
# 2 3.2847 47.9387 44.3148 -12.4876 -0.9831 -1.4703
# 3 26.2991 44.3148 167.1451 -30.0457 1.8372 29.1777
# 4 -13.1350 -12.4876 -30.0457 46.4404 5.5879 -8.0439
# 5 -4.2297 -0.9831 1.8372 5.5879 31.3230 2.9139
# 6 -3.0949 -1.4703 29.1777 -8.0439 2.9139 21.3709
#
#
#
# Elastic Compliance Matrix: (Units=1/GPa)
#
#
# Indices 1 2 3 4 5 6 
#
# 1 0.022317 0.007017 -0.006952 0.006238 0.001096 0.015404
# 2 0.007017 0.035502 -0.013543 0.007140 -0.000719 0.024734
# 3 -0.006952 -0.013543 0.014449 0.000018 -0.000202 -0.021631
# 4 0.006238 0.007140 0.000018 0.028028 -0.005109 0.012617
# 5 0.001096 -0.000719 -0.000202 -0.005109 0.033543 -0.006111
# 6 0.015404 0.024734 -0.021631 0.012617 -0.006111 0.085840
#
#
# Mechanical properties :
#
#
# Convention : Reuss Voigt Hill
#
# Bulk Modulus (GPa) = 22.06898 46.76258 34.41578
# Shear Modulus (GPa) = 19.10293 33.10470 26.10381
#
# Velocity S-wave (km/s) = 2.99949 3.94859 3.50630
# Velocity P-wave (km/s) = 4.73179 6.54312 5.70974
#
# Compressibility (1/GPa) = 0.04531248
#
# Stress axis : x y z
#
# Youngs Moduli (GPa) = 44.80794 28.16719 69.21027
#
# Poissons Ratio (x) = -0.19764 0.48113
# Poissons Ratio (y) = -0.31441 0.93733
# Poissons Ratio (z) = 0.31149 0.38147
#
# Static dielectric constant tensor:
#      x y z
#    x 1.792380 -0.035550 -0.003870 
#    y -0.035550 1.773350 0.033650 
#    z -0.003870 0.033650 1.781650 
# 
# From -- ./inp_files/313194.got.cif
#   From: 2010.05.17/outbox.cif.g08.bks.cpg/sg2_157_cif.got.tgz:313194.got - 2010.06.03 11:33:40.
