data_PCOD9002832
_publ_section_title
;
Structure prediction by ZEFSAII (Michael W. Deem and Ramdas Pophale) SiO2 
 PCOD9002832
Probable space group: P -1
;
_chemical_formula_sum "Si O2"
_cell_formula_units_Z 16
_cell_length_a 24.929699
_cell_length_b 17.490125
_cell_length_c 14.277012
_cell_angle_alpha 22.758314
_cell_angle_beta 18.685249
_cell_angle_gamma 19.748069
_cell_volume 646.435532
_symmetry_space_group_name_H-M "P -1"
_symmetry_group_IT_number 2
_symmetry_cell_setting 'triclinic'
loop_
_space_group_symop_operation_xyz
x,y,z
-x,-y,-z
loop_
_atom_site_type_symbol
_atom_site_label
_atom_site_fract_x
_atom_site_fract_y
_atom_site_fract_z
Si Si1 0.825956 0.847062 0.330724
Si Si2 0.452434 0.594363 0.867319
Si Si3 0.572119 0.070357 0.048587
Si Si4 0.120786 0.520570 0.487115
Si Si5 0.304713 0.654199 0.583594
Si Si6 0.431509 0.200418 0.809026
Si Si7 0.855817 0.071024 0.277825
Si Si8 0.184017 0.393256 0.745577
O O1 0.666589 0.811541 0.688322
O O2 0.900121 0.662707 0.331925
O O3 0.694296 0.121740 0.208233
O O4 0.010389 0.836432 0.089263
O O5 0.662513 0.538528 0.545596
O O6 0.500000 0.500000 0.000000
O O7 0.331909 0.489400 0.142557
O O8 0.640071 0.884029 0.061825
O O9 0.688451 0.894874 0.140285
O O10 0.641828 0.239343 0.711400
O O11 0.132627 0.477393 0.628045
O O12 0.956362 0.792130 0.429963
O O13 0.500000 0.500000 0.500000
O O14 0.270245 0.457967 0.823311
O O15 0.160369 0.852359 0.672255
O O16 0.637072 0.189038 0.460482
O O17 0.500000 0.000000 0.000000
O O18 0.000000 0.500000 0.000000
#
# Coordination Sequence:
#
# PCOD9002832 Si02
#       8
#     2   2   2   2   2   2   2   2
#     4  10  23  38  62  94 130 169 212 261 307 378
#     4   8  18  37  58  86 125 169 209 249 308 374
#     4  11  23  41  61  97 130 162 214 261 313 379
#     4  10  21  41  65  89 135 176 202 253 326 367
#     4  10  21  39  63  89 121 162 211 256 315 380
#     4  11  23  41  69  88 122 170 207 262 331 365
#     4  10  22  39  65  97 122 166 221 252 313 384
#     4  10  21  36  65  97 127 161 211 265 305 373
#
# _framework density 24.751114999999999
#
# number of rings (size 3 to 8) (size 9 to 14) (size 15 to 20)
#    0.000    2.000    2.500    0.750    1.750    8.000 
#    0.000    6.875    0.000   15.000    0.000    0.000 
#    0.000    0.000    0.000    0.000    0.000    0.000 
#
# Total GULP energy -89477.802663 kJ/mol
# GULP energy per Si atom -5592.362666 kJ/mol
# Density = 2.469478 g / cm^3
# Si number density = 24.751115 Si / 1000 Ang^3
#
#
#
# Elastic Constant Matrix: (Units=GPa)
#
#
# Indices 1 2 3 4 5 6 
#
# 1 73.7983 39.6254 29.4705 -17.7603 -4.0388 8.1862
# 2 39.6254 77.7518 53.6635 5.8290 -11.2697 9.5834
# 3 29.4705 53.6635 138.4608 1.3353 -2.9457 0.6165
# 4 -17.7603 5.8290 1.3353 44.4396 2.2354 -8.9766
# 5 -4.0388 -11.2697 -2.9457 2.2354 49.0038 -4.2754
# 6 8.1862 9.5834 0.6165 -8.9766 -4.2754 34.6032
#
#
#
# Elastic Compliance Matrix: (Units=1/GPa)
#
#
# Indices 1 2 3 4 5 6 
#
# 1 0.022944 -0.012794 -0.000067 0.011088 -0.001491 0.000809
# 2 -0.012794 0.026642 -0.007383 -0.009870 0.004536 -0.006220
# 3 -0.000067 -0.007383 0.010058 0.001102 -0.000971 0.002047
# 4 0.011088 -0.009870 0.001102 0.029827 -0.001989 0.007583
# 5 -0.001491 0.004536 -0.000971 -0.001989 0.021468 0.001250
# 6 0.000809 -0.006220 0.002047 0.007583 0.001250 0.032515
#
#
# Mechanical properties :
#
#
# Convention : Reuss Voigt Hill
#
# Bulk Modulus (GPa) = 52.20548 59.50329 55.85439
# Shear Modulus (GPa) = 26.27056 36.75940 31.51498
#
# Velocity S-wave (km/s) = 3.26143 3.85796 3.57217
# Velocity P-wave (km/s) = 5.94311 6.62857 6.29518
#
# Compressibility (1/GPa) = 0.01915508
#
# Stress axis : x y z
#
# Youngs Moduli (GPa) = 43.58447 37.53542 99.42689
#
# Poissons Ratio (x) = 0.48022 0.00668
# Poissons Ratio (y) = 0.55761 0.73407
# Poissons Ratio (z) = 0.00293 0.27713
#
# Static dielectric constant tensor:
#      x y z
#    x 1.975880 0.016080 0.019470 
#    y 0.016080 2.046490 0.054450 
#    z 0.019470 0.054450 2.060060 
# 
# From -- ./inp_files/544307.got.cif
#   From: 2010.05.17/outbox.cif.g08.bks.cpg/sg2_273_cif.got.tgz:544307.got - 2010.06.03 11:33:40.
