data_PCOD9002938
_publ_section_title
;
Structure prediction by ZEFSAII (Michael W. Deem and Ramdas Pophale) SiO2 
 PCOD9002938
Probable space group: P -1
;
_chemical_formula_sum "Si O2"
_cell_formula_units_Z 14
_cell_length_a 10.628523
_cell_length_b 15.427497
_cell_length_c 7.868179
_cell_angle_alpha 59.523862
_cell_angle_beta 123.016017
_cell_angle_gamma 143.552387
_cell_volume 636.522032
_symmetry_space_group_name_H-M "P -1"
_symmetry_group_IT_number 2
_symmetry_cell_setting 'triclinic'
loop_
_space_group_symop_operation_xyz
x,y,z
-x,-y,-z
loop_
_atom_site_type_symbol
_atom_site_label
_atom_site_fract_x
_atom_site_fract_y
_atom_site_fract_z
Si Si1 0.431902 0.065713 0.109750
Si Si2 0.384715 0.252844 0.964588
Si Si3 0.142687 0.450191 0.131137
Si Si4 0.776978 0.618528 0.415703
Si Si5 0.279605 0.784130 0.168016
Si Si6 0.595520 0.341867 0.381346
Si Si7 0.849699 0.334670 0.345455
O O1 0.617419 0.173514 0.282653
O O2 0.315428 0.902246 0.186239
O O3 0.294257 0.101273 0.986119
O O4 0.570485 0.135800 0.968802
O O5 0.632583 0.389258 0.929655
O O6 0.259932 0.288873 0.770300
O O7 0.409950 0.260577 0.180211
O O8 0.217981 0.391996 0.364785
O O9 0.000158 0.435125 0.191959
O O10 0.968558 0.337733 0.968592
O O11 0.611146 0.454902 0.377252
O O12 0.005672 0.683315 0.453508
O O13 0.381265 0.737636 0.387740
O O14 0.802123 0.407702 0.351214
#
# Coordination Sequence:
#
# PCOD9002938 Si02
#       7
#     2   2   2   2   2   2   2
#     4   9  20  39  60  81 109 150 188 236 265 337
#     4  11  22  36  58  84 118 147 184 224 289 327
#     4   9  21  34  58  84 112 148 184 234 265 333
#     4  10  21  37  54  85 118 146 183 229 278 335
#     4  10  21  37  59  86 110 142 198 228 279 317
#     4  11  22  33  59  86 114 144 182 241 276 327
#     4   8  20  34  57  82 111 146 186 229 275 316
#
# _framework density 21.994524999999999
#
# number of rings (size 3 to 8) (size 9 to 14) (size 15 to 20)
#    0.857    1.429    0.000    2.143    6.000    5.714 
#    0.000    0.714    3.143    1.714    0.000    0.000 
#    0.000    0.000    0.000    0.000    0.000    0.000 
#
# Total GULP energy -77952.137398 kJ/mol
# GULP energy per Si atom -5568.009814 kJ/mol
# Density = 2.194446 g / cm^3
# Si number density = 21.994525 Si / 1000 Ang^3
#
#
#
# Elastic Constant Matrix: (Units=GPa)
#
#
# Indices 1 2 3 4 5 6 
#
# 1 46.0827 9.7251 10.6087 -6.6022 11.7260 -11.1898
# 2 9.7251 77.2614 34.5147 -2.0984 5.2818 -38.8884
# 3 10.6087 34.5147 87.9668 4.9767 11.7044 -17.5855
# 4 -6.6022 -2.0984 4.9767 16.8549 -7.2900 5.7406
# 5 11.7260 5.2818 11.7044 -7.2900 43.1863 -18.3058
# 6 -11.1898 -38.8884 -17.5855 5.7406 -18.3058 29.7392
#
#
#
# Elastic Compliance Matrix: (Units=1/GPa)
#
#
# Indices 1 2 3 4 5 6 
#
# 1 0.025425 0.004010 -0.002660 0.007065 -0.000605 0.011501
# 2 0.004010 0.075330 -0.010934 -0.008745 0.042694 0.121517
# 3 -0.002660 -0.010934 0.015485 -0.006952 -0.007232 -0.009251
# 4 0.007065 -0.008745 -0.006952 0.072813 0.002579 -0.025355
# 5 -0.000605 0.042694 -0.007232 0.002579 0.056879 0.085838
# 6 0.011501 0.121517 -0.009251 -0.025355 0.085838 0.249116
#
#
# Mechanical properties :
#
#
# Convention : Reuss Voigt Hill
#
# Bulk Modulus (GPa) = 10.30140 35.66755 22.98447
# Shear Modulus (GPa) = 9.14792 28.38690 18.76741
#
# Velocity S-wave (km/s) = 2.04162 3.59644 2.92426
# Velocity P-wave (km/s) = 3.20178 5.78771 4.67702
#
# Compressibility (1/GPa) = 0.09707421
#
# Stress axis : x y z
#
# Youngs Moduli (GPa) = 39.33131 13.27484 64.57955
#
# Poissons Ratio (x) = -0.05323 0.17175
# Poissons Ratio (y) = -0.15772 0.70609
# Poissons Ratio (z) = 0.10460 0.14514
#
# Static dielectric constant tensor:
#      x y z
#    x 1.852360 0.011870 0.021150 
#    y 0.011870 1.849220 0.000760 
#    z 0.021150 0.000760 1.959300 
# 
# From -- ./inp_files/271927.got.cif
#   From: 2010.05.17/outbox.cif.g08.bks.cpg/sg2_136_cif.got.tgz:271927.got - 2010.06.03 11:33:40.
