data_PCOD9002098
_publ_section_title
;
Structure prediction by ZEFSAII (Michael W. Deem and Ramdas Pophale) SiO2 
 PCOD9002098
Probable space group: P -1
;
_chemical_formula_sum "Si O2"
_cell_formula_units_Z 14
_cell_length_a 15.251737
_cell_length_b 9.796373
_cell_length_c 12.041501
_cell_angle_alpha 45.103127
_cell_angle_beta 154.151406
_cell_angle_gamma 124.156408
_cell_volume 539.584120
_symmetry_space_group_name_H-M "P -1"
_symmetry_group_IT_number 2
_symmetry_cell_setting 'triclinic'
loop_
_space_group_symop_operation_xyz
x,y,z
-x,-y,-z
loop_
_atom_site_type_symbol
_atom_site_label
_atom_site_fract_x
_atom_site_fract_y
_atom_site_fract_z
Si Si1 0.050021 0.156419 0.265617
Si Si2 0.290558 0.050263 0.803554
Si Si3 0.701093 0.547505 0.143690
Si Si4 0.882284 0.483619 0.606745
Si Si5 0.248604 0.446809 0.211180
Si Si6 0.700365 0.003321 0.899636
Si Si7 0.505654 0.613363 0.665054
O O1 0.877041 0.357020 0.982964
O O2 0.127265 0.022404 0.538726
O O3 0.931678 0.033453 0.122317
O O4 0.235224 0.251884 0.378244
O O5 0.208678 0.283123 0.606427
O O6 0.500000 0.000000 0.000000
O O7 0.318855 0.955632 0.012484
O O8 0.672606 0.500668 0.009872
O O9 0.680368 0.782659 0.984459
O O10 0.500000 0.500000 0.000000
O O11 0.881630 0.452487 0.490995
O O12 0.712096 0.390815 0.525868
O O13 0.096528 0.416988 0.952411
O O14 0.440109 0.489115 0.333887
O O15 0.530158 0.157944 0.546106
#
# Coordination Sequence:
#
# PCOD9002098 Si02
#       7
#     2   2   2   2   2   2   2
#     4  10  21  38  56  89 130 151 193 251 293 351
#     4  10  21  36  57  87 121 159 196 238 297 362
#     4   9  21  41  63  84 118 159 198 252 303 344
#     4   9  20  40  58  86 123 151 196 254 292 345
#     4  10  21  37  60  90 122 158 195 241 300 355
#     4  11  21  37  62  88 118 157 198 251 298 344
#     4  11  21  37  66  86 112 166 205 236 297 360
#
# _framework density 25.945909
#
# number of rings (size 3 to 8) (size 9 to 14) (size 15 to 20)
#    0.000    2.000    1.429    1.714    2.000    1.143 
#    0.000    0.714    6.286    0.000    0.000    0.000 
#    0.000    0.000    0.000    0.000    0.000    0.000 
#
# Total GULP energy -78155.235488 kJ/mol
# GULP energy per Si atom -5582.516821 kJ/mol
# Density = 2.588685 g / cm^3
# Si number density = 25.945909 Si / 1000 Ang^3
#
#
#
# Elastic Constant Matrix: (Units=GPa)
#
#
# Indices 1 2 3 4 5 6 
#
# 1 115.6291 1.0654 11.2940 -9.5380 -29.0885 14.1207
# 2 1.0654 88.3909 -18.1841 -21.4424 -0.7613 14.2850
# 3 11.2940 -18.1841 92.8667 -8.8152 -29.6302 -3.4333
# 4 -9.5380 -21.4424 -8.8152 22.0568 2.9516 -10.6536
# 5 -29.0885 -0.7613 -29.6302 2.9516 52.7716 5.2077
# 6 14.1207 14.2850 -3.4333 -10.6536 5.2077 35.0082
#
#
#
# Elastic Compliance Matrix: (Units=1/GPa)
#
#
# Indices 1 2 3 4 5 6 
#
# 1 0.011305 0.002073 0.001602 0.004079 0.007437 -0.005114
# 2 0.002073 0.017500 0.006154 0.018733 0.004027 -0.002272
# 3 0.001602 0.006154 0.015873 0.012154 0.009131 0.000740
# 4 0.004079 0.018733 0.012154 0.076810 0.003592 0.014743
# 5 0.007437 0.004027 0.009131 0.003592 0.028717 -0.006926
# 6 -0.005114 -0.002272 0.000740 0.014743 -0.006926 0.037144
#
#
# Mechanical properties :
#
#
# Convention : Reuss Voigt Hill
#
# Bulk Modulus (GPa) = 15.54324 31.69305 23.61814
# Shear Modulus (GPa) = 26.43605 42.14809 34.29207
#
# Velocity S-wave (km/s) = 3.19547 4.03483 3.63943
# Velocity P-wave (km/s) = 4.42926 5.82650 5.17525
#
# Compressibility (1/GPa) = 0.06433666
#
# Stress axis : x y z
#
# Youngs Moduli (GPa) = 88.45867 57.14126 63.00126
#
# Poissons Ratio (x) = -0.11848 -0.10095
# Poissons Ratio (y) = -0.18342 -0.38768
# Poissons Ratio (z) = -0.14174 -0.35162
#
# Static dielectric constant tensor:
#      x y z
#    x 2.125840 0.080010 0.039130 
#    y 0.080010 2.089990 0.157190 
#    z 0.039130 0.157190 2.162730 
# 
# From -- ./inp_files/226831.got.cif
#   From: 2010.05.17/outbox.cif.g08.bks.cpg/sg2_114_cif.got.tgz:226831.got - 2010.06.03 11:33:40.
