data_PCOD9002118
_publ_section_title
;
Structure prediction by ZEFSAII (Michael W. Deem and Ramdas Pophale) SiO2 
 PCOD9002118
Probable space group: P -1
;
_chemical_formula_sum "Si O2"
_cell_formula_units_Z 16
_cell_length_a 8.155061
_cell_length_b 8.752825
_cell_length_c 11.913341
_cell_angle_alpha 83.931186
_cell_angle_beta 127.767290
_cell_angle_gamma 92.215430
_cell_volume 668.087493
_symmetry_space_group_name_H-M "P -1"
_symmetry_group_IT_number 2
_symmetry_cell_setting 'triclinic'
loop_
_space_group_symop_operation_xyz
x,y,z
-x,-y,-z
loop_
_atom_site_type_symbol
_atom_site_label
_atom_site_fract_x
_atom_site_fract_y
_atom_site_fract_z
Si Si1 0.990417 0.128728 0.840667
Si Si2 0.584698 0.356894 0.957595
Si Si3 0.176635 0.108738 0.518772
Si Si4 0.129370 0.665461 0.702595
Si Si5 0.809086 0.626176 0.928093
Si Si6 0.137414 0.315373 0.703344
Si Si7 0.458218 0.841645 0.696544
Si Si8 0.686244 0.059412 0.903719
O O1 0.975096 0.211354 0.709176
O O2 0.798882 0.057522 0.829919
O O3 0.080490 0.251952 0.956377
O O4 0.168859 0.997146 0.929180
O O5 0.632369 0.523910 0.917377
O O6 0.341981 0.325078 0.867421
O O7 0.643576 0.234779 0.896780
O O8 0.730407 0.336125 0.127516
O O9 0.208131 0.230740 0.624889
O O10 0.067774 0.218270 0.372371
O O11 0.363851 0.988404 0.574781
O O12 0.000000 0.000000 0.500000
O O13 0.065362 0.493690 0.656232
O O14 0.270516 0.730861 0.656011
O O15 0.666314 0.732720 0.773617
O O16 0.000000 0.500000 0.000000
O O17 0.506720 0.938879 0.823979
#
# Coordination Sequence:
#
# PCOD9002118 Si02
#       8
#     2   2   2   2   2   2   2   2
#     4  10  22  35  57  94 131 158 205 255 328 372
#     4  12  21  35  65  99 122 163 208 270 319 365
#     4  10  24  42  61  92 130 174 207 262 315 379
#     4  11  23  38  63  97 131 162 214 264 314 376
#     4  11  20  36  60  94 131 160 203 264 324 374
#     4  12  22  40  65  97 125 166 213 270 315 368
#     4  10  21  40  59  89 127 165 215 251 317 375
#     4  10  21  36  57  92 130 166 197 264 316 378
#
# _framework density 23.948958999999999
#
# number of rings (size 3 to 8) (size 9 to 14) (size 15 to 20)
#    0.000    1.250    5.000    2.250    3.500    1.000 
#    0.000    0.000    0.000    7.500    0.000    0.000 
#    0.000    0.000    0.000    0.000    0.000    0.000 
#
# Total GULP energy -89133.276797 kJ/mol
# GULP energy per Si atom -5570.829800 kJ/mol
# Density = 2.389445 g / cm^3
# Si number density = 23.948959 Si / 1000 Ang^3
#
#
#
# Elastic Constant Matrix: (Units=GPa)
#
#
# Indices 1 2 3 4 5 6 
#
# 1 49.4411 26.1241 19.0486 -17.7785 7.2987 4.2519
# 2 26.1241 121.5724 42.1183 -21.4492 9.0034 9.1102
# 3 19.0486 42.1183 94.5529 -27.7098 19.4765 -12.5503
# 4 -17.7785 -21.4492 -27.7098 47.2744 -8.6169 11.4605
# 5 7.2987 9.0034 19.4765 -8.6169 25.8997 -12.5362
# 6 4.2519 9.1102 -12.5503 11.4605 -12.5362 32.9239
#
#
#
# Elastic Compliance Matrix: (Units=1/GPa)
#
#
# Indices 1 2 3 4 5 6 
#
# 1 0.027286 -0.002507 -0.001432 0.009236 -0.007182 -0.009326
# 2 -0.002507 0.011310 -0.004045 0.002919 -0.002217 -0.006208
# 3 -0.001432 -0.004045 0.015986 0.004982 -0.007126 0.002950
# 4 0.009236 0.002919 0.004982 0.031285 -0.002790 -0.012053
# 5 -0.007182 -0.002217 -0.007126 -0.002790 0.056071 0.021145
# 6 -0.009326 -0.006208 0.002950 -0.012053 0.021145 0.046667
#
#
# Mechanical properties :
#
#
# Convention : Reuss Voigt Hill
#
# Bulk Modulus (GPa) = 25.89716 48.90537 37.40127
# Shear Modulus (GPa) = 22.99455 33.10463 28.04959
#
# Velocity S-wave (km/s) = 3.10199 3.72196 3.42603
# Velocity P-wave (km/s) = 4.86485 6.23985 5.59475
#
# Compressibility (1/GPa) = 0.03861427
#
# Stress axis : x y z
#
# Youngs Moduli (GPa) = 36.64887 88.41816 62.55512
#
# Poissons Ratio (x) = 0.22166 0.08958
# Poissons Ratio (y) = 0.09188 0.25303
# Poissons Ratio (z) = 0.05248 0.35764
#
# Static dielectric constant tensor:
#      x y z
#    x 2.000890 -0.048120 0.050570 
#    y -0.048120 1.901360 -0.065430 
#    z 0.050570 -0.065430 2.018960 
# 
# From -- ./inp_files/216732.got.cif
#   From: 2010.05.17/outbox.cif.g08.bks.cpg/sg2_109_cif.got.tgz:216732.got - 2010.06.03 11:33:40.
