data_PCOD9002754
_publ_section_title
;
Structure prediction by ZEFSAII (Michael W. Deem and Ramdas Pophale) SiO2 
 PCOD9002754
Probable space group: P -1
;
_chemical_formula_sum "Si O2"
_cell_formula_units_Z 16
_cell_length_a 19.689983
_cell_length_b 13.154186
_cell_length_c 6.814503
_cell_angle_alpha 82.059936
_cell_angle_beta 92.565871
_cell_angle_gamma 157.941736
_cell_volume 639.829862
_symmetry_space_group_name_H-M "P -1"
_symmetry_group_IT_number 2
_symmetry_cell_setting 'triclinic'
loop_
_space_group_symop_operation_xyz
x,y,z
-x,-y,-z
loop_
_atom_site_type_symbol
_atom_site_label
_atom_site_fract_x
_atom_site_fract_y
_atom_site_fract_z
Si Si1 0.533550 0.669037 0.476799
Si Si2 0.066662 0.354973 0.984008
Si Si3 0.427308 0.132345 0.929347
Si Si4 0.472338 0.987352 0.727247
Si Si5 0.154619 0.132321 0.468598
Si Si6 0.835451 0.368780 0.758300
Si Si7 0.893188 0.156795 0.611117
Si Si8 0.179299 0.290485 0.063243
O O1 0.500000 0.500000 0.500000
O O2 0.592374 0.800032 0.240521
O O3 0.680015 0.601113 0.435865
O O4 0.689847 0.911747 0.591686
O O5 0.268904 0.660086 0.836067
O O6 0.926989 0.168269 0.834067
O O7 0.032152 0.395080 0.125352
O O8 0.093829 0.282513 0.109114
O O9 0.602779 0.379637 0.036860
O O10 0.471124 0.101286 0.784496
O O11 0.244932 0.849491 0.108425
O O12 0.500000 0.000000 0.500000
O O13 0.649689 0.178170 0.788676
O O14 0.221763 0.257580 0.226941
O O15 0.000000 0.000000 0.500000
O O16 0.094457 0.930704 0.494858
O O17 0.946012 0.539790 0.524755
O O18 0.000000 0.000000 0.000000
#
# Coordination Sequence:
#
# PCOD9002754 Si02
#       8
#     2   2   2   2   2   2   2   2
#     4   9  22  42  62  89 133 174 211 259 324 389
#     4  11  20  35  58  92 129 165 211 267 327 370
#     4  10  21  39  62  93 131 170 213 271 325 376
#     4  11  20  35  62  97 131 167 209 278 328 371
#     4  10  21  36  64  91 119 169 217 266 318 373
#     4  11  21  37  63  93 131 161 214 277 322 377
#     4  11  22  38  63  89 128 171 210 258 327 394
#     4  11  19  33  57  91 129 161 208 267 318 375
#
# _framework density 25.006648999999999
#
# number of rings (size 3 to 8) (size 9 to 14) (size 15 to 20)
#    0.000    1.500    5.000    1.500    1.750    0.500 
#    0.000    2.500    8.250    3.000    0.000    0.000 
#    0.000    0.000    0.000    0.000    0.000    0.000 
#
# Total GULP energy -89172.306396 kJ/mol
# GULP energy per Si atom -5573.269150 kJ/mol
# Density = 2.494973 g / cm^3
# Si number density = 25.006649 Si / 1000 Ang^3
#
#
#
# Elastic Constant Matrix: (Units=GPa)
#
#
# Indices 1 2 3 4 5 6 
#
# 1 61.7208 36.9390 22.4986 -3.5077 18.3685 2.3685
# 2 36.9390 127.4190 33.5228 23.8629 20.8273 3.1898
# 3 22.4986 33.5228 99.8857 11.2302 21.3677 -13.1585
# 4 -3.5077 23.8629 11.2302 50.3552 -3.1972 15.1748
# 5 18.3685 20.8273 21.3677 -3.1972 36.3371 5.9375
# 6 2.3685 3.1898 -13.1585 15.1748 5.9375 38.0190
#
#
#
# Elastic Compliance Matrix: (Units=1/GPa)
#
#
# Indices 1 2 3 4 5 6 
#
# 1 0.022964 -0.005982 -0.003183 0.005889 -0.005206 -0.003568
# 2 -0.005982 0.011663 -0.000491 -0.006922 -0.004419 0.002677
# 3 -0.003183 -0.000491 0.014803 -0.006702 -0.008946 0.009435
# 4 0.005889 -0.006922 -0.006702 0.030472 0.010204 -0.015862
# 5 -0.005206 -0.004419 -0.008946 0.010204 0.040946 -0.012869
# 6 -0.003568 0.002677 0.009435 -0.015862 -0.012869 0.037907
#
#
# Mechanical properties :
#
#
# Convention : Reuss Voigt Hill
#
# Bulk Modulus (GPa) = 33.20278 52.77181 42.98730
# Shear Modulus (GPa) = 26.58083 38.01327 32.29705
#
# Velocity S-wave (km/s) = 3.26383 3.90311 3.59770
# Velocity P-wave (km/s) = 5.24498 6.43904 5.87244
#
# Compressibility (1/GPa) = 0.03011796
#
# Stress axis : x y z
#
# Youngs Moduli (GPa) = 43.54701 85.74110 67.55279
#
# Poissons Ratio (x) = 0.51293 0.21502
# Poissons Ratio (y) = 0.26051 0.03314
# Poissons Ratio (z) = 0.13861 0.04207
#
# Static dielectric constant tensor:
#      x y z
#    x 1.968170 -0.087070 0.211820 
#    y -0.087070 1.857930 0.581890 
#    z 0.211820 0.581890 0.714560 
# 
# From -- ./inp_files/354338.got.cif
#   From: 2010.05.17/outbox.cif.g08.bks.cpg/sg2_178_cif.got.tgz:354338.got - 2010.06.03 11:33:40.
