data_PCOD9002875
_publ_section_title
;
Structure prediction by ZEFSAII (Michael W. Deem and Ramdas Pophale) SiO2 
 PCOD9002875
Probable space group: P -1
;
_chemical_formula_sum "Si O2"
_cell_formula_units_Z 16
_cell_length_a 9.370263
_cell_length_b 10.285091
_cell_length_c 11.806868
_cell_angle_alpha 108.855278
_cell_angle_beta 103.505841
_cell_angle_gamma 118.143449
_cell_volume 841.818473
_symmetry_space_group_name_H-M "P -1"
_symmetry_group_IT_number 2
_symmetry_cell_setting 'triclinic'
loop_
_space_group_symop_operation_xyz
x,y,z
-x,-y,-z
loop_
_atom_site_type_symbol
_atom_site_label
_atom_site_fract_x
_atom_site_fract_y
_atom_site_fract_z
Si Si1 0.162862 0.934825 0.701720
Si Si2 0.411239 0.099125 0.013943
Si Si3 0.021291 0.161575 0.728461
Si Si4 0.511112 0.609427 0.363822
Si Si5 0.860432 0.969893 0.868395
Si Si6 0.343341 0.004170 0.528689
Si Si7 0.408379 0.512394 0.874582
Si Si8 0.782631 0.656332 0.617997
O O1 0.988003 0.743287 0.641662
O O2 0.083762 0.039454 0.675870
O O3 0.291876 0.944354 0.632297
O O4 0.268443 0.024314 0.862356
O O5 0.307204 0.059959 0.102629
O O6 0.548107 0.302519 0.077293
O O7 0.500000 0.000000 0.000000
O O8 0.194943 0.354442 0.793567
O O9 0.960520 0.121801 0.837870
O O10 0.845139 0.104644 0.607341
O O11 0.584327 0.800026 0.404768
O O12 0.500192 0.514065 0.222086
O O13 0.656387 0.616451 0.475516
O O14 0.321033 0.508528 0.368133
O O15 0.794651 0.802758 0.735837
O O16 0.000000 0.000000 0.000000
O O17 0.500000 0.000000 0.500000
O O18 0.500000 0.500000 0.000000
#
# Coordination Sequence:
#
# PCOD9002875 Si02
#       8
#     2   2   2   2   2   2   2   2
#     4  11  21  43  66  90 123 174 218 259 320 396
#     4  12  26  41  65  97 135 165 206 282 335 375
#     4  11  22  40  70  91 126 172 225 261 315 390
#     4  11  21  38  64  95 123 165 217 263 311 387
#     4  11  19  40  66  94 120 173 219 258 317 396
#     4  12  25  42  63  95 134 166 210 276 337 374
#     4  12  22  41  69  98 124 172 230 262 311 404
#     4  10  21  36  67  92 117 162 226 257 301 378
#
# _framework density 19.006471999999999
#
# number of rings (size 3 to 8) (size 9 to 14) (size 15 to 20)
#    0.000    0.750    8.750    1.125    1.750    0.000 
#    2.250    1.250    0.000    0.000    0.000    0.000 
#    0.000    0.000    0.000    0.000    0.000    0.000 
#
# Total GULP energy -89385.397715 kJ/mol
# GULP energy per Si atom -5586.587357 kJ/mol
# Density = 1.896321 g / cm^3
# Si number density = 19.006472 Si / 1000 Ang^3
#
#
#
# Elastic Constant Matrix: (Units=GPa)
#
#
# Indices 1 2 3 4 5 6 
#
# 1 93.8862 35.3851 19.2681 1.9488 -11.2921 19.6825
# 2 35.3851 100.6582 14.8328 14.1082 -3.6391 30.6731
# 3 19.2681 14.8328 76.9702 -7.7424 -8.2533 5.2590
# 4 1.9488 14.1082 -7.7424 28.1649 15.2177 0.5065
# 5 -11.2921 -3.6391 -8.2533 15.2177 31.6588 -4.1494
# 6 19.6825 30.6731 5.2590 0.5065 -4.1494 42.0836
#
#
#
# Elastic Compliance Matrix: (Units=1/GPa)
#
#
# Indices 1 2 3 4 5 6 
#
# 1 0.013552 -0.002801 -0.002376 -0.002674 0.004719 -0.003502
# 2 -0.002801 0.015670 -0.002292 -0.010224 0.003898 -0.009318
# 3 -0.002376 -0.002292 0.014514 0.005099 0.000345 0.000941
# 4 -0.002674 -0.010224 0.005099 0.057049 -0.027611 0.004657
# 5 0.004719 0.003898 0.000345 -0.027611 0.047064 -0.000118
# 6 -0.003502 -0.009318 0.000941 0.004657 -0.000118 0.032006
#
#
# Mechanical properties :
#
#
# Convention : Reuss Voigt Hill
#
# Bulk Modulus (GPa) = 34.72646 45.60962 40.16804
# Shear Modulus (GPa) = 24.46246 33.85002 29.15624
#
# Velocity S-wave (km/s) = 3.59145 4.22474 3.92090
# Velocity P-wave (km/s) = 5.95891 6.91714 6.45583
#
# Compressibility (1/GPa) = 0.02879649
#
# Stress axis : x y z
#
# Youngs Moduli (GPa) = 73.79047 63.81440 68.89739
#
# Poissons Ratio (x) = 0.17876 0.16373
# Poissons Ratio (y) = 0.20670 0.15795
# Poissons Ratio (z) = 0.17536 0.14629
#
# Static dielectric constant tensor:
#      x y z
#    x 1.666080 0.035110 0.003950 
#    y 0.035110 1.670920 -0.007000 
#    z 0.003950 -0.007000 1.653650 
# 
# From -- ./inp_files/263456.got.cif
#   From: 2010.05.17/outbox.cif.g08.bks.cpg/sg2_132_cif.got.tgz:263456.got - 2010.06.03 11:33:40.
