data_PCOD9002828
_publ_section_title
;
Structure prediction by ZEFSAII (Michael W. Deem and Ramdas Pophale) SiO2 
 PCOD9002828
Probable space group: P -1
;
_chemical_formula_sum "Si O2"
_cell_formula_units_Z 14
_cell_length_a 17.132745
_cell_length_b 11.430839
_cell_length_c 19.733235
_cell_angle_alpha 21.197786
_cell_angle_beta 22.838848
_cell_angle_gamma 31.064829
_cell_volume 542.286858
_symmetry_space_group_name_H-M "P -1"
_symmetry_group_IT_number 2
_symmetry_cell_setting 'triclinic'
loop_
_space_group_symop_operation_xyz
x,y,z
-x,-y,-z
loop_
_atom_site_type_symbol
_atom_site_label
_atom_site_fract_x
_atom_site_fract_y
_atom_site_fract_z
Si Si1 0.807506 0.455388 0.842583
Si Si2 0.231240 0.168624 0.992671
Si Si3 0.164017 0.775303 0.455910
Si Si4 0.159956 0.262479 0.845002
Si Si5 0.540015 0.673017 0.065079
Si Si6 0.848929 0.770194 0.503610
Si Si7 0.297075 0.732597 0.740989
O O1 0.671860 0.556247 0.959118
O O2 0.745195 0.631654 0.728024
O O3 0.038336 0.570109 0.612324
O O4 0.804619 0.076108 0.036824
O O5 0.254323 0.250179 0.850807
O O6 0.292571 0.467239 0.828631
O O7 0.350911 0.850383 0.089667
O O8 0.997258 0.069397 0.243807
O O9 0.238033 0.544403 0.581299
O O10 0.331375 0.032906 0.160691
O O11 0.000000 0.000000 0.500000
O O12 0.918278 0.295249 0.032198
O O13 0.530538 0.383459 0.283378
O O14 0.000000 0.500000 0.500000
O O15 0.705102 0.918444 0.481807
#
# Coordination Sequence:
#
# PCOD9002828 Si02
#       7
#     2   2   2   2   2   2   2
#     4  11  22  40  71  92 129 162 223 262 308 385
#     4  11  25  41  66  92 138 163 211 268 323 375
#     4  10  21  36  65  94 122 165 216 257 306 380
#     4  11  21  40  66  99 119 170 215 265 316 368
#     4  11  25  43  64  97 131 168 210 266 329 368
#     4  11  22  41  67  95 123 168 220 251 314 385
#     4  11  22  41  66  91 130 170 215 254 313 384
#
# _framework density 25.816595
#
# number of rings (size 3 to 8) (size 9 to 14) (size 15 to 20)
#    0.000    1.143    5.714    3.429    6.000    1.143 
#    0.000    0.714    0.000    0.000    0.000    0.000 
#    0.000    0.000    0.000    0.000    0.000    0.000 
#
# Total GULP energy -78523.494063 kJ/mol
# GULP energy per Si atom -5608.821004 kJ/mol
# Density = 2.575784 g / cm^3
# Si number density = 25.816595 Si / 1000 Ang^3
#
#
#
# Elastic Constant Matrix: (Units=GPa)
#
#
# Indices 1 2 3 4 5 6 
#
# 1 158.3678 66.2215 56.7673 -27.5748 35.8106 -16.4326
# 2 66.2215 127.9586 43.8122 -23.9113 14.4157 -1.0820
# 3 56.7673 43.8122 102.2323 -28.1359 31.5932 -1.3735
# 4 -27.5748 -23.9113 -28.1359 46.2632 -15.4487 4.3884
# 5 35.8106 14.4157 31.5932 -15.4487 54.4565 -13.2020
# 6 -16.4326 -1.0820 -1.3735 4.3884 -13.2020 51.3510
#
#
#
# Elastic Compliance Matrix: (Units=1/GPa)
#
#
# Indices 1 2 3 4 5 6 
#
# 1 0.009919 -0.003643 -0.002605 0.001176 -0.003204 0.002104
# 2 -0.003643 0.010817 -0.002364 0.002535 0.001416 -0.000854
# 3 -0.002605 -0.002364 0.015320 0.004848 -0.005747 -0.002365
# 4 0.001176 0.002535 0.004848 0.027800 0.003401 -0.000942
# 5 -0.003204 0.001416 -0.005747 0.003401 0.025644 0.005153
# 6 0.002104 -0.000854 -0.002365 -0.000942 0.005153 0.021471
#
#
# Mechanical properties :
#
#
# Convention : Reuss Voigt Hill
#
# Bulk Modulus (GPa) = 53.10109 80.24009 66.67059
# Shear Modulus (GPa) = 37.18291 45.19800 41.19045
#
# Velocity S-wave (km/s) = 3.79921 4.18872 3.99871
# Velocity P-wave (km/s) = 6.31336 7.38526 6.87025
#
# Compressibility (1/GPa) = 0.01883201
#
# Stress axis : x y z
#
# Youngs Moduli (GPa) = 100.81933 92.44856 65.27616
#
# Poissons Ratio (x) = 0.33679 0.17001
# Poissons Ratio (y) = 0.36728 0.15431
# Poissons Ratio (z) = 0.26259 0.21855
#
# Static dielectric constant tensor:
#      x y z
#    x 2.055460 -0.040680 -0.024950 
#    y -0.040680 2.011830 0.021810 
#    z -0.024950 0.021810 2.004430 
# 
# From -- ./inp_files/156684.got.cif
#   From: 2010.05.17/outbox.cif.g08.bks.cpg/sg2_79_cif.got.tgz:156684.got - 2010.06.03 11:33:40.
