data_PCOD9002646
_publ_section_title
;
Structure prediction by ZEFSAII (Michael W. Deem and Ramdas Pophale) SiO2 
 PCOD9002646
Probable space group: P -1
;
_chemical_formula_sum "Si O2"
_cell_formula_units_Z 12
_cell_length_a 10.973599
_cell_length_b 16.364862
_cell_length_c 11.120589
_cell_angle_alpha 22.297196
_cell_angle_beta 62.352906
_cell_angle_gamma 49.647293
_cell_volume 510.565951
_symmetry_space_group_name_H-M "P -1"
_symmetry_group_IT_number 2
_symmetry_cell_setting 'triclinic'
loop_
_space_group_symop_operation_xyz
x,y,z
-x,-y,-z
loop_
_atom_site_type_symbol
_atom_site_label
_atom_site_fract_x
_atom_site_fract_y
_atom_site_fract_z
Si Si1 0.811301 0.266677 0.785997
Si Si2 0.088638 0.421027 0.780012
Si Si3 0.709001 0.209435 0.546049
Si Si4 0.652751 0.578870 0.674147
Si Si5 0.112818 0.675245 0.851315
Si Si6 0.710849 0.986223 0.094580
O O1 0.775022 0.518276 0.381137
O O2 0.796308 0.359243 0.804695
O O3 0.693969 0.166675 0.968083
O O4 0.000000 0.000000 0.000000
O O5 0.913029 0.676368 0.435646
O O6 0.004297 0.422276 0.943211
O O7 0.174056 0.117967 0.101346
O O8 0.523861 0.381946 0.321918
O O9 0.806567 0.333929 0.300273
O O10 0.680621 0.183134 0.732843
O O11 0.599212 0.883630 0.265393
O O12 0.732818 0.489643 0.892263
O O13 0.000000 0.000000 0.500000
#
# Coordination Sequence:
#
# PCOD9002646 Si02
#       6
#     2   2   2   2   2   2
#     4  10  22  35  62  88 112 150 199 233 285 336
#     4   9  19  37  57  84 115 150 194 229 275 343
#     4  11  20  36  61  89 115 154 188 235 294 336
#     4  11  22  39  60  85 121 148 188 245 287 334
#     4   9  21  35  64  82 110 160 193 226 289 347
#     4  10  21  36  63  84 118 149 193 235 283 340
#
# _framework density 23.503329999999998
#
# number of rings (size 3 to 8) (size 9 to 14) (size 15 to 20)
#    0.000    2.000    1.667    1.500   11.667    0.667 
#    0.000    0.833   11.000   10.000    0.000    0.000 
#    0.000    0.000    0.000    0.000    0.000    0.000 
#
# Total GULP energy -66821.644884 kJ/mol
# GULP energy per Si atom -5568.470407 kJ/mol
# Density = 2.344984 g / cm^3
# Si number density = 23.503330 Si / 1000 Ang^3
#
#
#
# Elastic Constant Matrix: (Units=GPa)
#
#
# Indices 1 2 3 4 5 6 
#
# 1 39.6803 3.9278 7.4969 -9.8301 -20.4757 5.0563
# 2 3.9278 35.1655 34.8254 3.1301 -10.9975 2.1450
# 3 7.4969 34.8254 77.6441 4.0900 1.6910 3.1272
# 4 -9.8301 3.1301 4.0900 38.2917 -7.2245 -0.5724
# 5 -20.4757 -10.9975 1.6910 -7.2245 40.8401 -4.7409
# 6 5.0563 2.1450 3.1272 -0.5724 -4.7409 25.3248
#
#
#
# Elastic Compliance Matrix: (Units=1/GPa)
#
#
# Indices 1 2 3 4 5 6 
#
# 1 0.047282 0.016544 -0.013515 0.018149 0.031600 -0.002847
# 2 0.016544 0.067817 -0.033095 0.007794 0.029389 0.000717
# 3 -0.013515 -0.033095 0.029896 -0.007467 -0.018457 -0.001814
# 4 0.018149 0.007794 -0.007467 0.034276 0.017654 0.000718
# 5 0.031600 0.029389 -0.018457 0.017654 0.052562 0.003719
# 6 -0.002847 0.000717 -0.001814 0.000718 0.003719 0.040931
#
#
# Mechanical properties :
#
#
# Convention : Reuss Voigt Hill
#
# Bulk Modulus (GPa) = 11.78352 27.22114 19.50233
# Shear Modulus (GPa) = 13.84333 27.97398 20.90865
#
# Velocity S-wave (km/s) = 2.42955 3.45369 2.98586
# Velocity P-wave (km/s) = 3.59093 5.24509 4.49476
#
# Compressibility (1/GPa) = 0.08486431
#
# Stress axis : x y z
#
# Youngs Moduli (GPa) = 21.14952 14.74556 33.44879
#
# Poissons Ratio (x) = -0.24396 0.45208
# Poissons Ratio (y) = -0.34990 1.10698
# Poissons Ratio (z) = 0.28585 0.48800
#
# Static dielectric constant tensor:
#      x y z
#    x 2.044820 -0.098570 -0.007490 
#    y -0.098570 1.971260 0.023930 
#    z -0.007490 0.023930 1.896340 
# 
# From -- ./inp_files/151207.got.cif
#   From: 2010.05.17/outbox.cif.g08.bks.cpg/sg2_76_cif.got.tgz:151207.got - 2010.06.03 11:33:40.
