data_PCOD9002800
_publ_section_title
;
Structure prediction by ZEFSAII (Michael W. Deem and Ramdas Pophale) SiO2 
 PCOD9002800
Probable space group: P -1
;
_chemical_formula_sum "Si O2"
_cell_formula_units_Z 16
_cell_length_a 18.065024
_cell_length_b 10.221614
_cell_length_c 8.619894
_cell_angle_alpha 117.663047
_cell_angle_beta 121.642800
_cell_angle_gamma 25.942761
_cell_volume 592.685241
_symmetry_space_group_name_H-M "P -1"
_symmetry_group_IT_number 2
_symmetry_cell_setting 'triclinic'
loop_
_space_group_symop_operation_xyz
x,y,z
-x,-y,-z
loop_
_atom_site_type_symbol
_atom_site_label
_atom_site_fract_x
_atom_site_fract_y
_atom_site_fract_z
Si Si1 0.834008 0.305397 0.769672
Si Si2 0.743081 0.318416 0.372533
Si Si3 0.397167 0.748766 0.653724
Si Si4 0.813547 0.676719 0.422822
Si Si5 0.389965 0.012993 0.342672
Si Si6 0.522410 0.967103 0.826477
Si Si7 0.647100 0.358035 0.978882
Si Si8 0.943880 0.846988 0.822624
O O1 0.856879 0.252066 0.578440
O O2 0.631047 0.657464 0.739964
O O3 0.885652 0.074634 0.780487
O O4 0.919195 0.300224 0.976583
O O5 0.736801 0.165004 0.357618
O O6 0.538032 0.673150 0.351828
O O7 0.768212 0.268732 0.186327
O O8 0.500000 0.500000 0.500000
O O9 0.288450 0.039323 0.616398
O O10 0.535327 0.600380 0.854216
O O11 0.786469 0.733207 0.609515
O O12 0.680679 0.733742 0.284886
O O13 0.019934 0.613410 0.659075
O O14 0.500000 0.000000 0.500000
O O15 0.371809 0.061992 0.165214
O O16 0.500000 0.000000 0.000000
O O17 0.500000 0.500000 0.000000
O O18 0.774639 0.061436 0.860356
#
# Coordination Sequence:
#
# PCOD9002800 Si02
#       8
#     2   2   2   2   2   2   2   2
#     4  11  23  43  66 104 146 186 231 287 376 424
#     4  11  22  42  68 102 135 186 240 288 353 424
#     4  11  21  44  76  95 133 191 247 283 349 432
#     4  11  22  41  66 105 140 181 244 297 347 426
#     4  10  21  36  65 103 135 175 236 287 346 419
#     4  11  21  39  67  99 138 191 227 286 354 432
#     4  10  25  44  69  98 135 193 243 289 350 432
#     4  11  25  42  67 107 146 183 237 302 365 417
#
# _framework density 26.995778999999999
#
# number of rings (size 3 to 8) (size 9 to 14) (size 15 to 20)
#    0.000    1.250    5.000    1.500    3.500    1.500 
#    2.250    5.000    0.000    0.000    0.000    0.000 
#    0.000    0.000    0.000    0.000    0.000    0.000 
#
# Total GULP energy -89367.953960 kJ/mol
# GULP energy per Si atom -5585.497122 kJ/mol
# Density = 2.693433 g / cm^3
# Si number density = 26.995779 Si / 1000 Ang^3
#
#
#
# Elastic Constant Matrix: (Units=GPa)
#
#
# Indices 1 2 3 4 5 6 
#
# 1 100.2301 52.0925 32.6185 9.5574 -40.4363 -1.7638
# 2 52.0925 158.2110 57.4362 34.8855 -22.6330 -8.9068
# 3 32.6185 57.4362 227.4284 10.2150 -31.6066 -9.7574
# 4 9.5574 34.8855 10.2150 58.3011 -12.1181 -5.6599
# 5 -40.4363 -22.6330 -31.6066 -12.1181 53.2593 7.8248
# 6 -1.7638 -8.9068 -9.7574 -5.6599 7.8248 47.3705
#
#
#
# Elastic Compliance Matrix: (Units=1/GPa)
#
#
# Indices 1 2 3 4 5 6 
#
# 1 0.016709 -0.004478 0.000177 0.002151 0.011650 -0.001851
# 2 -0.004478 0.009270 -0.001678 -0.004777 -0.001681 0.000938
# 3 0.000177 -0.001678 0.005139 0.000645 0.002559 0.000404
# 4 0.002151 -0.004777 0.000645 0.020584 0.004519 0.001028
# 5 0.011650 -0.001681 0.002559 0.004519 0.030008 -0.003772
# 6 -0.001851 0.000938 0.000404 0.001028 -0.003772 0.022047
#
#
# Mechanical properties :
#
#
# Convention : Reuss Voigt Hill
#
# Bulk Modulus (GPa) = 52.18762 85.57375 68.88068
# Shear Modulus (GPa) = 40.95028 54.70101 47.82564
#
# Velocity S-wave (km/s) = 3.89898 4.50631 4.21360
# Velocity P-wave (km/s) = 6.29628 7.67095 7.01736
#
# Compressibility (1/GPa) = 0.01916163
#
# Stress axis : x y z
#
# Youngs Moduli (GPa) = 59.84894 107.87762 194.58216
#
# Poissons Ratio (x) = 0.48306 -0.03452
# Poissons Ratio (y) = 0.26799 0.32643
# Poissons Ratio (z) = -0.01062 0.18098
#
# Static dielectric constant tensor:
#      x y z
#    x 2.276030 -0.049890 0.045850 
#    y -0.049890 2.079690 0.019620 
#    z 0.045850 0.019620 2.278550 
# 
# From -- ./inp_files/344755.got.cif
#   From: 2010.05.17/outbox.cif.g08.bks.cpg/sg2_173_cif.got.tgz:344755.got - 2010.06.03 11:33:40.
