data_PCOD9002301
_publ_section_title
;
Structure prediction by ZEFSAII (Michael W. Deem and Ramdas Pophale) SiO2 
 PCOD9002301
Probable space group: P -1
;
_chemical_formula_sum "Si O2"
_cell_formula_units_Z 16
_cell_length_a 8.421576
_cell_length_b 9.543293
_cell_length_c 13.268744
_cell_angle_alpha 70.985426
_cell_angle_beta 134.399696
_cell_angle_gamma 85.757121
_cell_volume 644.376920
_symmetry_space_group_name_H-M "P -1"
_symmetry_group_IT_number 2
_symmetry_cell_setting 'triclinic'
loop_
_space_group_symop_operation_xyz
x,y,z
-x,-y,-z
loop_
_atom_site_type_symbol
_atom_site_label
_atom_site_fract_x
_atom_site_fract_y
_atom_site_fract_z
Si Si1 0.058119 0.069039 0.780872
Si Si2 0.199009 0.593622 0.777799
Si Si3 0.194513 0.341209 0.684236
Si Si4 0.877820 0.571229 0.821371
Si Si5 0.252335 0.083302 0.272135
Si Si6 0.008681 0.232961 0.922719
Si Si7 0.561983 0.175136 0.127045
Si Si8 0.706152 0.870909 0.394333
O O1 0.061834 0.232383 0.695295
O O2 0.973385 0.125470 0.844639
O O3 0.326780 0.918663 0.907406
O O4 0.874673 0.989105 0.687235
O O5 0.289713 0.424913 0.792752
O O6 0.388094 0.669338 0.864300
O O7 0.077884 0.576437 0.831713
O O8 0.967994 0.736411 0.581813
O O9 0.378176 0.218057 0.711140
O O10 0.000000 0.500000 0.500000
O O11 0.692677 0.763621 0.706310
O O12 0.811977 0.426845 0.786247
O O13 0.000000 0.500000 0.000000
O O14 0.499187 0.939402 0.371076
O O15 0.054480 0.166290 0.072528
O O16 0.279938 0.216055 0.014496
O O17 0.715673 0.028423 0.309480
#
# Coordination Sequence:
#
# PCOD9002301 Si02
#       8
#     2   2   2   2   2   2   2   2
#     4  11  19  37  60  84 117 157 194 239 292 343
#     4  11  19  39  63  84 117 158 192 241 296 339
#     4   9  20  38  61  84 118 153 196 243 287 339
#     4  10  21  38  58  83 124 154 191 243 290 346
#     4  10  21  39  58  89 118 151 198 238 287 355
#     4  10  21  38  58  83 120 154 192 243 291 341
#     4  10  21  36  59  92 112 148 201 243 287 349
#     4   9  21  39  62  87 120 149 195 244 288 347
#
# _framework density 24.830188
#
# number of rings (size 3 to 8) (size 9 to 14) (size 15 to 20)
#    0.000    2.000    2.500    1.125    0.000    1.000 
#    0.000    7.500    0.000    0.000    0.000    0.000 
#    0.000    0.000    0.000    0.000    0.000    0.000 
#
# Total GULP energy -89377.408767 kJ/mol
# GULP energy per Si atom -5586.088048 kJ/mol
# Density = 2.477367 g / cm^3
# Si number density = 24.830188 Si / 1000 Ang^3
#
#
#
# Elastic Constant Matrix: (Units=GPa)
#
#
# Indices 1 2 3 4 5 6 
#
# 1 44.2963 52.8915 11.1367 -5.4836 -8.3803 -10.5782
# 2 52.8915 201.6535 33.9804 -27.9102 -3.6337 2.1867
# 3 11.1367 33.9804 71.1737 -10.4343 -14.5198 3.0051
# 4 -5.4836 -27.9102 -10.4343 36.2283 -1.1086 -3.6414
# 5 -8.3803 -3.6337 -14.5198 -1.1086 29.1761 -6.0754
# 6 -10.5782 2.1867 3.0051 -3.6414 -6.0754 43.8918
#
#
#
# Elastic Compliance Matrix: (Units=1/GPa)
#
#
# Indices 1 2 3 4 5 6 
#
# 1 0.040462 -0.010694 0.000937 -0.000229 0.013254 0.012036
# 2 -0.010694 0.008702 -0.002538 0.003936 -0.003732 -0.003027
# 3 0.000937 -0.002538 0.017422 0.003546 0.008901 0.000685
# 4 -0.000229 0.003936 0.003546 0.032016 0.003970 0.002712
# 5 0.013254 -0.003732 0.008901 0.003970 0.044114 0.009206
# 6 0.012036 -0.003027 0.000685 0.002712 0.009206 0.027287
#
#
# Mechanical properties :
#
#
# Convention : Reuss Voigt Hill
#
# Bulk Modulus (GPa) = 23.81206 57.01562 40.41384
# Shear Modulus (GPa) = 23.97031 36.46690 30.21861
#
# Velocity S-wave (km/s) = 3.11041 3.83646 3.49235
# Velocity P-wave (km/s) = 4.74450 6.52967 5.70732
#
# Compressibility (1/GPa) = 0.04199554
#
# Stress axis : x y z
#
# Youngs Moduli (GPa) = 24.71447 114.91781 57.39948
#
# Poissons Ratio (x) = 1.22893 -0.05376
# Poissons Ratio (y) = 0.26430 0.14566
# Poissons Ratio (z) = -0.02315 0.29162
#
# Static dielectric constant tensor:
#      x y z
#    x 1.935670 -0.048590 -0.071960 
#    y -0.048590 2.036660 0.015400 
#    z -0.071960 0.015400 2.021250 
# 
# From -- ./inp_files/177783.got.cif
#   From: 2010.05.17/outbox.cif.g08.bks.cpg/sg2_89_cif.got.tgz:177783.got - 2010.06.03 11:33:40.
