data_PCOD9002063
_publ_section_title
;
Structure prediction by ZEFSAII (Michael W. Deem and Ramdas Pophale) SiO2 
 PCOD9002063
Probable space group: P -1
;
_chemical_formula_sum "Si O2"
_cell_formula_units_Z 16
_cell_length_a 6.614627
_cell_length_b 23.654205
_cell_length_c 10.892422
_cell_angle_alpha 150.244298
_cell_angle_beta 110.656757
_cell_angle_gamma 76.265279
_cell_volume 782.714360
_symmetry_space_group_name_H-M "P -1"
_symmetry_group_IT_number 2
_symmetry_cell_setting 'triclinic'
loop_
_space_group_symop_operation_xyz
x,y,z
-x,-y,-z
loop_
_atom_site_type_symbol
_atom_site_label
_atom_site_fract_x
_atom_site_fract_y
_atom_site_fract_z
Si Si1 0.423928 0.038181 0.853768
Si Si2 0.160140 0.696440 0.274714
Si Si3 0.424269 0.374499 0.627662
Si Si4 0.069945 0.174873 0.109895
Si Si5 0.434270 0.776678 0.272362
Si Si6 0.403838 0.872267 0.190342
Si Si7 0.717790 0.595672 0.079240
Si Si8 0.878040 0.108755 0.197075
O O1 0.478863 0.123133 0.907962
O O2 0.434640 0.907476 0.567340
O O3 0.200727 0.066585 0.916745
O O4 0.622562 0.069853 0.048791
O O5 0.375028 0.680772 0.371574
O O6 0.226407 0.705766 0.164354
O O7 0.092762 0.816319 0.533873
O O8 0.957482 0.601295 0.086234
O O9 0.256614 0.285632 0.346698
O O10 0.294439 0.411584 0.788983
O O11 0.543895 0.486608 0.794993
O O12 0.973758 0.185089 0.245099
O O13 0.856644 0.150812 0.933493
O O14 0.443513 0.785985 0.145140
O O15 0.629216 0.712936 0.242195
O O16 0.500000 0.000000 0.500000
O O17 0.000000 0.000000 0.000000
#
# Coordination Sequence:
#
# PCOD9002063 Si02
#       8
#     2   2   2   2   2   2   2   2
#     4  10  21  36  57  84 116 152 188 232 285 343
#     4  11  20  34  57  85 115 151 184 232 288 343
#     4  10  21  37  58  85 114 152 196 226 289 345
#     4  11  21  37  59  86 114 154 189 237 282 343
#     4  10  22  37  57  84 112 153 195 231 287 339
#     4   9  22  41  58  83 114 155 197 233 281 341
#     4  10  21  38  57  82 119 151 187 243 279 338
#     4  11  21  31  53  87 122 146 179 232 289 342
#
# _framework density 20.441685
#
# number of rings (size 3 to 8) (size 9 to 14) (size 15 to 20)
#    0.000    1.750    2.500    1.875    1.750    6.000 
#    0.000    0.625    0.000    1.500    0.000    0.000 
#    0.000    0.000    0.000    0.000    0.000    0.000 
#
# Total GULP energy -89209.899141 kJ/mol
# GULP energy per Si atom -5575.618696 kJ/mol
# Density = 2.039516 g / cm^3
# Si number density = 20.441685 Si / 1000 Ang^3
#
#
#
# Elastic Constant Matrix: (Units=GPa)
#
#
# Indices 1 2 3 4 5 6 
#
# 1 104.4947 38.3350 25.7735 5.0494 21.2762 9.0153
# 2 38.3350 57.8512 10.7086 3.2222 9.2218 16.0314
# 3 25.7735 10.7086 84.3549 2.0687 22.5752 -1.6648
# 4 5.0494 3.2222 2.0687 19.5301 -4.8060 2.4217
# 5 21.2762 9.2218 22.5752 -4.8060 35.8990 7.2462
# 6 9.0153 16.0314 -1.6648 2.4217 7.2462 25.7169
#
#
#
# Elastic Compliance Matrix: (Units=1/GPa)
#
#
# Indices 1 2 3 4 5 6 
#
# 1 0.014415 -0.008727 -0.001422 -0.004033 -0.006450 0.002492
# 2 -0.008727 0.027036 -0.001667 0.000336 0.002261 -0.014571
# 3 -0.001422 -0.001667 0.015442 -0.004216 -0.010175 0.005801
# 4 -0.004033 0.000336 -0.004216 0.057216 0.014330 -0.008494
# 5 -0.006450 0.002261 -0.010175 0.014330 0.042039 -0.013002
# 6 0.002492 -0.014571 0.005801 -0.008494 -0.013002 0.051934
#
#
# Mechanical properties :
#
#
# Convention : Reuss Voigt Hill
#
# Bulk Modulus (GPa) = 30.06499 44.03723 37.05111
# Shear Modulus (GPa) = 20.59302 27.68810 24.14056
#
# Velocity S-wave (km/s) = 3.17740 3.68434 3.44022
# Velocity P-wave (km/s) = 5.31044 6.29990 5.82621
#
# Compressibility (1/GPa) = 0.03326128
#
# Stress axis : x y z
#
# Youngs Moduli (GPa) = 69.37019 36.98818 64.75965
#
# Poissons Ratio (x) = 0.32279 0.09211
# Poissons Ratio (y) = 0.60538 0.10794
# Poissons Ratio (z) = 0.09866 0.06165
#
# Static dielectric constant tensor:
#      x y z
#    x 1.754400 0.011880 0.004450 
#    y 0.011880 1.765330 0.042650 
#    z 0.004450 0.042650 1.777800 
# 
# From -- ./inp_files/69787.got.cif
#   From: 2010.05.17/outbox.cif.g08.bks.cpg/sg2_35_cif.got.tgz:69787.got - 2010.06.03 11:33:40.
