data_PCOD9002844
_publ_section_title
;
Structure prediction by ZEFSAII (Michael W. Deem and Ramdas Pophale) SiO2 
 PCOD9002844
Probable space group: P -1
;
_chemical_formula_sum "Si O2"
_cell_formula_units_Z 10
_cell_length_a 5.567763
_cell_length_b 15.529093
_cell_length_c 6.981582
_cell_angle_alpha 112.204458
_cell_angle_beta 76.302056
_cell_angle_gamma 136.847785
_cell_volume 381.516633
_symmetry_space_group_name_H-M "P -1"
_symmetry_group_IT_number 2
_symmetry_cell_setting 'triclinic'
loop_
_space_group_symop_operation_xyz
x,y,z
-x,-y,-z
loop_
_atom_site_type_symbol
_atom_site_label
_atom_site_fract_x
_atom_site_fract_y
_atom_site_fract_z
Si Si1 0.615287 0.727797 0.591417
Si Si2 0.743660 0.958649 0.717825
Si Si3 0.761414 0.653890 0.134225
Si Si4 0.321952 0.008489 0.797286
Si Si5 0.707836 0.354766 0.025259
O O1 0.540194 0.809041 0.579185
O O2 0.666496 0.663136 0.371041
O O3 0.336255 0.636971 0.734662
O O4 0.993267 0.847108 0.720945
O O5 0.647898 0.030528 0.701525
O O6 0.152877 0.038507 0.711346
O O7 0.656567 0.949001 0.953989
O O8 0.500000 0.500000 0.000000
O O9 0.652334 0.708414 0.059791
O O10 0.147121 0.711274 0.088219
O O11 0.000000 0.500000 0.000000
#
# Coordination Sequence:
#
# PCOD9002844 Si02
#       5
#     2   2   2   2   2
#     4  10  21  36  66  76 118 160 179 230 304 314
#     4   8  16  30  54  85 107 142 191 224 277 345
#     4  10  24  39  55  86 114 147 199 238 270 344
#     4   8  16  30  54  85 107 142 191 224 277 345
#     4  10  24  39  55  86 114 147 199 238 270 344
#
# _framework density 26.211179000000001
#
# number of rings (size 3 to 8) (size 9 to 14) (size 15 to 20)
#    1.200    1.600    0.000    0.000    5.600    6.400 
#    0.000    0.000    0.000    9.600    0.000    0.000 
#    0.000    0.000    0.000    0.000    0.000    0.000 
#
# Total GULP energy -55881.161919 kJ/mol
# GULP energy per Si atom -5588.116192 kJ/mol
# Density = 2.615152 g / cm^3
# Si number density = 26.211179 Si / 1000 Ang^3
#
#
#
# Elastic Constant Matrix: (Units=GPa)
#
#
# Indices 1 2 3 4 5 6 
#
# 1 249.7091 22.0337 39.1597 -9.5366 -23.8992 -34.8827
# 2 22.0337 86.7225 56.5571 -8.2830 -7.3252 -6.7034
# 3 39.1597 56.5571 186.0612 -10.7960 -53.3761 -12.8905
# 4 -9.5366 -8.2830 -10.7960 48.7632 -7.5910 -2.8992
# 5 -23.8992 -7.3252 -53.3761 -7.5910 44.7197 5.9258
# 6 -34.8827 -6.7034 -12.8905 -2.8992 5.9258 35.0280
#
#
#
# Elastic Compliance Matrix: (Units=1/GPa)
#
#
# Indices 1 2 3 4 5 6 
#
# 1 0.004974 -0.000757 0.000343 0.001600 0.002603 0.004627
# 2 -0.000757 0.015178 -0.005749 0.000460 -0.004820 0.000888
# 3 0.000343 -0.005749 0.011046 0.003622 0.012851 0.001432
# 4 0.001600 0.000460 0.003622 0.023267 0.008744 0.003461
# 5 0.002603 -0.004820 0.012851 0.008744 0.039732 0.000401
# 6 0.004627 0.000888 0.001432 0.003461 0.000401 0.034072
#
#
# Mechanical properties :
#
#
# Convention : Reuss Voigt Hill
#
# Bulk Modulus (GPa) = 52.98716 84.22154 68.60435
# Shear Modulus (GPa) = 34.04003 52.68500 43.36251
#
# Velocity S-wave (km/s) = 3.60763 4.48819 4.07179
# Velocity P-wave (km/s) = 6.13292 7.68506 6.95244
#
# Compressibility (1/GPa) = 0.01887250
#
# Stress axis : x y z
#
# Youngs Moduli (GPa) = 201.03545 65.88477 90.53382
#
# Poissons Ratio (x) = 0.04990 -0.03109
# Poissons Ratio (y) = 0.15226 0.52045
# Poissons Ratio (z) = -0.06903 0.37875
#
# Static dielectric constant tensor:
#      x y z
#    x 2.239940 0.102930 0.053350 
#    y 0.102930 2.273810 0.116570 
#    z 0.053350 0.116570 2.053430 
# 
# From -- ./inp_files/4149.got.cif
#   From: 2010.05.17/outbox.cif.g08.bks.cpg/sg2_3_cif.got.tgz:4149.got - 2010.06.03 11:33:40.
