data_PCOD9002905
_publ_section_title
;
Structure prediction by ZEFSAII (Michael W. Deem and Ramdas Pophale) SiO2 
 PCOD9002905
Probable space group: P -1
;
_chemical_formula_sum "Si O2"
_cell_formula_units_Z 14
_cell_length_a 8.648350
_cell_length_b 10.673933
_cell_length_c 9.040334
_cell_angle_alpha 99.028553
_cell_angle_beta 92.701080
_cell_angle_gamma 126.145310
_cell_volume 655.265254
_symmetry_space_group_name_H-M "P -1"
_symmetry_group_IT_number 2
_symmetry_cell_setting 'triclinic'
loop_
_space_group_symop_operation_xyz
x,y,z
-x,-y,-z
loop_
_atom_site_type_symbol
_atom_site_label
_atom_site_fract_x
_atom_site_fract_y
_atom_site_fract_z
Si Si1 0.608894 0.172798 0.611030
Si Si2 0.372386 0.541646 0.417240
Si Si3 0.168994 0.042915 0.132152
Si Si4 0.045411 0.201342 0.357119
Si Si5 0.609691 0.610572 0.162147
Si Si6 0.341235 0.081747 0.854730
Si Si7 0.992402 0.228695 0.683885
O O1 0.578629 0.285558 0.533700
O O2 0.523939 0.141723 0.768863
O O3 0.837587 0.259419 0.644616
O O4 0.500000 0.000000 0.500000
O O5 0.500000 0.500000 0.500000
O O6 0.150554 0.389403 0.397184
O O7 0.438420 0.548476 0.256048
O O8 0.182400 0.170270 0.267078
O O9 0.103176 0.897223 0.209307
O O10 0.340969 0.085262 0.034799
O O11 0.000000 0.000000 0.000000
O O12 0.017497 0.158265 0.521802
O O13 0.838243 0.090941 0.245996
O O14 0.701469 0.793232 0.167123
O O15 0.791328 0.620987 0.233026
O O16 0.500000 0.500000 0.000000
#
# Coordination Sequence:
#
# PCOD9002905 Si02
#       7
#     2   2   2   2   2   2   2
#     4  11  26  45  67 104 146 181 220 288 352 410
#     4  11  25  41  69 101 136 177 240 275 340 412
#     4  10  21  36  70 100 129 177 235 275 336 407
#     4  11  21  39  70 103 129 175 235 292 333 408
#     4  11  23  42  66  98 138 182 232 286 333 413
#     4  10  22  44  67  97 138 183 232 277 344 417
#     4  12  23  40  69 100 142 178 228 283 355 390
#
# _framework density 21.365392
#
# number of rings (size 3 to 8) (size 9 to 14) (size 15 to 20)
#    0.000    1.143    5.714    1.286    4.000    1.143 
#    0.000    2.857    0.000    0.000    0.000    0.000 
#    0.000    0.000    0.000    0.000    0.000    0.000 
#
# Total GULP energy -78028.177115 kJ/mol
# GULP energy per Si atom -5573.441223 kJ/mol
# Density = 2.131676 g / cm^3
# Si number density = 21.365392 Si / 1000 Ang^3
#
#
#
# Elastic Constant Matrix: (Units=GPa)
#
#
# Indices 1 2 3 4 5 6 
#
# 1 87.2738 34.5329 36.7572 11.7271 -7.8947 4.4395
# 2 34.5329 91.8728 18.0206 -9.2371 -4.0725 -4.1630
# 3 36.7572 18.0206 113.2553 -12.2662 -25.9954 -1.9153
# 4 11.7271 -9.2371 -12.2662 39.1007 10.1559 0.9477
# 5 -7.8947 -4.0725 -25.9954 10.1559 32.9487 -7.6497
# 6 4.4395 -4.1630 -1.9153 0.9477 -7.6497 35.0162
#
#
#
# Elastic Compliance Matrix: (Units=1/GPa)
#
#
# Indices 1 2 3 4 5 6 
#
# 1 0.017809 -0.006588 -0.005459 -0.008858 0.001218 -0.002834
# 2 -0.006588 0.013906 0.000390 0.005524 -0.000744 0.002198
# 3 -0.005459 0.000390 0.012954 0.003470 0.008643 0.003241
# 4 -0.008858 0.005524 0.003470 0.033007 -0.009087 -0.000909
# 5 0.001218 -0.000744 0.008643 -0.009087 0.042433 0.009746
# 6 -0.002834 0.002198 0.003241 -0.000909 0.009746 0.031510
#
#
# Mechanical properties :
#
#
# Convention : Reuss Voigt Hill
#
# Bulk Modulus (GPa) = 46.82903 52.33592 49.58248
# Shear Modulus (GPa) = 27.46455 34.95252 31.20854
#
# Velocity S-wave (km/s) = 3.58923 4.04906 3.82606
# Velocity P-wave (km/s) = 6.25640 6.81240 6.54031
#
# Compressibility (1/GPa) = 0.02135427
#
# Stress axis : x y z
#
# Youngs Moduli (GPa) = 56.15147 71.90938 77.19660
#
# Poissons Ratio (x) = 0.47375 0.42145
# Poissons Ratio (y) = 0.36994 -0.03011
# Poissons Ratio (z) = 0.30655 -0.02805
#
# Static dielectric constant tensor:
#      x y z
#    x 1.761830 0.038570 -0.089330 
#    y 0.038570 1.808720 0.011710 
#    z -0.089330 0.011710 1.683520 
# 
# From -- ./inp_files/187792.got.cif
#   From: 2010.05.17/outbox.cif.g08.bks.cpg/sg2_94_cif.got.tgz:187792.got - 2010.06.03 11:33:40.
