data_PCOD9003689
_publ_section_title
;
Structure prediction by ZEFSAII (Michael W. Deem and Ramdas Pophale) SiO2 
 PCOD9003689
Probable space group: P -1
;
_chemical_formula_sum "Si O2"
_cell_formula_units_Z 16
_cell_length_a 15.043513
_cell_length_b 11.753196
_cell_length_c 10.412833
_cell_angle_alpha 109.288555
_cell_angle_beta 151.902644
_cell_angle_gamma 70.773292
_cell_volume 815.444117
_symmetry_space_group_name_H-M "P -1"
_symmetry_group_IT_number 2
_symmetry_cell_setting 'triclinic'
loop_
_space_group_symop_operation_xyz
x,y,z
-x,-y,-z
loop_
_atom_site_type_symbol
_atom_site_label
_atom_site_fract_x
_atom_site_fract_y
_atom_site_fract_z
Si Si1 0.793916 0.723094 0.400035
Si Si2 0.724472 0.471757 0.301613
Si Si3 0.911453 0.977069 0.740676
Si Si4 0.355258 0.780813 0.903915
Si Si5 0.851495 0.985136 0.189428
Si Si6 0.730281 0.731325 0.018282
Si Si7 0.692630 0.203828 0.456994
Si Si8 0.949608 0.398327 0.801056
O O1 0.840207 0.581325 0.441017
O O2 0.889987 0.835585 0.627922
O O3 0.577407 0.747282 0.181251
O O4 0.792105 0.729461 0.245695
O O5 0.778483 0.453159 0.512183
O O6 0.500000 0.500000 0.000000
O O7 0.757960 0.333662 0.241686
O O8 0.726315 0.072485 0.517747
O O9 0.044902 0.020416 0.815120
O O10 0.000000 0.000000 0.000000
O O11 0.315851 0.811822 0.714732
O O12 0.292292 0.897042 0.947640
O O13 0.755003 0.864863 0.049343
O O14 0.000000 0.000000 0.500000
O O15 0.504137 0.721821 0.724763
O O16 0.872515 0.644159 0.080588
O O17 0.868467 0.285459 0.728984
O O18 0.000000 0.500000 0.000000
#
# Coordination Sequence:
#
# PCOD9003689 Si02
#       8
#     2   2   2   2   2   2   2   2
#     4  10  21  37  61  93 125 166 212 263 323 376
#     4   9  20  39  62  92 131 166 211 265 324 382
#     4  12  25  38  59  95 138 163 209 276 329 380
#     4   9  18  37  64  91 118 166 218 266 300 384
#     4  12  19  37  65  91 121 164 219 260 319 381
#     4  11  22  40  71  94 119 171 226 267 317 394
#     4  10  21  42  64  93 128 163 221 266 319 389
#     4  11  24  42  67  93 131 173 217 273 323 389
#
# _framework density 19.621209
#
# number of rings (size 3 to 8) (size 9 to 14) (size 15 to 20)
#    0.000    1.500    3.750    2.250    1.750    3.000 
#    0.000    5.000    0.000    0.000    0.000    0.000 
#    0.000    0.000    0.000    0.000    0.000    0.000 
#
# Total GULP energy -89196.671326 kJ/mol
# GULP energy per Si atom -5574.791958 kJ/mol
# Density = 1.957655 g / cm^3
# Si number density = 19.621209 Si / 1000 Ang^3
#
#
#
# Elastic Constant Matrix: (Units=GPa)
#
#
# Indices 1 2 3 4 5 6 
#
# 1 96.9977 46.7785 38.2878 9.3823 3.7996 -7.8365
# 2 46.7785 129.8126 38.1432 12.4579 -9.6238 10.8386
# 3 38.2878 38.1432 55.2085 5.3623 -5.5404 -8.3740
# 4 9.3823 12.4579 5.3623 32.4620 -1.8543 3.9055
# 5 3.7996 -9.6238 -5.5404 -1.8543 26.5386 -3.6421
# 6 -7.8365 10.8386 -8.3740 3.9055 -3.6421 42.8981
#
#
#
# Elastic Compliance Matrix: (Units=1/GPa)
#
#
# Indices 1 2 3 4 5 6 
#
# 1 0.016041 -0.003553 -0.008684 -0.002370 -0.005303 0.001898
# 2 -0.003553 0.011342 -0.005564 -0.001743 0.002761 -0.004208
# 3 -0.008684 -0.005564 0.029602 -0.000634 0.006210 0.006183
# 4 -0.002370 -0.001743 -0.000634 0.032704 0.001452 -0.002970
# 5 -0.005303 0.002761 0.006210 0.001452 0.041239 0.002915
# 6 0.001898 -0.004208 0.006183 -0.002970 0.002915 0.026446
#
#
# Mechanical properties :
#
#
# Convention : Reuss Voigt Hill
#
# Bulk Modulus (GPa) = 46.76529 58.71530 52.74030
# Shear Modulus (GPa) = 24.98699 30.96701 27.97700
#
# Velocity S-wave (km/s) = 3.57244 3.97702 3.78015
# Velocity P-wave (km/s) = 6.39549 7.14691 6.78161
#
# Compressibility (1/GPa) = 0.02138338
#
# Stress axis : x y z
#
# Youngs Moduli (GPa) = 62.33939 88.16902 33.78128
#
# Poissons Ratio (x) = 0.31327 0.29336
# Poissons Ratio (y) = 0.22150 0.18795
# Poissons Ratio (z) = 0.54136 0.49055
#
# Static dielectric constant tensor:
#      x y z
#    x 1.155070 0.432950 -0.442620 
#    y 0.432950 1.443980 0.370150 
#    z -0.442620 0.370150 1.251150 
# 
# From -- ./inp_files/274656.got.cif
#   From: 2010.05.17/outbox.cif.g08.bks.cpg/sg2_138_cif.got.tgz:274656.got - 2010.06.03 11:33:40.
