data_PCOD9003367
_publ_section_title
;
Structure prediction by ZEFSAII (Michael W. Deem and Ramdas Pophale) SiO2 
 PCOD9003367
Probable space group: P -1
;
_chemical_formula_sum "Si O2"
_cell_formula_units_Z 12
_cell_length_a 13.755197
_cell_length_b 9.321557
_cell_length_c 18.222778
_cell_angle_alpha 128.387491
_cell_angle_beta 22.635312
_cell_angle_gamma 134.970730
_cell_volume 631.960335
_symmetry_space_group_name_H-M "P -1"
_symmetry_group_IT_number 2
_symmetry_cell_setting 'triclinic'
loop_
_space_group_symop_operation_xyz
x,y,z
-x,-y,-z
loop_
_atom_site_type_symbol
_atom_site_label
_atom_site_fract_x
_atom_site_fract_y
_atom_site_fract_z
Si Si1 0.235058 0.782252 0.609939
Si Si2 0.804717 0.264273 0.550173
Si Si3 0.858969 0.915886 0.492134
Si Si4 0.162415 0.080135 0.988492
Si Si5 0.817183 0.316057 0.120967
Si Si6 0.224921 0.482015 0.642045
O O1 0.201030 0.752689 0.538309
O O2 0.289999 0.616532 0.565766
O O3 0.500000 0.000000 0.500000
O O4 0.966344 0.794388 0.837285
O O5 0.492097 0.200321 0.779194
O O6 0.000000 0.500000 0.500000
O O7 0.904459 0.108213 0.470099
O O8 0.518330 0.780928 0.692490
O O9 0.947253 0.753777 0.338574
O O10 0.000000 0.000000 0.500000
O O11 0.109244 0.872172 0.001042
O O12 0.000000 0.000000 0.000000
O O13 0.886302 0.407832 0.184987
O O14 0.000000 0.500000 0.000000
O O15 0.500000 0.500000 0.500000
#
# Coordination Sequence:
#
# PCOD9003367 Si02
#       6
#     2   2   2   2   2   2
#     4  12  22  38  68  92 125 167 204 260 313 362
#     4  11  25  43  65  91 125 170 205 257 320 362
#     4  10  22  42  61  88 124 159 207 252 307 379
#     4  11  22  40  63  98 124 154 220 252 298 383
#     4  10  22  37  63  91 122 158 199 259 307 356
#     4  10  21  37  59  92 122 156 209 247 307 374
#
# _framework density 18.988534000000001
#
# number of rings (size 3 to 8) (size 9 to 14) (size 15 to 20)
#    0.000    1.333    3.333    3.000    7.000    2.000 
#    0.000    0.833    0.000    0.000    0.000    0.000 
#    0.000    0.000    0.000    0.000    0.000    0.000 
#
# Total GULP energy -66919.685553 kJ/mol
# GULP energy per Si atom -5576.640463 kJ/mol
# Density = 1.894532 g / cm^3
# Si number density = 18.988534 Si / 1000 Ang^3
#
#
#
# Elastic Constant Matrix: (Units=GPa)
#
#
# Indices 1 2 3 4 5 6 
#
# 1 155.0115 85.5845 32.1386 -4.5076 27.2844 -1.3039
# 2 85.5845 169.8497 39.8100 -13.8582 7.4284 -5.1494
# 3 32.1386 39.8100 54.6643 -0.0852 11.7684 -9.1981
# 4 -4.5076 -13.8582 -0.0852 31.7048 -4.3340 7.0638
# 5 27.2844 7.4284 11.7684 -4.3340 26.5059 2.1286
# 6 -1.3039 -5.1494 -9.1981 7.0638 2.1286 51.0360
#
#
#
# Elastic Compliance Matrix: (Units=1/GPa)
#
#
# Indices 1 2 3 4 5 6 
#
# 1 0.011184 -0.005238 -0.000499 -0.002185 -0.010212 0.000396
# 2 -0.005238 0.009923 -0.005589 0.004617 0.005930 -0.001026
# 3 -0.000499 -0.005589 0.025816 -0.005061 -0.010629 0.005220
# 4 -0.002185 0.004617 -0.005061 0.035844 0.009534 -0.005861
# 5 -0.010212 0.005930 -0.010629 0.009534 0.053266 -0.005119
# 6 0.000396 -0.001026 0.005220 -0.005861 -0.005119 0.021466
#
#
# Mechanical properties :
#
#
# Convention : Reuss Voigt Hill
#
# Bulk Modulus (GPa) = 41.20238 77.17686 59.18962
# Shear Modulus (GPa) = 26.56159 36.64882 31.60520
#
# Velocity S-wave (km/s) = 3.74414 4.39800 4.08418
# Velocity P-wave (km/s) = 6.35902 8.15610 7.31297
#
# Compressibility (1/GPa) = 0.02427044
#
# Stress axis : x y z
#
# Youngs Moduli (GPa) = 89.41468 100.77396 38.73590
#
# Poissons Ratio (x) = 0.52786 0.01933
# Poissons Ratio (y) = 0.46836 0.21650
# Poissons Ratio (z) = 0.04461 0.56324
#
# Static dielectric constant tensor:
#      x y z
#    x 1.649740 -0.045390 -0.028160 
#    y -0.045390 1.680990 0.066280 
#    z -0.028160 0.066280 1.683980 
# 
# From -- ./inp_files/512221.got.cif
#   From: 2010.05.17/outbox.cif.g08.bks.cpg/sg2_257_cif.got.tgz:512221.got - 2010.06.03 11:33:40.
