data_PCOD9003958
_publ_section_title
;
Structure prediction by ZEFSAII (Michael W. Deem and Ramdas Pophale) SiO2 
 PCOD9003958
Probable space group: P -1
;
_chemical_formula_sum "Si O2"
_cell_formula_units_Z 16
_cell_length_a 7.368475
_cell_length_b 17.453359
_cell_length_c 16.057029
_cell_angle_alpha 29.510879
_cell_angle_beta 50.579511
_cell_angle_gamma 68.483584
_cell_volume 685.693752
_symmetry_space_group_name_H-M "P -1"
_symmetry_group_IT_number 2
_symmetry_cell_setting 'triclinic'
loop_
_space_group_symop_operation_xyz
x,y,z
-x,-y,-z
loop_
_atom_site_type_symbol
_atom_site_label
_atom_site_fract_x
_atom_site_fract_y
_atom_site_fract_z
Si Si1 0.849175 0.189596 0.674974
Si Si2 0.546220 0.289356 0.160681
Si Si3 0.280400 0.080047 0.185847
Si Si4 0.555600 0.567791 0.774371
Si Si5 0.923086 0.644630 0.989622
Si Si6 0.683679 0.073349 0.514207
Si Si7 0.689921 0.868975 0.145228
Si Si8 0.235295 0.940249 0.891179
O O1 0.619704 0.247165 0.680124
O O2 0.152061 0.342783 0.435659
O O3 0.801632 0.055122 0.738852
O O4 0.784540 0.063648 0.892738
O O5 0.449367 0.327605 0.240312
O O6 0.870406 0.374339 0.991534
O O7 0.405433 0.081377 0.381237
O O8 0.483274 0.378152 0.016648
O O9 0.182727 0.223835 0.070091
O O10 0.179313 0.966167 0.408708
O O11 0.602703 0.159593 0.030240
O O12 0.330950 0.529847 0.806636
O O13 0.113335 0.745362 0.759710
O O14 0.398001 0.040221 0.666255
O O15 0.709187 0.906555 0.202246
O O16 0.915312 0.822719 0.091472
#
# Coordination Sequence:
#
# PCOD9003958 Si02
#       8
#     2   2   2   2   2   2   2   2
#     4  10  21  37  63  90 115 157 195 255 296 348
#     4  11  25  39  60  89 124 165 194 236 294 366
#     4   9  20  34  62  87 122 151 196 244 290 343
#     4  11  25  41  56  89 131 153 197 240 302 356
#     4  12  23  40  60  91 123 163 197 236 290 367
#     4  10  21  38  62  89 122 154 202 240 288 348
#     4   9  18  37  59  90 114 145 210 248 297 343
#     4   8  18  33  58  92 112 146 190 263 292 330
#
# _framework density 23.334033999999999
#
# number of rings (size 3 to 8) (size 9 to 14) (size 15 to 20)
#    0.750    1.250    1.250    1.875    7.000    0.000 
#    6.750    0.000    0.000   15.000    0.000    0.000 
#    0.000    0.000    0.000    0.000    0.000    0.000 
#
# Total GULP energy -89390.244608 kJ/mol
# GULP energy per Si atom -5586.890288 kJ/mol
# Density = 2.328092 g / cm^3
# Si number density = 23.334034 Si / 1000 Ang^3
#
#
#
# Elastic Constant Matrix: (Units=GPa)
#
#
# Indices 1 2 3 4 5 6 
#
# 1 66.3688 7.1200 5.9376 5.5584 -21.1333 -10.7606
# 2 7.1200 65.4263 25.6291 21.2809 -10.4877 -13.0392
# 3 5.9376 25.6291 87.9100 20.0739 -31.1187 -2.1373
# 4 5.5584 21.2809 20.0739 22.6415 -12.9311 -14.7640
# 5 -21.1333 -10.4877 -31.1187 -12.9311 38.9111 13.1394
# 6 -10.7606 -13.0392 -2.1373 -14.7640 13.1394 35.7579
#
#
#
# Elastic Compliance Matrix: (Units=1/GPa)
#
#
# Indices 1 2 3 4 5 6 
#
# 1 0.019078 -0.001770 0.003205 0.002465 0.012716 0.001633
# 2 -0.001770 0.022783 -0.003662 -0.019642 -0.004669 0.001162
# 3 0.003205 -0.003662 0.020930 -0.013408 0.016678 -0.010784
# 4 0.002465 -0.019642 -0.013408 0.098165 0.007646 0.030500
# 5 0.012716 -0.004669 0.016678 0.007646 0.051496 -0.012645
# 6 0.001633 0.001162 -0.010784 0.030500 -0.012645 0.045476
#
#
# Mechanical properties :
#
#
# Convention : Reuss Voigt Hill
#
# Bulk Modulus (GPa) = 17.14161 33.00874 25.07518
# Shear Modulus (GPa) = 17.74145 31.52999 24.63572
#
# Velocity S-wave (km/s) = 2.76039 3.67992 3.25281
# Velocity P-wave (km/s) = 4.18591 5.67738 4.98771
#
# Compressibility (1/GPa) = 0.05833758
#
# Stress axis : x y z
#
# Youngs Moduli (GPa) = 52.41734 43.89145 47.77940
#
# Poissons Ratio (x) = 0.07768 -0.15315
# Poissons Ratio (y) = 0.09277 0.17497
# Poissons Ratio (z) = -0.16802 0.16074
#
# Static dielectric constant tensor:
#      x y z
#    x 1.952490 -0.059310 -0.025710 
#    y -0.059310 1.910690 0.029240 
#    z -0.025710 0.029240 1.853700 
# 
# From -- ./inp_files/591494.got.cif
#   From: 2010.05.17/outbox.cif.g08.bks.cpg/sg2_296_cif.got.tgz:591494.got - 2010.06.03 11:33:40.
