data_PCOD9003156
_publ_section_title
;
Structure prediction by ZEFSAII (Michael W. Deem and Ramdas Pophale) SiO2 
 PCOD9003156
Probable space group: P -1
;
_chemical_formula_sum "Si O2"
_cell_formula_units_Z 16
_cell_length_a 9.097762
_cell_length_b 25.408110
_cell_length_c 10.027734
_cell_angle_alpha 133.250918
_cell_angle_beta 30.334686
_cell_angle_gamma 133.644325
_cell_volume 821.361333
_symmetry_space_group_name_H-M "P -1"
_symmetry_group_IT_number 2
_symmetry_cell_setting 'triclinic'
loop_
_space_group_symop_operation_xyz
x,y,z
-x,-y,-z
loop_
_atom_site_type_symbol
_atom_site_label
_atom_site_fract_x
_atom_site_fract_y
_atom_site_fract_z
Si Si1 0.970757 0.303174 0.793495
Si Si2 0.672426 0.040800 0.064661
Si Si3 0.646275 0.469481 0.708977
Si Si4 0.712343 0.530540 0.263265
Si Si5 0.460016 0.781569 0.247690
Si Si6 0.889107 0.218602 0.204894
Si Si7 0.397909 0.696676 0.643024
Si Si8 0.325276 0.040801 0.607076
O O1 0.725368 0.257885 0.802858
O O2 0.148325 0.380711 0.716313
O O3 0.245280 0.265417 0.542760
O O4 0.798630 0.316357 0.087770
O O5 0.801141 0.129582 0.089061
O O6 0.443146 0.032161 0.351636
O O7 0.961791 0.013524 0.839277
O O8 0.500000 0.000000 0.000000
O O9 0.497930 0.498150 0.748403
O O10 0.593587 0.380764 0.571395
O O11 0.000000 0.500000 0.500000
O O12 0.500000 0.500000 0.000000
O O13 0.500000 0.500000 0.500000
O O14 0.000000 0.500000 0.000000
O O15 0.256444 0.771198 0.521317
O O16 0.579330 0.870580 0.280452
O O17 0.751715 0.753458 0.007829
O O18 0.757152 0.258427 0.259319
O O19 0.500000 0.000000 0.500000
#
# Coordination Sequence:
#
# PCOD9003156 Si02
#       8
#     2   2   2   2   2   2   2   2
#     4  11  23  40  60  86 117 151 193 242 292 350
#     4  10  21  37  58  86 121 157 199 244 289 344
#     4  11  23  40  59  84 114 146 187 235 286 346
#     4  11  23  40  59  84 114 146 187 235 286 346
#     4  10  22  39  59  88 120 154 198 245 290 346
#     4  10  22  39  59  88 120 154 198 245 290 346
#     4  11  23  40  60  86 117 151 193 242 292 350
#     4  10  21  37  58  86 121 157 199 244 289 344
#
# _framework density 19.479854
#
# number of rings (size 3 to 8) (size 9 to 14) (size 15 to 20)
#    0.000    1.500    0.000    6.000    0.000    5.000 
#    0.000    0.000    0.000    0.000    0.000    0.000 
#    0.000    0.000    0.000    0.000    0.000    0.000 
#
# Total GULP energy -89327.240549 kJ/mol
# GULP energy per Si atom -5582.952534 kJ/mol
# Density = 1.943552 g / cm^3
# Si number density = 19.479854 Si / 1000 Ang^3
#
#
#
# Elastic Constant Matrix: (Units=GPa)
#
#
# Indices 1 2 3 4 5 6 
#
# 1 181.6794 50.1462 74.3822 15.7636 -8.7481 5.6635
# 2 50.1462 39.3517 36.7193 6.4271 8.8622 -0.7412
# 3 74.3822 36.7193 136.9480 -4.1183 -14.0380 10.3545
# 4 15.7636 6.4271 -4.1183 14.0436 -2.8411 -9.0454
# 5 -8.7481 8.8622 -14.0380 -2.8411 48.7919 3.4353
# 6 5.6635 -0.7412 10.3545 -9.0454 3.4353 38.1716
#
#
#
# Elastic Compliance Matrix: (Units=1/GPa)
#
#
# Indices 1 2 3 4 5 6 
#
# 1 0.010414 -0.009604 -0.002860 -0.009905 0.002460 -0.003524
# 2 -0.009604 0.056523 -0.012489 -0.020523 -0.016958 0.002573
# 3 -0.002860 -0.012489 0.013334 0.013635 0.006441 -0.000784
# 4 -0.009905 -0.020523 0.013635 0.112801 0.010814 0.023129
# 5 0.002460 -0.016958 0.006441 0.010814 0.026660 -0.002278
# 6 -0.003524 0.002573 -0.000784 0.023129 -0.002278 0.032669
#
#
# Mechanical properties :
#
#
# Convention : Reuss Voigt Hill
#
# Bulk Modulus (GPa) = 32.93360 75.60828 54.27094
# Shear Modulus (GPa) = 16.00365 33.31687 24.66026
#
# Velocity S-wave (km/s) = 2.86938 4.14009 3.56186
# Velocity P-wave (km/s) = 5.28403 7.85822 6.69599
#
# Compressibility (1/GPa) = 0.03036413
#
# Stress axis : x y z
#
# Youngs Moduli (GPa) = 96.02576 17.69178 74.99769
#
# Poissons Ratio (x) = 0.16991 0.21452
# Poissons Ratio (y) = 0.92224 0.93665
# Poissons Ratio (z) = 0.27467 0.22095
#
# Static dielectric constant tensor:
#      x y z
#    x 1.658950 0.001200 -0.022150 
#    y 0.001200 1.696370 0.007530 
#    z -0.022150 0.007530 1.682320 
# 
# From -- ./inp_files/226417.got.cif
#   From: 2010.05.17/outbox.cif.g08.bks.cpg/sg2_114_cif.got.tgz:226417.got - 2010.06.03 11:33:40.
