data_PCOD9003176
_publ_section_title
;
Structure prediction by ZEFSAII (Michael W. Deem and Ramdas Pophale) SiO2 
 PCOD9003176
Probable space group: P -1
;
_chemical_formula_sum "Si O2"
_cell_formula_units_Z 14
_cell_length_a 19.391018
_cell_length_b 11.897839
_cell_length_c 19.201251
_cell_angle_alpha 35.024744
_cell_angle_beta 157.906775
_cell_angle_gamma 157.936907
_cell_volume 600.488402
_symmetry_space_group_name_H-M "P -1"
_symmetry_group_IT_number 2
_symmetry_cell_setting 'triclinic'
loop_
_space_group_symop_operation_xyz
x,y,z
-x,-y,-z
loop_
_atom_site_type_symbol
_atom_site_label
_atom_site_fract_x
_atom_site_fract_y
_atom_site_fract_z
Si Si1 0.304216 0.394630 0.529437
Si Si2 0.538916 0.243958 0.377297
Si Si3 0.160159 0.957842 0.886442
Si Si4 0.177975 0.890800 0.091680
Si Si5 0.259039 0.798178 0.936617
Si Si6 0.941380 0.142220 0.508942
Si Si7 0.457318 0.742520 0.373249
O O1 0.445341 0.573553 0.642518
O O2 0.517720 0.629768 0.545760
O O3 0.019416 0.300119 0.299440
O O4 0.802978 0.912975 0.429707
O O5 0.854816 0.514467 0.498538
O O6 0.500000 0.000000 0.500000
O O7 0.292497 0.082475 0.171651
O O8 0.353329 0.976712 0.007819
O O9 0.845728 0.584288 0.778314
O O10 0.209765 0.028841 0.978394
O O11 0.141005 0.144465 0.732779
O O12 0.397202 0.890888 0.282617
O O13 0.871823 0.525477 0.004873
O O14 0.500000 0.000000 0.000000
O O15 0.697195 0.974457 0.422652
#
# Coordination Sequence:
#
# PCOD9003176 Si02
#       7
#     2   2   2   2   2   2   2
#     4   9  19  38  60  87 119 148 198 248 286 344
#     4  12  22  40  56  84 127 160 191 245 296 350
#     4   9  19  38  57  90 122 146 197 251 293 341
#     4  10  21  37  58  87 126 154 188 253 294 340
#     4   9  17  33  61  88 115 157 197 238 290 353
#     4  10  22  37  67  88 111 159 201 240 296 354
#     4   9  17  37  64  91 110 151 202 246 286 349
#
# _framework density 23.314356
#
# number of rings (size 3 to 8) (size 9 to 14) (size 15 to 20)
#    0.000    2.857    2.857    3.857    0.000    3.429 
#    0.000    2.857    0.000   10.286    0.000    0.000 
#    0.000    0.000    0.000    0.000    0.000    0.000 
#
# Total GULP energy -78200.944137 kJ/mol
# GULP energy per Si atom -5585.781724 kJ/mol
# Density = 2.326129 g / cm^3
# Si number density = 23.314356 Si / 1000 Ang^3
#
#
#
# Elastic Constant Matrix: (Units=GPa)
#
#
# Indices 1 2 3 4 5 6 
#
# 1 111.6380 53.5387 46.1578 5.6365 -25.3832 31.3084
# 2 53.5387 145.9140 20.2211 -5.7521 -3.0673 35.3030
# 3 46.1578 20.2211 51.2403 -6.0735 -33.6658 3.9870
# 4 5.6365 -5.7521 -6.0735 18.8207 7.9207 -1.1625
# 5 -25.3832 -3.0673 -33.6658 7.9207 47.8089 5.6952
# 6 31.3084 35.3030 3.9870 -1.1625 5.6952 39.9389
#
#
#
# Elastic Compliance Matrix: (Units=1/GPa)
#
#
# Indices 1 2 3 4 5 6 
#
# 1 0.024457 -0.003182 -0.018818 -0.017108 0.004220 -0.015580
# 2 -0.003182 0.009657 -0.001399 0.003981 -0.002060 -0.005493
# 3 -0.018818 -0.001399 0.054685 0.012582 0.025477 0.007263
# 4 -0.017108 0.003981 0.012582 0.069787 -0.013022 0.012524
# 5 0.004220 -0.002060 0.025477 -0.013022 0.044402 -0.010741
# 6 -0.015580 -0.005493 0.007263 0.012524 -0.010741 0.043278
#
#
# Mechanical properties :
#
#
# Convention : Reuss Voigt Hill
#
# Bulk Modulus (GPa) = 23.80945 60.95859 42.38402
# Shear Modulus (GPa) = 16.28326 33.90536 25.09431
#
# Velocity S-wave (km/s) = 2.64563 3.81763 3.28433
# Velocity P-wave (km/s) = 4.42346 6.75540 5.70975
#
# Compressibility (1/GPa) = 0.04200014
#
# Stress axis : x y z
#
# Youngs Moduli (GPa) = 40.88872 103.54875 18.28664
#
# Poissons Ratio (x) = 0.32948 0.34412
# Poissons Ratio (y) = 0.13010 0.02559
# Poissons Ratio (z) = 0.76945 0.14488
#
# Static dielectric constant tensor:
#      x y z
#    x 1.918360 0.026940 -0.011220 
#    y 0.026940 1.868700 -0.012630 
#    z -0.011220 -0.012630 1.991260 
# 
# From -- ./inp_files/578109.got.cif
#   From: 2010.05.17/outbox.cif.g08.bks.cpg/sg2_290_cif.got.tgz:578109.got - 2010.06.03 11:33:40.
