data_PCOD9003841
_publ_section_title
;
Structure prediction by ZEFSAII (Michael W. Deem and Ramdas Pophale) SiO2 
 PCOD9003841
Probable space group: P -1
;
_chemical_formula_sum "Si O2"
_cell_formula_units_Z 16
_cell_length_a 8.755065
_cell_length_b 19.373338
_cell_length_c 24.352807
_cell_angle_alpha 21.826515
_cell_angle_beta 39.140079
_cell_angle_gamma 31.579774
_cell_volume 801.780979
_symmetry_space_group_name_H-M "P -1"
_symmetry_group_IT_number 2
_symmetry_cell_setting 'triclinic'
loop_
_space_group_symop_operation_xyz
x,y,z
-x,-y,-z
loop_
_atom_site_type_symbol
_atom_site_label
_atom_site_fract_x
_atom_site_fract_y
_atom_site_fract_z
Si Si1 0.299944 0.968456 0.774306
Si Si2 0.885706 0.436930 0.396645
Si Si3 0.428360 0.704232 0.829269
Si Si4 0.719198 0.388642 0.601879
Si Si5 0.581725 0.610185 0.684455
Si Si6 0.829445 0.863592 0.561282
Si Si7 0.298991 0.481536 0.938257
Si Si8 0.447443 0.748296 0.501850
O O1 0.527386 0.041496 0.656444
O O2 0.977438 0.185685 0.715063
O O3 0.260813 0.906880 0.769017
O O4 0.447751 0.753789 0.931043
O O5 0.828900 0.396637 0.504611
O O6 0.573444 0.606086 0.330511
O O7 0.104236 0.514893 0.281952
O O8 0.057263 0.212699 0.476538
O O9 0.694964 0.722810 0.721362
O O10 0.273451 0.673555 0.843417
O O11 0.500000 0.500000 0.000000
O O12 0.600972 0.615157 0.501741
O O13 0.402318 0.515001 0.826666
O O14 0.613964 0.600141 0.617915
O O15 0.407142 0.873579 0.556137
O O16 0.121396 0.806773 0.552497
O O17 0.000000 0.500000 0.000000
#
# Coordination Sequence:
#
# PCOD9003841 Si02
#       8
#     2   2   2   2   2   2   2   2
#     4  11  22  43  61  91 128 174 205 251 318 380
#     4  10  21  37  62  93 122 157 212 269 295 367
#     4  10  22  38  63  88 130 163 202 258 324 379
#     4  10  22  41  63  90 126 169 216 249 315 363
#     4  12  22  37  65  96 128 155 213 266 317 364
#     4  11  21  37  64  98 124 161 208 263 325 368
#     4  11  26  42  60  95 134 162 203 262 328 377
#     4  11  23  37  68  93 128 164 213 262 300 382
#
# _framework density 19.955573999999999
#
# number of rings (size 3 to 8) (size 9 to 14) (size 15 to 20)
#    0.000    1.250    3.750    1.875    5.250    0.000 
#    2.250    1.250    0.000    0.000    0.000    0.000 
#    0.000    0.000    0.000    0.000    0.000    0.000 
#
# Total GULP energy -89213.325072 kJ/mol
# GULP energy per Si atom -5575.832817 kJ/mol
# Density = 1.991015 g / cm^3
# Si number density = 19.955574 Si / 1000 Ang^3
#
#
#
# Elastic Constant Matrix: (Units=GPa)
#
#
# Indices 1 2 3 4 5 6 
#
# 1 75.1577 12.3478 25.8484 2.9814 -14.4578 -9.0176
# 2 12.3478 59.2952 26.5244 8.7530 -6.2429 -8.2201
# 3 25.8484 26.5244 104.0827 12.4227 -9.7628 -6.1903
# 4 2.9814 8.7530 12.4227 18.7753 -2.2304 -1.0871
# 5 -14.4578 -6.2429 -9.7628 -2.2304 36.4390 12.1159
# 6 -9.0176 -8.2201 -6.1903 -1.0871 12.1159 48.9169
#
#
#
# Elastic Compliance Matrix: (Units=1/GPa)
#
#
# Indices 1 2 3 4 5 6 
#
# 1 0.015623 -0.001320 -0.003126 0.000839 0.004825 0.001086
# 2 -0.001320 0.020214 -0.003846 -0.006446 0.000736 0.002341
# 3 -0.003126 -0.003846 0.012127 -0.005616 0.001028 -0.000067
# 4 0.000839 -0.006446 -0.005616 0.060003 0.001633 -0.000710
# 5 0.004825 0.000736 0.001028 0.001633 0.032111 -0.006774
# 6 0.001086 0.002341 -0.000067 -0.000710 -0.006774 0.022690
#
#
# Mechanical properties :
#
#
# Convention : Reuss Voigt Hill
#
# Bulk Modulus (GPa) = 31.86860 40.88630 36.37745
# Shear Modulus (GPa) = 26.34199 32.41392 29.37796
#
# Velocity S-wave (km/s) = 3.63717 4.03464 3.84105
# Velocity P-wave (km/s) = 5.80027 6.49904 6.15957
#
# Compressibility (1/GPa) = 0.03137885
#
# Stress axis : x y z
#
# Youngs Moduli (GPa) = 64.00956 49.47163 82.46078
#
# Poissons Ratio (x) = 0.06531 0.25780
# Poissons Ratio (y) = 0.08450 0.31712
# Poissons Ratio (z) = 0.20012 0.19025
#
# Static dielectric constant tensor:
#      x y z
#    x 1.758860 0.002810 -0.008000 
#    y 0.002810 1.735570 0.009430 
#    z -0.008000 0.009430 1.694210 
# 
# From -- ./inp_files/259393.got.cif
#   From: 2010.05.17/outbox.cif.g08.bks.cpg/sg2_130_cif.got.tgz:259393.got - 2010.06.03 11:33:40.
