data_PCOD9003903
_publ_section_title
;
Structure prediction by ZEFSAII (Michael W. Deem and Ramdas Pophale) SiO2 
 PCOD9003903
Probable space group: P -1
;
_chemical_formula_sum "Si O2"
_cell_formula_units_Z 14
_cell_length_a 21.587558
_cell_length_b 15.552516
_cell_length_c 9.938598
_cell_angle_alpha 38.379635
_cell_angle_beta 150.643051
_cell_angle_gamma 155.316419
_cell_volume 682.620269
_symmetry_space_group_name_H-M "P -1"
_symmetry_group_IT_number 2
_symmetry_cell_setting 'triclinic'
loop_
_space_group_symop_operation_xyz
x,y,z
-x,-y,-z
loop_
_atom_site_type_symbol
_atom_site_label
_atom_site_fract_x
_atom_site_fract_y
_atom_site_fract_z
Si Si1 0.473394 0.316591 0.696334
Si Si2 0.038419 0.958991 0.266037
Si Si3 0.008123 0.653919 0.476089
Si Si4 0.391491 0.749822 0.742693
Si Si5 0.239435 0.586054 0.089348
Si Si6 0.474858 0.841298 0.481444
Si Si7 0.087143 0.862602 0.081130
O O1 0.500000 0.500000 0.500000
O O2 0.259165 0.110697 0.511164
O O3 0.615442 0.350856 0.825733
O O4 0.521111 0.311656 0.944095
O O5 0.954270 0.736884 0.372314
O O6 0.971277 0.022872 0.162916
O O7 0.000000 0.000000 0.000000
O O8 0.820291 0.410625 0.406705
O O9 0.056050 0.765384 0.288440
O O10 0.168583 0.682686 0.798518
O O11 0.390806 0.744627 0.587504
O O12 0.510007 0.980455 0.726463
O O13 0.350044 0.677903 0.326587
O O14 0.056632 0.337287 0.042349
O O15 0.692208 0.968901 0.738219
#
# Coordination Sequence:
#
# PCOD9003903 Si02
#       7
#     2   2   2   2   2   2   2
#     4  12  22  41  69  98 131 173 222 277 330 385
#     4  10  21  37  62  97 131 164 215 277 331 380
#     4  11  21  40  68  97 128 175 228 274 324 388
#     4  11  24  45  63  99 140 172 216 282 333 391
#     4  12  22  40  71  97 125 176 228 268 325 395
#     4  11  26  43  66  98 140 175 217 274 339 397
#     4  11  21  43  65  96 136 169 220 284 322 394
#
# _framework density 20.509205999999999
#
# number of rings (size 3 to 8) (size 9 to 14) (size 15 to 20)
#    0.000    0.857    4.286    4.714    0.000    2.286 
#    2.571    3.571    0.000    0.000    0.000    0.000 
#    0.000    0.000    0.000    0.000    0.000    0.000 
#
# Total GULP energy -78230.975690 kJ/mol
# GULP energy per Si atom -5587.926835 kJ/mol
# Density = 2.046253 g / cm^3
# Si number density = 20.509206 Si / 1000 Ang^3
#
#
#
# Elastic Constant Matrix: (Units=GPa)
#
#
# Indices 1 2 3 4 5 6 
#
# 1 50.2328 12.1255 24.2007 -7.7532 17.5630 -20.9303
# 2 12.1255 57.6371 27.8346 -0.0269 9.7440 -30.3161
# 3 24.2007 27.8346 101.5900 0.2398 24.0211 -13.8306
# 4 -7.7532 -0.0269 0.2398 44.0354 -6.0147 4.6322
# 5 17.5630 9.7440 24.0211 -6.0147 23.4482 5.6624
# 6 -20.9303 -30.3161 -13.8306 4.6322 5.6624 35.6503
#
#
#
# Elastic Compliance Matrix: (Units=1/GPa)
#
#
# Indices 1 2 3 4 5 6 
#
# 1 -0.665100 -0.636274 -0.117558 0.174721 1.215911 -1.192985
# 2 -0.636274 -0.560338 -0.110305 0.156975 1.126433 -1.092156
# 3 -0.117558 -0.110305 -0.004905 0.026662 0.193802 -0.198968
# 4 0.174721 0.156975 0.026662 -0.018712 -0.299803 0.296459
# 5 1.215911 1.126433 0.193802 -0.299803 -2.124365 2.123307
# 6 -1.192985 -1.092156 -0.198968 0.296459 2.123307 -2.054051
#
#
# Mechanical properties :
#
#
# Convention : Reuss Voigt Hill
#
# Bulk Modulus (GPa) = -0.33800 37.53127 18.59664
# Shear Modulus (GPa) = -1.06714 30.31338 14.62312
#
# Velocity S-wave (km/s) = -0.72212 3.84870 2.67311
# Velocity P-wave (km/s) = 0.92759 6.17166 4.31445
#
# Compressibility (1/GPa) = -2.95861677
#
# Stress axis : x y z
#
# Youngs Moduli (GPa) = -1.50353 -1.78464 -203.88295
#
# Poissons Ratio (x) = -1.13552 -23.96813
# Poissons Ratio (y) = -0.95666 -22.48925
# Poissons Ratio (z) = -0.17675 -0.19685
#
# Static dielectric constant tensor:
#      x y z
#    x 1.696790 0.000280 0.000400 
#    y 0.000280 1.748880 0.053840 
#    z 0.000400 0.053840 1.718160 
# 
# From -- ./inp_files/347151.got.cif
#   From: 2010.05.17/outbox.cif.g08.bks.cpg/sg2_174_cif.got.tgz:347151.got - 2010.06.03 11:33:40.
