data_PCOD9003062
_publ_section_title
;
Structure prediction by ZEFSAII (Michael W. Deem and Ramdas Pophale) SiO2 
 PCOD9003062
Probable space group: P -1
;
_chemical_formula_sum "Si O2"
_cell_formula_units_Z 12
_cell_length_a 11.104274
_cell_length_b 14.214645
_cell_length_c 12.698616
_cell_angle_alpha 158.832293
_cell_angle_beta 42.527655
_cell_angle_gamma 133.384925
_cell_volume 489.238365
_symmetry_space_group_name_H-M "P -1"
_symmetry_group_IT_number 2
_symmetry_cell_setting 'triclinic'
loop_
_space_group_symop_operation_xyz
x,y,z
-x,-y,-z
loop_
_atom_site_type_symbol
_atom_site_label
_atom_site_fract_x
_atom_site_fract_y
_atom_site_fract_z
Si Si1 0.870516 0.833169 0.233230
Si Si2 0.635962 0.731034 0.842396
Si Si3 0.683620 0.963392 0.286088
Si Si4 0.933777 0.626578 0.284934
Si Si5 0.593027 0.784713 0.554965
Si Si6 0.015954 0.726885 0.641996
O O1 0.710968 0.788578 0.374438
O O2 0.805843 0.815298 0.136899
O O3 0.945525 0.121714 0.507447
O O4 0.023463 0.619102 0.926050
O O5 0.644731 0.825397 0.056976
O O6 0.512739 0.943550 0.085975
O O7 0.547680 0.449386 0.600845
O O8 0.845729 0.727568 0.674880
O O9 0.786008 0.238123 0.492951
O O10 0.500000 0.000000 0.500000
O O11 0.733813 0.723862 0.493390
O O12 0.000000 0.500000 0.000000
O O13 0.000000 0.500000 0.500000
O O14 0.000000 0.000000 0.000000
#
# Coordination Sequence:
#
# PCOD9003062 Si02
#       6
#     2   2   2   2   2   2
#     4  11  22  36  58  90 127 154 200 260 310 346
#     4  11  22  38  63  90 125 161 204 244 311 373
#     4  11  24  40  64  96 129 157 203 263 312 364
#     4  10  21  37  57  85 125 162 201 249 307 357
#     4  11  20  37  63  88 119 163 211 247 295 373
#     4  10  23  43  59  86 128 173 201 238 306 384
#
# _framework density 24.527920000000002
#
# number of rings (size 3 to 8) (size 9 to 14) (size 15 to 20)
#    0.000    1.333    1.667    7.000    0.000    4.667 
#    0.000    0.000    0.000    6.000    0.000    0.000 
#    0.000    0.000    0.000    0.000    0.000    0.000 
#
# Total GULP energy -67191.245532 kJ/mol
# GULP energy per Si atom -5599.270461 kJ/mol
# Density = 2.447209 g / cm^3
# Si number density = 24.527920 Si / 1000 Ang^3
#
#
#
# Elastic Constant Matrix: (Units=GPa)
#
#
# Indices 1 2 3 4 5 6 
#
# 1 106.8854 6.7930 17.5930 10.7623 -27.0704 0.8242
# 2 6.7930 122.9991 27.4651 15.5543 4.0848 29.1828
# 3 17.5930 27.4651 113.2156 23.5351 0.8021 -11.9184
# 4 10.7623 15.5543 23.5351 50.4715 -1.8677 2.4883
# 5 -27.0704 4.0848 0.8021 -1.8677 47.7476 14.2232
# 6 0.8242 29.1828 -11.9184 2.4883 14.2232 36.4201
#
#
#
# Elastic Compliance Matrix: (Units=1/GPa)
#
#
# Indices 1 2 3 4 5 6 
#
# 1 0.011904 0.000913 -0.002401 -0.001159 0.008119 -0.004878
# 2 0.000913 0.011885 -0.004046 -0.001265 0.003091 -0.011988
# 3 -0.002401 -0.004046 0.012118 -0.004497 -0.004130 0.009182
# 4 -0.001159 -0.001265 -0.004497 0.022709 0.001138 -0.002428
# 5 0.008119 0.003091 -0.004130 0.001138 0.030118 -0.015851
# 6 -0.004878 -0.011988 0.009182 -0.002428 -0.015851 0.046535
#
#
# Mechanical properties :
#
#
# Convention : Reuss Voigt Hill
#
# Bulk Modulus (GPa) = 40.26050 49.64468 44.95259
# Shear Modulus (GPa) = 32.33810 46.34443 39.34126
#
# Velocity S-wave (km/s) = 3.63494 4.35150 4.00926
# Velocity P-wave (km/s) = 5.83668 6.74770 6.30866
#
# Compressibility (1/GPa) = 0.02483824
#
# Stress axis : x y z
#
# Youngs Moduli (GPa) = 84.00845 84.14044 82.52078
#
# Poissons Ratio (x) = -0.07684 0.19817
# Poissons Ratio (y) = -0.07672 0.33388
# Poissons Ratio (z) = 0.20174 0.34043
#
# Static dielectric constant tensor:
#      x y z
#    x 1.997560 -0.048250 -0.038650 
#    y -0.048250 2.040350 -0.095630 
#    z -0.038650 -0.095630 1.980230 
# 
# From -- ./inp_files/522005.got.cif
#   From: 2010.05.17/outbox.cif.g08.bks.cpg/sg2_262_cif.got.tgz:522005.got - 2010.06.03 11:33:40.
