data_PCOD9003754
_publ_section_title
;
Structure prediction by ZEFSAII (Michael W. Deem and Ramdas Pophale) SiO2 
 PCOD9003754
Probable space group: P -1
;
_chemical_formula_sum "Si O2"
_cell_formula_units_Z 16
_cell_length_a 9.247509
_cell_length_b 20.470342
_cell_length_c 14.616665
_cell_angle_alpha 141.620695
_cell_angle_beta 149.653579
_cell_angle_gamma 37.978212
_cell_volume 810.993981
_symmetry_space_group_name_H-M "P -1"
_symmetry_group_IT_number 2
_symmetry_cell_setting 'triclinic'
loop_
_space_group_symop_operation_xyz
x,y,z
-x,-y,-z
loop_
_atom_site_type_symbol
_atom_site_label
_atom_site_fract_x
_atom_site_fract_y
_atom_site_fract_z
Si Si1 0.934912 0.342595 0.545109
Si Si2 0.860541 0.179284 0.553753
Si Si3 0.876673 0.412162 0.789682
Si Si4 0.788512 0.915915 0.619538
Si Si5 0.454605 0.931082 0.985390
Si Si6 0.410535 0.961477 0.637251
Si Si7 0.856383 0.513527 0.536995
Si Si8 0.383756 0.290871 0.254484
O O1 0.984092 0.397202 0.726420
O O2 0.984930 0.403463 0.549041
O O3 0.579985 0.349684 0.367558
O O4 0.138895 0.211764 0.512657
O O5 0.968740 0.285528 0.742556
O O6 0.622119 0.218076 0.382345
O O7 0.134477 0.063711 0.552978
O O8 0.696006 0.142075 0.507480
O O9 0.507406 0.458413 0.642082
O O10 0.000000 0.500000 0.000000
O O11 0.103580 0.938264 0.805639
O O12 0.500000 0.000000 0.500000
O O13 0.693346 0.924796 0.683564
O O14 0.670344 0.801157 0.941256
O O15 0.528548 0.984051 0.175908
O O16 0.500000 0.000000 0.000000
O O17 0.871081 0.616209 0.722585
O O18 0.000000 0.500000 0.500000
#
# Coordination Sequence:
#
# PCOD9003754 Si02
#       8
#     2   2   2   2   2   2   2   2
#     4   9  20  37  62  83 117 160 193 234 302 360
#     4   9  20  36  62  87 119 163 198 238 314 358
#     4  10  21  40  64  85 118 155 205 247 299 361
#     4  11  24  40  62  89 125 158 199 248 302 359
#     4  11  22  37  59  92 122 155 203 247 295 359
#     4  11  21  36  63  89 124 157 205 245 300 361
#     4  10  21  37  62  87 116 157 201 243 299 350
#     4   9  18  38  56  83 121 157 194 238 297 364
#
# _framework density 19.728877000000001
#
# number of rings (size 3 to 8) (size 9 to 14) (size 15 to 20)
#    0.000    2.250    1.250    4.125    5.250    3.000 
#    0.000    4.375    0.000    0.000    0.000    0.000 
#    0.000    0.000    0.000    0.000    0.000    0.000 
#
# Total GULP energy -89254.334533 kJ/mol
# GULP energy per Si atom -5578.395908 kJ/mol
# Density = 1.968397 g / cm^3
# Si number density = 19.728877 Si / 1000 Ang^3
#
#
#
# Elastic Constant Matrix: (Units=GPa)
#
#
# Indices 1 2 3 4 5 6 
#
# 1 164.6485 59.6265 35.5642 21.1009 -3.6628 -2.7179
# 2 59.6265 94.1333 24.8682 11.1561 -0.3031 11.2234
# 3 35.5642 24.8682 64.9798 26.5890 -8.7273 0.3502
# 4 21.1009 11.1561 26.5890 34.2309 -5.4954 0.4017
# 5 -3.6628 -0.3031 -8.7273 -5.4954 28.5159 6.2398
# 6 -2.7179 11.2234 0.3502 0.4017 6.2398 36.4219
#
#
#
# Elastic Compliance Matrix: (Units=1/GPa)
#
#
# Indices 1 2 3 4 5 6 
#
# 1 0.008604 -0.004935 -0.001969 -0.002271 -0.000489 0.002291
# 2 -0.004935 0.015154 -0.003429 0.000779 -0.000286 -0.004965
# 3 -0.001969 -0.003429 0.025085 -0.016484 0.004182 0.000134
# 4 -0.002271 0.000779 -0.016484 0.043723 0.003385 -0.001313
# 5 -0.000489 -0.000286 0.004182 0.003385 0.038379 -0.006601
# 6 0.002291 -0.004965 0.000134 -0.001313 -0.006601 0.030301
#
#
# Mechanical properties :
#
#
# Convention : Reuss Voigt Hill
#
# Bulk Modulus (GPa) = 35.48972 62.65324 49.07148
# Shear Modulus (GPa) = 26.13633 33.41392 29.77512
#
# Velocity S-wave (km/s) = 3.64369 4.11987 3.88908
# Velocity P-wave (km/s) = 5.97744 7.37951 6.71517
#
# Compressibility (1/GPa) = 0.02817718
#
# Stress axis : x y z
#
# Youngs Moduli (GPa) = 116.22207 65.98928 39.86396
#
# Poissons Ratio (x) = 0.32569 0.07849
# Poissons Ratio (y) = 0.57361 0.13668
# Poissons Ratio (z) = 0.22883 0.22626
#
# Static dielectric constant tensor:
#      x y z
#    x 1.707980 0.010330 -0.011150 
#    y 0.010330 1.735950 0.019590 
#    z -0.011150 0.019590 1.715170 
# 
# From -- ./inp_files/341771.got.cif
#   From: 2010.05.17/outbox.cif.g08.bks.cpg/sg2_171_cif.got.tgz:341771.got - 2010.06.03 11:33:40.
