data_PCOD9003193
_publ_section_title
;
Structure prediction by ZEFSAII (Michael W. Deem and Ramdas Pophale) SiO2 
 PCOD9003193
Probable space group: P -1
;
_chemical_formula_sum "Si O2"
_cell_formula_units_Z 14
_cell_length_a 12.800638
_cell_length_b 12.045574
_cell_length_c 11.834983
_cell_angle_alpha 46.843658
_cell_angle_beta 46.760769
_cell_angle_gamma 28.226675
_cell_volume 611.393608
_symmetry_space_group_name_H-M "P -1"
_symmetry_group_IT_number 2
_symmetry_cell_setting 'triclinic'
loop_
_space_group_symop_operation_xyz
x,y,z
-x,-y,-z
loop_
_atom_site_type_symbol
_atom_site_label
_atom_site_fract_x
_atom_site_fract_y
_atom_site_fract_z
Si Si1 0.036880 0.150294 0.384773
Si Si2 0.355654 0.955482 0.077151
Si Si3 0.233451 0.384137 0.865414
Si Si4 0.350848 0.771433 0.818736
Si Si5 0.198114 0.480159 0.268886
Si Si6 0.810689 0.851532 0.485039
Si Si7 0.018948 0.155255 0.996599
O O1 0.826320 0.430399 0.303726
O O2 0.104734 0.142108 0.466519
O O3 0.000000 0.000000 0.500000
O O4 0.238084 0.031421 0.233160
O O5 0.610960 0.688256 0.095002
O O6 0.362718 0.124396 0.910289
O O7 0.179468 0.021886 0.078069
O O8 0.000000 0.500000 0.000000
O O9 0.602170 0.561570 0.830631
O O10 0.355978 0.899430 0.631599
O O11 0.211900 0.748922 0.880957
O O12 0.181177 0.956536 0.916496
O O13 0.291426 0.232524 0.365392
O O14 0.062923 0.619965 0.155306
O O15 0.025862 0.647211 0.384153
#
# Coordination Sequence:
#
# PCOD9003193 Si02
#       7
#     2   2   2   2   2   2   2
#     4  11  23  39  59  90 129 164 200 246 304 370
#     4  10  21  39  63  88 122 161 200 253 304 360
#     4   9  21  40  60  87 117 157 208 246 294 359
#     4  10  21  37  59  87 119 152 194 250 304 355
#     4  10  21  39  64  87 116 158 201 254 302 348
#     4  10  22  39  58  88 120 155 206 245 295 366
#     4  10  21  37  58  89 118 150 198 245 303 366
#
# _framework density 22.898503999999999
#
# number of rings (size 3 to 8) (size 9 to 14) (size 15 to 20)
#    0.000    2.000    0.000    2.571    0.000    7.429 
#    0.000    7.143    0.000    0.000    0.000    0.000 
#    0.000    0.000    0.000    0.000    0.000    0.000 
#
# Total GULP energy -78129.564607 kJ/mol
# GULP energy per Si atom -5580.683186 kJ/mol
# Density = 2.284639 g / cm^3
# Si number density = 22.898504 Si / 1000 Ang^3
#
#
#
# Elastic Constant Matrix: (Units=GPa)
#
#
# Indices 1 2 3 4 5 6 
#
# 1 111.1349 27.0363 19.6705 4.4000 5.2210 -28.0951
# 2 27.0363 41.8254 21.5894 -12.5853 9.7280 -20.4315
# 3 19.6705 21.5894 55.2751 -5.3836 -5.1142 -3.5096
# 4 4.4000 -12.5853 -5.3836 27.7501 -0.4308 1.5753
# 5 5.2210 9.7280 -5.1142 -0.4308 41.0661 -2.8775
# 6 -28.0951 -20.4315 -3.5096 1.5753 -2.8775 48.2359
#
#
#
# Elastic Compliance Matrix: (Units=1/GPa)
#
#
# Indices 1 2 3 4 5 6 
#
# 1 0.012257 -0.006187 -0.002197 -0.005434 -0.000106 0.004530
# 2 -0.006187 0.054132 -0.017012 0.021088 -0.012768 0.016637
# 3 -0.002197 -0.017012 0.025590 -0.001945 0.007046 -0.006140
# 4 -0.005434 0.021088 -0.001945 0.045804 -0.003793 0.003903
# 5 -0.000106 -0.012768 0.007046 -0.003793 0.028005 -0.003163
# 6 0.004530 0.016637 -0.006140 0.003903 -0.003163 0.029654
#
#
# Mechanical properties :
#
#
# Convention : Reuss Voigt Hill
#
# Bulk Modulus (GPa) = 24.27930 38.31421 31.29675
# Shear Modulus (GPa) = 19.23343 32.73969 25.98656
#
# Velocity S-wave (km/s) = 2.90132 3.78534 3.37242
# Velocity P-wave (km/s) = 4.67435 5.98945 5.37230
#
# Compressibility (1/GPa) = 0.04118735
#
# Stress axis : x y z
#
# Youngs Moduli (GPa) = 81.58344 18.47343 39.07710
#
# Poissons Ratio (x) = 0.11429 0.08585
# Poissons Ratio (y) = 0.50476 0.66479
# Poissons Ratio (z) = 0.17923 0.31427
#
# Static dielectric constant tensor:
#      x y z
#    x 1.930320 -0.002660 -0.029130 
#    y -0.002660 1.943190 -0.041010 
#    z -0.029130 -0.041010 1.863650 
# 
# From -- ./inp_files/117266.got.cif
#   From: 2010.05.17/outbox.cif.g08.bks.cpg/sg2_59_cif.got.tgz:117266.got - 2010.06.03 11:33:40.
