data_PCOD9003685
_publ_section_title
;
Structure prediction by ZEFSAII (Michael W. Deem and Ramdas Pophale) SiO2 
 PCOD9003685
Probable space group: P -1
;
_chemical_formula_sum "Si O2"
_cell_formula_units_Z 14
_cell_length_a 18.930293
_cell_length_b 7.563176
_cell_length_c 5.284153
_cell_angle_alpha 58.100980
_cell_angle_beta 106.419480
_cell_angle_gamma 117.907176
_cell_volume 566.970694
_symmetry_space_group_name_H-M "P -1"
_symmetry_group_IT_number 2
_symmetry_cell_setting 'triclinic'
loop_
_space_group_symop_operation_xyz
x,y,z
-x,-y,-z
loop_
_atom_site_type_symbol
_atom_site_label
_atom_site_fract_x
_atom_site_fract_y
_atom_site_fract_z
Si Si1 0.452255 0.012732 0.697788
Si Si2 0.253954 0.226263 0.258352
Si Si3 0.963607 0.118247 0.167820
Si Si4 0.173322 0.757834 0.216449
Si Si5 0.115291 0.346612 0.865301
Si Si6 0.682821 0.029161 0.108233
Si Si7 0.415154 0.326845 0.134622
O O1 0.359442 0.876418 0.789303
O O2 0.442305 0.248124 0.481240
O O3 0.500000 0.000000 0.500000
O O4 0.500000 0.000000 0.000000
O O5 0.278876 0.140995 0.608998
O O6 0.337460 0.375277 0.088754
O O7 0.212482 0.986709 0.249908
O O8 0.190496 0.341068 0.102388
O O9 0.920436 0.901796 0.109349
O O10 0.893641 0.211300 0.056455
O O11 0.000000 0.000000 0.500000
O O12 0.039228 0.324668 0.973265
O O13 0.139097 0.544526 0.531509
O O14 0.247584 0.769181 0.113301
O O15 0.620591 0.881341 0.942211
O O16 0.500000 0.500000 0.000000
#
# Coordination Sequence:
#
# PCOD9003685 Si02
#       7
#     2   2   2   2   2   2   2
#     4  11  22  41  65  92 127 169 220 276 338 400
#     4   9  21  39  57  87 128 167 217 274 331 397
#     4  10  21  37  61  92 129 167 215 271 331 397
#     4  10  21  38  61  90 128 171 221 273 333 403
#     4  10  21  38  61  91 126 169 216 272 330 397
#     4  10  21  41  63  88 134 172 220 282 340 398
#     4  10  22  41  64  92 128 174 219 278 341 406
#
# _framework density 24.692630999999999
#
# number of rings (size 3 to 8) (size 9 to 14) (size 15 to 20)
#    0.000    2.000    1.429    1.286    0.000    5.143 
#    0.000    0.000    0.000    0.000    0.000    0.000 
#    0.000    0.000    0.000    0.000    0.000    0.000 
#
# Total GULP energy -78014.884248 kJ/mol
# GULP energy per Si atom -5572.491732 kJ/mol
# Density = 2.463643 g / cm^3
# Si number density = 24.692631 Si / 1000 Ang^3
#
#
#
# Elastic Constant Matrix: (Units=GPa)
#
#
# Indices 1 2 3 4 5 6 
#
# 1 149.4289 49.5271 67.4268 -10.7277 -21.5349 59.1053
# 2 49.5271 110.3536 38.3822 -13.8932 0.5467 13.0534
# 3 67.4268 38.3822 144.9550 1.9232 -1.6321 33.5975
# 4 -10.7277 -13.8932 1.9232 39.5429 19.0521 -6.4984
# 5 -21.5349 0.5467 -1.6321 19.0521 55.9459 0.1593
# 6 59.1053 13.0534 33.5975 -6.4984 0.1593 35.0475
#
#
#
# Elastic Compliance Matrix: (Units=1/GPa)
#
#
# Indices 1 2 3 4 5 6 
#
# 1 0.033105 -0.010052 0.000262 -0.011723 0.016996 -0.054588
# 2 -0.010052 0.013740 -0.002899 0.008244 -0.006941 0.016173
# 3 0.000262 -0.002899 0.009814 -0.003824 0.001745 -0.009486
# 4 -0.011723 0.008244 -0.003824 0.038309 -0.017829 0.027550
# 5 0.016996 -0.006941 0.001745 -0.017829 0.030696 -0.031196
# 6 -0.054588 0.016173 -0.009486 0.027550 -0.031196 0.128911
#
#
# Mechanical properties :
#
#
# Convention : Reuss Voigt Hill
#
# Bulk Modulus (GPa) = 31.96775 79.48999 55.72887
# Shear Modulus (GPa) = 17.21881 42.73401 29.97641
#
# Velocity S-wave (km/s) = 2.64356 4.16461 3.48800
# Velocity P-wave (km/s) = 4.72147 7.44224 6.23214
#
# Compressibility (1/GPa) = 0.03128152
#
# Stress axis : x y z
#
# Youngs Moduli (GPa) = 30.20679 72.77758 101.89910
#
# Poissons Ratio (x) = 0.73155 -0.02666
# Poissons Ratio (y) = 0.30363 0.29538
# Poissons Ratio (z) = -0.00790 0.21096
#
# Static dielectric constant tensor:
#      x y z
#    x 2.114430 -0.015430 -0.070380 
#    y -0.015430 2.059720 -0.000170 
#    z -0.070380 -0.000170 2.038910 
# 
# From -- ./inp_files/106136.got.cif
#   From: 2010.05.17/outbox.cif.g08.bks.cpg/sg2_54_cif.got.tgz:106136.got - 2010.06.03 11:33:40.
