data_PCOD9003232
_publ_section_title
;
Structure prediction by ZEFSAII (Michael W. Deem and Ramdas Pophale) SiO2 
 PCOD9003232
Probable space group: P -1
;
_chemical_formula_sum "Si O2"
_cell_formula_units_Z 14
_cell_length_a 15.218781
_cell_length_b 17.276116
_cell_length_c 10.710701
_cell_angle_alpha 33.547494
_cell_angle_beta 62.253726
_cell_angle_gamma 35.734840
_cell_volume 687.871048
_symmetry_space_group_name_H-M "P -1"
_symmetry_group_IT_number 2
_symmetry_cell_setting 'triclinic'
loop_
_space_group_symop_operation_xyz
x,y,z
-x,-y,-z
loop_
_atom_site_type_symbol
_atom_site_label
_atom_site_fract_x
_atom_site_fract_y
_atom_site_fract_z
Si Si1 0.161650 0.213151 0.206137
Si Si2 0.883302 0.435561 0.702802
Si Si3 0.187170 0.818112 0.317836
Si Si4 0.495917 0.374647 0.505429
Si Si5 0.919499 0.000332 0.444645
Si Si6 0.573071 0.600990 0.773185
Si Si7 0.212089 0.227889 0.878701
O O1 0.072731 0.169310 0.290922
O O2 0.365702 0.915334 0.539512
O O3 0.219314 0.225563 0.025996
O O4 0.000000 0.500000 0.000000
O O5 0.724133 0.547409 0.739286
O O6 0.782545 0.635089 0.384105
O O7 0.006234 0.401491 0.743868
O O8 0.040307 0.126371 0.971450
O O9 0.297447 0.632003 0.371497
O O10 0.358129 0.674643 0.488419
O O11 0.055394 0.865523 0.414767
O O12 0.460065 0.405225 0.340761
O O13 0.613813 0.090480 0.848935
O O14 0.695824 0.327555 0.125664
O O15 0.000000 0.000000 0.500000
#
# Coordination Sequence:
#
# PCOD9003232 Si02
#       7
#     2   2   2   2   2   2   2
#     4  11  24  38  55  84 118 149 189 235 278 337
#     4   9  18  34  57  79 104 142 186 233 281 329
#     4   9  19  34  56  83 108 142 188 231 276 328
#     4   9  18  34  55  84 110 136 185 241 281 324
#     4  11  22  40  60  80 117 159 190 224 279 349
#     4  10  21  37  59  81 108 150 194 235 285 329
#     4   9  19  37  54  75 112 147 178 226 290 334
#
# _framework density 20.352653
#
# number of rings (size 3 to 8) (size 9 to 14) (size 15 to 20)
#    0.000    2.286    0.000    3.857    0.000    8.000 
#    0.000    7.143    0.000    0.000    0.000    0.000 
#    0.000    0.000    0.000    0.000    0.000    0.000 
#
# Total GULP energy -78176.640149 kJ/mol
# GULP energy per Si atom -5584.045725 kJ/mol
# Density = 2.030633 g / cm^3
# Si number density = 20.352653 Si / 1000 Ang^3
#
#
#
# Elastic Constant Matrix: (Units=GPa)
#
#
# Indices 1 2 3 4 5 6 
#
# 1 42.7293 -4.4211 11.3524 -12.6152 4.5795 -2.2386
# 2 -4.4211 70.6582 20.1462 -26.6348 -5.2510 -2.8300
# 3 11.3524 20.1462 80.4003 -5.6746 7.8548 5.0570
# 4 -12.6152 -26.6348 -5.6746 43.0573 -2.0480 -2.1686
# 5 4.5795 -5.2510 7.8548 -2.0480 23.7769 2.0849
# 6 -2.2386 -2.8300 5.0570 -2.1686 2.0849 21.4586
#
#
#
# Elastic Compliance Matrix: (Units=1/GPa)
#
#
# Indices 1 2 3 4 5 6 
#
# 1 0.030640 0.009146 -0.005951 0.014158 -0.001342 0.007366
# 2 0.009146 0.024086 -0.007207 0.017302 0.006822 0.006915
# 3 -0.005951 -0.007207 0.015623 -0.004668 -0.005554 -0.005185
# 4 0.014158 0.017302 -0.004668 0.038121 0.005200 0.008206
# 5 -0.001342 0.006822 -0.005554 0.005200 0.046272 -0.001902
# 6 0.007366 0.006915 -0.005185 0.008206 -0.001902 0.050518
#
#
# Mechanical properties :
#
#
# Convention : Reuss Voigt Hill
#
# Bulk Modulus (GPa) = 16.04492 27.54919 21.79706
# Shear Modulus (GPa) = 21.36214 28.77258 25.06736
#
# Velocity S-wave (km/s) = 3.24327 3.76400 3.51330
# Velocity P-wave (km/s) = 4.68248 5.69698 5.21446
#
# Compressibility (1/GPa) = 0.06232502
#
# Stress axis : x y z
#
# Youngs Moduli (GPa) = 32.63690 41.51852 64.00746
#
# Poissons Ratio (x) = -0.37973 0.38091
# Poissons Ratio (y) = -0.29850 0.46130
# Poissons Ratio (z) = 0.19422 0.29922
#
# Static dielectric constant tensor:
#      x y z
#    x 1.759060 -0.046870 0.027820 
#    y -0.046870 1.775890 0.068970 
#    z 0.027820 0.068970 1.811600 
# 
# From -- ./inp_files/456896.got.cif
#   From: 2010.05.17/outbox.cif.g08.bks.cpg/sg2_229_cif.got.tgz:456896.got - 2010.06.03 11:33:40.
