data_PCOD9003167
_publ_section_title
;
Structure prediction by ZEFSAII (Michael W. Deem and Ramdas Pophale) SiO2 
 PCOD9003167
Probable space group: P -1
;
_chemical_formula_sum "Si O2"
_cell_formula_units_Z 16
_cell_length_a 6.949243
_cell_length_b 5.211637
_cell_length_c 23.957150
_cell_angle_alpha 87.639951
_cell_angle_beta 106.861904
_cell_angle_gamma 48.186796
_cell_volume 584.456860
_symmetry_space_group_name_H-M "P -1"
_symmetry_group_IT_number 2
_symmetry_cell_setting 'triclinic'
loop_
_space_group_symop_operation_xyz
x,y,z
-x,-y,-z
loop_
_atom_site_type_symbol
_atom_site_label
_atom_site_fract_x
_atom_site_fract_y
_atom_site_fract_z
Si Si1 0.727214 0.167213 0.921264
Si Si2 0.885751 0.350846 0.193512
Si Si3 0.547146 0.775711 0.652092
Si Si4 0.981324 0.775715 0.152092
Si Si5 0.377542 0.250296 0.042350
Si Si6 0.051900 0.832786 0.578736
Si Si7 0.543136 0.749705 0.457650
Si Si8 0.849572 0.649161 0.306488
O O1 0.413094 0.410429 0.866257
O O2 0.718009 0.365824 0.972404
O O3 0.890594 0.193371 0.890195
O O4 0.821320 0.789804 0.945822
O O5 0.067919 0.406955 0.176910
O O6 0.834850 0.500003 0.250000
O O7 0.023399 0.945451 0.203185
O O8 0.303575 0.806627 0.609804
O O9 0.528012 0.040365 0.608109
O O10 0.878947 0.406953 0.676910
O O11 0.437520 0.945442 0.703185
O O12 0.647841 0.040367 0.108109
O O13 0.500000 0.000000 0.000000
O O14 0.091013 0.589564 0.633744
O O15 0.719482 0.210194 0.554178
O O16 0.139025 0.634175 0.527596
O O17 0.500000 0.000000 0.500000
#
# Coordination Sequence:
#
# PCOD9003167 Si02
#       8
#     2   2   2   2   2   2   2   2
#     4  10  21  38  58  83 120 152 200 250 302 366
#     4  10  23  38  58  86 116 156 203 253 305 371
#     4  10  22  39  58  86 119 154 202 251 305 368
#     4  10  22  39  58  86 119 154 202 251 305 368
#     4  10  21  37  58  87 118 154 198 248 302 369
#     4  10  21  38  58  83 120 152 200 250 302 366
#     4  10  21  37  58  87 118 154 198 248 302 369
#     4  10  23  38  58  86 116 156 203 253 305 371
#
# _framework density 27.375844000000001
#
# number of rings (size 3 to 8) (size 9 to 14) (size 15 to 20)
#    0.000    2.000    0.000    2.250    3.500    3.000 
#    0.000    0.000    0.000    0.000    0.000    0.000 
#    0.000    0.000    0.000    0.000    0.000    0.000 
#
# Total GULP energy -89469.090306 kJ/mol
# GULP energy per Si atom -5591.818144 kJ/mol
# Density = 2.731354 g / cm^3
# Si number density = 27.375844 Si / 1000 Ang^3
#
#
#
# Elastic Constant Matrix: (Units=GPa)
#
#
# Indices 1 2 3 4 5 6 
#
# 1 228.3832 56.6156 57.3971 15.1219 0.6995 -9.2704
# 2 56.6156 96.4540 36.0300 17.2941 0.3153 -3.7461
# 3 57.3971 36.0300 125.3913 42.9788 3.5277 -1.3314
# 4 15.1219 17.2941 42.9788 57.2039 1.1309 0.2471
# 5 0.6995 0.3153 3.5277 1.1309 52.9123 4.5865
# 6 -9.2704 -3.7461 -1.3314 0.2471 4.5865 40.2080
#
#
#
# Elastic Compliance Matrix: (Units=1/GPa)
#
#
# Indices 1 2 3 4 5 6 
#
# 1 0.005522 -0.002586 -0.002074 0.000877 -0.000021 0.000961
# 2 -0.002586 0.012944 -0.001917 -0.001793 0.000076 0.000549
# 3 -0.002074 -0.001917 0.012256 -0.008068 -0.000594 -0.000134
# 4 0.000877 -0.001793 -0.008068 0.023854 0.000061 -0.000386
# 5 -0.000021 0.000076 -0.000594 0.000061 0.019128 -0.002200
# 6 0.000961 0.000549 -0.000134 -0.000386 -0.002200 0.025392
#
#
# Mechanical properties :
#
#
# Convention : Reuss Voigt Hill
#
# Bulk Modulus (GPa) = 56.92551 83.36823 70.14687
# Shear Modulus (GPa) = 42.33413 50.07723 46.20568
#
# Velocity S-wave (km/s) = 3.93670 4.28161 4.11277
# Velocity P-wave (km/s) = 6.44226 7.41365 6.94496
#
# Compressibility (1/GPa) = 0.01756682
#
# Stress axis : x y z
#
# Youngs Moduli (GPa) = 181.09235 77.25303 81.59181
#
# Poissons Ratio (x) = 0.19980 0.16925
# Poissons Ratio (y) = 0.46836 0.15644
# Poissons Ratio (z) = 0.37564 0.14812
#
# Static dielectric constant tensor:
#      x y z
#    x 2.097760 0.021150 0.000780 
#    y 0.021150 2.295240 -0.002940 
#    z 0.000780 -0.002940 2.134860 
# 
# From -- ./inp_files/12897.got.cif
#   From: 2010.05.17/outbox.cif.g08.bks.cpg/sg2_7_cif.got.tgz:12897.got - 2010.06.03 11:33:40.
