data_PCOD9003535
_publ_section_title
;
Structure prediction by ZEFSAII (Michael W. Deem and Ramdas Pophale) SiO2 
 PCOD9003535
Probable space group: P -1
;
_chemical_formula_sum "Si O2"
_cell_formula_units_Z 16
_cell_length_a 9.204187
_cell_length_b 10.182190
_cell_length_c 17.140757
_cell_angle_alpha 42.304181
_cell_angle_beta 60.082163
_cell_angle_gamma 91.675594
_cell_volume 685.002606
_symmetry_space_group_name_H-M "P -1"
_symmetry_group_IT_number 2
_symmetry_cell_setting 'triclinic'
loop_
_space_group_symop_operation_xyz
x,y,z
-x,-y,-z
loop_
_atom_site_type_symbol
_atom_site_label
_atom_site_fract_x
_atom_site_fract_y
_atom_site_fract_z
Si Si1 0.994040 0.224980 0.662064
Si Si2 0.698252 0.017896 0.169875
Si Si3 0.822741 0.693355 0.021615
Si Si4 0.245087 0.303622 0.792945
Si Si5 0.382494 0.368209 0.209835
Si Si6 0.492082 0.913143 0.951724
Si Si7 0.755977 0.327915 0.471756
Si Si8 0.001975 0.136275 0.530311
O O1 0.096620 0.266801 0.532002
O O2 0.140491 0.465840 0.575637
O O3 0.750900 0.138099 0.752387
O O4 0.931250 0.972945 0.831902
O O5 0.671646 0.103640 0.056201
O O6 0.643499 0.748238 0.278807
O O7 0.503205 0.928185 0.321777
O O8 0.952778 0.245131 0.037452
O O9 0.680133 0.634923 0.164099
O O10 0.627453 0.462124 0.117033
O O11 0.237921 0.518185 0.669654
O O12 0.000000 0.000000 0.000000
O O13 0.199305 0.184710 0.408654
O O14 0.231563 0.177673 0.260661
O O15 0.428296 0.635149 0.085135
O O16 0.500000 0.000000 0.000000
O O17 0.913936 0.261706 0.454870
#
# Coordination Sequence:
#
# PCOD9003535 Si02
#       8
#     2   2   2   2   2   2   2   2
#     4  11  22  40  64 100 130 164 220 274 324 379
#     4  11  22  38  60 100 133 167 210 264 338 377
#     4  10  23  40  65  93 129 177 211 262 331 392
#     4  10  21  37  60  93 138 166 206 259 330 386
#     4  10  25  46  67  91 130 178 224 269 324 399
#     4  11  23  38  68 100 129 173 218 269 327 387
#     4  12  23  38  65 104 133 163 215 281 320 391
#     4  11  25  43  68  95 129 175 224 272 333 377
#
# _framework density 23.357575000000001
#
# number of rings (size 3 to 8) (size 9 to 14) (size 15 to 20)
#    0.000    1.250    3.750    3.000    8.750    2.000 
#    0.000    1.250    0.000    0.000    0.000    0.000 
#    0.000    0.000    0.000    0.000    0.000    0.000 
#
# Total GULP energy -89400.596432 kJ/mol
# GULP energy per Si atom -5587.537277 kJ/mol
# Density = 2.330441 g / cm^3
# Si number density = 23.357575 Si / 1000 Ang^3
#
#
#
# Elastic Constant Matrix: (Units=GPa)
#
#
# Indices 1 2 3 4 5 6 
#
# 1 122.7018 7.1787 36.6046 -3.4871 0.7647 15.2449
# 2 7.1787 44.7200 14.6348 -8.1377 7.1848 -2.2220
# 3 36.6046 14.6348 71.3940 -6.3492 -5.4342 6.1843
# 4 -3.4871 -8.1377 -6.3492 39.5400 5.5220 -5.2352
# 5 0.7647 7.1848 -5.4342 5.5220 57.1004 -1.8164
# 6 15.2449 -2.2220 6.1843 -5.2352 -1.8164 21.1267
#
#
#
# Elastic Compliance Matrix: (Units=1/GPa)
#
#
# Indices 1 2 3 4 5 6 
#
# 1 0.010381 -0.000430 -0.004796 -0.000691 -0.000677 -0.006361
# 2 -0.000430 0.026238 -0.005457 0.005833 -0.004196 0.005752
# 3 -0.004796 -0.005457 0.018002 0.000755 0.002328 -0.001995
# 4 -0.000691 0.005833 0.000755 0.027988 -0.003119 0.007558
# 5 -0.000677 -0.004196 0.002328 -0.003119 0.018579 0.000190
# 6 -0.006361 0.005752 -0.001995 0.007558 0.000190 0.055002
#
#
# Mechanical properties :
#
#
# Convention : Reuss Voigt Hill
#
# Bulk Modulus (GPa) = 30.07133 39.51689 34.79411
# Shear Modulus (GPa) = 26.50553 35.57992 31.04273
#
# Velocity S-wave (km/s) = 3.37229 3.90714 3.64953
# Velocity P-wave (km/s) = 5.29768 6.10814 5.71729
#
# Compressibility (1/GPa) = 0.03325426
#
# Stress axis : x y z
#
# Youngs Moduli (GPa) = 96.33240 38.11327 55.55072
#
# Poissons Ratio (x) = 0.01638 0.26643
# Poissons Ratio (y) = 0.04141 0.30313
# Poissons Ratio (z) = 0.46202 0.20798
#
# Static dielectric constant tensor:
#      x y z
#    x 1.940120 -0.000680 -0.016650 
#    y -0.000680 1.948380 0.010740 
#    z -0.016650 0.010740 1.912650 
# 
# From -- ./inp_files/529354.got.cif
#   From: 2010.05.17/outbox.cif.g08.bks.cpg/sg2_265_cif.got.tgz:529354.got - 2010.06.03 11:33:40.
