data_PCOD9003380
_publ_section_title
;
Structure prediction by ZEFSAII (Michael W. Deem and Ramdas Pophale) SiO2 
 PCOD9003380
Probable space group: P -1
;
_chemical_formula_sum "Si O2"
_cell_formula_units_Z 16
_cell_length_a 6.120479
_cell_length_b 11.925663
_cell_length_c 11.695225
_cell_angle_alpha 99.058357
_cell_angle_beta 119.745244
_cell_angle_gamma 85.014263
_cell_volume 731.885439
_symmetry_space_group_name_H-M "P -1"
_symmetry_group_IT_number 2
_symmetry_cell_setting 'triclinic'
loop_
_space_group_symop_operation_xyz
x,y,z
-x,-y,-z
loop_
_atom_site_type_symbol
_atom_site_label
_atom_site_fract_x
_atom_site_fract_y
_atom_site_fract_z
Si Si1 0.346930 0.182002 0.700547
Si Si2 0.062803 0.639252 0.303751
Si Si3 0.543923 0.737888 0.516045
Si Si4 0.069373 0.754528 0.737647
Si Si5 0.645283 0.086414 0.318941
Si Si6 0.269759 0.559744 0.881724
Si Si7 0.149461 0.704663 0.083533
Si Si8 0.133461 0.117254 0.072252
O O1 0.411953 0.220132 0.594732
O O2 0.587725 0.226212 0.843394
O O3 0.101178 0.249375 0.689720
O O4 0.308106 0.046803 0.672334
O O5 0.318974 0.647465 0.443199
O O6 0.140033 0.643236 0.191598
O O7 0.877626 0.533810 0.243899
O O8 0.454328 0.846709 0.584808
O O9 0.808960 0.693345 0.626936
O O10 0.132796 0.840146 0.665725
O O11 0.290022 0.665863 0.816011
O O12 0.998404 0.827765 0.841938
O O13 0.423187 0.097778 0.170039
O O14 0.500000 0.500000 0.000000
O O15 0.120739 0.617369 0.958156
O O16 0.926675 0.797030 0.031993
O O17 0.000000 0.000000 0.000000
#
# Coordination Sequence:
#
# PCOD9003380 Si02
#       8
#     2   2   2   2   2   2   2   2
#     4  11  22  39  66  98 126 167 213 260 312 380
#     4  11  24  40  70  91 123 176 212 263 316 369
#     4  10  24  45  61  94 130 165 221 257 314 378
#     4  10  25  42  63  93 130 171 210 260 314 377
#     4  11  23  40  66  94 134 172 204 261 322 374
#     4  11  23  45  67  94 129 162 213 270 316 378
#     4  10  22  40  61  97 130 163 212 255 321 382
#     4  10  21  37  59  93 134 166 204 257 310 384
#
# _framework density 21.861345
#
# number of rings (size 3 to 8) (size 9 to 14) (size 15 to 20)
#    0.000    1.500    2.500    1.500    3.500    4.000 
#    2.250    2.500    0.000    0.000    0.000    0.000 
#    0.000    0.000    0.000    0.000    0.000    0.000 
#
# Total GULP energy -89336.953791 kJ/mol
# GULP energy per Si atom -5583.559612 kJ/mol
# Density = 2.181159 g / cm^3
# Si number density = 21.861345 Si / 1000 Ang^3
#
#
#
# Elastic Constant Matrix: (Units=GPa)
#
#
# Indices 1 2 3 4 5 6 
#
# 1 42.4608 7.5422 7.9421 1.5431 13.8055 -0.2600
# 2 7.5422 93.1488 22.5047 1.8942 13.5630 -3.5337
# 3 7.9421 22.5047 88.3707 10.5862 27.7351 -2.0394
# 4 1.5431 1.8942 10.5862 25.2144 6.2782 4.1956
# 5 13.8055 13.5630 27.7351 6.2782 33.9918 -1.1011
# 6 -0.2600 -3.5337 -2.0394 4.1956 -1.1011 18.3502
#
#
#
# Elastic Compliance Matrix: (Units=1/GPa)
#
#
# Indices 1 2 3 4 5 6 
#
# 1 0.027338 -0.000835 0.001443 0.000895 -0.012130 -0.000546
# 2 -0.000835 0.011755 -0.002091 0.000416 -0.002665 0.001764
# 3 0.001443 -0.002091 0.016001 -0.003914 -0.012033 0.001569
# 4 0.000895 0.000416 -0.003914 0.044496 -0.005906 -0.010870
# 5 -0.012130 -0.002665 -0.012033 -0.005906 0.046386 0.002112
# 6 -0.000546 0.001764 0.001569 -0.010870 0.002112 0.057614
#
#
# Mechanical properties :
#
#
# Convention : Reuss Voigt Hill
#
# Bulk Modulus (GPa) = 19.18405 33.32869 26.25637
# Shear Modulus (GPa) = 22.32827 27.91071 25.11949
#
# Velocity S-wave (km/s) = 3.19934 3.57699 3.39342
# Velocity P-wave (km/s) = 4.73730 5.68669 5.23357
#
# Compressibility (1/GPa) = 0.05212663
#
# Stress axis : x y z
#
# Youngs Moduli (GPa) = 36.57964 85.07153 62.49780
#
# Poissons Ratio (x) = 0.07102 -0.09018
# Poissons Ratio (y) = 0.03054 0.13070
# Poissons Ratio (z) = -0.05278 0.17791
#
# Static dielectric constant tensor:
#      x y z
#    x 1.826940 0.028940 0.035730 
#    y 0.028940 1.807620 -0.020410 
#    z 0.035730 -0.020410 1.828100 
# 
# From -- ./inp_files/69382.got.cif
#   From: 2010.05.17/outbox.cif.g08.bks.cpg/sg2_35_cif.got.tgz:69382.got - 2010.06.03 11:33:40.
