data_PCOD9003893
_publ_section_title
;
Structure prediction by ZEFSAII (Michael W. Deem and Ramdas Pophale) SiO2 
 PCOD9003893
Probable space group: P -1
;
_chemical_formula_sum "Si O2"
_cell_formula_units_Z 12
_cell_length_a 8.187517
_cell_length_b 11.664183
_cell_length_c 9.574698
_cell_angle_alpha 102.365591
_cell_angle_beta 87.824671
_cell_angle_gamma 35.053103
_cell_volume 474.472804
_symmetry_space_group_name_H-M "P -1"
_symmetry_group_IT_number 2
_symmetry_cell_setting 'triclinic'
loop_
_space_group_symop_operation_xyz
x,y,z
-x,-y,-z
loop_
_atom_site_type_symbol
_atom_site_label
_atom_site_fract_x
_atom_site_fract_y
_atom_site_fract_z
Si Si1 0.128752 0.912493 0.299532
Si Si2 0.344070 0.066110 0.875038
Si Si3 0.440613 0.152527 0.634818
Si Si4 0.593980 0.703211 0.603926
Si Si5 0.645777 0.438598 0.629257
Si Si6 0.799129 0.231409 0.016072
O O1 0.261851 0.959219 0.341901
O O2 0.676881 0.682685 0.435564
O O3 0.179330 0.782564 0.381181
O O4 0.329353 0.742783 0.117205
O O5 0.569878 0.834676 0.731264
O O6 0.282949 0.202959 0.795519
O O7 0.023760 0.199110 0.956084
O O8 0.500000 0.000000 0.000000
O O9 0.765469 0.121513 0.334467
O O10 0.500000 0.000000 0.500000
O O11 0.793109 0.477145 0.605148
O O12 0.500000 0.500000 0.500000
O O13 0.416481 0.602808 0.807476
O O14 0.000000 0.000000 0.000000
#
# Coordination Sequence:
#
# PCOD9003893 Si02
#       6
#     2   2   2   2   2   2
#     4  11  22  40  72  92 128 175 216 271 313 380
#     4  10  21  37  68  91 126 175 209 261 324 386
#     4  10  21  37  62  96 132 170 208 258 335 383
#     4  10  22  42  65  97 126 171 219 259 323 383
#     4  12  24  39  69 101 126 161 231 271 311 376
#     4  11  22  43  67  97 126 171 225 260 320 386
#
# _framework density 25.291229999999999
#
# number of rings (size 3 to 8) (size 9 to 14) (size 15 to 20)
#    0.000    1.333    5.000    2.000    0.000    0.000 
#    0.000    0.833    7.333   12.000    0.000    0.000 
#    0.000    0.000    0.000    0.000    0.000    0.000 
#
# Total GULP energy -67043.096162 kJ/mol
# GULP energy per Si atom -5586.924680 kJ/mol
# Density = 2.523367 g / cm^3
# Si number density = 25.291230 Si / 1000 Ang^3
#
#
#
# Elastic Constant Matrix: (Units=GPa)
#
#
# Indices 1 2 3 4 5 6 
#
# 1 137.6864 23.6023 61.0094 -2.9657 -10.6707 17.5195
# 2 23.6023 104.5304 16.0744 -25.2989 -14.9179 26.6138
# 3 61.0094 16.0744 177.3945 -31.2180 -1.9563 5.6665
# 4 -2.9657 -25.2989 -31.2180 48.5880 13.2698 -16.6196
# 5 -10.6707 -14.9179 -1.9563 13.2698 59.9147 -11.5465
# 6 17.5195 26.6138 5.6665 -16.6196 -11.5465 29.7642
#
#
#
# Elastic Compliance Matrix: (Units=1/GPa)
#
#
# Indices 1 2 3 4 5 6 
#
# 1 0.010058 -0.001028 -0.004043 -0.005122 0.001266 -0.006601
# 2 -0.001028 0.012971 0.000098 0.003595 0.000560 -0.008787
# 3 -0.004043 0.000098 0.008051 0.006669 -0.001130 0.004045
# 4 -0.005122 0.003595 0.006669 0.032758 -0.004121 0.015223
# 5 0.001266 0.000560 -0.001130 -0.004121 0.018686 0.003917
# 6 -0.006601 -0.008787 0.004045 0.015223 0.003917 0.054589
#
#
# Mechanical properties :
#
#
# Convention : Reuss Voigt Hill
#
# Bulk Modulus (GPa) = 47.31730 68.99817 58.15773
# Shear Modulus (GPa) = 32.44588 48.91506 40.68047
#
# Velocity S-wave (km/s) = 3.58563 4.40258 4.01494
# Velocity P-wave (km/s) = 5.99099 7.29276 6.67369
#
# Compressibility (1/GPa) = 0.02113392
#
# Stress axis : x y z
#
# Youngs Moduli (GPa) = 99.42316 77.09578 124.21513
#
# Poissons Ratio (x) = 0.07925 0.50215
# Poissons Ratio (y) = 0.10220 -0.01214
# Poissons Ratio (z) = 0.40193 -0.00753
#
# Static dielectric constant tensor:
#      x y z
#    x 2.083330 0.001650 0.034410 
#    y 0.001650 2.114570 -0.014120 
#    z 0.034410 -0.014120 2.059490 
# 
# From -- ./inp_files/171284.got.cif
#   From: 2010.05.17/outbox.cif.g08.bks.cpg/sg2_86_cif.got.tgz:171284.got - 2010.06.03 11:33:40.
