data_PCOD9003709
_publ_section_title
;
Structure prediction by ZEFSAII (Michael W. Deem and Ramdas Pophale) SiO2 
 PCOD9003709
Probable space group: P -1
;
_chemical_formula_sum "Si O2"
_cell_formula_units_Z 12
_cell_length_a 5.755786
_cell_length_b 5.219033
_cell_length_c 17.477146
_cell_angle_alpha 96.833409
_cell_angle_beta 111.351112
_cell_angle_gamma 62.803917
_cell_volume 434.203925
_symmetry_space_group_name_H-M "P -1"
_symmetry_group_IT_number 2
_symmetry_cell_setting 'triclinic'
loop_
_space_group_symop_operation_xyz
x,y,z
-x,-y,-z
loop_
_atom_site_type_symbol
_atom_site_label
_atom_site_fract_x
_atom_site_fract_y
_atom_site_fract_z
Si Si1 0.121884 0.235575 0.065596
Si Si2 0.226631 0.852385 0.589578
Si Si3 0.667385 0.726338 0.454151
Si Si4 0.250501 0.568091 0.732674
Si Si5 0.718841 0.109090 0.105421
Si Si6 0.853567 0.442560 0.774545
O O1 0.438170 0.073973 0.068522
O O2 0.189719 0.296557 0.163735
O O3 0.868668 0.154469 0.049916
O O4 0.000000 0.500000 0.000000
O O5 0.429364 0.525937 0.573551
O O6 0.119702 0.811118 0.658439
O O7 0.348134 0.084958 0.616551
O O8 0.000000 0.000000 0.500000
O O9 0.000000 0.500000 0.500000
O O10 0.500000 0.000000 0.500000
O O11 0.318674 0.643444 0.828923
O O12 0.567105 0.419472 0.733988
O O13 0.016094 0.464668 0.719884
O O14 0.941449 0.827663 0.162594
#
# Coordination Sequence:
#
# PCOD9003709 Si02
#       6
#     2   2   2   2   2   2
#     4  10  21  37  61  95 126 164 214 268 328 405
#     4  10  23  43  68  98 136 180 240 303 364 431
#     4  10  22  43  65  96 138 178 230 303 376 441
#     4  10  23  41  62  93 125 177 224 281 345 417
#     4  10  21  39  61  87 131 167 215 270 333 409
#     4  10  22  41  62  90 130 170 221 271 337 416
#
# _framework density 27.636783000000001
#
# number of rings (size 3 to 8) (size 9 to 14) (size 15 to 20)
#    0.000    2.000    0.000    2.000    2.333    4.000 
#    9.000    0.000    0.000    0.000    0.000    0.000 
#    0.000    0.000    0.000    0.000    0.000    0.000 
#
# Total GULP energy -66827.011610 kJ/mol
# GULP energy per Si atom -5568.917634 kJ/mol
# Density = 2.757388 g / cm^3
# Si number density = 27.636783 Si / 1000 Ang^3
#
#
#
# Elastic Constant Matrix: (Units=GPa)
#
#
# Indices 1 2 3 4 5 6 
#
# 1 300.5680 90.8163 101.9261 -13.4369 -30.6764 -6.3446
# 2 90.8163 121.4430 38.2892 -12.9024 -19.9433 3.1991
# 3 101.9261 38.2892 140.8540 -8.2647 -41.5787 -10.7520
# 4 -13.4369 -12.9024 -8.2647 44.9916 7.8149 -14.9710
# 5 -30.6764 -19.9433 -41.5787 7.8149 78.3624 -6.3694
# 6 -6.3446 3.1991 -10.7520 -14.9710 -6.3694 54.7027
#
#
#
# Elastic Compliance Matrix: (Units=1/GPa)
#
#
# Indices 1 2 3 4 5 6 
#
# 1 0.005249 -0.002995 -0.003050 0.000281 -0.000336 0.000222
# 2 -0.002995 0.011002 -0.000394 0.001838 0.001201 -0.000425
# 3 -0.003050 -0.000394 0.011066 0.001089 0.004688 0.002688
# 4 0.000281 0.001838 0.001089 0.025518 -0.000818 0.007028
# 5 -0.000336 0.001201 0.004688 -0.000818 0.015701 0.002417
# 6 0.000222 -0.000425 0.002688 0.007028 0.002417 0.021064
#
#
# Mechanical properties :
#
#
# Convention : Reuss Voigt Hill
#
# Bulk Modulus (GPa) = 69.24996 113.88090 91.56543
# Shear Modulus (GPa) = 46.60224 57.73355 52.16790
#
# Velocity S-wave (km/s) = 4.11084 4.57553 4.34939
# Velocity P-wave (km/s) = 6.90243 8.31924 7.64373
#
# Compressibility (1/GPa) = 0.01444044
#
# Stress axis : x y z
#
# Youngs Moduli (GPa) = 190.50405 90.89466 90.36332
#
# Poissons Ratio (x) = 0.27222 0.27561
# Poissons Ratio (y) = 0.57055 0.03556
# Poissons Ratio (z) = 0.58103 0.03577
#
# Static dielectric constant tensor:
#      x y z
#    x 2.550080 0.141890 0.163450 
#    y 0.141890 2.434550 0.303320 
#    z 0.163450 0.303320 2.545490 
# 
# From -- ./inp_files/9166.got.cif
#   From: 2010.05.17/outbox.cif.g08.bks.cpg/sg2_5_cif.got.tgz:9166.got - 2010.06.03 11:33:40.
