data_PCOD9003794
_publ_section_title
;
Structure prediction by ZEFSAII (Michael W. Deem and Ramdas Pophale) SiO2 
 PCOD9003794
Probable space group: P -1
;
_chemical_formula_sum "Si O2"
_cell_formula_units_Z 14
_cell_length_a 8.075779
_cell_length_b 9.172536
_cell_length_c 17.792013
_cell_angle_alpha 49.961349
_cell_angle_beta 42.767071
_cell_angle_gamma 60.420682
_cell_volume 684.576638
_symmetry_space_group_name_H-M "P -1"
_symmetry_group_IT_number 2
_symmetry_cell_setting 'triclinic'
loop_
_space_group_symop_operation_xyz
x,y,z
-x,-y,-z
loop_
_atom_site_type_symbol
_atom_site_label
_atom_site_fract_x
_atom_site_fract_y
_atom_site_fract_z
Si Si1 0.496163 0.284559 0.041226
Si Si2 0.026444 0.927480 0.099282
Si Si3 0.370313 0.936091 0.639098
Si Si4 0.290787 0.092503 0.315220
Si Si5 0.265097 0.296184 0.621509
Si Si6 0.171988 0.706012 0.535028
Si Si7 0.976864 0.712838 0.904058
O O1 0.456100 0.154867 0.171262
O O2 0.264999 0.269990 0.069781
O O3 0.500000 0.500000 0.000000
O O4 0.728616 0.207877 0.941301
O O5 0.813087 0.790149 0.243479
O O6 0.028892 0.118060 0.087268
O O7 0.000000 0.000000 0.000000
O O8 0.558596 0.908067 0.655961
O O9 0.204324 0.755797 0.759252
O O10 0.500000 0.000000 0.500000
O O11 0.194528 0.123486 0.649955
O O12 0.050890 0.231104 0.357719
O O13 0.195153 0.879334 0.411761
O O14 0.135658 0.498418 0.583001
O O15 0.557939 0.313353 0.511028
O O16 0.000000 0.500000 0.000000
#
# Coordination Sequence:
#
# PCOD9003794 Si02
#       7
#     2   2   2   2   2   2   2
#     4  12  24  41  69  94 127 170 219 269 326 383
#     4  11  22  42  63  93 134 168 211 268 320 385
#     4  10  22  41  60  89 132 165 208 263 321 379
#     4  10  21  37  62  90 123 161 211 262 311 380
#     4   9  19  36  59  86 123 162 205 253 310 377
#     4   9  18  34  59  87 120 153 216 243 310 371
#     4  11  25  43  65  97 129 173 220 267 328 390
#
# _framework density 20.450596999999998
#
# number of rings (size 3 to 8) (size 9 to 14) (size 15 to 20)
#    0.000    1.714    0.000    5.571    6.000    0.000 
#    5.143    0.714    0.000    0.000    0.000    0.000 
#    0.000    0.000    0.000    0.000    0.000    0.000 
#
# Total GULP energy -78035.284266 kJ/mol
# GULP energy per Si atom -5573.948876 kJ/mol
# Density = 2.040405 g / cm^3
# Si number density = 20.450597 Si / 1000 Ang^3
#
#
#
# Elastic Constant Matrix: (Units=GPa)
#
#
# Indices 1 2 3 4 5 6 
#
# 1 85.2296 12.0295 23.4188 3.8779 0.3715 -0.8800
# 2 12.0295 127.3832 39.5632 -13.2699 -2.3172 -9.6947
# 3 23.4188 39.5632 110.2802 4.8508 -3.0056 -1.3191
# 4 3.8779 -13.2699 4.8508 33.7061 -0.2932 -4.7255
# 5 0.3715 -2.3172 -3.0056 -0.2932 28.5856 4.1963
# 6 -0.8800 -9.6947 -1.3191 -4.7255 4.1963 25.4297
#
#
#
# Elastic Compliance Matrix: (Units=1/GPa)
#
#
# Indices 1 2 3 4 5 6 
#
# 1 0.012540 -0.000593 -0.002405 -0.001347 -0.000464 -0.000091
# 2 -0.000593 0.009901 -0.003602 0.005121 -0.000184 0.004549
# 3 -0.002405 -0.003602 0.011011 -0.002943 0.001104 -0.001614
# 4 -0.001347 0.005121 -0.002943 0.033389 -0.000720 0.008076
# 5 -0.000464 -0.000184 0.001104 -0.000720 0.035978 -0.006100
# 6 -0.000091 0.004549 -0.001614 0.008076 -0.006100 0.043479
#
#
# Mechanical properties :
#
#
# Convention : Reuss Voigt Hill
#
# Bulk Modulus (GPa) = 49.37618 52.54625 50.96121
# Shear Modulus (GPa) = 30.07553 34.06972 32.07263
#
# Velocity S-wave (km/s) = 3.83906 4.08604 3.96447
# Velocity P-wave (km/s) = 6.62176 6.92899 6.77712
#
# Compressibility (1/GPa) = 0.02025268
#
# Stress axis : x y z
#
# Youngs Moduli (GPa) = 79.74597 100.99546 90.81878
#
# Poissons Ratio (x) = 0.05989 0.21839
# Poissons Ratio (y) = 0.04729 0.32714
# Poissons Ratio (z) = 0.19176 0.36379
#
# Static dielectric constant tensor:
#      x y z
#    x 1.753740 -0.006670 -0.026150 
#    y -0.006670 1.846260 0.041550 
#    z -0.026150 0.041550 1.795060 
# 
# From -- ./inp_files/214095.got.cif
#   From: 2010.05.17/outbox.cif.g08.bks.cpg/sg2_108_cif.got.tgz:214095.got - 2010.06.03 11:33:40.
