data_PCOD9003737
_publ_section_title
;
Structure prediction by ZEFSAII (Michael W. Deem and Ramdas Pophale) SiO2 
 PCOD9003737
Probable space group: P -1
;
_chemical_formula_sum "Si O2"
_cell_formula_units_Z 16
_cell_length_a 13.328509
_cell_length_b 16.360428
_cell_length_c 8.542006
_cell_angle_alpha 139.226111
_cell_angle_beta 42.407373
_cell_angle_gamma 145.099948
_cell_volume 660.827906
_symmetry_space_group_name_H-M "P -1"
_symmetry_group_IT_number 2
_symmetry_cell_setting 'triclinic'
loop_
_space_group_symop_operation_xyz
x,y,z
-x,-y,-z
loop_
_atom_site_type_symbol
_atom_site_label
_atom_site_fract_x
_atom_site_fract_y
_atom_site_fract_z
Si Si1 0.574230 0.156658 0.451095
Si Si2 0.776505 0.014790 0.974368
Si Si3 0.201471 0.831679 0.406018
Si Si4 0.856124 0.722883 0.231011
Si Si5 0.546376 0.463551 0.563508
Si Si6 0.845554 0.434149 0.717009
Si Si7 0.158130 0.207733 0.287569
Si Si8 0.589907 0.210055 0.141892
O O1 0.645510 0.312045 0.688546
O O2 0.564066 0.176447 0.306359
O O3 0.387070 0.995522 0.482198
O O4 0.733741 0.131941 0.253881
O O5 0.974011 0.122129 0.819417
O O6 0.788442 0.909720 0.932916
O O7 0.602808 0.900587 0.892714
O O8 0.146509 0.675438 0.328058
O O9 0.036252 0.846743 0.634273
O O10 0.262390 0.812337 0.134130
O O11 0.653396 0.661027 0.311705
O O12 0.859858 0.759527 0.461983
O O13 0.866544 0.579463 0.982490
O O14 0.500000 0.500000 0.500000
O O15 0.679227 0.627175 0.732232
O O16 0.647530 0.382581 0.304550
O O17 0.000000 0.500000 0.500000
#
# Coordination Sequence:
#
# PCOD9003737 Si02
#       8
#     2   2   2   2   2   2   2   2
#     4  11  25  45  70 100 135 183 221 277 336 403
#     4  11  21  40  68  99 140 164 220 278 341 394
#     4  11  25  43  74 101 130 179 229 282 338 384
#     4  11  22  39  69  96 134 181 213 272 350 386
#     4  10  21  37  62 101 138 168 210 276 345 389
#     4  12  27  47  65  94 143 185 228 267 331 415
#     4  11  23  39  70 107 128 167 225 288 337 396
#     4  11  22  42  74 106 133 166 235 286 327 399
#
# _framework density 24.212052
#
# number of rings (size 3 to 8) (size 9 to 14) (size 15 to 20)
#    0.000    1.000    3.750    5.250    5.250    1.000 
#    0.000    1.250    0.000    0.000    0.000    0.000 
#    0.000    0.000    0.000    0.000    0.000    0.000 
#
# Total GULP energy -89542.490804 kJ/mol
# GULP energy per Si atom -5596.405675 kJ/mol
# Density = 2.415694 g / cm^3
# Si number density = 24.212052 Si / 1000 Ang^3
#
#
#
# Elastic Constant Matrix: (Units=GPa)
#
#
# Indices 1 2 3 4 5 6 
#
# 1 73.2991 15.9099 23.6703 5.0617 -13.1286 0.2339
# 2 15.9099 113.8996 14.8832 6.3028 -3.3322 8.0974
# 3 23.6703 14.8832 83.0109 16.8428 -8.5688 -4.3447
# 4 5.0617 6.3028 16.8428 44.6179 -2.9492 -10.9662
# 5 -13.1286 -3.3322 -8.5688 -2.9492 31.0775 -6.4062
# 6 0.2339 8.0974 -4.3447 -10.9662 -6.4062 40.7840
#
#
#
# Elastic Compliance Matrix: (Units=1/GPa)
#
#
# Indices 1 2 3 4 5 6 
#
# 1 0.016243 -0.001691 -0.003762 0.000419 0.005863 0.000876
# 2 -0.001691 0.009392 -0.001122 -0.001354 -0.000648 -0.002440
# 3 -0.003762 -0.001122 0.014498 -0.004534 0.002041 0.000890
# 4 0.000419 -0.001354 -0.004534 0.026239 0.002771 0.007274
# 5 0.005863 -0.000648 0.002041 0.002771 0.036821 0.006841
# 6 0.000876 -0.002440 0.000890 0.007274 0.006841 0.028124
#
#
# Mechanical properties :
#
#
# Convention : Reuss Voigt Hill
#
# Bulk Modulus (GPa) = 37.06109 42.12627 39.59368
# Shear Modulus (GPa) = 32.58145 37.67895 35.13020
#
# Velocity S-wave (km/s) = 3.67232 3.94916 3.81325
# Velocity P-wave (km/s) = 5.77246 6.18313 5.98132
#
# Compressibility (1/GPa) = 0.02698247
#
# Stress axis : x y z
#
# Youngs Moduli (GPa) = 61.56394 106.47465 68.97638
#
# Poissons Ratio (x) = 0.18007 0.25952
# Poissons Ratio (y) = 0.10412 0.07736
# Poissons Ratio (z) = 0.23163 0.11942
#
# Static dielectric constant tensor:
#      x y z
#    x 1.961240 0.013690 0.023300 
#    y 0.013690 1.934710 -0.015850 
#    z 0.023300 -0.015850 1.962080 
# 
# From -- ./inp_files/318140.got.cif
#   From: 2010.05.17/outbox.cif.g08.bks.cpg/sg2_160_cif.got.tgz:318140.got - 2010.06.03 11:33:40.
