data_PCOD9004759
_publ_section_title
;
Structure prediction by ZEFSAII (Michael W. Deem and Ramdas Pophale) SiO2 
 PCOD9004759
Probable space group: P -1
;
_chemical_formula_sum "Si O2"
_cell_formula_units_Z 16
_cell_length_a 22.705512
_cell_length_b 6.996555
_cell_length_c 8.267227
_cell_angle_alpha 100.714425
_cell_angle_beta 49.574669
_cell_angle_gamma 125.861079
_cell_volume 769.173384
_symmetry_space_group_name_H-M "P -1"
_symmetry_group_IT_number 2
_symmetry_cell_setting 'triclinic'
loop_
_space_group_symop_operation_xyz
x,y,z
-x,-y,-z
loop_
_atom_site_type_symbol
_atom_site_label
_atom_site_fract_x
_atom_site_fract_y
_atom_site_fract_z
Si Si1 0.628685 0.135649 0.672742
Si Si2 0.235855 0.900695 0.799945
Si Si3 0.912652 0.597480 0.149425
Si Si4 0.108918 0.214432 0.276230
Si Si5 0.806921 0.313797 0.611507
Si Si6 0.446926 0.603085 0.035813
Si Si7 0.256399 0.133532 0.139650
Si Si8 0.131814 0.083141 0.857115
O O1 0.686103 0.124603 0.421574
O O2 0.703020 0.227690 0.708365
O O3 0.600537 0.318100 0.739943
O O4 0.529409 0.858369 0.836820
O O5 0.133162 0.620289 0.934559
O O6 0.215741 0.055033 0.741370
O O7 0.264334 0.018491 0.943913
O O8 0.884077 0.460980 0.351048
O O9 0.857839 0.722531 0.255335
O O10 0.028264 0.815966 0.959403
O O11 0.148898 0.489717 0.290914
O O12 0.180601 0.183727 0.241023
O O13 0.115108 0.167511 0.070742
O O14 0.000000 0.000000 0.500000
O O15 0.786182 0.066296 0.672701
O O16 0.360073 0.387386 0.044384
O O17 0.500000 0.500000 0.000000
#
# Coordination Sequence:
#
# PCOD9004759 Si02
#       8
#     2   2   2   2   2   2   2   2
#     4  10  23  41  67  95 125 160 217 267 316 391
#     4  10  23  41  60  94 129 166 210 265 326 377
#     4  10  21  38  58  89 127 170 224 262 313 370
#     4  11  22  40  60  94 129 173 220 261 315 373
#     4  11  21  39  64  93 128 169 215 263 317 382
#     4  11  22  43  71  97 121 166 214 267 326 384
#     4  11  24  41  67  95 133 169 212 267 323 383
#     4  10  21  39  60  84 127 178 215 270 312 373
#
# _framework density 20.801552000000001
#
# number of rings (size 3 to 8) (size 9 to 14) (size 15 to 20)
#    0.000    1.500    3.750    1.125    0.000    5.000 
#    2.250    0.625    0.000    0.000    0.000    0.000 
#    0.000    0.000    0.000    0.000    0.000    0.000 
#
# Total GULP energy -89428.231152 kJ/mol
# GULP energy per Si atom -5589.264447 kJ/mol
# Density = 2.075421 g / cm^3
# Si number density = 20.801552 Si / 1000 Ang^3
#
#
#
# Elastic Constant Matrix: (Units=GPa)
#
#
# Indices 1 2 3 4 5 6 
#
# 1 87.4978 40.4212 27.1971 0.9108 -6.5141 3.7256
# 2 40.4212 133.2510 29.6552 -0.3995 1.0724 23.6180
# 3 27.1971 29.6552 54.8311 7.8525 -1.9012 8.3425
# 4 0.9108 -0.3995 7.8525 31.1485 0.4904 -4.2115
# 5 -6.5141 1.0724 -1.9012 0.4904 27.2094 -3.3271
# 6 3.7256 23.6180 8.3425 -4.2115 -3.3271 47.4635
#
#
#
# Elastic Compliance Matrix: (Units=1/GPa)
#
#
# Indices 1 2 3 4 5 6 
#
# 1 0.015114 -0.003662 -0.005874 0.001209 0.003578 0.002026
# 2 -0.003662 0.010088 -0.003127 0.000478 -0.002025 -0.004282
# 3 -0.005874 -0.003127 0.024181 -0.006343 0.000181 -0.002783
# 4 0.001209 0.000478 -0.006343 0.034192 -0.000325 0.003794
# 5 0.003578 -0.002025 0.000181 -0.000325 0.038115 0.003338
# 6 0.002026 -0.004282 -0.002783 0.003794 0.003338 0.024101
#
#
# Mechanical properties :
#
#
# Convention : Reuss Voigt Hill
#
# Bulk Modulus (GPa) = 41.56647 52.23633 46.90140
# Shear Modulus (GPa) = 27.91206 33.05137 30.48171
#
# Velocity S-wave (km/s) = 3.66707 3.99041 3.83215
# Velocity P-wave (km/s) = 6.16081 6.81157 6.49435
#
# Compressibility (1/GPa) = 0.02405785
#
# Stress axis : x y z
#
# Youngs Moduli (GPa) = 66.16493 99.12682 41.35556
#
# Poissons Ratio (x) = 0.36299 0.24291
# Poissons Ratio (y) = 0.24229 0.12931
# Poissons Ratio (z) = 0.38863 0.30995
#
# Static dielectric constant tensor:
#      x y z
#    x 1.747220 -0.025040 -0.005080 
#    y -0.025040 1.749680 0.035630 
#    z -0.005080 0.035630 1.750470 
# 
# From -- ./inp_files/47814.got.cif
#   From: 2010.05.17/outbox.cif.g08.bks.cpg/sg2_24_cif.got.tgz:47814.got - 2010.06.03 11:33:40.
