data_PCOD9004803
_publ_section_title
;
Structure prediction by ZEFSAII (Michael W. Deem and Ramdas Pophale) SiO2 
 PCOD9004803
Probable space group: P -1
;
_chemical_formula_sum "Si O2"
_cell_formula_units_Z 10
_cell_length_a 6.243739
_cell_length_b 7.665768
_cell_length_c 11.525183
_cell_angle_alpha 83.274490
_cell_angle_beta 99.296054
_cell_angle_gamma 121.298726
_cell_volume 464.800995
_symmetry_space_group_name_H-M "P -1"
_symmetry_group_IT_number 2
_symmetry_cell_setting 'triclinic'
loop_
_space_group_symop_operation_xyz
x,y,z
-x,-y,-z
loop_
_atom_site_type_symbol
_atom_site_label
_atom_site_fract_x
_atom_site_fract_y
_atom_site_fract_z
Si Si1 0.962195 0.097267 0.253588
Si Si2 0.992008 0.453743 0.368550
Si Si3 0.483973 0.335981 0.199136
Si Si4 0.438574 0.721497 0.221033
Si Si5 0.234749 0.723261 0.974235
O O1 0.876687 0.170363 0.125022
O O2 0.001065 0.251875 0.349284
O O3 0.236804 0.136431 0.243217
O O4 0.722906 0.876434 0.274400
O O5 0.229072 0.639377 0.308935
O O6 0.000000 0.500000 0.500000
O O7 0.728785 0.407720 0.294332
O O8 0.429485 0.520789 0.183831
O O9 0.563006 0.298361 0.083812
O O10 0.356582 0.816503 0.101672
O O11 0.000000 0.500000 0.000000
#
# Coordination Sequence:
#
# PCOD9004803 Si02
#       5
#     2   2   2   2   2
#     4  10  23  37  58  91 117 148 194 232 283 345
#     4  10  23  43  61  79 115 155 193 242 289 332
#     4  10  21  38  59  83 118 150 193 232 288 338
#     4  11  22  37  60  88 118 152 190 234 283 341
#     4  11  19  38  59  86 124 153 182 229 288 345
#
# _framework density 21.514582999999998
#
# number of rings (size 3 to 8) (size 9 to 14) (size 15 to 20)
#    0.000    1.600    6.000    1.200    0.000    8.000 
#    0.000    2.000    0.000    0.000    0.000    0.000 
#    0.000    0.000    0.000    0.000    0.000    0.000 
#
# Total GULP energy -55873.422707 kJ/mol
# GULP energy per Si atom -5587.342271 kJ/mol
# Density = 2.146561 g / cm^3
# Si number density = 21.514583 Si / 1000 Ang^3
#
#
#
# Elastic Constant Matrix: (Units=GPa)
#
#
# Indices 1 2 3 4 5 6 
#
# 1 101.4929 42.8394 42.6276 -11.7625 -27.6560 42.5067
# 2 42.8394 126.7162 40.3375 8.5889 -17.6018 53.9247
# 3 42.6276 40.3375 142.6387 1.7274 -39.4909 22.4979
# 4 -11.7625 8.5889 1.7274 12.1973 0.9215 -1.1329
# 5 -27.6560 -17.6018 -39.4909 0.9215 20.3001 -8.4163
# 6 42.5067 53.9247 22.4979 -1.1329 -8.4163 51.0695
#
#
#
# Elastic Compliance Matrix: (Units=1/GPa)
#
#
# Indices 1 2 3 4 5 6 
#
# 1 0.030551 0.002011 0.005914 0.021764 0.044628 -0.022320
# 2 0.002011 0.017619 0.001188 -0.013383 0.013083 -0.018942
# 3 0.005914 0.001188 0.016819 -0.001122 0.038868 -0.007205
# 4 0.021764 -0.013383 -0.001122 0.111792 0.011131 0.000825
# 5 0.044628 0.013083 0.038868 0.011131 0.180736 -0.038051
# 6 -0.022320 -0.018942 -0.007205 0.000825 -0.038051 0.055082
#
#
# Mechanical properties :
#
#
# Convention : Reuss Voigt Hill
#
# Bulk Modulus (GPa) = 12.01700 69.16187 40.58943
# Shear Modulus (GPa) = 11.84524 33.04960 22.44742
#
# Velocity S-wave (km/s) = 2.34896 3.92363 3.23361
# Velocity P-wave (km/s) = 3.59923 7.26242 5.73137
#
# Compressibility (1/GPa) = 0.08321548
#
# Stress axis : x y z
#
# Youngs Moduli (GPa) = 32.73181 56.75757 59.45818
#
# Poissons Ratio (x) = -0.11417 -0.35161
# Poissons Ratio (y) = -0.06584 -0.07066
# Poissons Ratio (z) = -0.19356 -0.06745
#
# Static dielectric constant tensor:
#      x y z
#    x 1.808870 -0.001330 0.014980 
#    y -0.001330 1.851040 -0.007280 
#    z 0.014980 -0.007280 1.751770 
# 
# From -- ./inp_files/2319.got.cif
#   From: 2010.05.17/outbox.cif.g08.bks.cpg/sg2_2_cif.got.tgz:2319.got - 2010.06.03 11:33:40.
