data_PCOD9004127
_publ_section_title
;
Structure prediction by ZEFSAII (Michael W. Deem and Ramdas Pophale) SiO2 
 PCOD9004127
Probable space group: P -1
;
_chemical_formula_sum "Si O2"
_cell_formula_units_Z 16
_cell_length_a 14.809703
_cell_length_b 8.925559
_cell_length_c 15.535477
_cell_angle_alpha 133.679400
_cell_angle_beta 43.052143
_cell_angle_gamma 100.099508
_cell_volume 755.397291
_symmetry_space_group_name_H-M "P -1"
_symmetry_group_IT_number 2
_symmetry_cell_setting 'triclinic'
loop_
_space_group_symop_operation_xyz
x,y,z
-x,-y,-z
loop_
_atom_site_type_symbol
_atom_site_label
_atom_site_fract_x
_atom_site_fract_y
_atom_site_fract_z
Si Si1 0.992361 0.646124 0.147291
Si Si2 0.351860 0.619564 0.576526
Si Si3 0.258382 0.162214 0.893752
Si Si4 0.902278 0.083707 0.744314
Si Si5 0.341294 0.172329 0.445945
Si Si6 0.886136 0.390444 0.708350
Si Si7 0.555426 0.801165 0.001474
Si Si8 0.450818 0.730530 0.866827
O O1 0.996375 0.891821 0.243140
O O2 0.811259 0.776940 0.374220
O O3 0.174429 0.386896 0.965893
O O4 0.000000 0.500000 0.000000
O O5 0.500000 0.500000 0.500000
O O6 0.274291 0.474725 0.592658
O O7 0.438292 0.504913 0.376470
O O8 0.239116 0.944666 0.793793
O O9 0.464095 0.004560 0.712637
O O10 0.138316 0.354066 0.135343
O O11 0.912600 0.218953 0.705568
O O12 0.711520 0.237193 0.975913
O O13 0.979651 0.791157 0.534623
O O14 0.379744 0.009918 0.265510
O O15 0.696654 0.536141 0.856375
O O16 0.544724 0.701965 0.878246
O O17 0.607294 0.988155 0.022995
#
# Coordination Sequence:
#
# PCOD9004127 Si02
#       8
#     2   2   2   2   2   2   2   2
#     4  11  25  40  57  92 126 163 211 249 305 367
#     4   9  19  38  65  88 117 164 205 246 317 365
#     4   9  20  40  62  89 116 163 206 246 310 362
#     4  10  23  39  60  89 127 160 201 257 305 362
#     4   9  20  40  64  85 124 163 197 261 304 367
#     4   9  20  41  58  91 120 163 200 242 314 369
#     4   9  20  39  62  93 117 162 207 248 316 361
#     4  10  21  37  64  92 123 155 206 261 301 366
#
# _framework density 21.180910000000001
#
# number of rings (size 3 to 8) (size 9 to 14) (size 15 to 20)
#    0.000    2.500    0.000    0.750    8.750    3.000 
#    9.000    0.000    0.000    0.000    0.000    0.000 
#    0.000    0.000    0.000    0.000    0.000    0.000 
#
# Total GULP energy -89091.016139 kJ/mol
# GULP energy per Si atom -5568.188509 kJ/mol
# Density = 2.113270 g / cm^3
# Si number density = 21.180910 Si / 1000 Ang^3
#
#
#
# Elastic Constant Matrix: (Units=GPa)
#
#
# Indices 1 2 3 4 5 6 
#
# 1 100.1772 19.5882 64.6770 -4.4611 45.1494 18.4608
# 2 19.5882 -34.3289 -60.2654 38.7537 5.2327 -35.6163
# 3 64.6770 -60.2654 -185.9682 143.0586 14.7828 -134.6225
# 4 -4.4611 38.7537 143.0586 -46.4257 13.9289 81.1984
# 5 45.1494 5.2327 14.7828 13.9289 39.1487 -9.3512
# 6 18.4608 -35.6163 -134.6225 81.1984 -9.3512 -64.4352
#
#
#
# Elastic Compliance Matrix: (Units=1/GPa)
#
#
# Indices 1 2 3 4 5 6 
#
# 1 0.017858 0.000505 0.000481 -0.004994 -0.018996 0.000296
# 2 0.000505 -0.054976 0.002067 -0.005680 0.012137 0.017295
# 3 0.000481 0.002067 0.019259 0.009911 -0.017878 -0.026158
# 4 -0.004994 -0.005680 0.009911 0.023775 -0.002962 0.011392
# 5 -0.018996 0.012137 -0.017878 -0.002962 0.056793 0.013225
# 6 0.000296 0.017295 -0.026158 0.011392 0.013225 0.042092
#
#
# Mechanical properties :
#
#
# Convention : Reuss Voigt Hill
#
# Bulk Modulus (GPa) = -85.08214 -8.01337 -46.54776
# Shear Modulus (GPa) = 52.75481 -23.95044 14.40218
#
# Velocity S-wave (km/s) = 4.99608 -3.36632 2.61043
# Velocity P-wave (km/s) = 2.64109 4.34753 3.59697
#
# Compressibility (1/GPa) = -0.01175335
#
# Stress axis : x y z
#
# Youngs Moduli (GPa) = 55.99814 -18.18987 51.92389
#
# Poissons Ratio (x) = 0.00918 -0.02497
# Poissons Ratio (y) = -0.02827 -0.10733
# Poissons Ratio (z) = -0.02693 0.03760
#
# Static dielectric constant tensor:
#      x y z
#    x 1.832800 0.004600 0.031880 
#    y 0.004600 1.812190 0.070240 
#    z 0.031880 0.070240 1.792010 
# 
# From -- ./inp_files/530127.got.cif
#   From: 2010.05.17/outbox.cif.g08.bks.cpg/sg2_266_cif.got.tgz:530127.got - 2010.06.03 11:33:40.
