data_PCOD9004505
_publ_section_title
;
Structure prediction by ZEFSAII (Michael W. Deem and Ramdas Pophale) SiO2 
 PCOD9004505
Probable space group: P -1
;
_chemical_formula_sum "Si O2"
_cell_formula_units_Z 12
_cell_length_a 8.287700
_cell_length_b 5.177742
_cell_length_c 13.803856
_cell_angle_alpha 98.658457
_cell_angle_beta 49.624186
_cell_angle_gamma 97.582462
_cell_volume 445.646289
_symmetry_space_group_name_H-M "P -1"
_symmetry_group_IT_number 2
_symmetry_cell_setting 'triclinic'
loop_
_space_group_symop_operation_xyz
x,y,z
-x,-y,-z
loop_
_atom_site_type_symbol
_atom_site_label
_atom_site_fract_x
_atom_site_fract_y
_atom_site_fract_z
Si Si1 0.174516 0.821901 0.210975
Si Si2 0.587099 0.659238 0.834404
Si Si3 0.241647 0.029187 0.550881
Si Si4 0.164601 0.348336 0.990149
Si Si5 0.854942 0.967100 0.201852
Si Si6 0.751451 0.511218 0.565135
O O1 0.017615 0.974187 0.352117
O O2 0.358579 0.045047 0.137999
O O3 0.012945 0.770230 0.182189
O O4 0.247264 0.551783 0.207687
O O5 0.364220 0.535030 0.951037
O O6 0.604917 0.634565 0.710529
O O7 0.286241 0.315293 0.505842
O O8 0.313439 0.789167 0.446916
O O9 0.284762 0.973591 0.645509
O O10 0.027017 0.192098 0.114921
O O11 0.244917 0.139648 0.865301
O O12 0.000000 0.500000 0.000000
O O13 0.000000 0.500000 0.500000
#
# Coordination Sequence:
#
# PCOD9004505 Si02
#       6
#     2   2   2   2   2   2
#     4  10  22  41  68 101 130 163 218 273 318 387
#     4  12  25  40  68 106 128 169 222 266 323 385
#     4  10  21  37  68  92 133 166 206 261 333 379
#     4  11  27  46  68  86 135 180 219 273 323 388
#     4   9  24  46  65  93 126 181 214 268 332 384
#     4  12  18  37  63 101 135 164 200 271 326 386
#
# _framework density 26.927185999999999
#
# number of rings (size 3 to 8) (size 9 to 14) (size 15 to 20)
#    1.000    0.333    3.333    1.500    9.333    1.333 
#    0.000    1.667    0.000    0.000    0.000    0.000 
#    0.000    0.000    0.000    0.000    0.000    0.000 
#
# Total GULP energy -67098.908592 kJ/mol
# GULP energy per Si atom -5591.575716 kJ/mol
# Density = 2.686590 g / cm^3
# Si number density = 26.927186 Si / 1000 Ang^3
#
#
#
# Elastic Constant Matrix: (Units=GPa)
#
#
# Indices 1 2 3 4 5 6 
#
# 1 54.4887 3.7129 -1.7558 -7.6399 11.4397 1.1989
# 2 3.7129 84.6974 13.4148 -7.7256 22.2609 0.6719
# 3 -1.7558 13.4148 85.4471 5.8327 20.0930 0.4147
# 4 -7.6399 -7.7256 5.8327 44.1121 -3.7331 5.2548
# 5 11.4397 22.2609 20.0930 -3.7331 32.5387 -3.2690
# 6 1.1989 0.6719 0.4147 5.2548 -3.2690 50.2667
#
#
#
# Elastic Compliance Matrix: (Units=1/GPa)
#
#
# Indices 1 2 3 4 5 6 
#
# 1 0.020766 0.001520 0.002236 0.002934 -0.009531 -0.001461
# 2 0.001520 0.014687 0.000057 0.002075 -0.010493 -0.001132
# 3 0.002236 0.000057 0.014232 -0.002256 -0.009931 -0.000582
# 4 0.002934 0.002075 -0.002256 0.024264 0.001472 -0.002520
# 5 -0.009531 -0.010493 -0.009931 0.001472 0.047906 0.003411
# 6 -0.001461 -0.001132 -0.000582 -0.002520 0.003411 0.020434
#
#
# Mechanical properties :
#
#
# Convention : Reuss Voigt Hill
#
# Bulk Modulus (GPa) = 17.44876 28.37522 22.91199
# Shear Modulus (GPa) = 32.51663 39.33425 35.92544
#
# Velocity S-wave (km/s) = 3.47879 3.82614 3.65659
# Velocity P-wave (km/s) = 4.75710 5.48450 5.13370
#
# Compressibility (1/GPa) = 0.05731067
#
# Stress axis : x y z
#
# Youngs Moduli (GPa) = 48.15661 68.08616 70.26309
#
# Poissons Ratio (x) = -0.10348 -0.15712
# Poissons Ratio (y) = -0.07319 -0.00399
# Poissons Ratio (z) = -0.10769 -0.00386
#
# Static dielectric constant tensor:
#      x y z
#    x 2.168310 0.049440 0.074270 
#    y 0.049440 2.049200 0.059410 
#    z 0.074270 0.059410 2.368180 
# 
# From -- ./inp_files/511128.got.cif
#   From: 2010.05.17/outbox.cif.g08.bks.cpg/sg2_256_cif.got.tgz:511128.got - 2010.06.03 11:33:40.
