data_PCOD9004184
_publ_section_title
;
Structure prediction by ZEFSAII (Michael W. Deem and Ramdas Pophale) SiO2 
 PCOD9004184
Probable space group: P -1
;
_chemical_formula_sum "Si O2"
_cell_formula_units_Z 14
_cell_length_a 11.120665
_cell_length_b 7.586572
_cell_length_c 7.522175
_cell_angle_alpha 108.926907
_cell_angle_beta 85.890103
_cell_angle_gamma 118.780457
_cell_volume 523.420254
_symmetry_space_group_name_H-M "P -1"
_symmetry_group_IT_number 2
_symmetry_cell_setting 'triclinic'
loop_
_space_group_symop_operation_xyz
x,y,z
-x,-y,-z
loop_
_atom_site_type_symbol
_atom_site_label
_atom_site_fract_x
_atom_site_fract_y
_atom_site_fract_z
Si Si1 0.707647 0.114575 0.541214
Si Si2 0.856282 0.094107 0.830288
Si Si3 0.439716 0.217579 0.101639
Si Si4 0.154820 0.369619 0.936286
Si Si5 0.581882 0.388615 0.771747
Si Si6 0.714009 0.311296 0.265469
Si Si7 0.760736 0.756817 0.461894
O O1 0.828979 0.217335 0.709825
O O2 0.755290 0.187676 0.360467
O O3 0.661821 0.865126 0.493309
O O4 0.604066 0.204034 0.622262
O O5 0.997116 0.234716 0.961622
O O6 0.713600 0.970697 0.912386
O O7 0.863557 0.907201 0.652407
O O8 0.480000 0.275943 0.912034
O O9 0.557688 0.182175 0.169677
O O10 0.456100 0.440078 0.252101
O O11 0.269328 0.449849 0.100531
O O12 0.189355 0.577312 0.878330
O O13 0.182983 0.230312 0.739520
O O14 0.281309 0.484293 0.566945
#
# Coordination Sequence:
#
# PCOD9004184 Si02
#       7
#     2   2   2   2   2   2   2
#     4  10  22  38  66  98 123 161 216 254 316 366
#     4  10  21  37  64  96 122 163 213 260 301 382
#     4  10  22  42  64  88 130 168 209 255 322 366
#     4   9  20  42  66  87 131 164 206 256 322 363
#     4  10  22  42  63  91 122 176 204 259 316 378
#     4   9  20  42  65  89 129 166 202 262 309 374
#     4   8  20  39  62  96 120 162 206 260 296 381
#
# _framework density 26.747149
#
# number of rings (size 3 to 8) (size 9 to 14) (size 15 to 20)
#    1.714    0.857    0.000    1.286    0.000    5.143 
#    2.571    2.857    0.000    0.000    0.000    0.000 
#    0.000    0.000    0.000    0.000    0.000    0.000 
#
# Total GULP energy -78241.866405 kJ/mol
# GULP energy per Si atom -5588.704743 kJ/mol
# Density = 2.668627 g / cm^3
# Si number density = 26.747149 Si / 1000 Ang^3
#
#
#
# Elastic Constant Matrix: (Units=GPa)
#
#
# Indices 1 2 3 4 5 6 
#
# 1 93.0844 59.4268 22.4898 8.8665 6.5573 20.6266
# 2 59.4268 143.4172 24.7974 7.0637 15.7617 -6.0675
# 3 22.4898 24.7974 66.7064 7.7604 0.4273 5.2342
# 4 8.8665 7.0637 7.7604 45.5967 -11.5817 5.7227
# 5 6.5573 15.7617 0.4273 -11.5817 41.9244 3.4269
# 6 20.6266 -6.0675 5.2342 5.7227 3.4269 52.9506
#
#
#
# Elastic Compliance Matrix: (Units=1/GPa)
#
#
# Indices 1 2 3 4 5 6 
#
# 1 0.017635 -0.007160 -0.002607 -0.000871 0.000321 -0.007359
# 2 -0.007160 0.010940 -0.001813 -0.001535 -0.003777 0.004632
# 3 -0.002607 -0.001813 0.016812 -0.001872 0.000457 -0.000681
# 4 -0.000871 -0.001535 -0.001872 0.025018 0.007878 -0.002865
# 5 0.000321 -0.003777 0.000457 0.007878 0.027659 -0.003244
# 6 -0.007359 0.004632 -0.000681 -0.002865 -0.003244 0.022870
#
#
# Mechanical properties :
#
#
# Convention : Reuss Voigt Hill
#
# Bulk Modulus (GPa) = 44.99299 57.40399 51.19849
# Shear Modulus (GPa) = 33.00232 41.19396 37.09814
#
# Velocity S-wave (km/s) = 3.51645 3.92870 3.72828
# Velocity P-wave (km/s) = 5.77454 6.48752 6.14139
#
# Compressibility (1/GPa) = 0.02222569
#
# Stress axis : x y z
#
# Youngs Moduli (GPa) = 56.70489 91.40897 59.47956
#
# Poissons Ratio (x) = 0.65452 0.15507
# Poissons Ratio (y) = 0.40602 0.10786
# Poissons Ratio (z) = 0.14784 0.16577
#
# Static dielectric constant tensor:
#      x y z
#    x 2.064680 -0.021890 -0.057070 
#    y -0.021890 2.093870 0.079220 
#    z -0.057070 0.079220 2.257300 
# 
# From -- ./inp_files/235586.got.cif
#   From: 2010.05.17/outbox.cif.g08.bks.cpg/sg2_118_cif.got.tgz:235586.got - 2010.06.03 11:33:40.
