data_PCOD9004215
_publ_section_title
;
Structure prediction by ZEFSAII (Michael W. Deem and Ramdas Pophale) SiO2 
 PCOD9004215
Probable space group: P -1
;
_chemical_formula_sum "Si O2"
_cell_formula_units_Z 12
_cell_length_a 13.261732
_cell_length_b 5.794349
_cell_length_c 12.079046
_cell_angle_alpha 87.862157
_cell_angle_beta 136.281300
_cell_angle_gamma 66.225120
_cell_volume 501.557981
_symmetry_space_group_name_H-M "P -1"
_symmetry_group_IT_number 2
_symmetry_cell_setting 'triclinic'
loop_
_space_group_symop_operation_xyz
x,y,z
-x,-y,-z
loop_
_atom_site_type_symbol
_atom_site_label
_atom_site_fract_x
_atom_site_fract_y
_atom_site_fract_z
Si Si1 0.656404 0.545357 0.986717
Si Si2 0.658893 0.536172 0.609670
Si Si3 0.299488 0.638172 0.740249
Si Si4 0.957934 0.737084 0.373040
Si Si5 0.607850 0.949361 0.759000
Si Si6 0.076188 0.074521 0.890175
O O1 0.496472 0.506915 0.847964
O O2 0.589638 0.830900 0.861234
O O3 0.680343 0.556571 0.136842
O O4 0.839977 0.245578 0.086694
O O5 0.500000 0.500000 0.500000
O O6 0.656776 0.712297 0.708560
O O7 0.868697 0.243863 0.766324
O O8 0.583598 0.748684 0.439025
O O9 0.139794 0.721496 0.528844
O O10 0.220499 0.946798 0.730719
O O11 0.933489 0.730579 0.223042
O O12 0.000000 0.500000 0.500000
O O13 0.776108 0.965595 0.905689
#
# Coordination Sequence:
#
# PCOD9004215 Si02
#       6
#     2   2   2   2   2   2
#     4  10  22  41  67  95 137 175 216 269 331 390
#     4  11  27  47  68  97 131 172 226 281 330 389
#     4   9  21  39  60  99 136 173 214 267 321 390
#     4  10  21  37  64  98 133 173 220 262 322 396
#     4  11  25  44  68  98 129 175 220 278 334 391
#     4  11  25  42  68  99 131 176 219 274 332 388
#
# _framework density 23.925452
#
# number of rings (size 3 to 8) (size 9 to 14) (size 15 to 20)
#    0.000    1.667    0.000    2.500    7.000    5.333 
#    0.000    5.000    0.000    0.000    0.000    0.000 
#    0.000    0.000    0.000    0.000    0.000    0.000 
#
# Total GULP energy -67163.352360 kJ/mol
# GULP energy per Si atom -5596.946030 kJ/mol
# Density = 2.387100 g / cm^3
# Si number density = 23.925452 Si / 1000 Ang^3
#
#
#
# Elastic Constant Matrix: (Units=GPa)
#
#
# Indices 1 2 3 4 5 6 
#
# 1 72.8752 18.0539 29.9012 -13.1446 4.0796 -2.7066
# 2 18.0539 37.0370 14.8185 6.9746 10.2070 -9.1220
# 3 29.9012 14.8185 126.7027 6.5858 7.7880 -4.3516
# 4 -13.1446 6.9746 6.5858 44.8737 5.3167 -1.5479
# 5 4.0796 10.2070 7.7880 5.3167 55.6419 -20.7649
# 6 -2.7066 -9.1220 -4.3516 -1.5479 -20.7649 28.5705
#
#
#
# Elastic Compliance Matrix: (Units=1/GPa)
#
#
# Indices 1 2 3 4 5 6 
#
# 1 0.018943 -0.009436 -0.003790 0.007571 -0.000505 -0.001752
# 2 -0.009436 0.036175 -0.001194 -0.007699 -0.001768 0.008772
# 3 -0.003790 -0.001194 0.009077 -0.002191 -0.000506 0.000156
# 4 0.007571 -0.007699 -0.002191 0.026201 -0.002174 -0.002235
# 5 -0.000505 -0.001768 -0.000506 -0.002174 0.025125 0.017454
# 6 -0.001752 0.008772 0.000156 -0.002235 0.017454 0.050224
#
#
# Mechanical properties :
#
#
# Convention : Reuss Voigt Hill
#
# Bulk Modulus (GPa) = 28.28360 40.24022 34.26191
# Shear Modulus (GPa) = 24.22829 37.40665 30.81747
#
# Velocity S-wave (km/s) = 3.18568 3.95836 3.59285
# Velocity P-wave (km/s) = 5.03772 6.14386 5.61808
#
# Compressibility (1/GPa) = 0.03535617
#
# Stress axis : x y z
#
# Youngs Moduli (GPa) = 52.78867 27.64349 110.17077
#
# Poissons Ratio (x) = 0.26084 0.41751
# Poissons Ratio (y) = 0.49811 0.13153
# Poissons Ratio (z) = 0.20005 0.03300
#
# Static dielectric constant tensor:
#      x y z
#    x 1.941660 0.034880 -0.037330 
#    y 0.034880 1.924620 0.014130 
#    z -0.037330 0.014130 1.890950 
# 
# From -- ./inp_files/58162.got.cif
#   From: 2010.05.17/outbox.cif.g08.bks.cpg/sg2_30_cif.got.tgz:58162.got - 2010.06.03 11:33:40.
