data_PCOD9004213
_publ_section_title
;
Structure prediction by ZEFSAII (Michael W. Deem and Ramdas Pophale) SiO2 
 PCOD9004213
Probable space group: P -1
;
_chemical_formula_sum "Si O2"
_cell_formula_units_Z 16
_cell_length_a 14.863228
_cell_length_b 5.321609
_cell_length_c 9.636594
_cell_angle_alpha 76.665149
_cell_angle_beta 93.489774
_cell_angle_gamma 68.711390
_cell_volume 682.212644
_symmetry_space_group_name_H-M "P -1"
_symmetry_group_IT_number 2
_symmetry_cell_setting 'triclinic'
loop_
_space_group_symop_operation_xyz
x,y,z
-x,-y,-z
loop_
_atom_site_type_symbol
_atom_site_label
_atom_site_fract_x
_atom_site_fract_y
_atom_site_fract_z
Si Si1 0.593584 0.986529 0.696390
Si Si2 0.150482 0.843429 0.402574
Si Si3 0.546470 0.351394 0.880454
Si Si4 0.053781 0.665190 0.064560
Si Si5 0.578731 0.205036 0.384567
Si Si6 0.253834 0.578700 0.173431
Si Si7 0.792007 0.796011 0.414233
Si Si8 0.981364 0.720150 0.346113
O O1 0.579346 0.044255 0.852725
O O2 0.592555 0.216339 0.551172
O O3 0.507462 0.898239 0.647389
O O4 0.696294 0.729749 0.716916
O O5 0.201189 0.799956 0.262228
O O6 0.189320 0.528637 0.513983
O O7 0.033200 0.932808 0.363550
O O8 0.176191 0.050958 0.475951
O O9 0.462003 0.504935 0.737655
O O10 0.650955 0.380622 0.877662
O O11 0.500000 0.500000 0.000000
O O12 0.168473 0.588213 0.059983
O O13 0.041869 0.588466 0.232122
O O14 0.000000 0.500000 0.000000
O O15 0.000000 0.000000 0.000000
O O16 0.678665 0.984052 0.358945
O O17 0.865801 0.820594 0.298957
O O18 0.000000 0.500000 0.500000
#
# Coordination Sequence:
#
# PCOD9004213 Si02
#       8
#     2   2   2   2   2   2   2   2
#     4  10  21  42  67  91 129 166 234 275 337 402
#     4  10  21  37  64  98 130 171 222 273 338 406
#     4  11  25  42  63  97 135 179 221 285 347 417
#     4  11  27  47  71 104 141 186 235 285 344 428
#     4  10  22  37  64  98 123 171 222 282 330 397
#     4  10  23  41  69  93 128 185 224 276 343 413
#     4  11  21  36  63  99 134 168 215 285 344 384
#     4   9  22  43  68 100 137 177 229 288 343 405
#
# _framework density 23.453099999999999
#
# number of rings (size 3 to 8) (size 9 to 14) (size 15 to 20)
#    0.000    1.750    1.250    1.500    3.500   10.000 
#    2.250    0.000    0.000    0.000    0.000    0.000 
#    0.000    0.000    0.000    0.000    0.000    0.000 
#
# Total GULP energy -89205.704706 kJ/mol
# GULP energy per Si atom -5575.356544 kJ/mol
# Density = 2.339972 g / cm^3
# Si number density = 23.453100 Si / 1000 Ang^3
#
#
#
# Elastic Constant Matrix: (Units=GPa)
#
#
# Indices 1 2 3 4 5 6 
#
# 1 107.4731 32.1320 8.7678 -13.7146 18.6815 -21.0118
# 2 32.1320 79.0629 12.4195 7.1590 11.6752 5.3048
# 3 8.7678 12.4195 59.6623 22.6527 1.5572 4.0472
# 4 -13.7146 7.1590 22.6527 37.5472 -9.3711 6.7637
# 5 18.6815 11.6752 1.5572 -9.3711 44.1035 5.6502
# 6 -21.0118 5.3048 4.0472 6.7637 5.6502 41.6926
#
#
#
# Elastic Compliance Matrix: (Units=1/GPa)
#
#
# Indices 1 2 3 4 5 6 
#
# 1 0.014357 -0.005728 -0.003654 0.006081 -0.004156 0.007896
# 2 -0.005728 0.016073 -0.000341 -0.004858 -0.002363 -0.003790
# 3 -0.003654 -0.000341 0.023532 -0.015855 -0.002410 -0.001183
# 4 0.006081 -0.004858 -0.015855 0.041972 0.008540 -0.002744
# 5 -0.004156 -0.002363 -0.002410 0.008540 0.027820 -0.006715
# 6 0.007896 -0.003790 -0.001183 -0.002744 -0.006715 0.029917
#
#
# Mechanical properties :
#
#
# Convention : Reuss Voigt Hill
#
# Bulk Modulus (GPa) = 28.97050 39.20410 34.08730
# Shear Modulus (GPa) = 27.08263 37.52725 32.30494
#
# Velocity S-wave (km/s) = 3.40186 4.00446 3.71540
# Velocity P-wave (km/s) = 5.27347 6.17521 5.74207
#
# Compressibility (1/GPa) = 0.03451787
#
# Stress axis : x y z
#
# Youngs Moduli (GPa) = 69.65148 62.21740 42.49547
#
# Poissons Ratio (x) = 0.35636 0.15526
# Poissons Ratio (y) = 0.39894 0.01448
# Poissons Ratio (z) = 0.25448 0.02119
#
# Static dielectric constant tensor:
#      x y z
#    x 1.980650 -0.006050 -0.020610 
#    y -0.006050 2.039420 0.028020 
#    z -0.020610 0.028020 2.027850 
# 
# From -- ./inp_files/288873.got.cif
#   From: 2010.05.17/outbox.cif.g08.bks.cpg/sg2_145_cif.got.tgz:288873.got - 2010.06.03 11:33:40.
