data_PCOD9004711
_publ_section_title
;
Structure prediction by ZEFSAII (Michael W. Deem and Ramdas Pophale) SiO2 
 PCOD9004711
Probable space group: P -1
;
_chemical_formula_sum "Si O2"
_cell_formula_units_Z 16
_cell_length_a 20.766589
_cell_length_b 24.437753
_cell_length_c 8.723701
_cell_angle_alpha 45.270420
_cell_angle_beta 146.407964
_cell_angle_gamma 158.328565
_cell_volume 849.218989
_symmetry_space_group_name_H-M "P -1"
_symmetry_group_IT_number 2
_symmetry_cell_setting 'triclinic'
loop_
_space_group_symop_operation_xyz
x,y,z
-x,-y,-z
loop_
_atom_site_type_symbol
_atom_site_label
_atom_site_fract_x
_atom_site_fract_y
_atom_site_fract_z
Si Si1 0.480024 0.221607 0.835378
Si Si2 0.488310 0.222478 0.219473
Si Si3 0.594096 0.582906 0.359268
Si Si4 0.208271 0.465222 0.665766
Si Si5 0.214095 0.462486 0.315528
Si Si6 0.943968 0.930157 0.362216
Si Si7 0.338316 0.836697 0.190986
Si Si8 0.337379 0.832669 0.827648
O O1 0.620531 0.376698 0.747189
O O2 0.489467 0.226978 0.028396
O O3 0.599216 0.212795 0.027693
O O4 0.203978 0.065724 0.540926
O O5 0.691620 0.396043 0.346284
O O6 0.535834 0.163987 0.483434
O O7 0.236420 0.113876 0.988698
O O8 0.500000 0.500000 0.500000
O O9 0.700238 0.571322 0.503961
O O10 0.794786 0.765360 0.411263
O O11 0.373439 0.494608 0.007203
O O12 0.229169 0.475926 0.502677
O O13 0.931196 0.297717 0.488617
O O14 0.939035 0.318054 0.009597
O O15 0.000000 0.000000 0.500000
O O16 0.476089 0.994516 0.193557
O O17 0.349078 0.833661 0.033821
#
# Coordination Sequence:
#
# PCOD9004711 Si02
#       8
#     2   2   2   2   2   2   2   2
#     4  11  22  37  60  84 114 150 190 232 280 332
#     4  10  21  38  58  83 113 148 188 234 278 332
#     4  11  22  38  61  86 115 146 187 235 278 330
#     4  10  22  39  58  82 115 150 187 228 282 338
#     4  11  22  38  59  83 114 152 187 228 280 337
#     4   9  20  38  56  83 116 146 182 229 282 331
#     4  10  22  39  58  82 115 148 189 234 280 334
#     4  10  22  39  58  83 113 150 188 233 282 334
#
# _framework density 18.840841999999999
#
# number of rings (size 3 to 8) (size 9 to 14) (size 15 to 20)
#    0.000    1.750    0.000    4.875    0.000    8.500 
#    0.000    6.875    0.000    0.000    0.000    0.000 
#    0.000    0.000    0.000    0.000    0.000    0.000 
#
# Total GULP energy -89381.553099 kJ/mol
# GULP energy per Si atom -5586.347069 kJ/mol
# Density = 1.879796 g / cm^3
# Si number density = 18.840842 Si / 1000 Ang^3
#
#
#
# Elastic Constant Matrix: (Units=GPa)
#
#
# Indices 1 2 3 4 5 6 
#
# 1 65.1420 36.0620 33.6067 3.7544 24.6779 -15.4869
# 2 36.0620 146.0014 95.7477 9.3723 22.7968 -2.4241
# 3 33.6067 95.7477 129.1592 -1.2439 19.5584 2.2098
# 4 3.7544 9.3723 -1.2439 35.6605 -4.6332 5.9237
# 5 24.6779 22.7968 19.5584 -4.6332 29.4275 -1.7290
# 6 -15.4869 -2.4241 2.2098 5.9237 -1.7290 33.4770
#
#
#
# Elastic Compliance Matrix: (Units=1/GPa)
#
#
# Indices 1 2 3 4 5 6 
#
# 1 0.030567 0.000013 -0.004826 -0.008837 -0.022955 0.014838
# 2 0.000013 0.014784 -0.010245 -0.005342 -0.005353 0.002421
# 3 -0.004826 -0.010245 0.016496 0.004772 0.001487 -0.004831
# 4 -0.008837 -0.005342 0.004772 0.033929 0.013125 -0.010116
# 5 -0.022955 -0.005353 0.001487 0.013125 0.057844 -0.010440
# 6 0.014838 0.002421 -0.004831 -0.010116 -0.010440 0.038481
#
#
# Mechanical properties :
#
#
# Convention : Reuss Voigt Hill
#
# Bulk Modulus (GPa) = 31.51521 74.57060 53.04291
# Shear Modulus (GPa) = 21.47840 31.37208 26.42524
#
# Velocity S-wave (km/s) = 3.38004 4.08500 3.74913
# Velocity P-wave (km/s) = 5.65652 7.86860 6.85241
#
# Compressibility (1/GPa) = 0.03173071
#
# Stress axis : x y z
#
# Youngs Moduli (GPa) = 32.71533 67.64208 60.62013
#
# Poissons Ratio (x) = -0.00085 0.29253
# Poissons Ratio (y) = -0.00041 0.62105
# Poissons Ratio (z) = 0.15787 0.69299
#
# Static dielectric constant tensor:
#      x y z
#    x 1.641110 0.010620 0.003610 
#    y 0.010620 1.626710 0.024360 
#    z 0.003610 0.024360 1.645080 
# 
# From -- ./inp_files/190092.got.cif
#   From: 2010.05.17/outbox.cif.g08.bks.cpg/sg2_96_cif.got.tgz:190092.got - 2010.06.03 11:33:40.
