data_PCOD9004082
_publ_section_title
;
Structure prediction by ZEFSAII (Michael W. Deem and Ramdas Pophale) SiO2 
 PCOD9004082
Probable space group: P -1
;
_chemical_formula_sum "Si O2"
_cell_formula_units_Z 16
_cell_length_a 21.507960
_cell_length_b 5.003180
_cell_length_c 8.696675
_cell_angle_alpha 117.365351
_cell_angle_beta 126.816742
_cell_angle_gamma 65.871665
_cell_volume 653.544909
_symmetry_space_group_name_H-M "P -1"
_symmetry_group_IT_number 2
_symmetry_cell_setting 'triclinic'
loop_
_space_group_symop_operation_xyz
x,y,z
-x,-y,-z
loop_
_atom_site_type_symbol
_atom_site_label
_atom_site_fract_x
_atom_site_fract_y
_atom_site_fract_z
Si Si1 0.773813 0.375256 0.576212
Si Si2 0.346778 0.727536 0.864843
Si Si3 0.066811 0.195390 0.506435
Si Si4 0.911434 0.698378 0.775884
Si Si5 0.941859 0.765246 0.166661
Si Si6 0.692739 0.061666 0.615519
Si Si7 0.456657 0.772449 0.778835
Si Si8 0.377335 0.392480 0.122181
O O1 0.734452 0.233736 0.337084
O O2 0.857133 0.450464 0.672086
O O3 0.762622 0.162632 0.646186
O O4 0.721024 0.715274 0.621737
O O5 0.414924 0.611328 0.808544
O O6 0.347482 0.475987 0.928154
O O7 0.363716 0.048471 0.043622
O O8 0.109165 0.207593 0.407822
O O9 0.107591 0.189054 0.735071
O O10 0.000000 0.500000 0.500000
O O11 0.013752 0.938367 0.349209
O O12 0.007411 0.578274 0.874816
O O13 0.902741 0.876939 0.975250
O O14 0.615754 0.082205 0.398115
O O15 0.667958 0.333697 0.770777
O O16 0.529311 0.592073 0.740624
O O17 0.500000 0.000000 0.000000
#
# Coordination Sequence:
#
# PCOD9004082 Si02
#       8
#     2   2   2   2   2   2   2   2
#     4  11  24  43  60  86 126 174 202 248 310 390
#     4  10  21  39  61  87 123 158 209 249 313 381
#     4   9  18  36  59  91 123 148 193 266 312 363
#     4  10  21  37  64  86 119 167 207 252 320 368
#     4   9  19  38  62  93 119 149 213 262 305 369
#     4  11  24  41  59  90 129 157 210 259 308 375
#     4   9  19  37  64  89 116 160 208 257 312 370
#     4  11  21  39  63  91 119 159 206 267 314 352
#
# _framework density 24.481867999999999
#
# number of rings (size 3 to 8) (size 9 to 14) (size 15 to 20)
#    0.000    2.000    0.000    4.125    1.750    3.000 
#    2.250   11.250    0.000    0.000    0.000    0.000 
#    0.000    0.000    0.000    0.000    0.000    0.000 
#
# Total GULP energy -89261.727817 kJ/mol
# GULP energy per Si atom -5578.857989 kJ/mol
# Density = 2.442615 g / cm^3
# Si number density = 24.481868 Si / 1000 Ang^3
#
#
#
# Elastic Constant Matrix: (Units=GPa)
#
#
# Indices 1 2 3 4 5 6 
#
# 1 113.8317 9.6002 50.7736 5.5821 -19.3326 -9.1281
# 2 9.6002 61.8522 6.1204 9.2967 -12.7515 -3.8304
# 3 50.7736 6.1204 116.4163 -7.6079 -23.9352 0.0080
# 4 5.5821 9.2967 -7.6079 31.4188 1.7593 -1.8808
# 5 -19.3326 -12.7515 -23.9352 1.7593 40.4033 2.7219
# 6 -9.1281 -3.8304 0.0080 -1.8808 2.7219 38.5868
#
#
#
# Elastic Compliance Matrix: (Units=1/GPa)
#
#
# Indices 1 2 3 4 5 6 
#
# 1 0.011733 -0.000159 -0.004759 -0.003198 0.002722 0.002413
# 2 -0.000159 0.018323 -0.000063 -0.005671 0.005842 0.001093
# 3 -0.004759 -0.000063 0.011849 0.003395 0.004662 -0.001298
# 4 -0.003198 -0.005671 0.003395 0.035093 -0.002877 0.000593
# 5 0.002722 0.005842 0.004662 -0.002877 0.030858 -0.001094
# 6 0.002413 0.001093 -0.001298 0.000593 -0.001094 0.026701
#
#
# Mechanical properties :
#
#
# Convention : Reuss Voigt Hill
#
# Bulk Modulus (GPa) = 31.30536 47.23206 39.26871
# Shear Modulus (GPa) = 32.22339 37.12218 34.67278
#
# Velocity S-wave (km/s) = 3.63190 3.89821 3.76741
# Velocity P-wave (km/s) = 5.51385 6.29253 5.91602
#
# Compressibility (1/GPa) = 0.03194341
#
# Stress axis : x y z
#
# Youngs Moduli (GPa) = 85.22682 54.57624 84.39492
#
# Poissons Ratio (x) = 0.00868 0.40160
# Poissons Ratio (y) = 0.01356 0.00535
# Poissons Ratio (z) = 0.40556 0.00346
#
# Static dielectric constant tensor:
#      x y z
#    x 1.997160 -0.087200 -0.070700 
#    y -0.087200 2.137180 0.035220 
#    z -0.070700 0.035220 2.001720 
# 
# From -- ./inp_files/142946.got.cif
#   From: 2010.05.17/outbox.cif.g08.bks.cpg/sg2_72_cif.got.tgz:142946.got - 2010.06.03 11:33:40.
