data_PCOD9004781
_publ_section_title
;
Structure prediction by ZEFSAII (Michael W. Deem and Ramdas Pophale) SiO2 
 PCOD9004781
Probable space group: P -1
;
_chemical_formula_sum "Si O2"
_cell_formula_units_Z 16
_cell_length_a 13.333062
_cell_length_b 7.724275
_cell_length_c 14.173528
_cell_angle_alpha 117.904201
_cell_angle_beta 133.493685
_cell_angle_gamma 36.601251
_cell_volume 619.206253
_symmetry_space_group_name_H-M "P -1"
_symmetry_group_IT_number 2
_symmetry_cell_setting 'triclinic'
loop_
_space_group_symop_operation_xyz
x,y,z
-x,-y,-z
loop_
_atom_site_type_symbol
_atom_site_label
_atom_site_fract_x
_atom_site_fract_y
_atom_site_fract_z
Si Si1 0.204098 0.520304 0.110562
Si Si2 0.385519 0.489161 0.028812
Si Si3 0.228860 0.183888 0.553734
Si Si4 0.613949 0.046958 0.803028
Si Si5 0.909066 0.242116 0.578711
Si Si6 0.736828 0.825946 0.624597
Si Si7 0.156105 0.950994 0.856039
Si Si8 0.469439 0.574210 0.607654
O O1 0.269042 0.485746 0.033661
O O2 0.296359 0.219665 0.136493
O O3 0.324312 0.578997 0.247863
O O4 0.975838 0.794997 0.081763
O O5 0.625962 0.181425 0.076884
O O6 0.402709 0.704190 0.121962
O O7 0.238795 0.663914 0.885987
O O8 0.232587 0.083032 0.426160
O O9 0.000000 0.500000 0.500000
O O10 0.386500 0.198078 0.670188
O O11 0.316709 0.923227 0.611430
O O12 0.748899 0.890405 0.754336
O O13 0.913133 0.470675 0.637650
O O14 0.663684 0.465500 0.456850
O O15 0.000000 0.000000 0.500000
O O16 0.004074 0.087421 0.702916
O O17 0.500000 0.000000 0.500000
O O18 0.500000 0.500000 0.500000
#
# Coordination Sequence:
#
# PCOD9004781 Si02
#       8
#     2   2   2   2   2   2   2   2
#     4  11  23  47  71 100 143 180 237 291 353 424
#     4  11  27  46  75  98 138 196 234 295 350 406
#     4  10  22  35  57  94 137 170 221 279 339 420
#     4  10  23  44  65  99 140 178 235 292 343 421
#     4  12  23  38  67  96 134 179 215 285 356 404
#     4  10  21  38  58  93 136 166 220 277 335 419
#     4  11  25  48  67 105 143 175 254 290 332 443
#     4  11  21  35  59  94 125 170 215 271 345 409
#
# _framework density 25.839531000000001
#
# number of rings (size 3 to 8) (size 9 to 14) (size 15 to 20)
#    0.000    1.250    2.500    3.375   10.500    1.500 
#    0.000    2.500    0.000    0.000    0.000    0.000 
#    0.000    0.000    0.000    0.000    0.000    0.000 
#
# Total GULP energy -89254.188928 kJ/mol
# GULP energy per Si atom -5578.386808 kJ/mol
# Density = 2.578072 g / cm^3
# Si number density = 25.839531 Si / 1000 Ang^3
#
#
#
# Elastic Constant Matrix: (Units=GPa)
#
#
# Indices 1 2 3 4 5 6 
#
# 1 122.3667 68.0381 49.2269 -11.1614 -19.4529 -10.1733
# 2 68.0381 164.8538 22.6074 -5.6699 -7.9640 -13.2957
# 3 49.2269 22.6074 83.2509 -6.7444 -10.9652 4.4039
# 4 -11.1614 -5.6699 -6.7444 37.0496 -6.7546 -2.0121
# 5 -19.4529 -7.9640 -10.9652 -6.7546 43.8494 -0.3376
# 6 -10.1733 -13.2957 4.4039 -2.0121 -0.3376 48.2005
#
#
#
# Elastic Compliance Matrix: (Units=1/GPa)
#
#
# Indices 1 2 3 4 5 6 
#
# 1 0.014672 -0.004588 -0.006687 0.003474 0.004559 0.002619
# 2 -0.004588 0.007971 0.000411 -0.000113 -0.000493 0.001185
# 3 -0.006687 0.000411 0.016262 0.001102 0.001324 -0.002728
# 4 0.003474 -0.000113 0.001102 0.029481 0.006352 0.001877
# 5 0.004559 -0.000493 0.001324 0.006352 0.026057 0.001153
# 6 0.002619 0.001185 -0.002728 0.001877 0.001153 0.021962
#
#
# Mechanical properties :
#
#
# Convention : Reuss Voigt Hill
#
# Bulk Modulus (GPa) = 58.20915 72.24625 65.22770
# Shear Modulus (GPa) = 34.75681 41.19317 37.97499
#
# Velocity S-wave (km/s) = 3.67154 3.99706 3.83776
# Velocity P-wave (km/s) = 6.36786 7.02298 6.70343
#
# Compressibility (1/GPa) = 0.01717943
#
# Stress axis : x y z
#
# Youngs Moduli (GPa) = 68.15539 125.45807 61.49309
#
# Poissons Ratio (x) = 0.57555 0.41119
# Poissons Ratio (y) = 0.31267 -0.02530
# Poissons Ratio (z) = 0.45573 -0.05162
#
# Static dielectric constant tensor:
#      x y z
#    x 2.145030 -0.005890 -0.034900 
#    y -0.005890 2.100070 -0.004090 
#    z -0.034900 -0.004090 2.069780 
# 
# From -- ./inp_files/529992.got.cif
#   From: 2010.05.17/outbox.cif.g08.bks.cpg/sg2_265_cif.got.tgz:529992.got - 2010.06.03 11:33:40.
