data_PCOD9004782
_publ_section_title
;
Structure prediction by ZEFSAII (Michael W. Deem and Ramdas Pophale) SiO2 
 PCOD9004782
Probable space group: P -1
;
_chemical_formula_sum "Si O2"
_cell_formula_units_Z 16
_cell_length_a 8.071560
_cell_length_b 14.392048
_cell_length_c 14.288403
_cell_angle_alpha 51.159780
_cell_angle_beta 42.680085
_cell_angle_gamma 44.895802
_cell_volume 774.316481
_symmetry_space_group_name_H-M "P -1"
_symmetry_group_IT_number 2
_symmetry_cell_setting 'triclinic'
loop_
_space_group_symop_operation_xyz
x,y,z
-x,-y,-z
loop_
_atom_site_type_symbol
_atom_site_label
_atom_site_fract_x
_atom_site_fract_y
_atom_site_fract_z
Si Si1 0.624245 0.681563 0.989537
Si Si2 0.802102 0.929790 0.521436
Si Si3 0.748152 0.392494 0.181135
Si Si4 0.304927 0.782124 0.532835
Si Si5 0.661575 0.025742 0.999485
Si Si6 0.168019 0.044047 0.719847
Si Si7 0.308603 0.660325 0.971064
Si Si8 0.783234 0.800401 0.230698
O O1 0.490856 0.712518 0.921844
O O2 0.944837 0.643533 0.888167
O O3 0.599630 0.553021 0.122026
O O4 0.465551 0.816574 0.029138
O O5 0.907794 0.905610 0.386489
O O6 0.027342 0.820991 0.564749
O O7 0.757326 0.078501 0.476072
O O8 0.496150 0.944411 0.644323
O O9 0.625566 0.335369 0.347386
O O10 0.757369 0.318767 0.125165
O O11 0.559729 0.751332 0.377603
O O12 0.982604 0.976723 0.874430
O O13 0.500000 0.000000 0.000000
O O14 0.635354 0.946598 0.149574
O O15 0.115646 0.166284 0.734678
O O16 0.500000 0.500000 0.000000
O O17 0.027935 0.708246 0.117544
#
# Coordination Sequence:
#
# PCOD9004782 Si02
#       8
#     2   2   2   2   2   2   2   2
#     4  10  23  42  63  97 129 170 229 268 331 389
#     4   9  21  37  61  93 138 171 215 269 342 388
#     4  10  23  42  69  93 130 181 221 274 323 405
#     4  10  22  40  63  94 133 175 216 271 330 399
#     4  12  24  36  66  95 133 170 214 283 331 387
#     4  10  21  38  58  94 134 173 215 272 326 406
#     4  10  22  44  70  94 132 175 221 276 328 396
#     4  11  23  39  62 102 131 164 219 277 330 394
#
# _framework density 20.663385000000002
#
# number of rings (size 3 to 8) (size 9 to 14) (size 15 to 20)
#    0.000    1.750    1.250    1.875    8.750    0.000 
#    4.500    2.500    0.000   12.750    0.000    0.000 
#    0.000    0.000    0.000    0.000    0.000    0.000 
#
# Total GULP energy -89370.273727 kJ/mol
# GULP energy per Si atom -5585.642108 kJ/mol
# Density = 2.061635 g / cm^3
# Si number density = 20.663385 Si / 1000 Ang^3
#
#
#
# Elastic Constant Matrix: (Units=GPa)
#
#
# Indices 1 2 3 4 5 6 
#
# 1 131.5920 27.3941 44.4987 -3.2419 5.3302 4.2717
# 2 27.3941 87.1687 37.1856 -1.8068 11.1115 3.0474
# 3 44.4987 37.1856 135.2342 -11.2592 8.6651 -10.6465
# 4 -3.2419 -1.8068 -11.2592 24.3609 0.1676 4.3015
# 5 5.3302 11.1115 8.6651 0.1676 34.3372 4.6573
# 6 4.2717 3.0474 -10.6465 4.3015 4.6573 24.3211
#
#
#
# Elastic Compliance Matrix: (Units=1/GPa)
#
#
# Indices 1 2 3 4 5 6 
#
# 1 0.008926 -0.001577 -0.002697 0.000288 0.000161 -0.002632
# 2 -0.001577 0.013838 -0.003289 -0.000284 -0.003096 -0.002253
# 3 -0.002697 -0.003289 0.009952 0.003122 -0.001725 0.005020
# 4 0.000288 -0.000284 0.003122 0.043631 -0.000093 -0.006347
# 5 0.000161 -0.003096 -0.001725 -0.000093 0.031403 -0.006392
# 6 -0.002632 -0.002253 0.005020 -0.006347 -0.006392 0.046405
#
#
# Mechanical properties :
#
#
# Convention : Reuss Voigt Hill
#
# Bulk Modulus (GPa) = 56.84996 63.57243 60.21120
# Shear Modulus (GPa) = 28.54797 32.93162 30.73979
#
# Velocity S-wave (km/s) = 3.72098 3.99647 3.86118
# Velocity P-wave (km/s) = 6.78477 7.21999 7.00576
#
# Compressibility (1/GPa) = 0.01759016
#
# Stress axis : x y z
#
# Youngs Moduli (GPa) = 112.03808 72.26380 100.48215
#
# Poissons Ratio (x) = 0.11396 0.27099
# Poissons Ratio (y) = 0.17669 0.33047
# Poissons Ratio (z) = 0.30215 0.23767
#
# Static dielectric constant tensor:
#      x y z
#    x 1.773580 -0.015120 -0.002630 
#    y -0.015120 1.752280 0.003320 
#    z -0.002630 0.003320 1.741010 
# 
# From -- ./inp_files/503965.got.cif
#   From: 2010.05.17/outbox.cif.g08.bks.cpg/sg2_252_cif.got.tgz:503965.got - 2010.06.03 11:33:40.
