data_PCOD9004090
_publ_section_title
;
Structure prediction by ZEFSAII (Michael W. Deem and Ramdas Pophale) SiO2 
 PCOD9004090
Probable space group: P -1
;
_chemical_formula_sum "Si O2"
_cell_formula_units_Z 14
_cell_length_a 18.460216
_cell_length_b 11.184620
_cell_length_c 12.142928
_cell_angle_alpha 113.365848
_cell_angle_beta 127.560864
_cell_angle_gamma 24.146399
_cell_volume 707.620218
_symmetry_space_group_name_H-M "P -1"
_symmetry_group_IT_number 2
_symmetry_cell_setting 'triclinic'
loop_
_space_group_symop_operation_xyz
x,y,z
-x,-y,-z
loop_
_atom_site_type_symbol
_atom_site_label
_atom_site_fract_x
_atom_site_fract_y
_atom_site_fract_z
Si Si1 0.746312 0.821132 0.942417
Si Si2 0.895378 0.186441 0.585552
Si Si3 0.685433 0.323954 0.867442
Si Si4 0.438686 0.939038 0.376419
Si Si5 0.313281 0.824998 0.871972
Si Si6 0.954411 0.962871 0.778094
Si Si7 0.028661 0.292756 0.157170
O O1 0.569333 0.042239 0.757230
O O2 0.000000 0.500000 0.000000
O O3 0.789917 0.644635 0.001913
O O4 0.694491 0.018370 0.035148
O O5 0.634311 0.580785 0.467435
O O6 0.912415 0.056237 0.648833
O O7 0.000000 0.000000 0.500000
O O8 0.060796 0.089025 0.741687
O O9 0.422338 0.670298 0.794182
O O10 0.731536 0.293555 0.770708
O O11 0.815590 0.012431 0.885030
O O12 0.831984 0.233754 0.043786
O O13 0.500000 0.000000 0.500000
O O14 0.189021 0.210162 0.286763
O O15 0.500000 0.500000 0.000000
O O16 0.002846 0.749167 0.776502
#
# Coordination Sequence:
#
# PCOD9004090 Si02
#       7
#     2   2   2   2   2   2   2
#     4  10  21  37  64  88 119 165 208 256 303 360
#     4  12  24  38  62  95 131 158 202 259 315 374
#     4   9  19  37  66  95 114 157 216 259 300 354
#     4  11  24  36  59  92 127 165 201 250 318 369
#     4  12  21  37  66  90 123 160 221 258 293 368
#     4   9  21  37  68  89 126 158 211 252 320 357
#     4   9  19  41  63  87 120 161 216 247 302 371
#
# _framework density 19.784624000000001
#
# number of rings (size 3 to 8) (size 9 to 14) (size 15 to 20)
#    0.857    0.857    1.429    5.143    2.000    0.571 
#    0.000    0.714    3.143    1.714    0.000    0.000 
#    0.000    0.000    0.000    0.000    0.000    0.000 
#
# Total GULP energy -78076.274839 kJ/mol
# GULP energy per Si atom -5576.876774 kJ/mol
# Density = 1.973959 g / cm^3
# Si number density = 19.784624 Si / 1000 Ang^3
#
#
#
# Elastic Constant Matrix: (Units=GPa)
#
#
# Indices 1 2 3 4 5 6 
#
# 1 120.1679 24.0747 53.3082 2.1491 -29.8041 14.9530
# 2 24.0747 60.2359 13.8113 6.4704 -17.9252 15.5175
# 3 53.3082 13.8113 94.1599 -1.3912 -21.8347 17.3811
# 4 2.1491 6.4704 -1.3912 30.3450 3.9021 3.0628
# 5 -29.8041 -17.9252 -21.8347 3.9021 45.3511 2.2297
# 6 14.9530 15.5175 17.3811 3.0628 2.2297 32.7275
#
#
#
# Elastic Compliance Matrix: (Units=1/GPa)
#
#
# Indices 1 2 3 4 5 6 
#
# 1 0.012615 -0.001425 -0.005212 -0.001270 0.005454 -0.002573
# 2 -0.001425 0.023280 0.001804 -0.004914 0.010126 -0.011575
# 3 -0.005212 0.001804 0.015886 0.000781 0.005230 -0.007340
# 4 -0.001270 -0.004914 0.000781 0.034860 -0.005381 -0.000400
# 5 0.005454 0.010126 0.005230 -0.005381 0.033199 -0.011828
# 6 -0.002573 -0.011575 -0.007340 -0.000400 -0.011828 0.041961
#
#
# Mechanical properties :
#
#
# Convention : Reuss Voigt Hill
#
# Bulk Modulus (GPa) = 23.74442 50.77246 37.25844
# Shear Modulus (GPa) = 26.95360 33.90934 30.43147
#
# Velocity S-wave (km/s) = 3.69501 4.14445 3.92616
# Velocity P-wave (km/s) = 5.49833 6.97282 6.27901
#
# Compressibility (1/GPa) = 0.04211516
#
# Stress axis : x y z
#
# Youngs Moduli (GPa) = 79.27283 42.95483 62.95041
#
# Poissons Ratio (x) = 0.06119 0.32810
# Poissons Ratio (y) = 0.11293 -0.11356
# Poissons Ratio (z) = 0.41317 -0.07749
#
# Static dielectric constant tensor:
#      x y z
#    x 1.760160 -0.013990 0.000190 
#    y -0.013990 1.700000 -0.012040 
#    z 0.000190 -0.012040 1.731030 
# 
# From -- ./inp_files/471209.got.cif
#   From: 2010.05.17/outbox.cif.g08.bks.cpg/sg2_236_cif.got.tgz:471209.got - 2010.06.03 11:33:40.
