data_PCOD9005419
_publ_section_title
;
Structure prediction by ZEFSAII (Michael W. Deem and Ramdas Pophale) SiO2 
 PCOD9005419
Probable space group: P -1
;
_chemical_formula_sum "Si O2"
_cell_formula_units_Z 16
_cell_length_a 11.844161
_cell_length_b 8.192175
_cell_length_c 20.766264
_cell_angle_alpha 62.122460
_cell_angle_beta 29.274428
_cell_angle_gamma 77.976651
_cell_volume 772.572963
_symmetry_space_group_name_H-M "P -1"
_symmetry_group_IT_number 2
_symmetry_cell_setting 'triclinic'
loop_
_space_group_symop_operation_xyz
x,y,z
-x,-y,-z
loop_
_atom_site_type_symbol
_atom_site_label
_atom_site_fract_x
_atom_site_fract_y
_atom_site_fract_z
Si Si1 0.256817 0.531450 0.138916
Si Si2 0.037283 0.838061 0.419547
Si Si3 0.798471 0.078693 0.419998
Si Si4 0.385868 0.840749 0.906791
Si Si5 0.032318 0.453173 0.919036
Si Si6 0.763439 0.801449 0.068987
Si Si7 0.789298 0.091558 0.277163
Si Si8 0.245561 0.566434 0.288454
O O1 0.001774 0.313773 0.293786
O O2 0.500000 0.500000 0.000000
O O3 0.271545 0.718198 0.052795
O O4 0.247196 0.673193 0.951293
O O5 0.111361 0.706177 0.354725
O O6 0.925743 0.675310 0.563314
O O7 0.303230 0.042158 0.267675
O O8 0.843067 0.918533 0.472939
O O9 0.844475 0.032421 0.331372
O O10 0.505025 0.046144 0.573661
O O11 0.702470 0.982134 0.090340
O O12 0.711564 0.410666 0.812835
O O13 0.182284 0.316072 0.877091
O O14 0.000000 0.500000 0.000000
O O15 0.181065 0.675473 0.770777
O O16 0.006164 0.891387 0.882176
O O17 0.512913 0.647528 0.180548
#
# Coordination Sequence:
#
# PCOD9005419 Si02
#       8
#     2   2   2   2   2   2   2   2
#     4  12  24  41  65  97 133 163 212 264 316 383
#     4  10  23  43  65  96 129 162 214 264 321 379
#     4  11  22  39  62  89 128 166 208 263 308 379
#     4  11  23  40  65  97 124 167 212 262 319 376
#     4  10  21  38  62  87 122 161 206 258 305 371
#     4  10  22  39  65  89 127 167 212 256 315 378
#     4  10  22  39  60  91 123 169 215 249 317 374
#     4  10  24  41  66  98 126 168 206 267 325 370
#
# _framework density 20.710018000000002
#
# number of rings (size 3 to 8) (size 9 to 14) (size 15 to 20)
#    0.000    1.500    2.500    1.875    3.500    3.500 
#    0.000    3.125    0.000    0.000    0.000    0.000 
#    0.000    0.000    0.000    0.000    0.000    0.000 
#
# Total GULP energy -89428.898439 kJ/mol
# GULP energy per Si atom -5589.306152 kJ/mol
# Density = 2.066288 g / cm^3
# Si number density = 20.710018 Si / 1000 Ang^3
#
#
#
# Elastic Constant Matrix: (Units=GPa)
#
#
# Indices 1 2 3 4 5 6 
#
# 1 92.6167 -2.3755 17.0791 -15.5468 -4.8303 -0.2713
# 2 -2.3755 34.0616 -3.1452 -10.7593 -0.0663 -12.9333
# 3 17.0791 -3.1452 76.7649 -19.5109 -16.5949 10.6796
# 4 -15.5468 -10.7593 -19.5109 29.8318 4.7976 5.6359
# 5 -4.8303 -0.0663 -16.5949 4.7976 34.6905 -2.5408
# 6 -0.2713 -12.9333 10.6796 5.6359 -2.5408 24.9091
#
#
#
# Elastic Compliance Matrix: (Units=1/GPa)
#
#
# Indices 1 2 3 4 5 6 
#
# 1 0.012191 0.003145 -0.000881 0.006722 0.000401 0.000663
# 2 0.003145 0.040895 0.002564 0.014713 0.000948 0.016936
# 3 -0.000881 0.002564 0.019685 0.014091 0.006645 -0.009628
# 4 0.006722 0.014713 0.014091 0.053609 -0.000479 -0.010507
# 5 0.000401 0.000948 0.006645 -0.000479 0.032205 0.001041
# 6 0.000663 0.016936 -0.009628 -0.010507 0.001041 0.055558
#
#
# Mechanical properties :
#
#
# Convention : Reuss Voigt Hill
#
# Bulk Modulus (GPa) = 12.13172 25.17335 18.65253
# Shear Modulus (GPa) = 21.55516 30.67862 26.11689
#
# Velocity S-wave (km/s) = 3.22966 3.85300 3.55501
# Velocity P-wave (km/s) = 4.44727 5.65470 5.08694
#
# Compressibility (1/GPa) = 0.08242855
#
# Stress axis : x y z
#
# Youngs Moduli (GPa) = 82.02448 24.45302 50.79950
#
# Poissons Ratio (x) = -0.07690 0.04473
# Poissons Ratio (y) = -0.25796 -0.13026
# Poissons Ratio (z) = 0.07223 -0.06270
#
# Static dielectric constant tensor:
#      x y z
#    x 1.752460 -0.017060 0.002410 
#    y -0.017060 1.775930 -0.010750 
#    z 0.002410 -0.010750 1.738230 
# 
# From -- ./inp_files/618310.got.cif
#   From: 2010.05.17/outbox.cif.g08.bks.cpg/sg2_310_cif.got.tgz:618310.got - 2010.06.03 11:33:40.
