data_PCOD9005056
_publ_section_title
;
Structure prediction by ZEFSAII (Michael W. Deem and Ramdas Pophale) SiO2 
 PCOD9005056
Probable space group: P -1
;
_chemical_formula_sum "Si O2"
_cell_formula_units_Z 16
_cell_length_a 9.109576
_cell_length_b 30.174780
_cell_length_c 9.857846
_cell_angle_alpha 140.153862
_cell_angle_beta 149.121258
_cell_angle_gamma 38.378988
_cell_volume 824.187984
_symmetry_space_group_name_H-M "P -1"
_symmetry_group_IT_number 2
_symmetry_cell_setting 'triclinic'
loop_
_space_group_symop_operation_xyz
x,y,z
-x,-y,-z
loop_
_atom_site_type_symbol
_atom_site_label
_atom_site_fract_x
_atom_site_fract_y
_atom_site_fract_z
Si Si1 0.367806 0.807538 0.376557
Si Si2 0.778937 0.028738 0.265955
Si Si3 0.727821 0.285592 0.322926
Si Si4 0.209124 0.586598 0.844066
Si Si5 0.764185 0.032915 0.767947
Si Si6 0.457633 0.414859 0.622356
Si Si7 0.626399 0.806292 0.275320
Si Si8 0.992802 0.284164 0.229050
O O1 0.317515 0.882041 0.595986
O O2 0.482299 0.818682 0.342410
O O3 0.643561 0.741870 0.516200
O O4 0.085409 0.781637 0.062106
O O5 0.000000 0.000000 0.500000
O O6 0.998794 0.993588 0.231493
O O7 0.500000 0.000000 0.000000
O O8 0.631807 0.359193 0.510190
O O9 0.008484 0.220281 0.469714
O O10 0.845916 0.295384 0.289560
O O11 0.445457 0.259855 0.009410
O O12 0.412542 0.500903 0.763845
O O13 0.879851 0.587579 0.634705
O O14 0.149351 0.643185 0.805340
O O15 0.369318 0.607709 0.149542
O O16 0.559744 0.120395 0.786762
O O17 0.500000 0.000000 0.500000
O O18 0.000000 0.000000 0.000000
#
# Coordination Sequence:
#
# PCOD9005056 Si02
#       8
#     2   2   2   2   2   2   2   2
#     4  10  21  39  63  88 115 155 207 250 297 359
#     4  12  24  42  70  88 117 171 215 249 304 385
#     4  10  21  38  62  88 113 159 204 237 298 368
#     4  10  21  39  61  86 124 157 191 249 298 349
#     4  12  26  44  61  92 130 159 205 267 316 360
#     4  10  21  39  60  87 121 162 196 231 301 377
#     4  10  21  40  63  82 122 161 193 251 309 360
#     4  10  21  38  60  89 120 149 197 258 294 339
#
# _framework density 19.413046999999999
#
# number of rings (size 3 to 8) (size 9 to 14) (size 15 to 20)
#    0.000    1.500    1.250    3.750    3.500    0.500 
#   13.500    0.000    0.000    9.000    0.000    0.000 
#    0.000    0.000    0.000    0.000    0.000    0.000 
#
# Total GULP energy -89279.457793 kJ/mol
# GULP energy per Si atom -5579.966112 kJ/mol
# Density = 1.936886 g / cm^3
# Si number density = 19.413047 Si / 1000 Ang^3
#
#
#
# Elastic Constant Matrix: (Units=GPa)
#
#
# Indices 1 2 3 4 5 6 
#
# 1 60.8436 36.2929 27.2734 0.6197 -6.9029 -1.6474
# 2 36.2929 107.7720 28.4444 -7.0272 -23.1353 15.5371
# 3 27.2734 28.4444 89.8692 -16.9271 -1.0077 -8.7297
# 4 0.6197 -7.0272 -16.9271 42.2992 -0.7224 -9.8093
# 5 -6.9029 -23.1353 -1.0077 -0.7224 29.6742 -3.3024
# 6 -1.6474 15.5371 -8.7297 -9.8093 -3.3024 28.9689
#
#
#
# Elastic Compliance Matrix: (Units=1/GPa)
#
#
# Indices 1 2 3 4 5 6 
#
# 1 0.022950 -0.006951 -0.005077 -0.002943 -0.000046 0.002502
# 2 -0.006951 0.016025 -0.003912 -0.000801 0.009686 -0.009336
# 3 -0.005077 -0.003912 0.016277 0.008018 -0.002465 0.009148
# 4 -0.002943 -0.000801 0.008018 0.029767 0.001122 0.012886
# 5 -0.000046 0.009686 -0.002465 0.001122 0.041086 -0.000876
# 6 0.002502 -0.009336 0.009148 0.012886 -0.000876 0.046689
#
#
# Mechanical properties :
#
#
# Convention : Reuss Voigt Hill
#
# Bulk Modulus (GPa) = 42.78397 49.16736 45.97567
# Shear Modulus (GPa) = 23.53337 31.28673 27.41005
#
# Velocity S-wave (km/s) = 3.48551 4.01887 3.76165
# Velocity P-wave (km/s) = 6.18749 6.84960 6.52695
#
# Compressibility (1/GPa) = 0.02337324
#
# Stress axis : x y z
#
# Youngs Moduli (GPa) = 43.57305 62.40249 61.43593
#
# Poissons Ratio (x) = 0.43377 0.31189
# Poissons Ratio (y) = 0.30288 0.24031
# Poissons Ratio (z) = 0.22120 0.24410
#
# Static dielectric constant tensor:
#      x y z
#    x 1.632890 -0.000620 0.007990 
#    y -0.000620 1.691500 0.014720 
#    z 0.007990 0.014720 1.662170 
# 
# From -- ./inp_files/107136.got.cif
#   From: 2010.05.17/outbox.cif.g08.bks.cpg/sg2_54_cif.got.tgz:107136.got - 2010.06.03 11:33:40.
