data_PCOD9005152
_publ_section_title
;
Structure prediction by ZEFSAII (Michael W. Deem and Ramdas Pophale) SiO2 
 PCOD9005152
Probable space group: P -1
;
_chemical_formula_sum "Si O2"
_cell_formula_units_Z 16
_cell_length_a 9.618455
_cell_length_b 12.992263
_cell_length_c 11.780745
_cell_angle_alpha 125.785430
_cell_angle_beta 134.052147
_cell_angle_gamma 35.165701
_cell_volume 608.913781
_symmetry_space_group_name_H-M "P -1"
_symmetry_group_IT_number 2
_symmetry_cell_setting 'triclinic'
loop_
_space_group_symop_operation_xyz
x,y,z
-x,-y,-z
loop_
_atom_site_type_symbol
_atom_site_label
_atom_site_fract_x
_atom_site_fract_y
_atom_site_fract_z
Si Si1 0.728699 0.745166 0.383272
Si Si2 0.221389 0.664618 0.276563
Si Si3 0.307274 0.337917 0.171421
Si Si4 0.033463 0.129861 0.963568
Si Si5 0.980841 0.634757 0.761395
Si Si6 0.396387 0.833179 0.560774
Si Si7 0.874801 0.945279 0.659630
Si Si8 0.336444 0.154435 0.851924
O O1 0.844090 0.548165 0.326308
O O2 0.427014 0.895997 0.358788
O O3 0.681398 0.793709 0.253916
O O4 0.915164 0.774163 0.559835
O O5 0.317064 0.480495 0.240345
O O6 0.428120 0.670706 0.446592
O O7 0.162249 0.726910 0.153325
O O8 0.924681 0.815345 0.263456
O O9 0.570123 0.178751 0.292594
O O10 0.067016 0.408125 0.167888
O O11 0.280626 0.279668 0.000871
O O12 0.039688 0.974227 0.846502
O O13 0.937785 0.256068 0.101018
O O14 0.348706 0.027836 0.063606
O O15 0.668534 0.777302 0.633993
O O16 0.152510 0.993511 0.447037
#
# Coordination Sequence:
#
# PCOD9005152 Si02
#       8
#     2   2   2   2   2   2   2   2
#     4  11  24  44  69  86 124 171 209 260 310 366
#     4  11  19  36  60  93 131 165 201 250 313 376
#     4  10  21  38  60  97 130 162 200 256 316 377
#     4  11  24  39  63  93 130 163 209 258 308 369
#     4  10  21  41  63  94 123 167 200 254 317 364
#     4   9  21  39  62  92 127 162 205 258 304 370
#     4  10  25  46  62  92 124 164 218 258 304 368
#     4  12  22  37  64  92 128 167 206 251 315 368
#
# _framework density 26.276298000000001
#
# number of rings (size 3 to 8) (size 9 to 14) (size 15 to 20)
#    0.750    0.750    2.500    2.625    0.000    3.500 
#    0.000    3.125    0.000    0.000    0.000    0.000 
#    0.000    0.000    0.000    0.000    0.000    0.000 
#
# Total GULP energy -89332.564172 kJ/mol
# GULP energy per Si atom -5583.285261 kJ/mol
# Density = 2.621649 g / cm^3
# Si number density = 26.276298 Si / 1000 Ang^3
#
#
#
# Elastic Constant Matrix: (Units=GPa)
#
#
# Indices 1 2 3 4 5 6 
#
# 1 65.4004 19.7034 45.3194 4.5857 -1.6551 15.4630
# 2 19.7034 75.8190 38.3963 24.4324 -3.4692 4.0162
# 3 45.3194 38.3963 200.4373 33.5717 8.0666 4.0177
# 4 4.5857 24.4324 33.5717 39.1887 2.2463 5.9730
# 5 -1.6551 -3.4692 8.0666 2.2463 33.7112 4.9770
# 6 15.4630 4.0162 4.0177 5.9730 4.9770 30.7576
#
#
#
# Elastic Compliance Matrix: (Units=1/GPa)
#
#
# Indices 1 2 3 4 5 6 
#
# 1 0.022709 -0.004494 -0.005210 0.006233 0.003238 -0.011884
# 2 -0.004494 0.018173 -0.000837 -0.010472 0.002303 0.001657
# 3 -0.005210 -0.000837 0.007265 -0.005453 -0.002188 0.003193
# 4 0.006233 -0.010472 -0.005453 0.037277 -0.000744 -0.008173
# 5 0.003238 0.002303 -0.002188 -0.000744 0.031609 -0.006613
# 6 -0.011884 0.001657 0.003193 -0.008173 -0.006613 0.040511
#
#
# Mechanical properties :
#
#
# Convention : Reuss Voigt Hill
#
# Bulk Modulus (GPa) = 36.94811 60.94389 48.94600
# Shear Modulus (GPa) = 26.64559 36.61399 31.62979
#
# Velocity S-wave (km/s) = 3.18788 3.73691 3.47326
# Velocity P-wave (km/s) = 5.25756 6.47017 5.89513
#
# Compressibility (1/GPa) = 0.02706498
#
# Stress axis : x y z
#
# Youngs Moduli (GPa) = 44.03480 55.02592 137.64876
#
# Poissons Ratio (x) = 0.24730 0.71713
# Poissons Ratio (y) = 0.19790 0.11523
# Poissons Ratio (z) = 0.22942 0.04606
#
# Static dielectric constant tensor:
#      x y z
#    x 2.076220 -0.000050 0.003960 
#    y -0.000050 2.083900 0.047280 
#    z 0.003960 0.047280 2.095260 
# 
# From -- ./inp_files/521783.got.cif
#   From: 2010.05.17/outbox.cif.g08.bks.cpg/sg2_261_cif.got.tgz:521783.got - 2010.06.03 11:33:40.
