data_PCOD9005422
_publ_section_title
;
Structure prediction by ZEFSAII (Michael W. Deem and Ramdas Pophale) SiO2 
 PCOD9005422
Probable space group: P -1
;
_chemical_formula_sum "Si O2"
_cell_formula_units_Z 16
_cell_length_a 20.298654
_cell_length_b 6.655497
_cell_length_c 6.954777
_cell_angle_alpha 62.412199
_cell_angle_beta 52.838677
_cell_angle_gamma 66.165763
_cell_volume 653.282173
_symmetry_space_group_name_H-M "P -1"
_symmetry_group_IT_number 2
_symmetry_cell_setting 'triclinic'
loop_
_space_group_symop_operation_xyz
x,y,z
-x,-y,-z
loop_
_atom_site_type_symbol
_atom_site_label
_atom_site_fract_x
_atom_site_fract_y
_atom_site_fract_z
Si Si1 0.429062 0.410518 0.411038
Si Si2 0.943078 0.856251 0.828331
Si Si3 0.075741 0.624040 0.243543
Si Si4 0.553517 0.742745 0.991029
Si Si5 0.116220 0.554908 0.746044
Si Si6 0.181653 0.197404 0.263477
Si Si7 0.279417 0.741274 0.401997
Si Si8 0.647500 0.899021 0.068225
O O1 0.432228 0.322960 0.225445
O O2 0.341921 0.595267 0.507058
O O3 0.422984 0.185444 0.645408
O O4 0.504078 0.551005 0.249498
O O5 0.961179 0.280286 0.293608
O O6 0.899147 0.706143 0.123513
O O7 0.938520 0.111194 0.798432
O O8 0.892190 0.862760 0.714771
O O9 0.153564 0.452395 0.278662
O O10 0.000000 0.500000 0.500000
O O11 0.096215 0.606599 0.987033
O O12 0.637612 0.768421 0.943036
O O13 0.500000 0.000000 0.000000
O O14 0.209415 0.598014 0.520225
O O15 0.218852 0.990124 0.433480
O O16 0.259389 0.195523 0.980407
O O17 0.347145 0.833910 0.097618
#
# Coordination Sequence:
#
# PCOD9005422 Si02
#       8
#     2   2   2   2   2   2   2   2
#     4  11  23  44  75 101 137 178 228 268 339 418
#     4  10  21  38  62  87 123 177 221 275 342 387
#     4  11  22  37  60  91 127 171 232 282 341 403
#     4  11  23  46  71 107 139 176 220 278 333 408
#     4  10  22  40  59  90 131 172 225 289 335 394
#     4   9  22  41  59  91 130 171 220 282 329 394
#     4  10  22  45  65  93 140 168 228 283 330 408
#     4  10  23  47  67 100 142 180 220 281 340 395
#
# _framework density 24.491714000000002
#
# number of rings (size 3 to 8) (size 9 to 14) (size 15 to 20)
#    0.750    1.000    1.250    3.000    0.000    7.000 
#    6.750    0.000    0.000    0.000    0.000    0.000 
#    0.000    0.000    0.000    0.000    0.000    0.000 
#
# Total GULP energy -89217.516509 kJ/mol
# GULP energy per Si atom -5576.094782 kJ/mol
# Density = 2.443597 g / cm^3
# Si number density = 24.491714 Si / 1000 Ang^3
#
#
#
# Elastic Constant Matrix: (Units=GPa)
#
#
# Indices 1 2 3 4 5 6 
#
# 1 87.1829 23.4844 13.8088 -7.5403 -15.6276 5.5465
# 2 23.4844 138.3299 34.0773 -31.0758 0.2344 -5.5214
# 3 13.8088 34.0773 127.0052 -50.8655 -5.7764 25.2383
# 4 -7.5403 -31.0758 -50.8655 44.7019 9.6059 -4.0095
# 5 -15.6276 0.2344 -5.7764 9.6059 31.0634 -5.7940
# 6 5.5465 -5.5214 25.2383 -4.0095 -5.7940 39.5231
#
#
#
# Elastic Compliance Matrix: (Units=1/GPa)
#
#
# Indices 1 2 3 4 5 6 
#
# 1 0.013502 -0.002597 -0.001452 -0.002799 0.007306 -0.000543
# 2 -0.002597 0.009294 0.000044 0.006920 -0.003159 0.001874
# 3 -0.001452 0.000044 0.017991 0.020565 -0.005613 -0.010015
# 4 -0.002799 0.006920 0.020565 0.052670 -0.015548 -0.008709
# 5 0.007306 -0.003159 -0.005613 -0.015548 0.040874 0.006532
# 6 -0.000543 0.001874 -0.010015 -0.008709 0.006532 0.032109
#
#
# Mechanical properties :
#
#
# Convention : Reuss Voigt Hill
#
# Bulk Modulus (GPa) = 30.50947 55.02879 42.76913
# Shear Modulus (GPa) = 26.97228 41.80085 34.38656
#
# Velocity S-wave (km/s) = 3.32216 4.13575 3.75107
# Velocity P-wave (km/s) = 5.21534 6.73223 6.02174
#
# Compressibility (1/GPa) = 0.03277671
#
# Stress axis : x y z
#
# Youngs Moduli (GPa) = 74.06350 107.59768 55.58344
#
# Poissons Ratio (x) = 0.27948 0.08069
# Poissons Ratio (y) = 0.19238 -0.00245
# Poissons Ratio (z) = 0.10752 -0.00475
#
# Static dielectric constant tensor:
#      x y z
#    x 2.029650 -0.019520 0.022920 
#    y -0.019520 1.975830 0.022390 
#    z 0.022920 0.022390 2.064360 
# 
# From -- ./inp_files/350511.got.cif
#   From: 2010.05.17/outbox.cif.g08.bks.cpg/sg2_176_cif.got.tgz:350511.got - 2010.06.03 11:33:40.
