data_PCOD9005589
_publ_section_title
;
Structure prediction by ZEFSAII (Michael W. Deem and Ramdas Pophale) SiO2 
 PCOD9005589
Probable space group: P -1
;
_chemical_formula_sum "Si O2"
_cell_formula_units_Z 16
_cell_length_a 14.570315
_cell_length_b 11.634718
_cell_length_c 9.348433
_cell_angle_alpha 58.209569
_cell_angle_beta 55.511830
_cell_angle_gamma 100.788977
_cell_volume 800.458720
_symmetry_space_group_name_H-M "P -1"
_symmetry_group_IT_number 2
_symmetry_cell_setting 'triclinic'
loop_
_space_group_symop_operation_xyz
x,y,z
-x,-y,-z
loop_
_atom_site_type_symbol
_atom_site_label
_atom_site_fract_x
_atom_site_fract_y
_atom_site_fract_z
Si Si1 0.041032 0.405701 0.930199
Si Si2 0.167444 0.478476 0.279503
Si Si3 0.888094 0.007325 0.420734
Si Si4 0.355988 0.170870 0.664323
Si Si5 0.661652 0.628525 0.689847
Si Si6 0.297094 0.523388 0.827128
Si Si7 0.223140 0.161861 0.075610
Si Si8 0.113288 0.736225 0.140073
O O1 0.209133 0.502442 0.777319
O O2 0.005603 0.393420 0.801549
O O3 0.000000 0.500000 0.000000
O O4 0.926938 0.187551 0.213887
O O5 0.274580 0.469794 0.285398
O O6 0.195829 0.662839 0.146816
O O7 0.993612 0.311694 0.600102
O O8 0.194680 0.463008 0.099448
O O9 0.780976 0.824998 0.538416
O O10 0.806609 0.948177 0.684449
O O11 0.052336 0.068907 0.243293
O O12 0.345008 0.304323 0.501736
O O13 0.533552 0.274008 0.430691
O O14 0.309252 0.158839 0.876171
O O15 0.235633 0.957098 0.854612
O O16 0.500000 0.500000 0.000000
O O17 0.311940 0.374563 0.896685
#
# Coordination Sequence:
#
# PCOD9005589 Si02
#       8
#     2   2   2   2   2   2   2   2
#     4  11  23  42  67  92 129 179 227 268 324 409
#     4  11  24  44  68  96 140 176 223 276 337 397
#     4  10  21  38  62  95 122 173 225 268 327 391
#     4  12  25  41  68 104 133 173 227 279 336 404
#     4  12  23  41  64 100 137 173 218 282 343 389
#     4  11  23  43  65  97 133 177 213 282 342 386
#     4  10  22  39  67  92 132 170 223 276 335 392
#     4  11  26  44  70 100 131 182 231 273 330 404
#
# _framework density 19.988537999999998
#
# number of rings (size 3 to 8) (size 9 to 14) (size 15 to 20)
#    0.000    1.000    5.000    1.125    7.000    1.500 
#    2.250    0.000    0.000    3.750    0.000    0.000 
#    0.000    0.000    0.000    0.000    0.000    0.000 
#
# Total GULP energy -89339.772536 kJ/mol
# GULP energy per Si atom -5583.735784 kJ/mol
# Density = 1.994304 g / cm^3
# Si number density = 19.988538 Si / 1000 Ang^3
#
#
#
# Elastic Constant Matrix: (Units=GPa)
#
#
# Indices 1 2 3 4 5 6 
#
# 1 99.6813 28.4433 37.6392 -0.1800 7.1340 -9.4649
# 2 28.4433 71.7676 26.7376 9.7944 -11.4959 4.1753
# 3 37.6392 26.7376 72.7912 3.1554 -5.0556 9.7776
# 4 -0.1800 9.7944 3.1554 24.0579 5.9234 3.3639
# 5 7.1340 -11.4959 -5.0556 5.9234 21.0331 -8.6989
# 6 -9.4649 4.1753 9.7776 3.3639 -8.6989 32.7432
#
#
#
# Elastic Compliance Matrix: (Units=1/GPa)
#
#
# Indices 1 2 3 4 5 6 
#
# 1 0.015717 -0.006110 -0.007403 0.005505 -0.010244 0.004246
# 2 -0.006110 0.022306 -0.003536 -0.013563 0.018357 0.002716
# 3 -0.007403 -0.003536 0.020020 -0.000993 0.002855 -0.006807
# 4 0.005505 -0.013563 -0.000993 0.055875 -0.029358 -0.009923
# 5 -0.010244 0.018357 0.002855 -0.029358 0.077190 0.017369
# 6 0.004246 0.002716 -0.006807 -0.009923 0.017369 0.039088
#
#
# Mechanical properties :
#
#
# Convention : Reuss Voigt Hill
#
# Bulk Modulus (GPa) = 41.76174 47.76447 44.76311
# Shear Modulus (GPa) = 18.36364 25.66151 22.01258
#
# Velocity S-wave (km/s) = 3.03431 3.58692 3.32212
# Velocity P-wave (km/s) = 5.76318 6.41112 6.09576
#
# Compressibility (1/GPa) = 0.02394536
#
# Stress axis : x y z
#
# Youngs Moduli (GPa) = 63.62497 44.83048 49.94895
#
# Poissons Ratio (x) = 0.27392 0.36978
# Poissons Ratio (y) = 0.38876 0.17661
# Poissons Ratio (z) = 0.47102 0.15852
#
# Static dielectric constant tensor:
#      x y z
#    x 1.758070 0.024300 0.007760 
#    y 0.024300 1.697530 -0.003310 
#    z 0.007760 -0.003310 1.690230 
# 
# From -- ./inp_files/208428.got.cif
#   From: 2010.05.17/outbox.cif.g08.bks.cpg/sg2_105_cif.got.tgz:208428.got - 2010.06.03 11:33:40.
