data_PCOD9005707
_publ_section_title
;
Structure prediction by ZEFSAII (Michael W. Deem and Ramdas Pophale) SiO2 
 PCOD9005707
Probable space group: P -1
;
_chemical_formula_sum "Si O2"
_cell_formula_units_Z 16
_cell_length_a 21.221074
_cell_length_b 8.872692
_cell_length_c 21.616959
_cell_angle_alpha 146.816690
_cell_angle_beta 18.726490
_cell_angle_gamma 139.990485
_cell_volume 706.914806
_symmetry_space_group_name_H-M "P -1"
_symmetry_group_IT_number 2
_symmetry_cell_setting 'triclinic'
loop_
_space_group_symop_operation_xyz
x,y,z
-x,-y,-z
loop_
_atom_site_type_symbol
_atom_site_label
_atom_site_fract_x
_atom_site_fract_y
_atom_site_fract_z
Si Si1 0.999700 0.391989 0.672029
Si Si2 0.729312 0.383236 0.025826
Si Si3 0.577140 0.255182 0.715669
Si Si4 0.602220 0.776545 0.782337
Si Si5 0.473104 0.003774 0.608138
Si Si6 0.208464 0.486516 0.219536
Si Si7 0.034810 0.924888 0.631117
Si Si8 0.812513 0.158519 0.266005
O O1 0.182479 0.155456 0.409162
O O2 0.099803 0.602703 0.695580
O O3 0.817986 0.310475 0.850245
O O4 0.921821 0.514255 0.721581
O O5 0.528077 0.249451 0.166650
O O6 0.656955 0.712302 0.201481
O O7 0.911099 0.235972 0.846952
O O8 0.619768 0.489435 0.706830
O O9 0.475911 0.045156 0.693361
O O10 0.783720 0.107449 0.500827
O O11 0.431702 0.399415 0.954885
O O12 0.500000 0.000000 0.000000
O O13 0.693486 0.004316 0.375721
O O14 0.358462 0.771152 0.604130
O O15 0.139085 0.771311 0.420192
O O16 0.136330 0.254501 0.251199
O O17 0.000000 0.000000 0.000000
#
# Coordination Sequence:
#
# PCOD9005707 Si02
#       8
#     2   2   2   2   2   2   2   2
#     4  12  21  39  65  90 121 161 205 246 312 354
#     4  11  23  39  57  93 120 154 204 260 292 360
#     4  11  21  42  58  86 121 167 203 243 301 370
#     4  11  23  36  61  89 123 158 205 252 293 352
#     4  10  21  38  63  91 117 148 207 256 299 362
#     4  11  22  39  58  85 121 168 206 241 294 370
#     4  11  25  37  58  86 127 164 203 245 303 359
#     4  11  19  35  64  95 115 151 199 262 307 355
#
# _framework density 22.633564
#
# number of rings (size 3 to 8) (size 9 to 14) (size 15 to 20)
#    0.000    1.000    7.500    1.125    3.500    2.000 
#    0.000    0.000    0.000    7.500    0.000    0.000 
#    0.000    0.000    0.000    0.000    0.000    0.000 
#
# Total GULP energy -89186.578351 kJ/mol
# GULP energy per Si atom -5574.161147 kJ/mol
# Density = 2.258205 g / cm^3
# Si number density = 22.633564 Si / 1000 Ang^3
#
#
#
# Elastic Constant Matrix: (Units=GPa)
#
#
# Indices 1 2 3 4 5 6 
#
# 1 97.2157 18.4271 27.4095 15.8234 -12.1195 8.7767
# 2 18.4271 30.3057 5.6112 -7.7560 -11.8916 0.8192
# 3 27.4095 5.6112 134.4501 -11.3789 -9.2938 -10.2736
# 4 15.8234 -7.7560 -11.3789 33.5741 -3.9783 2.2894
# 5 -12.1195 -11.8916 -9.2938 -3.9783 49.9257 -3.4627
# 6 8.7767 0.8192 -10.2736 2.2894 -3.4627 33.0997
#
#
#
# Elastic Compliance Matrix: (Units=1/GPa)
#
#
# Indices 1 2 3 4 5 6 
#
# 1 0.015901 -0.012131 -0.004125 -0.011509 -0.001027 -0.004508
# 2 -0.012131 0.048960 0.003024 0.019167 0.010999 0.002769
# 3 -0.004125 0.003024 0.009062 0.005715 0.002115 0.003657
# 4 -0.011509 0.019167 0.005715 0.042182 0.006342 0.002097
# 5 -0.001027 0.010999 0.002115 0.006342 0.023485 0.002675
# 6 -0.004508 0.002769 0.003657 0.002097 0.002675 0.032608
#
#
# Mechanical properties :
#
#
# Convention : Reuss Voigt Hill
#
# Bulk Modulus (GPa) = 21.07123 40.54080 30.80602
# Shear Modulus (GPa) = 23.31191 37.35480 30.33336
#
# Velocity S-wave (km/s) = 3.21280 4.06694 3.66484
# Velocity P-wave (km/s) = 4.80549 6.32487 5.61679
#
# Compressibility (1/GPa) = 0.04745808
#
# Stress axis : x y z
#
# Youngs Moduli (GPa) = 62.88884 20.42482 110.35386
#
# Poissons Ratio (x) = 0.24778 0.45519
# Poissons Ratio (y) = 0.76293 -0.33369
# Poissons Ratio (z) = 0.25941 -0.06176
#
# Static dielectric constant tensor:
#      x y z
#    x 1.873870 0.036560 0.007630 
#    y 0.036560 1.920710 0.019190 
#    z 0.007630 0.019190 1.921430 
# 
# From -- ./inp_files/328484.got.cif
#   From: 2010.05.17/outbox.cif.g08.bks.cpg/sg2_165_cif.got.tgz:328484.got - 2010.06.03 11:33:40.
