data_PCOD9005631
_publ_section_title
;
Structure prediction by ZEFSAII (Michael W. Deem and Ramdas Pophale) SiO2 
 PCOD9005631
Probable space group: P -1
;
_chemical_formula_sum "Si O2"
_cell_formula_units_Z 14
_cell_length_a 23.751394
_cell_length_b 5.001987
_cell_length_c 5.386068
_cell_angle_alpha 89.053318
_cell_angle_beta 58.336240
_cell_angle_gamma 68.382966
_cell_volume 493.519868
_symmetry_space_group_name_H-M "P -1"
_symmetry_group_IT_number 2
_symmetry_cell_setting 'triclinic'
loop_
_space_group_symop_operation_xyz
x,y,z
-x,-y,-z
loop_
_atom_site_type_symbol
_atom_site_label
_atom_site_fract_x
_atom_site_fract_y
_atom_site_fract_z
Si Si1 0.056123 0.583822 0.120492
Si Si2 0.762507 0.959123 0.631145
Si Si3 0.087751 0.032092 0.717370
Si Si4 0.203502 0.409069 0.952304
Si Si5 0.550800 0.074006 0.622624
Si Si6 0.590945 0.046120 0.029742
Si Si7 0.326069 0.485498 0.432949
O O1 0.970424 0.782221 0.362136
O O2 0.067855 0.269184 0.986863
O O3 0.116289 0.569414 0.183224
O O4 0.073955 0.759373 0.850788
O O5 0.827299 0.066844 0.531766
O O6 0.788597 0.764562 0.323672
O O7 0.688450 0.234862 0.710724
O O8 0.762750 0.800045 0.890318
O O9 0.253721 0.577996 0.767810
O O10 0.469819 0.096344 0.798547
O O11 0.579526 0.189361 0.320485
O O12 0.606780 0.727123 0.545396
O O13 0.562994 0.224431 0.839572
O O14 0.663710 0.762675 0.796425
#
# Coordination Sequence:
#
# PCOD9005631 Si02
#       7
#     2   2   2   2   2   2   2
#     4   9  18  38  63  91 127 171 218 270 324 385
#     4  11  25  39  59  92 123 161 211 259 317 384
#     4   9  18  38  63  91 127 171 218 270 324 385
#     4  11  25  39  59  92 123 161 211 259 317 384
#     4   8  16  30  56  85 109 154 201 240 307 375
#     4   8  16  30  56  85 109 154 201 240 307 375
#     4  10  21  38  63  82 124 162 194 260 315 378
#
# _framework density 28.367654000000002
#
# number of rings (size 3 to 8) (size 9 to 14) (size 15 to 20)
#    0.857    1.714    1.429    0.000    4.000    0.571 
#    0.000    0.000    0.000   15.429    0.000    0.000 
#    0.000    0.000    0.000    0.000    0.000    0.000 
#
# Total GULP energy -78214.799059 kJ/mol
# GULP energy per Si atom -5586.771361 kJ/mol
# Density = 2.830309 g / cm^3
# Si number density = 28.367654 Si / 1000 Ang^3
#
#
#
# Elastic Constant Matrix: (Units=GPa)
#
#
# Indices 1 2 3 4 5 6 
#
# 1 103.0601 16.5796 17.6415 6.8766 3.7752 -36.7757
# 2 16.5796 127.3951 5.3747 2.6244 18.1743 -15.9744
# 3 17.6415 5.3747 127.0192 -8.2548 40.8380 -4.6020
# 4 6.8766 2.6244 -8.2548 30.9818 -16.5050 -3.6561
# 5 3.7752 18.1743 40.8380 -16.5050 40.9611 1.9974
# 6 -36.7757 -15.9744 -4.6020 -3.6561 1.9974 40.1534
#
#
#
# Elastic Compliance Matrix: (Units=1/GPa)
#
#
# Indices 1 2 3 4 5 6 
#
# 1 0.014974 0.000203 -0.001031 -0.003322 -0.002439 0.013496
# 2 0.000203 0.009526 0.002095 -0.004173 -0.008223 0.004245
# 3 -0.001031 0.002095 0.012624 -0.004558 -0.015339 0.001684
# 4 -0.003322 -0.004173 -0.004558 0.045213 0.025035 -0.002354
# 5 -0.002439 -0.008223 -0.015339 0.025035 0.054041 -0.007672
# 6 0.013496 0.004245 0.001684 -0.002354 -0.007672 0.039314
#
#
# Mechanical properties :
#
#
# Convention : Reuss Voigt Hill
#
# Bulk Modulus (GPa) = 25.21540 48.51844 36.86692
# Shear Modulus (GPa) = 26.82742 43.61118 35.21930
#
# Velocity S-wave (km/s) = 3.07857 3.92517 3.52736
# Velocity P-wave (km/s) = 4.64164 6.13866 5.44187
#
# Compressibility (1/GPa) = 0.03965831
#
# Stress axis : x y z
#
# Youngs Moduli (GPa) = 66.78416 104.97485 79.21514
#
# Poissons Ratio (x) = -0.02136 0.08167
# Poissons Ratio (y) = -0.01359 -0.16595
# Poissons Ratio (z) = 0.06885 -0.21991
#
# Static dielectric constant tensor:
#      x y z
#    x 2.363630 -0.021740 -0.097670 
#    y -0.021740 2.120230 -0.006310 
#    z -0.097670 -0.006310 2.280240 
# 
# From -- ./inp_files/121189.got.cif
#   From: 2010.05.17/outbox.cif.g08.bks.cpg/sg2_61_cif.got.tgz:121189.got - 2010.06.03 11:33:40.
