data_PCOD9005176
_publ_section_title
;
Structure prediction by ZEFSAII (Michael W. Deem and Ramdas Pophale) SiO2 
 PCOD9005176
Probable space group: P -1
;
_chemical_formula_sum "Si O2"
_cell_formula_units_Z 14
_cell_length_a 9.539167
_cell_length_b 19.938124
_cell_length_c 15.160900
_cell_angle_alpha 149.765517
_cell_angle_beta 150.507599
_cell_angle_gamma 48.585978
_cell_volume 665.446678
_symmetry_space_group_name_H-M "P -1"
_symmetry_group_IT_number 2
_symmetry_cell_setting 'triclinic'
loop_
_space_group_symop_operation_xyz
x,y,z
-x,-y,-z
loop_
_atom_site_type_symbol
_atom_site_label
_atom_site_fract_x
_atom_site_fract_y
_atom_site_fract_z
Si Si1 0.733749 0.050525 0.769309
Si Si2 0.159702 0.898442 0.781505
Si Si3 0.190661 0.946978 0.650597
Si Si4 0.134549 0.437568 0.238632
Si Si5 0.734141 0.607445 0.184369
Si Si6 0.213337 0.866075 0.386132
Si Si7 0.832943 0.378275 0.199505
O O1 0.500000 0.000000 0.500000
O O2 0.559276 0.941003 0.626744
O O3 0.804477 0.215503 0.018364
O O4 0.040293 0.025144 0.881271
O O5 0.896186 0.751007 0.491716
O O6 0.191509 0.887143 0.680424
O O7 0.480319 0.924981 0.032253
O O8 0.931562 0.013703 0.577367
O O9 0.176198 0.842768 0.443887
O O10 0.500000 0.500000 0.500000
O O11 0.987355 0.540201 0.225056
O O12 0.022266 0.424538 0.264071
O O13 0.974450 0.278323 0.931353
O O14 0.500000 0.500000 0.000000
O O15 0.517168 0.631506 0.017895
O O16 0.000000 0.500000 0.500000
#
# Coordination Sequence:
#
# PCOD9005176 Si02
#       7
#     2   2   2   2   2   2   2
#     4  12  20  40  68  87 119 160 205 254 297 358
#     4  11  21  40  63  90 119 159 206 249 306 354
#     4  10  23  37  62  90 120 152 202 261 300 359
#     4  11  23  40  61  88 126 163 200 251 310 363
#     4  10  21  38  61  84 123 162 199 246 302 364
#     4  11  22  41  62  89 121 162 207 248 306 361
#     4  11  24  41  63  92 122 162 204 251 309 363
#
# _framework density 21.038499000000002
#
# number of rings (size 3 to 8) (size 9 to 14) (size 15 to 20)
#    0.000    1.143    4.286    1.714    0.000    8.571 
#    0.000    1.429    0.000    0.000    0.000    0.000 
#    0.000    0.000    0.000    0.000    0.000    0.000 
#
# Total GULP energy -78190.041049 kJ/mol
# GULP energy per Si atom -5585.002932 kJ/mol
# Density = 2.099061 g / cm^3
# Si number density = 21.038499 Si / 1000 Ang^3
#
#
#
# Elastic Constant Matrix: (Units=GPa)
#
#
# Indices 1 2 3 4 5 6 
#
# 1 110.0247 24.4727 44.9921 2.8392 -17.6615 -17.0491
# 2 24.4727 33.5836 16.3315 12.5143 9.7658 -12.2164
# 3 44.9921 16.3315 122.3212 18.2051 -3.1476 -13.1658
# 4 2.8392 12.5143 18.2051 38.4045 -12.1051 5.5037
# 5 -17.6615 9.7658 -3.1476 -12.1051 37.9284 -1.4944
# 6 -17.0491 -12.2164 -13.1658 5.5037 -1.4944 15.9252
#
#
#
# Elastic Compliance Matrix: (Units=1/GPa)
#
#
# Indices 1 2 3 4 5 6 
#
# 1 0.019531 -0.028893 -0.006998 0.019867 0.021827 -0.011858
# 2 -0.028893 0.137521 0.015590 -0.088541 -0.071440 0.111347
# 3 -0.006998 0.015590 0.013104 -0.017086 -0.010843 0.020189
# 4 0.019867 -0.088541 -0.017086 0.091828 0.056502 -0.087211
# 5 0.021827 -0.071440 -0.010843 0.056502 0.069954 -0.053362
# 6 -0.011858 0.111347 0.020189 -0.087211 -0.053362 0.177337
#
#
# Mechanical properties :
#
#
# Convention : Reuss Voigt Hill
#
# Bulk Modulus (GPa) = 7.71872 48.61357 28.16614
# Shear Modulus (GPa) = 8.43083 30.46049 19.44566
#
# Velocity S-wave (km/s) = 2.00400 3.80918 3.04351
# Velocity P-wave (km/s) = 3.00525 6.51948 5.07618
#
# Compressibility (1/GPa) = 0.12955524
#
# Stress axis : x y z
#
# Youngs Moduli (GPa) = 51.20196 7.27163 76.31001
#
# Poissons Ratio (x) = 0.21010 0.53399
# Poissons Ratio (y) = 1.47938 -1.18970
# Poissons Ratio (z) = 0.35829 -0.11337
#
# Static dielectric constant tensor:
#      x y z
#    x 1.798020 0.020180 0.018880 
#    y 0.020180 1.780990 -0.010130 
#    z 0.018880 -0.010130 1.748800 
# 
# From -- ./inp_files/159139.got.cif
#   From: 2010.05.17/outbox.cif.g08.bks.cpg/sg2_80_cif.got.tgz:159139.got - 2010.06.03 11:33:40.
