data_PCOD9005242
_publ_section_title
;
Structure prediction by ZEFSAII (Michael W. Deem and Ramdas Pophale) SiO2 
 PCOD9005242
Probable space group: P -1
;
_chemical_formula_sum "Si O2"
_cell_formula_units_Z 16
_cell_length_a 7.531864
_cell_length_b 16.178218
_cell_length_c 9.661064
_cell_angle_alpha 90.560541
_cell_angle_beta 141.779477
_cell_angle_gamma 109.843455
_cell_volume 602.843202
_symmetry_space_group_name_H-M "P -1"
_symmetry_group_IT_number 2
_symmetry_cell_setting 'triclinic'
loop_
_space_group_symop_operation_xyz
x,y,z
-x,-y,-z
loop_
_atom_site_type_symbol
_atom_site_label
_atom_site_fract_x
_atom_site_fract_y
_atom_site_fract_z
Si Si1 0.593930 0.921160 0.520993
Si Si2 0.835061 0.274200 0.401294
Si Si3 0.180139 0.296941 0.320117
Si Si4 0.670652 0.939462 0.962227
Si Si5 0.941982 0.422997 0.082047
Si Si6 0.817306 0.303133 0.762000
Si Si7 0.519570 0.906655 0.169416
Si Si8 0.442299 0.364793 0.011559
O O1 0.276613 0.806483 0.331970
O O2 0.698869 0.919310 0.425098
O O3 0.500000 0.000000 0.500000
O O4 0.940448 0.968211 0.821747
O O5 0.050850 0.278479 0.399430
O O6 0.122910 0.319495 0.700457
O O7 0.539353 0.160005 0.256229
O O8 0.618217 0.318361 0.208722
O O9 0.545591 0.313831 0.510342
O O10 0.210492 0.398383 0.302278
O O11 0.876036 0.191202 0.065785
O O12 0.663644 0.897250 0.111839
O O13 0.467460 0.992300 0.834294
O O14 0.719701 0.318427 0.857122
O O15 0.758570 0.434539 0.102067
O O16 0.000000 0.500000 0.000000
O O17 0.229221 0.381179 0.996991
#
# Coordination Sequence:
#
# PCOD9005242 Si02
#       8
#     2   2   2   2   2   2   2   2
#     4  12  25  38  58  99 140 187 237 295 348 423
#     4  10  23  43  70 104 149 196 242 298 357 430
#     4  10  21  44  70 100 141 191 237 302 371 432
#     4  10  22  36  62  92 127 187 239 288 333 411
#     4  11  26  50  78 106 140 186 243 307 376 447
#     4  12  25  44  74 102 147 195 237 304 369 431
#     4  10  21  38  61  88 129 182 240 286 342 414
#     4  11  26  47  73 110 148 188 240 303 374 438
#
# _framework density 26.540900000000001
#
# number of rings (size 3 to 8) (size 9 to 14) (size 15 to 20)
#    0.000    1.250    3.750    1.125    5.250    2.500 
#    0.000    0.625    0.000    0.000    0.000    0.000 
#    0.000    0.000    0.000    0.000    0.000    0.000 
#
# Total GULP energy -89085.410190 kJ/mol
# GULP energy per Si atom -5567.838137 kJ/mol
# Density = 2.648049 g / cm^3
# Si number density = 26.540900 Si / 1000 Ang^3
#
#
#
# Elastic Constant Matrix: (Units=GPa)
#
#
# Indices 1 2 3 4 5 6 
#
# 1 86.4863 11.1064 12.0686 -9.1741 10.6074 8.5966
# 2 11.1064 113.3389 7.7437 -10.5131 22.8491 4.0390
# 3 12.0686 7.7437 71.0239 -10.3059 1.8467 -12.7135
# 4 -9.1741 -10.5131 -10.3059 22.1991 -10.7478 -0.3612
# 5 10.6074 22.8491 1.8467 -10.7478 59.1267 -12.8072
# 6 8.5966 4.0390 -12.7135 -0.3612 -12.8072 31.9209
#
#
#
# Elastic Compliance Matrix: (Units=1/GPa)
#
#
# Indices 1 2 3 4 5 6 
#
# 1 0.013196 -0.000033 -0.002846 0.002528 -0.003082 -0.005891
# 2 -0.000033 0.010081 -0.001305 0.002053 -0.004225 -0.003458
# 3 -0.002846 -0.001305 0.017564 0.008506 0.004107 0.009671
# 4 0.002528 0.002053 0.008506 0.056088 0.010240 0.007190
# 5 -0.003082 -0.004225 0.004107 0.010240 0.023554 0.012567
# 6 -0.005891 -0.003458 0.009671 0.007190 0.012567 0.042327
#
#
# Mechanical properties :
#
#
# Convention : Reuss Voigt Hill
#
# Bulk Modulus (GPa) = 30.79459 36.96517 33.87988
# Shear Modulus (GPa) = 27.47235 38.64469 33.05852
#
# Velocity S-wave (km/s) = 3.22078 3.81995 3.53309
# Velocity P-wave (km/s) = 5.04570 5.78048 5.42554
#
# Compressibility (1/GPa) = 0.03247324
#
# Stress axis : x y z
#
# Youngs Moduli (GPa) = 75.78223 99.19759 56.93366
#
# Poissons Ratio (x) = 0.00325 0.16205
# Poissons Ratio (y) = 0.00248 0.07429
# Poissons Ratio (z) = 0.21569 0.12944
#
# Static dielectric constant tensor:
#      x y z
#    x 2.275920 0.051970 0.017710 
#    y 0.051970 2.150000 -0.067340 
#    z 0.017710 -0.067340 2.302350 
# 
# From -- ./inp_files/99864.got.cif
#   From: 2010.05.17/outbox.cif.g08.bks.cpg/sg2_50_cif.got.tgz:99864.got - 2010.06.03 11:33:40.
