data_PCOD9005224
_publ_section_title
;
Structure prediction by ZEFSAII (Michael W. Deem and Ramdas Pophale) SiO2 
 PCOD9005224
Probable space group: P -1
;
_chemical_formula_sum "Si O2"
_cell_formula_units_Z 12
_cell_length_a 16.215857
_cell_length_b 5.422650
_cell_length_c 8.868264
_cell_angle_alpha 107.802354
_cell_angle_beta 145.793138
_cell_angle_gamma 80.374669
_cell_volume 412.027583
_symmetry_space_group_name_H-M "P -1"
_symmetry_group_IT_number 2
_symmetry_cell_setting 'triclinic'
loop_
_space_group_symop_operation_xyz
x,y,z
-x,-y,-z
loop_
_atom_site_type_symbol
_atom_site_label
_atom_site_fract_x
_atom_site_fract_y
_atom_site_fract_z
Si Si1 0.374073 0.187242 0.767755
Si Si2 0.698136 0.798137 0.754435
Si Si3 0.198136 0.758163 0.254435
Si Si4 0.419177 0.593431 0.138793
Si Si5 0.874072 0.706441 0.267754
Si Si6 0.080823 0.373814 0.361208
O O1 0.506918 0.233502 0.857170
O O2 0.251904 0.378157 0.580571
O O3 0.272888 0.906330 0.541642
O O4 0.431905 0.300882 0.038051
O O5 0.754591 0.524009 0.747874
O O6 0.521248 0.710343 0.453677
O O7 0.745409 0.030726 0.752127
O O8 0.772888 0.862426 0.041643
O O9 0.021247 0.722089 0.953677
O O10 0.248097 0.549489 0.919429
O O11 0.931903 0.805266 0.538050
O O12 0.006918 0.616748 0.357169
#
# Coordination Sequence:
#
# PCOD9005224 Si02
#       6
#     2   2   2   2   2   2
#     4   9  18  35  59  87 119 155 196 242 292 347
#     4  10  21  38  61  88 119 154 195 242 291 346
#     4  10  21  38  61  88 119 154 195 242 291 346
#     4   9  18  35  59  87 119 155 196 242 292 347
#     4   9  18  35  59  87 119 155 196 242 292 347
#     4   9  18  35  59  87 119 155 196 242 292 347
#
# _framework density 29.124261000000001
#
# number of rings (size 3 to 8) (size 9 to 14) (size 15 to 20)
#    0.000    2.667    0.000    1.000    0.000    1.333 
#    0.000   41.667    0.000   32.000    0.000    0.000 
#    0.000    0.000    0.000    0.000    0.000    0.000 
#
# Total GULP energy -67038.179340 kJ/mol
# GULP energy per Si atom -5586.514945 kJ/mol
# Density = 2.905797 g / cm^3
# Si number density = 29.124261 Si / 1000 Ang^3
#
#
#
# Elastic Constant Matrix: (Units=GPa)
#
#
# Indices 1 2 3 4 5 6 
#
# 1 91.0227 68.2896 20.1260 2.7486 8.8799 4.5197
# 2 68.2896 142.8021 36.9187 4.0110 -0.2920 2.9909
# 3 20.1260 36.9187 180.3542 -11.2199 25.4512 0.8204
# 4 2.7486 4.0110 -11.2199 26.2455 -7.3780 2.2149
# 5 8.8799 -0.2920 25.4512 -7.3780 58.8398 -3.7465
# 6 4.5197 2.9909 0.8204 2.2149 -3.7465 27.5267
#
#
#
# Elastic Compliance Matrix: (Units=1/GPa)
#
#
# Indices 1 2 3 4 5 6 
#
# 1 0.017742 -0.008439 0.000117 -0.001184 -0.003066 -0.002322
# 2 -0.008439 0.011520 -0.001769 -0.001120 0.001991 0.000548
# 3 0.000117 -0.001769 0.006399 0.002327 -0.002538 -0.000550
# 4 -0.001184 -0.001120 0.002327 0.040759 0.004120 -0.002472
# 5 -0.003066 0.001991 -0.002538 0.004120 0.019251 0.002651
# 6 -0.002322 0.000548 -0.000550 -0.002472 0.002651 0.037226
#
#
# Mechanical properties :
#
#
# Convention : Reuss Voigt Hill
#
# Bulk Modulus (GPa) = 64.60624 73.87196 69.23910
# Shear Modulus (GPa) = 31.59776 41.77870 36.68823
#
# Velocity S-wave (km/s) = 3.29740 3.79159 3.55309
# Velocity P-wave (km/s) = 6.06038 6.67740 6.37636
#
# Compressibility (1/GPa) = 0.01547838
#
# Stress axis : x y z
#
# Youngs Moduli (GPa) = 56.36348 86.80637 156.27087
#
# Poissons Ratio (x) = 0.73257 -0.01832
# Poissons Ratio (y) = 0.47566 0.27652
# Poissons Ratio (z) = -0.00661 0.15360
#
# Static dielectric constant tensor:
#      x y z
#    x 2.302100 0.000990 -0.099120 
#    y 0.000990 2.260110 0.007930 
#    z -0.099120 0.007930 2.361830 
# 
# From -- ./inp_files/100113.got.cif
#   From: 2010.05.17/outbox.cif.g08.bks.cpg/sg2_51_cif.got.tgz:100113.got - 2010.06.03 11:33:40.
