data_PCOD9005980
_publ_section_title
;
Structure prediction by ZEFSAII (Michael W. Deem and Ramdas Pophale) SiO2 
 PCOD9005980
Probable space group: P -1
;
_chemical_formula_sum "Si O2"
_cell_formula_units_Z 12
_cell_length_a 9.029862
_cell_length_b 13.474061
_cell_length_c 8.688686
_cell_angle_alpha 50.170171
_cell_angle_beta 102.214725
_cell_angle_gamma 134.274811
_cell_volume 525.227597
_symmetry_space_group_name_H-M "P -1"
_symmetry_group_IT_number 2
_symmetry_cell_setting 'triclinic'
loop_
_space_group_symop_operation_xyz
x,y,z
-x,-y,-z
loop_
_atom_site_type_symbol
_atom_site_label
_atom_site_fract_x
_atom_site_fract_y
_atom_site_fract_z
Si Si1 0.375740 0.695413 0.463469
Si Si2 0.057059 0.400287 0.247434
Si Si3 0.129269 0.955597 0.266223
Si Si4 0.115535 0.690222 0.186095
Si Si5 0.386964 0.737616 0.779106
Si Si6 0.838613 0.002817 0.134432
O O1 0.289339 0.770400 0.283664
O O2 0.446659 0.758902 0.592414
O O3 0.591340 0.782217 0.330909
O O4 0.142119 0.464323 0.650757
O O5 0.115409 0.561002 0.210296
O O6 0.031400 0.255356 0.483814
O O7 0.806226 0.274366 0.250288
O O8 0.247474 0.527490 0.030372
O O9 0.033645 0.035675 0.211127
O O10 0.386334 0.096320 0.239360
O O11 0.125130 0.953551 0.082723
O O12 0.169332 0.856091 0.945431
#
# Coordination Sequence:
#
# PCOD9005980 Si02
#       6
#     2   2   2   2   2   2
#     4  10  21  38  64  91 117 153 199 246 292 345
#     4  10  22  41  64  88 117 156 199 242 291 350
#     4  11  24  41  60  87 122 158 196 241 296 351
#     4  10  21  40  63  89 117 153 201 243 288 349
#     4  10  22  39  63  90 119 155 197 244 294 348
#     4  11  24  40  61  88 120 158 197 242 294 349
#
# _framework density 22.847237
#
# number of rings (size 3 to 8) (size 9 to 14) (size 15 to 20)
#    0.000    1.667    0.000    5.000    0.000   10.000 
#    0.000    8.333    0.000    0.000    0.000    0.000 
#    0.000    0.000    0.000    0.000    0.000    0.000 
#
# Total GULP energy -67067.904407 kJ/mol
# GULP energy per Si atom -5588.992034 kJ/mol
# Density = 2.279524 g / cm^3
# Si number density = 22.847237 Si / 1000 Ang^3
#
#
#
# Elastic Constant Matrix: (Units=GPa)
#
#
# Indices 1 2 3 4 5 6 
#
# 1 51.1868 35.0700 42.1089 -3.6735 13.6296 1.3610
# 2 35.0700 68.1239 27.3188 4.9546 27.1345 -0.2514
# 3 42.1089 27.3188 146.3971 6.8484 4.6361 -2.2060
# 4 -3.6735 4.9546 6.8484 28.9997 5.7352 -8.7256
# 5 13.6296 27.1345 4.6361 5.7352 20.6243 -3.9740
# 6 1.3610 -0.2514 -2.2060 -8.7256 -3.9740 13.3887
#
#
#
# Elastic Compliance Matrix: (Units=1/GPa)
#
#
# Indices 1 2 3 4 5 6 
#
# 1 0.039926 -0.014054 -0.009107 0.011012 -0.009175 -0.001370
# 2 -0.014054 0.041705 -0.002313 -0.003389 -0.046874 -0.014291
# 3 -0.009107 -0.002313 0.009839 -0.004034 0.008429 0.002376
# 4 0.011012 -0.003389 -0.004034 0.047198 -0.010039 0.025932
# 5 -0.009175 -0.046874 0.008429 -0.010039 0.123178 0.031460
# 6 -0.001370 -0.014291 0.002376 0.025932 0.031460 0.101190
#
#
# Mechanical properties :
#
#
# Convention : Reuss Voigt Hill
#
# Bulk Modulus (GPa) = 24.67620 52.74479 38.71049
# Shear Modulus (GPa) = 11.69613 23.34988 17.52301
#
# Velocity S-wave (km/s) = 2.26504 3.20034 2.77242
# Velocity P-wave (km/s) = 4.20291 6.06566 5.21808
#
# Compressibility (1/GPa) = 0.04052488
#
# Stress axis : x y z
#
# Youngs Moduli (GPa) = 25.04606 23.97774 101.63255
#
# Poissons Ratio (x) = 0.33697 0.92556
# Poissons Ratio (y) = 0.35199 0.23504
# Poissons Ratio (z) = 0.22809 0.05545
#
# Static dielectric constant tensor:
#      x y z
#    x 1.863180 -0.050750 -0.010110 
#    y -0.050750 1.854750 0.013020 
#    z -0.010110 0.013020 1.872400 
# 
# From -- ./inp_files/199830.got.cif
#   From: 2010.05.17/outbox.cif.g08.bks.cpg/sg2_100_cif.got.tgz:199830.got - 2010.06.03 11:33:40.
