data_PCOD9005942
_publ_section_title
;
Structure prediction by ZEFSAII (Michael W. Deem and Ramdas Pophale) SiO2 
 PCOD9005942
Probable space group: P -1
;
_chemical_formula_sum "Si O2"
_cell_formula_units_Z 16
_cell_length_a 8.261918
_cell_length_b 9.260787
_cell_length_c 14.665919
_cell_angle_alpha 60.520900
_cell_angle_beta 61.222277
_cell_angle_gamma 100.677026
_cell_volume 713.195785
_symmetry_space_group_name_H-M "P -1"
_symmetry_group_IT_number 2
_symmetry_cell_setting 'triclinic'
loop_
_space_group_symop_operation_xyz
x,y,z
-x,-y,-z
loop_
_atom_site_type_symbol
_atom_site_label
_atom_site_fract_x
_atom_site_fract_y
_atom_site_fract_z
Si Si1 0.863614 0.540398 0.096650
Si Si2 0.710610 0.367761 0.728391
Si Si3 0.151774 0.727747 0.553650
Si Si4 0.742442 0.213068 0.952980
Si Si5 0.959216 0.026779 0.396598
Si Si6 0.530604 0.216436 0.419646
Si Si7 0.773937 0.854448 0.049288
Si Si8 0.325122 0.982145 0.259024
O O1 0.647183 0.341332 0.257574
O O2 0.813489 0.705729 0.027725
O O3 0.000000 0.500000 0.000000
O O4 0.022645 0.643297 0.108858
O O5 0.463010 0.301758 0.786934
O O6 0.754193 0.216649 0.713863
O O7 0.936873 0.583254 0.595415
O O8 0.695321 0.321793 0.854409
O O9 0.307681 0.665603 0.575023
O O10 0.314056 0.916260 0.387020
O O11 0.057191 0.783709 0.648377
O O12 0.731716 0.021168 0.972863
O O13 0.564250 0.137923 0.105418
O O14 0.719591 0.841688 0.488567
O O15 0.156637 0.050795 0.277358
O O16 0.000000 0.000000 0.500000
O O17 0.500000 0.000000 0.500000
O O18 0.000000 0.000000 0.000000
#
# Coordination Sequence:
#
# PCOD9005942 Si02
#       8
#     2   2   2   2   2   2   2   2
#     4  11  24  40  68  94 120 166 219 254 316 378
#     4  11  21  42  65  91 128 161 213 264 306 371
#     4  10  21  39  61  90 125 165 205 260 311 367
#     4  10  22  44  63  91 131 164 204 268 311 372
#     4   9  21  38  63  86 125 163 204 253 317 365
#     4  10  22  43  60  89 132 163 200 264 319 359
#     4   9  21  40  62  90 126 167 197 255 320 365
#     4  10  21  38  64  89 121 170 210 244 320 378
#
# _framework density 22.434231
#
# number of rings (size 3 to 8) (size 9 to 14) (size 15 to 20)
#    0.000    2.000    1.250    1.875    8.750    0.000 
#    9.000    4.375    0.000    0.000    0.000    0.000 
#    0.000    0.000    0.000    0.000    0.000    0.000 
#
# Total GULP energy -89090.003899 kJ/mol
# GULP energy per Si atom -5568.125244 kJ/mol
# Density = 2.238317 g / cm^3
# Si number density = 22.434231 Si / 1000 Ang^3
#
#
#
# Elastic Constant Matrix: (Units=GPa)
#
#
# Indices 1 2 3 4 5 6 
#
# 1 84.7302 8.2797 30.0019 0.5523 -26.1693 -2.6554
# 2 8.2797 83.4311 24.4594 2.7991 -12.0644 -7.1833
# 3 30.0019 24.4594 116.9488 -5.4865 -9.8679 -8.6385
# 4 0.5523 2.7991 -5.4865 27.3497 6.4201 -9.6917
# 5 -26.1693 -12.0644 -9.8679 6.4201 35.0106 -5.4166
# 6 -2.6554 -7.1833 -8.6385 -9.6917 -5.4166 25.2622
#
#
#
# Elastic Compliance Matrix: (Units=1/GPa)
#
#
# Indices 1 2 3 4 5 6 
#
# 1 0.017157 0.001625 -0.003581 -0.003462 0.013410 0.002588
# 2 0.001625 0.013887 -0.002618 -0.002113 0.006230 0.003750
# 3 -0.003581 -0.002618 0.010417 0.003957 -0.000782 0.003792
# 4 -0.003462 -0.002113 0.003957 0.045198 -0.008012 0.016010
# 5 0.013410 0.006230 -0.000782 -0.008012 0.043397 0.009145
# 6 0.002588 0.003750 0.003792 0.016010 0.009145 0.050323
#
#
# Mechanical properties :
#
#
# Convention : Reuss Voigt Hill
#
# Bulk Modulus (GPa) = 30.94713 45.62133 38.28423
# Shear Modulus (GPa) = 24.96315 32.34914 28.65614
#
# Velocity S-wave (km/s) = 3.33937 3.80143 3.57787
# Velocity P-wave (km/s) = 5.35659 6.29663 5.84554
#
# Compressibility (1/GPa) = 0.03231317
#
# Stress axis : x y z
#
# Youngs Moduli (GPa) = 58.28594 72.01151 95.99995
#
# Poissons Ratio (x) = -0.11704 0.34378
# Poissons Ratio (y) = -0.09474 0.25131
# Poissons Ratio (z) = 0.20872 0.18851
#
# Static dielectric constant tensor:
#      x y z
#    x 1.944000 -0.013330 -0.003920 
#    y -0.013330 1.891850 -0.044180 
#    z -0.003920 -0.044180 1.852480 
# 
# From -- ./inp_files/556054.got.cif
#   From: 2010.05.17/outbox.cif.g08.bks.cpg/sg2_279_cif.got.tgz:556054.got - 2010.06.03 11:33:40.
