data_PCOD9005991
_publ_section_title
;
Structure prediction by ZEFSAII (Michael W. Deem and Ramdas Pophale) SiO2 
 PCOD9005991
Probable space group: P -1
;
_chemical_formula_sum "Si O2"
_cell_formula_units_Z 14
_cell_length_a 8.271942
_cell_length_b 9.782246
_cell_length_c 8.848479
_cell_angle_alpha 69.673622
_cell_angle_beta 88.422915
_cell_angle_gamma 72.590112
_cell_volume 638.317728
_symmetry_space_group_name_H-M "P -1"
_symmetry_group_IT_number 2
_symmetry_cell_setting 'triclinic'
loop_
_space_group_symop_operation_xyz
x,y,z
-x,-y,-z
loop_
_atom_site_type_symbol
_atom_site_label
_atom_site_fract_x
_atom_site_fract_y
_atom_site_fract_z
Si Si1 0.002648 0.484677 0.324650
Si Si2 0.885382 0.237189 0.251512
Si Si3 0.348702 0.238460 0.331676
Si Si4 0.541090 0.320720 0.040123
Si Si5 0.927427 0.806724 0.044975
Si Si6 0.292877 0.914167 0.468379
Si Si7 0.262689 0.874235 0.131418
O O1 0.199918 0.393057 0.315630
O O2 0.000000 0.500000 0.500000
O O3 0.898811 0.378135 0.297981
O O4 0.929276 0.647144 0.179385
O O5 0.721056 0.260128 0.142782
O O6 0.854752 0.117541 0.417070
O O7 0.030724 0.205940 0.131253
O O8 0.405279 0.257067 0.151767
O O9 0.524834 0.199017 0.435857
O O10 0.289417 0.089807 0.419286
O O11 0.500000 0.500000 0.000000
O O12 0.581223 0.255865 0.896426
O O13 0.087087 0.839920 0.110977
O O14 0.765391 0.957955 0.007208
O O15 0.278598 0.881958 0.305937
#
# Coordination Sequence:
#
# PCOD9005991 Si02
#       7
#     2   2   2   2   2   2   2
#     4  12  25  40  63  93 124 160 207 257 303 364
#     4  10  22  40  63  88 124 167 202 251 309 363
#     4  10  23  41  61  89 127 163 202 255 309 363
#     4  10  22  41  63  89 124 164 203 251 312 367
#     4  10  22  39  61  94 125 158 205 255 310 361
#     4  10  22  41  64  92 123 164 209 250 306 363
#     4  10  21  38  64  91 123 161 205 253 300 366
#
# _framework density 21.932651
#
# number of rings (size 3 to 8) (size 9 to 14) (size 15 to 20)
#    0.000    1.714    0.000    3.857    0.000   10.857 
#    0.000    3.571    0.000    0.000    0.000    0.000 
#    0.000    0.000    0.000    0.000    0.000    0.000 
#
# Total GULP energy -78188.270393 kJ/mol
# GULP energy per Si atom -5584.876457 kJ/mol
# Density = 2.188273 g / cm^3
# Si number density = 21.932651 Si / 1000 Ang^3
#
#
#
# Elastic Constant Matrix: (Units=GPa)
#
#
# Indices 1 2 3 4 5 6 
#
# 1 37.9887 8.5391 21.7921 -8.0141 -10.2730 12.1426
# 2 8.5391 85.2504 42.4954 -5.6394 -10.7585 1.9867
# 3 21.7921 42.4954 118.0724 4.5557 -8.2122 2.4773
# 4 -8.0141 -5.6394 4.5557 47.4004 10.2762 -1.3616
# 5 -10.2730 -10.7585 -8.2122 10.2762 24.0994 -1.3254
# 6 12.1426 1.9867 2.4773 -1.3616 -1.3254 39.5527
#
#
#
# Elastic Compliance Matrix: (Units=1/GPa)
#
#
# Indices 1 2 3 4 5 6 
#
# 1 0.037219 0.001567 -0.006543 0.004212 0.011959 -0.010549
# 2 0.001567 0.014986 -0.005389 0.001496 0.004846 -0.000682
# 3 -0.006543 -0.005389 0.011702 -0.002849 0.000088 0.001451
# 4 0.004212 0.001496 -0.002849 0.024160 -0.008846 -0.000655
# 5 0.011959 0.004846 0.000088 -0.008846 0.052422 -0.002468
# 6 -0.010549 -0.000682 0.001451 -0.000655 -0.002468 0.028360
#
#
# Mechanical properties :
#
#
# Convention : Reuss Voigt Hill
#
# Bulk Modulus (GPa) = 23.16006 42.99609 33.07807
# Shear Modulus (GPa) = 24.51323 33.44281 28.97802
#
# Velocity S-wave (km/s) = 3.34677 3.90910 3.63881
# Velocity P-wave (km/s) = 5.05144 6.32621 5.72442
#
# Compressibility (1/GPa) = 0.04317778
#
# Stress axis : x y z
#
# Youngs Moduli (GPa) = 26.86774 66.72898 85.45443
#
# Poissons Ratio (x) = -0.10457 0.55911
# Poissons Ratio (y) = -0.04210 0.46053
# Poissons Ratio (z) = 0.17579 0.35961
#
# Static dielectric constant tensor:
#      x y z
#    x 1.852260 -0.015320 0.001140 
#    y -0.015320 1.763630 -0.003620 
#    z 0.001140 -0.003620 1.794480 
# 
# From -- ./inp_files/157392.got.cif
#   From: 2010.05.17/outbox.cif.g08.bks.cpg/sg2_79_cif.got.tgz:157392.got - 2010.06.03 11:33:40.
