data_PCOD9005069
_publ_section_title
;
Structure prediction by ZEFSAII (Michael W. Deem and Ramdas Pophale) SiO2 
 PCOD9005069
Probable space group: P -1
;
_chemical_formula_sum "Si O2"
_cell_formula_units_Z 16
_cell_length_a 6.090142
_cell_length_b 10.436349
_cell_length_c 11.543797
_cell_angle_alpha 90.297770
_cell_angle_beta 97.204797
_cell_angle_gamma 113.847529
_cell_volume 664.506292
_symmetry_space_group_name_H-M "P -1"
_symmetry_group_IT_number 2
_symmetry_cell_setting 'triclinic'
loop_
_space_group_symop_operation_xyz
x,y,z
-x,-y,-z
loop_
_atom_site_type_symbol
_atom_site_label
_atom_site_fract_x
_atom_site_fract_y
_atom_site_fract_z
Si Si1 0.609762 0.386635 0.528635
Si Si2 0.908846 0.262317 0.099061
Si Si3 0.511135 0.167419 0.887863
Si Si4 0.007890 0.978949 0.862572
Si Si5 0.916289 0.831305 0.489726
Si Si6 0.095686 0.777254 0.262701
Si Si7 0.937554 0.367972 0.345038
Si Si8 0.727128 0.621541 0.068478
O O1 0.500000 0.500000 0.500000
O O2 0.375645 0.247546 0.549932
O O3 0.725555 0.361361 0.417585
O O4 0.158566 0.522938 0.374269
O O5 0.082906 0.187052 0.153346
O O6 0.854062 0.332896 0.207154
O O7 0.065071 0.363076 0.009315
O O8 0.677992 0.163970 0.006240
O O9 0.369778 0.256614 0.927090
O O10 0.675089 0.229742 0.786611
O O11 0.283922 0.027887 0.835630
O O12 0.899762 0.076376 0.792677
O O13 0.000000 0.000000 0.000000
O O14 0.062616 0.796740 0.394698
O O15 0.975772 0.751845 0.601574
O O16 0.000000 0.000000 0.500000
O O17 0.859522 0.644400 0.201128
O O18 0.500000 0.500000 0.000000
#
# Coordination Sequence:
#
# PCOD9005069 Si02
#       8
#     2   2   2   2   2   2   2   2
#     4   9  22  46  64  87 128 167 215 267 314 368
#     4  11  22  36  63  95 118 159 207 251 306 375
#     4  10  21  38  60  89 126 157 202 250 316 367
#     4  11  19  38  59  90 127 155 199 248 308 368
#     4  11  24  43  66  96 132 167 216 266 318 377
#     4  10  23  38  61  93 122 167 197 248 316 369
#     4  10  23  43  66  96 124 170 218 258 319 384
#     4  10  23  41  57  89 126 160 203 254 306 368
#
# _framework density 24.078028
#
# number of rings (size 3 to 8) (size 9 to 14) (size 15 to 20)
#    0.000    1.750    3.750    1.125    1.750    7.500 
#    9.000    0.000    0.000    0.000    0.000    0.000 
#    0.000    0.000    0.000    0.000    0.000    0.000 
#
# Total GULP energy -89214.590384 kJ/mol
# GULP energy per Si atom -5575.911899 kJ/mol
# Density = 2.402322 g / cm^3
# Si number density = 24.078028 Si / 1000 Ang^3
#
#
#
# Elastic Constant Matrix: (Units=GPa)
#
#
# Indices 1 2 3 4 5 6 
#
# 1 90.8876 22.6496 28.3390 -4.8947 -12.6152 5.5307
# 2 22.6496 96.3307 12.7029 10.4219 -5.2519 5.9502
# 3 28.3390 12.7029 140.3360 4.9100 -26.0292 -2.1871
# 4 -4.8947 10.4219 4.9100 22.9637 -3.1627 -1.3545
# 5 -12.6152 -5.2519 -26.0292 -3.1627 32.8194 -2.4960
# 6 5.5307 5.9502 -2.1871 -1.3545 -2.4960 39.5571
#
#
#
# Elastic Compliance Matrix: (Units=1/GPa)
#
#
# Indices 1 2 3 4 5 6 
#
# 1 0.013207 -0.003143 -0.001938 0.005065 0.003441 -0.001090
# 2 -0.003143 0.011908 -0.000300 -0.006139 -0.000253 -0.001595
# 3 -0.001938 -0.000300 0.008738 -0.001237 0.006104 0.001142
# 4 0.005065 -0.006139 -0.001237 0.048465 0.004814 0.002110
# 5 0.003441 -0.000253 0.006104 0.004814 0.037241 0.002409
# 6 -0.001090 -0.001595 0.001142 0.002110 0.002409 0.025960
#
#
# Mechanical properties :
#
#
# Convention : Reuss Voigt Hill
#
# Bulk Modulus (GPa) = 43.30874 50.54858 46.92866
# Shear Modulus (GPa) = 30.49194 36.65890 33.57542
#
# Velocity S-wave (km/s) = 3.56248 3.90616 3.73827
# Velocity P-wave (km/s) = 5.91165 6.43299 6.17782
#
# Compressibility (1/GPa) = 0.02309003
#
# Stress axis : x y z
#
# Youngs Moduli (GPa) = 75.71739 83.97505 114.44672
#
# Poissons Ratio (x) = 0.26391 0.22185
# Poissons Ratio (y) = 0.23796 0.03437
# Poissons Ratio (z) = 0.14677 0.02522
#
# Static dielectric constant tensor:
#      x y z
#    x 2.035330 0.089380 0.125330 
#    y 0.089380 2.394840 0.142200 
#    z 0.125330 0.142200 1.970340 
# 
# From -- ./inp_files/364803.got.cif
#   From: 2010.05.17/outbox.cif.g08.bks.cpg/sg2_183_cif.got.tgz:364803.got - 2010.06.03 11:33:40.
