data_PCOD9005283
_publ_section_title
;
Structure prediction by ZEFSAII (Michael W. Deem and Ramdas Pophale) SiO2 
 PCOD9005283
Probable space group: P -1
;
_chemical_formula_sum "Si O2"
_cell_formula_units_Z 16
_cell_length_a 12.520374
_cell_length_b 6.742237
_cell_length_c 27.446428
_cell_angle_alpha 47.091177
_cell_angle_beta 26.485051
_cell_angle_gamma 55.945184
_cell_volume 748.091712
_symmetry_space_group_name_H-M "P -1"
_symmetry_group_IT_number 2
_symmetry_cell_setting 'triclinic'
loop_
_space_group_symop_operation_xyz
x,y,z
-x,-y,-z
loop_
_atom_site_type_symbol
_atom_site_label
_atom_site_fract_x
_atom_site_fract_y
_atom_site_fract_z
Si Si1 0.368600 0.991495 0.201215
Si Si2 0.124358 0.268302 0.517314
Si Si3 0.794020 0.162823 0.806797
Si Si4 0.834666 0.822474 0.058190
Si Si5 0.323488 0.369067 0.528408
Si Si6 0.999723 0.253967 0.098371
Si Si7 0.405903 0.396008 0.984494
Si Si8 0.539561 0.938806 0.389051
O O1 0.502189 0.300332 0.085485
O O2 0.329255 0.805164 0.200211
O O3 0.562598 0.860838 0.175049
O O4 0.105849 0.965825 0.337213
O O5 0.251513 0.357055 0.502807
O O6 0.000000 0.500000 0.500000
O O7 0.338537 0.133862 0.427117
O O8 0.644086 0.266756 0.894385
O O9 0.061450 0.320462 0.669580
O O10 0.763789 0.831143 0.876661
O O11 0.861802 0.505945 0.099480
O O12 0.920872 0.908739 0.953523
O O13 0.000000 0.000000 0.000000
O O14 0.467786 0.661935 0.434215
O O15 0.458424 0.148767 0.539782
O O16 0.808837 0.069663 0.241360
O O17 0.240843 0.393903 0.004221
#
# Coordination Sequence:
#
# PCOD9005283 Si02
#       8
#     2   2   2   2   2   2   2   2
#     4  11  22  39  62  91 123 164 204 254 310 372
#     4  11  25  44  64  94 131 173 217 262 318 380
#     4  10  21  38  61  90 126 155 206 258 310 373
#     4  11  23  41  61  91 130 163 203 250 317 380
#     4  10  23  43  67  92 125 176 214 270 315 372
#     4  11  23  39  63  93 123 164 202 259 312 374
#     4  11  20  37  61  92 122 157 199 255 318 364
#     4  11  23  44  66  96 127 167 224 263 318 374
#
# _framework density 21.387754000000001
#
# number of rings (size 3 to 8) (size 9 to 14) (size 15 to 20)
#    0.000    1.250    3.750    2.250    0.000    2.500 
#    0.000    1.250    0.000    0.000    0.000    0.000 
#    0.000    0.000    0.000    0.000    0.000    0.000 
#
# Total GULP energy -89172.158983 kJ/mol
# GULP energy per Si atom -5573.259936 kJ/mol
# Density = 2.133907 g / cm^3
# Si number density = 21.387754 Si / 1000 Ang^3
#
#
#
# Elastic Constant Matrix: (Units=GPa)
#
#
# Indices 1 2 3 4 5 6 
#
# 1 92.4089 16.0395 3.3823 -1.9084 -15.0153 -2.1927
# 2 16.0395 59.9504 20.1816 -4.2343 -5.8144 -4.6616
# 3 3.3823 20.1816 78.0890 -9.3456 -15.6095 6.5201
# 4 -1.9084 -4.2343 -9.3456 25.3676 -1.6070 0.4533
# 5 -15.0153 -5.8144 -15.6095 -1.6070 34.9408 -2.8395
# 6 -2.1927 -4.6616 6.5201 0.4533 -2.8395 30.0672
#
#
#
# Elastic Compliance Matrix: (Units=1/GPa)
#
#
# Indices 1 2 3 4 5 6 
#
# 1 0.012242 -0.003101 0.001478 0.001286 0.005512 0.000593
# 2 -0.003101 0.019619 -0.005132 0.001081 0.000007 0.003913
# 3 0.001478 -0.005132 0.016499 0.005850 0.007122 -0.003681
# 4 0.001286 0.001081 0.005850 0.042202 0.005193 -0.001153
# 5 0.005512 0.000007 0.007122 0.005193 0.034577 0.002046
# 6 0.000593 0.003913 -0.003681 -0.001153 0.002046 0.034918
#
#
# Mechanical properties :
#
#
# Convention : Reuss Voigt Hill
#
# Bulk Modulus (GPa) = 28.69508 34.40612 31.55060
# Shear Modulus (GPa) = 27.00012 30.79811 28.89912
#
# Velocity S-wave (km/s) = 3.55690 3.79883 3.67985
# Velocity P-wave (km/s) = 5.50585 5.94670 5.73052
#
# Compressibility (1/GPa) = 0.03484918
#
# Stress axis : x y z
#
# Youngs Moduli (GPa) = 81.68639 50.97078 60.60857
#
# Poissons Ratio (x) = 0.15807 -0.08955
# Poissons Ratio (y) = 0.25332 0.31104
# Poissons Ratio (z) = -0.12069 0.26158
#
# Static dielectric constant tensor:
#      x y z
#    x 1.864040 -0.046250 0.079760 
#    y -0.046250 1.781660 0.000560 
#    z 0.079760 0.000560 1.773710 
# 
# From -- ./inp_files/109566.got.cif
#   From: 2010.05.17/outbox.cif.g08.bks.cpg/sg2_55_cif.got.tgz:109566.got - 2010.06.03 11:33:40.
