data_PCOD9005321
_publ_section_title
;
Structure prediction by ZEFSAII (Michael W. Deem and Ramdas Pophale) SiO2 
 PCOD9005321
Probable space group: P -1
;
_chemical_formula_sum "Si O2"
_cell_formula_units_Z 14
_cell_length_a 8.906118
_cell_length_b 20.275486
_cell_length_c 8.529093
_cell_angle_alpha 56.909016
_cell_angle_beta 91.827111
_cell_angle_gamma 43.129192
_cell_volume 582.133195
_symmetry_space_group_name_H-M "P -1"
_symmetry_group_IT_number 2
_symmetry_cell_setting 'triclinic'
loop_
_space_group_symop_operation_xyz
x,y,z
-x,-y,-z
loop_
_atom_site_type_symbol
_atom_site_label
_atom_site_fract_x
_atom_site_fract_y
_atom_site_fract_z
Si Si1 0.765899 0.006105 0.192567
Si Si2 0.224253 0.518867 0.446945
Si Si3 0.162139 0.704308 0.402136
Si Si4 0.490459 0.722250 0.685028
Si Si5 0.303660 0.224616 0.167284
Si Si6 0.113618 0.620960 0.770267
Si Si7 0.226734 0.325189 0.537256
O O1 0.859067 0.894610 0.216181
O O2 0.106920 0.887138 0.415148
O O3 0.586542 0.059571 0.275022
O O4 0.518212 0.178607 0.863925
O O5 0.134813 0.646720 0.350581
O O6 0.590246 0.351925 0.605574
O O7 0.122370 0.507504 0.596860
O O8 0.978431 0.619509 0.166824
O O9 0.307893 0.596625 0.708730
O O10 0.552716 0.766670 0.746137
O O11 0.674410 0.660441 0.611204
O O12 0.660288 0.562321 0.958602
O O13 0.102150 0.263549 0.231493
O O14 0.829107 0.728035 0.496792
#
# Coordination Sequence:
#
# PCOD9005321 Si02
#       7
#     2   2   2   2   2   2   2
#     4  11  23  39  63  91 130 164 198 257 307 371
#     4   9  20  40  63  89 121 162 212 254 294 367
#     4  10  22  42  63  92 124 163 211 248 309 366
#     4  11  22  42  64  93 126 161 207 255 308 364
#     4  10  21  38  61  92 124 161 204 251 314 362
#     4  10  22  41  65  90 127 165 203 255 302 371
#     4   9  20  40  63  90 120 161 205 251 306 357
#
# _framework density 24.049479000000002
#
# number of rings (size 3 to 8) (size 9 to 14) (size 15 to 20)
#    0.000    2.000    0.000    3.429    0.000    8.000 
#    0.000   47.143    0.000    0.000    0.000    0.000 
#    0.000    0.000    0.000    0.000    0.000    0.000 
#
# Total GULP energy -78136.855648 kJ/mol
# GULP energy per Si atom -5581.203975 kJ/mol
# Density = 2.399474 g / cm^3
# Si number density = 24.049479 Si / 1000 Ang^3
#
#
#
# Elastic Constant Matrix: (Units=GPa)
#
#
# Indices 1 2 3 4 5 6 
#
# 1 65.2618 43.8490 16.1954 -1.6279 6.8226 9.5182
# 2 43.8490 215.3137 31.8584 9.4045 -5.3810 -14.9296
# 3 16.1954 31.8584 80.4708 16.6572 4.0860 -6.3373
# 4 -1.6279 9.4045 16.6572 36.7020 -1.9724 -5.3257
# 5 6.8226 -5.3810 4.0860 -1.9724 37.3955 7.9687
# 6 9.5182 -14.9296 -6.3373 -5.3257 7.9687 53.2772
#
#
#
# Elastic Compliance Matrix: (Units=1/GPa)
#
#
# Indices 1 2 3 4 5 6 
#
# 1 0.019816 -0.004060 -0.003111 0.002546 -0.002793 -0.004376
# 2 -0.004060 0.005857 -0.001255 -0.000760 0.001264 0.001952
# 3 -0.003111 -0.001255 0.015135 -0.006553 -0.001962 0.001643
# 4 0.002546 -0.000760 -0.006553 0.030812 0.001466 0.001413
# 5 -0.002793 0.001264 -0.001962 0.001466 0.028468 -0.003492
# 6 -0.004376 0.001952 0.001643 0.001413 -0.003492 0.020958
#
#
# Mechanical properties :
#
#
# Convention : Reuss Voigt Hill
#
# Bulk Modulus (GPa) = 41.74021 60.53911 51.13966
# Shear Modulus (GPa) = 34.27409 43.41783 38.84596
#
# Velocity S-wave (km/s) = 3.77921 4.25356 4.02338
# Velocity P-wave (km/s) = 6.03630 7.02503 6.54935
#
# Compressibility (1/GPa) = 0.02395771
#
# Stress axis : x y z
#
# Youngs Moduli (GPa) = 50.46367 170.73589 66.07160
#
# Poissons Ratio (x) = 0.69315 0.20553
# Poissons Ratio (y) = 0.20487 0.08291
# Poissons Ratio (z) = 0.15698 0.21425
#
# Static dielectric constant tensor:
#      x y z
#    x 2.062640 -0.000620 -0.009920 
#    y -0.000620 1.945530 -0.007440 
#    z -0.009920 -0.007440 1.907590 
# 
# From -- ./inp_files/225291.got.cif
#   From: 2010.05.17/outbox.cif.g08.bks.cpg/sg2_113_cif.got.tgz:225291.got - 2010.06.03 11:33:40.
