data_PCOD9005962
_publ_section_title
;
Structure prediction by ZEFSAII (Michael W. Deem and Ramdas Pophale) SiO2 
 PCOD9005962
Probable space group: P -1
;
_chemical_formula_sum "Si O2"
_cell_formula_units_Z 16
_cell_length_a 19.003998
_cell_length_b 11.692357
_cell_length_c 6.330856
_cell_angle_alpha 114.153395
_cell_angle_beta 44.743550
_cell_angle_gamma 130.013738
_cell_volume 755.468601
_symmetry_space_group_name_H-M "P -1"
_symmetry_group_IT_number 2
_symmetry_cell_setting 'triclinic'
loop_
_space_group_symop_operation_xyz
x,y,z
-x,-y,-z
loop_
_atom_site_type_symbol
_atom_site_label
_atom_site_fract_x
_atom_site_fract_y
_atom_site_fract_z
Si Si1 0.111117 0.494270 0.332797
Si Si2 0.919314 0.988927 0.965684
Si Si3 0.494368 0.737465 0.458415
Si Si4 0.084624 0.251183 0.520156
Si Si5 0.557166 0.900558 0.054080
Si Si6 0.733211 0.556387 0.370619
Si Si7 0.655950 0.201203 0.846032
Si Si8 0.663291 0.762968 0.450472
O O1 0.068712 0.360282 0.488414
O O2 0.212533 0.652536 0.340901
O O3 0.000000 0.500000 0.500000
O O4 0.176897 0.469441 0.976865
O O5 0.907622 0.864365 0.734721
O O6 0.785789 0.923097 0.275094
O O7 0.981312 0.145602 0.828656
O O8 0.000000 0.000000 0.000000
O O9 0.562756 0.883760 0.278033
O O10 0.392327 0.598216 0.436546
O O11 0.586069 0.709909 0.361278
O O12 0.419800 0.758029 0.811217
O O13 0.202347 0.353967 0.487494
O O14 0.424323 0.854387 0.235212
O O15 0.588419 0.787268 0.801948
O O16 0.645609 0.061582 0.881174
O O17 0.700674 0.652834 0.367705
#
# Coordination Sequence:
#
# PCOD9005962 Si02
#       8
#     2   2   2   2   2   2   2   2
#     4  11  24  42  64  92 127 170 215 264 315 379
#     4  11  23  42  63  92 129 165 210 263 315 381
#     4  10  22  38  64  92 125 167 210 256 320 380
#     4  11  23  41  69  87 124 177 208 257 334 370
#     4  10  21  38  64  90 122 166 213 254 320 375
#     4  11  23  43  62  93 133 161 212 270 316 381
#     4   9  21  41  59  88 128 164 207 268 305 368
#     4  11  23  38  62  95 127 161 209 266 317 377
#
# _framework density 21.178906999999999
#
# number of rings (size 3 to 8) (size 9 to 14) (size 15 to 20)
#    0.000    1.500    2.500    1.500    1.750    4.000 
#    0.000    2.500    0.000    0.000    0.000    0.000 
#    0.000    0.000    0.000    0.000    0.000    0.000 
#
# Total GULP energy -89402.548312 kJ/mol
# GULP energy per Si atom -5587.659269 kJ/mol
# Density = 2.113070 g / cm^3
# Si number density = 21.178907 Si / 1000 Ang^3
#
#
#
# Elastic Constant Matrix: (Units=GPa)
#
#
# Indices 1 2 3 4 5 6 
#
# 1 131.2407 52.9486 47.1575 -4.3301 -1.3102 -11.9040
# 2 52.9486 92.6942 20.6411 -5.3212 -6.2289 1.2623
# 3 47.1575 20.6411 61.0130 -14.9790 -9.1215 2.3188
# 4 -4.3301 -5.3212 -14.9790 26.9631 -1.4873 11.0329
# 5 -1.3102 -6.2289 -9.1215 -1.4873 30.1662 3.1950
# 6 -11.9040 1.2623 2.3188 11.0329 3.1950 31.2627
#
#
#
# Elastic Compliance Matrix: (Units=1/GPa)
#
#
# Indices 1 2 3 4 5 6 
#
# 1 0.016958 -0.007711 -0.015385 -0.013226 -0.007574 0.013351
# 2 -0.007711 0.015231 0.003425 0.006662 0.004879 -0.006655
# 3 -0.015385 0.003425 0.036872 0.027682 0.014671 -0.020000
# 4 -0.013226 0.006662 0.027682 0.065688 0.015816 -0.032157
# 5 -0.007574 0.004879 0.014671 0.015816 0.040515 -0.013891
# 6 0.013351 -0.006655 -0.020000 -0.032157 -0.013891 0.051591
#
#
# Mechanical properties :
#
#
# Convention : Reuss Voigt Hill
#
# Bulk Modulus (GPa) = 33.64832 58.49357 46.07095
# Shear Modulus (GPa) = 18.10925 28.62510 23.36717
#
# Velocity S-wave (km/s) = 2.92731 3.68038 3.32523
# Velocity P-wave (km/s) = 5.22950 6.76306 6.04511
#
# Compressibility (1/GPa) = 0.02971916
#
# Stress axis : x y z
#
# Youngs Moduli (GPa) = 58.97089 65.65610 27.12083
#
# Poissons Ratio (x) = 0.50625 0.41725
# Poissons Ratio (y) = 0.45470 -0.09288
# Poissons Ratio (z) = 0.90726 -0.22486
#
# Static dielectric constant tensor:
#      x y z
#    x 1.740830 0.010940 0.021800 
#    y 0.010940 1.807180 -0.003160 
#    z 0.021800 -0.003160 1.784860 
# 
# From -- ./inp_files/69386.got.cif
#   From: 2010.05.17/outbox.cif.g08.bks.cpg/sg2_35_cif.got.tgz:69386.got - 2010.06.03 11:33:40.
