data_PCOD9005438
_publ_section_title
;
Structure prediction by ZEFSAII (Michael W. Deem and Ramdas Pophale) SiO2 
 PCOD9005438
Probable space group: P -1
;
_chemical_formula_sum "Si O2"
_cell_formula_units_Z 16
_cell_length_a 18.229904
_cell_length_b 6.283561
_cell_length_c 20.807487
_cell_angle_alpha 37.537430
_cell_angle_beta 26.878464
_cell_angle_gamma 42.293504
_cell_volume 651.976627
_symmetry_space_group_name_H-M "P -1"
_symmetry_group_IT_number 2
_symmetry_cell_setting 'triclinic'
loop_
_space_group_symop_operation_xyz
x,y,z
-x,-y,-z
loop_
_atom_site_type_symbol
_atom_site_label
_atom_site_fract_x
_atom_site_fract_y
_atom_site_fract_z
Si Si1 0.014854 0.557035 0.277765
Si Si2 0.001303 0.624842 0.122518
Si Si3 0.250350 0.419000 0.873863
Si Si4 0.630501 0.676124 0.899692
Si Si5 0.491362 0.165093 0.377975
Si Si6 0.269086 0.862110 0.395721
Si Si7 0.780892 0.264838 0.309023
Si Si8 0.496881 0.246356 0.202452
O O1 0.917849 0.213302 0.441329
O O2 0.048091 0.619980 0.161234
O O3 0.183589 0.509982 0.195505
O O4 0.891141 0.890670 0.316605
O O5 0.826863 0.481064 0.282934
O O6 0.129445 0.381878 0.036102
O O7 0.000000 0.000000 0.000000
O O8 0.340938 0.759644 0.739469
O O9 0.174620 0.515120 0.840500
O O10 0.375201 0.067984 0.851992
O O11 0.661795 0.030364 0.753404
O O12 0.500000 0.500000 0.000000
O O13 0.552753 0.609687 0.045860
O O14 0.367907 0.486995 0.425468
O O15 0.507205 0.213485 0.277954
O O16 0.404327 0.815687 0.536566
O O17 0.322672 0.154602 0.332972
#
# Coordination Sequence:
#
# PCOD9005438 Si02
#       8
#     2   2   2   2   2   2   2   2
#     4  11  22  41  65  89 129 163 203 258 309 367
#     4  12  25  39  62  92 125 167 208 248 309 368
#     4  11  23  38  61  91 127 166 212 250 302 369
#     4  10  21  39  66  92 120 163 206 259 315 361
#     4  10  22  40  62  91 123 168 208 254 308 366
#     4   9  21  40  61  93 122 161 210 255 309 367
#     4  11  24  40  61  90 129 165 209 253 304 372
#     4  10  21  38  62  88 128 160 205 257 305 362
#
# _framework density 24.540758
#
# number of rings (size 3 to 8) (size 9 to 14) (size 15 to 20)
#    0.000    1.500    1.250    3.375    3.500    1.000 
#    0.000    5.000    0.000   11.250    0.000    0.000 
#    0.000    0.000    0.000    0.000    0.000    0.000 
#
# Total GULP energy -89426.546708 kJ/mol
# GULP energy per Si atom -5589.159169 kJ/mol
# Density = 2.448490 g / cm^3
# Si number density = 24.540758 Si / 1000 Ang^3
#
#
#
# Elastic Constant Matrix: (Units=GPa)
#
#
# Indices 1 2 3 4 5 6 
#
# 1 91.5719 15.3616 31.0152 2.0245 -1.6239 1.7770
# 2 15.3616 62.4019 17.6914 -10.9196 -9.9648 0.7837
# 3 31.0152 17.6914 127.2831 -8.7689 -9.3219 -9.3208
# 4 2.0245 -10.9196 -8.7689 26.8115 1.9067 5.8990
# 5 -1.6239 -9.9648 -9.3219 1.9067 53.3837 8.7900
# 6 1.7770 0.7837 -9.3208 5.8990 8.7900 20.4361
#
#
#
# Elastic Compliance Matrix: (Units=1/GPa)
#
#
# Indices 1 2 3 4 5 6 
#
# 1 0.012466 -0.002730 -0.002971 -0.002690 -0.000319 -0.001421
# 2 -0.002730 0.019289 -0.001541 0.008449 0.003817 -0.005286
# 3 -0.002971 -0.001541 0.009232 0.001743 0.000548 0.003789
# 4 -0.002690 0.008449 0.001743 0.044221 0.002374 -0.013081
# 5 -0.000319 0.003817 0.000548 0.002374 0.021026 -0.009598
# 6 -0.001421 -0.005286 0.003789 -0.013081 -0.009598 0.058892
#
#
# Mechanical properties :
#
#
# Convention : Reuss Voigt Hill
#
# Bulk Modulus (GPa) = 37.73234 45.48813 41.61023
# Shear Modulus (GPa) = 26.53302 34.60551 30.56926
#
# Velocity S-wave (km/s) = 3.29170 3.75924 3.53321
# Velocity P-wave (km/s) = 5.46405 6.11706 5.79975
#
# Compressibility (1/GPa) = 0.02650247
#
# Stress axis : x y z
#
# Youngs Moduli (GPa) = 80.21834 51.84403 108.31492
#
# Poissons Ratio (x) = 0.14155 0.32178
# Poissons Ratio (y) = 0.21902 0.16693
# Poissons Ratio (z) = 0.23831 0.07990
#
# Static dielectric constant tensor:
#      x y z
#    x 1.919160 -0.002930 -0.029470 
#    y -0.002930 1.963330 -0.010000 
#    z -0.029470 -0.010000 2.041470 
# 
# From -- ./inp_files/39454.got.cif
#   From: 2010.05.17/outbox.cif.g08.bks.cpg/sg2_20_cif.got.tgz:39454.got - 2010.06.03 11:33:40.
