data_PCOD9005571
_publ_section_title
;
Structure prediction by ZEFSAII (Michael W. Deem and Ramdas Pophale) SiO2 
 PCOD9005571
Probable space group: P -1
;
_chemical_formula_sum "Si O2"
_cell_formula_units_Z 16
_cell_length_a 26.391803
_cell_length_b 7.012091
_cell_length_c 28.404602
_cell_angle_alpha 50.176243
_cell_angle_beta 9.563074
_cell_angle_gamma 50.593692
_cell_volume 670.485111
_symmetry_space_group_name_H-M "P -1"
_symmetry_group_IT_number 2
_symmetry_cell_setting 'triclinic'
loop_
_space_group_symop_operation_xyz
x,y,z
-x,-y,-z
loop_
_atom_site_type_symbol
_atom_site_label
_atom_site_fract_x
_atom_site_fract_y
_atom_site_fract_z
Si Si1 0.349596 0.001523 0.086902
Si Si2 0.147102 0.164558 0.685471
Si Si3 0.135754 0.306559 0.155624
Si Si4 0.634737 0.472397 0.337381
Si Si5 0.442654 0.077807 0.725718
Si Si6 0.760546 0.730460 0.679451
Si Si7 0.520601 0.015688 0.773682
Si Si8 0.632631 0.987640 0.337962
O O1 0.999443 0.951255 0.427632
O O2 0.347967 0.242876 0.016437
O O3 0.514065 0.787523 0.937298
O O4 0.500000 0.000000 0.000000
O O5 0.291353 0.088598 0.515402
O O6 0.444871 0.161098 0.445857
O O7 0.948463 0.413518 0.822777
O O8 0.907522 0.979524 0.957632
O O9 0.821107 0.175708 0.474084
O O10 0.274934 0.167384 0.005195
O O11 0.583920 0.188151 0.399892
O O12 0.499021 0.650097 0.391417
O O13 0.573745 0.695248 0.405168
O O14 0.000000 0.500000 0.000000
O O15 0.438374 0.015763 0.794567
O O16 0.000000 0.500000 0.500000
O O17 0.594497 0.763698 0.775600
O O18 0.000000 0.000000 0.000000
#
# Coordination Sequence:
#
# PCOD9005571 Si02
#       8
#     2   2   2   2   2   2   2   2
#     4  10  21  38  63  93 129 172 214 253 320 377
#     4  12  25  44  65  96 129 165 218 273 322 388
#     4  10  23  43  62  92 134 168 209 269 316 381
#     4  12  23  46  67  90 130 166 211 273 333 385
#     4  12  24  43  68  94 124 170 217 267 327 392
#     4  10  21  38  62  93 132 165 213 267 307 373
#     4  10  23  42  63  94 127 172 214 256 327 383
#     4  12  26  44  66  96 127 165 218 270 332 396
#
# _framework density 23.863316999999999
#
# number of rings (size 3 to 8) (size 9 to 14) (size 15 to 20)
#    0.000    1.000    2.500    3.750    1.750    2.000 
#    0.000    0.000    0.000    0.000    0.000    0.000 
#    0.000    0.000    0.000    0.000    0.000    0.000 
#
# Total GULP energy -89242.606334 kJ/mol
# GULP energy per Si atom -5577.662896 kJ/mol
# Density = 2.380900 g / cm^3
# Si number density = 23.863317 Si / 1000 Ang^3
#
#
#
# Elastic Constant Matrix: (Units=GPa)
#
#
# Indices 1 2 3 4 5 6 
#
# 1 173.0589 81.4024 41.8939 35.0645 0.7146 -7.3702
# 2 81.4024 126.6632 49.8625 26.6459 -6.5163 -10.3087
# 3 41.8939 49.8625 131.5148 23.5078 21.2276 5.5014
# 4 35.0645 26.6459 23.5078 53.3804 11.1187 -1.9867
# 5 0.7146 -6.5163 21.2276 11.1187 52.5492 16.3225
# 6 -7.3702 -10.3087 5.5014 -1.9867 16.3225 33.9118
#
#
#
# Elastic Compliance Matrix: (Units=1/GPa)
#
#
# Indices 1 2 3 4 5 6 
#
# 1 0.008793 -0.004778 -0.000439 -0.003194 0.000041 0.000323
# 2 -0.004778 0.013226 -0.003637 -0.002432 0.003085 0.001945
# 3 -0.000439 -0.003637 0.010069 -0.001569 -0.003846 -0.001075
# 4 -0.003194 -0.002432 -0.001569 0.024016 -0.005616 0.002931
# 5 0.000041 0.003085 -0.003846 -0.005616 0.025595 -0.011078
# 6 0.000323 0.001945 -0.001075 0.002931 -0.011078 0.035828
#
#
# Mechanical properties :
#
#
# Convention : Reuss Voigt Hill
#
# Bulk Modulus (GPa) = 69.53922 86.39495 77.96709
# Shear Modulus (GPa) = 35.70775 45.17347 40.44061
#
# Velocity S-wave (km/s) = 3.87246 4.35559 4.12111
# Velocity P-wave (km/s) = 7.01416 7.84714 7.44231
#
# Compressibility (1/GPa) = 0.01438037
#
# Stress axis : x y z
#
# Youngs Moduli (GPa) = 113.73109 75.60957 99.31792
#
# Poissons Ratio (x) = 0.36125 0.04356
# Poissons Ratio (y) = 0.54338 0.36122
# Poissons Ratio (z) = 0.04988 0.27499
#
# Static dielectric constant tensor:
#      x y z
#    x 2.067960 0.121410 -0.057130 
#    y 0.121410 2.244080 -0.067200 
#    z -0.057130 -0.067200 1.880930 
# 
# From -- ./inp_files/114539.got.cif
#   From: 2010.05.17/outbox.cif.g08.bks.cpg/sg2_58_cif.got.tgz:114539.got - 2010.06.03 11:33:40.
