data_PCOD9005153
_publ_section_title
;
Structure prediction by ZEFSAII (Michael W. Deem and Ramdas Pophale) SiO2 
 PCOD9005153
Probable space group: P -1
;
_chemical_formula_sum "Si O2"
_cell_formula_units_Z 16
_cell_length_a 12.560079
_cell_length_b 6.687336
_cell_length_c 9.871704
_cell_angle_alpha 79.219838
_cell_angle_beta 82.630060
_cell_angle_gamma 62.398515
_cell_volume 721.000606
_symmetry_space_group_name_H-M "P -1"
_symmetry_group_IT_number 2
_symmetry_cell_setting 'triclinic'
loop_
_space_group_symop_operation_xyz
x,y,z
-x,-y,-z
loop_
_atom_site_type_symbol
_atom_site_label
_atom_site_fract_x
_atom_site_fract_y
_atom_site_fract_z
Si Si1 0.083643 0.124645 0.314819
Si Si2 0.532102 0.362662 0.706598
Si Si3 0.148894 0.202627 0.899089
Si Si4 0.308938 0.312974 0.651448
Si Si5 0.739409 0.221350 0.889253
Si Si6 0.880729 0.492951 0.867958
Si Si7 0.610111 0.150560 0.433432
Si Si8 0.164470 0.810637 0.597770
O O1 0.107794 0.343413 0.269515
O O2 0.945173 0.185878 0.298998
O O3 0.168994 0.937862 0.220046
O O4 0.111411 0.011172 0.471583
O O5 0.408990 0.338671 0.724949
O O6 0.608011 0.294933 0.839493
O O7 0.606160 0.204044 0.587612
O O8 0.498235 0.624002 0.639562
O O9 0.215303 0.269541 0.763043
O O10 0.010276 0.270068 0.878765
O O11 0.138257 0.363409 0.009513
O O12 0.226672 0.942729 0.965912
O O13 0.234221 0.554490 0.558259
O O14 0.378091 0.094819 0.572777
O O15 0.773396 0.426508 0.877900
O O16 0.730617 0.152573 0.353726
#
# Coordination Sequence:
#
# PCOD9005153 Si02
#       8
#     2   2   2   2   2   2   2   2
#     4  10  21  38  61  96 131 161 211 268 316 387
#     4  10  23  44  61  97 128 168 223 264 310 386
#     4  10  23  42  62 100 124 170 218 262 313 391
#     4  11  23  41  69  92 131 174 212 262 323 381
#     4  11  23  40  68  92 131 171 214 263 322 380
#     4  10  22  42  65  91 132 174 206 264 325 380
#     4  10  22  41  66  90 129 177 210 264 324 378
#     4  10  21  38  60  97 132 159 212 268 314 388
#
# _framework density 22.191382000000001
#
# number of rings (size 3 to 8) (size 9 to 14) (size 15 to 20)
#    0.000    1.750    2.500    0.750    1.750    5.500 
#    0.000    3.750    0.000    0.000    0.000    0.000 
#    0.000    0.000    0.000    0.000    0.000    0.000 
#
# Total GULP energy -89386.038992 kJ/mol
# GULP energy per Si atom -5586.627437 kJ/mol
# Density = 2.214087 g / cm^3
# Si number density = 22.191382 Si / 1000 Ang^3
#
#
#
# Elastic Constant Matrix: (Units=GPa)
#
#
# Indices 1 2 3 4 5 6 
#
# 1 68.3234 15.6867 -1.1270 0.5723 6.2735 -0.3037
# 2 15.6867 90.1435 19.7302 -22.5058 17.2038 9.7636
# 3 -1.1270 19.7302 60.3241 -20.5371 3.6604 0.9726
# 4 0.5723 -22.5058 -20.5371 23.8923 -4.5268 -7.5066
# 5 6.2735 17.2038 3.6604 -4.5268 23.0143 -0.8906
# 6 -0.3037 9.7636 0.9726 -7.5066 -0.8906 26.9825
#
#
#
# Elastic Compliance Matrix: (Units=1/GPa)
#
#
# Indices 1 2 3 4 5 6 
#
# 1 0.015647 -0.003204 0.000279 -0.003570 -0.002607 0.000246
# 2 -0.003204 0.017140 -0.000627 0.012987 -0.009397 -0.002913
# 3 0.000279 -0.000627 0.024164 0.022129 0.001117 0.005552
# 4 -0.003570 0.012987 0.022129 0.079167 0.003960 0.016618
# 5 -0.002607 -0.009397 0.001117 0.003960 0.052026 0.006150
# 6 0.000246 -0.002913 0.005552 0.016618 0.006150 0.042744
#
#
# Mechanical properties :
#
#
# Convention : Reuss Voigt Hill
#
# Bulk Modulus (GPa) = 20.06169 31.93009 25.99589
# Shear Modulus (GPa) = 19.63808 27.07787 23.35798
#
# Velocity S-wave (km/s) = 2.97802 3.49692 3.24785
# Velocity P-wave (km/s) = 4.56999 5.54296 5.07982
#
# Compressibility (1/GPa) = 0.04984625
#
# Stress axis : x y z
#
# Youngs Moduli (GPa) = 63.91021 58.34405 41.38377
#
# Poissons Ratio (x) = 0.18696 -0.01156
# Poissons Ratio (y) = 0.20479 0.02595
# Poissons Ratio (z) = -0.01785 0.03659
#
# Static dielectric constant tensor:
#      x y z
#    x 1.842830 -0.022280 -0.003730 
#    y -0.022280 1.833130 -0.004560 
#    z -0.003730 -0.004560 1.821320 
# 
# From -- ./inp_files/77850.got.cif
#   From: 2010.05.17/outbox.cif.g08.bks.cpg/sg2_39_cif.got.tgz:77850.got - 2010.06.03 11:33:40.
