data_PCOD9005561
_publ_section_title
;
Structure prediction by ZEFSAII (Michael W. Deem and Ramdas Pophale) SiO2 
 PCOD9005561
Probable space group: P -1
;
_chemical_formula_sum "Si O2"
_cell_formula_units_Z 14
_cell_length_a 11.346152
_cell_length_b 10.375337
_cell_length_c 13.050321
_cell_angle_alpha 35.893432
_cell_angle_beta 76.337191
_cell_angle_gamma 56.483952
_cell_volume 677.286342
_symmetry_space_group_name_H-M "P -1"
_symmetry_group_IT_number 2
_symmetry_cell_setting 'triclinic'
loop_
_space_group_symop_operation_xyz
x,y,z
-x,-y,-z
loop_
_atom_site_type_symbol
_atom_site_label
_atom_site_fract_x
_atom_site_fract_y
_atom_site_fract_z
Si Si1 0.877274 0.354063 0.644608
Si Si2 0.860111 0.681109 0.259413
Si Si3 0.329913 0.694401 0.130833
Si Si4 0.959356 0.207903 0.162224
Si Si5 0.315091 0.721397 0.882956
Si Si6 0.941505 0.672673 0.740553
Si Si7 0.618399 0.070753 0.438725
O O1 0.800483 0.606408 0.415343
O O2 0.758491 0.360077 0.736801
O O3 0.999667 0.336037 0.706227
O O4 0.966962 0.078800 0.730108
O O5 0.944124 0.447400 0.303218
O O6 0.723936 0.993120 0.040436
O O7 0.509065 0.404381 0.277908
O O8 0.264790 0.743049 0.996674
O O9 0.775430 0.359398 0.109865
O O10 0.029987 0.171115 0.282608
O O11 0.980587 0.399921 0.965814
O O12 0.298261 0.963674 0.664637
O O13 0.500000 0.500000 0.000000
O O14 0.761357 0.869028 0.615612
O O15 0.500000 0.000000 0.500000
#
# Coordination Sequence:
#
# PCOD9005561 Si02
#       7
#     2   2   2   2   2   2   2
#     4  11  22  37  66  95 126 170 219 266 326 374
#     4  11  22  37  65  96 125 167 222 268 317 386
#     4  11  22  39  62  93 132 162 214 269 317 378
#     4  11  22  42  67  94 133 172 215 276 315 392
#     4  10  21  38  62  93 127 167 209 265 320 375
#     4  11  24  41  66  98 129 173 224 259 330 385
#     4  11  24  39  63  96 133 172 217 266 325 389
#
# _framework density 20.670725000000001
#
# number of rings (size 3 to 8) (size 9 to 14) (size 15 to 20)
#    0.000    1.143    2.857    4.714    4.000    2.286 
#    0.000    0.714    0.000    4.286    0.000    0.000 
#    0.000    0.000    0.000    0.000    0.000    0.000 
#
# Total GULP energy -78108.101877 kJ/mol
# GULP energy per Si atom -5579.150134 kJ/mol
# Density = 2.062368 g / cm^3
# Si number density = 20.670725 Si / 1000 Ang^3
#
#
#
# Elastic Constant Matrix: (Units=GPa)
#
#
# Indices 1 2 3 4 5 6 
#
# 1 58.4657 34.3475 15.0210 19.7810 3.3419 2.3919
# 2 34.3475 115.1339 44.1726 14.8063 4.8619 0.2171
# 3 15.0210 44.1726 88.6515 12.1844 -1.9551 -19.4180
# 4 19.7810 14.8063 12.1844 39.4218 -10.2449 -0.1808
# 5 3.3419 4.8619 -1.9551 -10.2449 38.8214 13.4540
# 6 2.3919 0.2171 -19.4180 -0.1808 13.4540 28.2900
#
#
#
# Elastic Compliance Matrix: (Units=1/GPa)
#
#
# Indices 1 2 3 4 5 6 
#
# 1 0.024516 -0.005745 0.000203 -0.011357 -0.004428 0.000144
# 2 -0.005745 0.012815 -0.006254 -0.000041 -0.000099 -0.003858
# 3 0.000203 -0.006254 0.018063 -0.004451 -0.004546 0.014563
# 4 -0.011357 -0.000041 -0.004451 0.035796 0.012993 -0.008045
# 5 -0.004428 -0.000099 -0.004546 0.012993 0.036250 -0.019901
# 6 0.000144 -0.003858 0.014563 -0.008045 -0.019901 0.054774
#
#
# Mechanical properties :
#
#
# Convention : Reuss Voigt Hill
#
# Bulk Modulus (GPa) = 31.44241 49.92590 40.68416
# Shear Modulus (GPa) = 23.10461 32.55397 27.82929
#
# Velocity S-wave (km/s) = 3.34690 3.97278 3.67320
# Velocity P-wave (km/s) = 5.49361 6.72677 6.14122
#
# Compressibility (1/GPa) = 0.03180418
#
# Stress axis : x y z
#
# Youngs Moduli (GPa) = 40.78907 78.03074 55.36173
#
# Poissons Ratio (x) = 0.44826 -0.01124
# Poissons Ratio (y) = 0.23432 0.34622
# Poissons Ratio (z) = -0.00828 0.48799
#
# Static dielectric constant tensor:
#      x y z
#    x 1.727680 -0.018150 -0.036350 
#    y -0.018150 1.811550 -0.032610 
#    z -0.036350 -0.032610 1.826640 
# 
# From -- ./inp_files/418906.got.cif
#   From: 2010.05.17/outbox.cif.g08.bks.cpg/sg2_210_cif.got.tgz:418906.got - 2010.06.03 11:33:40.
