data_PCOD9005739
_publ_section_title
;
Structure prediction by ZEFSAII (Michael W. Deem and Ramdas Pophale) SiO2 
 PCOD9005739
Probable space group: P -1
;
_chemical_formula_sum "Si O2"
_cell_formula_units_Z 16
_cell_length_a 8.797909
_cell_length_b 17.243347
_cell_length_c 10.077189
_cell_angle_alpha 144.212247
_cell_angle_beta 62.132883
_cell_angle_gamma 109.343934
_cell_volume 786.919869
_symmetry_space_group_name_H-M "P -1"
_symmetry_group_IT_number 2
_symmetry_cell_setting 'triclinic'
loop_
_space_group_symop_operation_xyz
x,y,z
-x,-y,-z
loop_
_atom_site_type_symbol
_atom_site_label
_atom_site_fract_x
_atom_site_fract_y
_atom_site_fract_z
Si Si1 0.444871 0.211590 0.404541
Si Si2 0.359273 0.622830 0.244745
Si Si3 0.670868 0.020831 0.535392
Si Si4 0.680653 0.080758 0.898695
Si Si5 0.041058 0.486825 0.311575
Si Si6 0.869911 0.227546 0.649471
Si Si7 0.974943 0.807646 0.168685
Si Si8 0.124480 0.400624 0.712297
O O1 0.558256 0.257438 0.545706
O O2 0.307290 0.340006 0.610155
O O3 0.354080 0.073449 0.270937
O O4 0.571543 0.174664 0.177562
O O5 0.201047 0.567914 0.314840
O O6 0.286241 0.669040 0.193968
O O7 0.500000 0.500000 0.000000
O O8 0.620998 0.106927 0.806905
O O9 0.792923 0.088751 0.476848
O O10 0.500000 0.000000 0.500000
O O11 0.797879 0.900788 0.374354
O O12 0.879131 0.118152 0.866081
O O13 0.000000 0.500000 0.500000
O O14 0.886242 0.532424 0.334420
O O15 0.075700 0.330044 0.057909
O O16 0.943196 0.225791 0.766260
O O17 0.026263 0.266623 0.551951
O O18 0.000000 0.500000 0.000000
#
# Coordination Sequence:
#
# PCOD9005739 Si02
#       8
#     2   2   2   2   2   2   2   2
#     4  11  22  42  65  95 134 166 225 275 330 396
#     4  11  25  40  67  95 128 175 225 277 319 396
#     4  11  23  38  65  97 124 166 221 276 324 387
#     4  10  23  40  66  95 131 175 206 282 341 385
#     4  11  25  42  62  94 135 174 215 276 344 390
#     4  10  21  38  63  92 120 165 221 263 318 387
#     4  11  22  42  65  91 134 171 221 267 332 409
#     4  11  21  40  67  92 123 181 223 261 323 403
#
# _framework density 20.332436999999999
#
# number of rings (size 3 to 8) (size 9 to 14) (size 15 to 20)
#    0.000    1.250    1.250    6.000    3.500    1.000 
#    2.250    1.250    0.000   12.000    0.000    0.000 
#    0.000    0.000    0.000    0.000    0.000    0.000 
#
# Total GULP energy -89137.673252 kJ/mol
# GULP energy per Si atom -5571.104578 kJ/mol
# Density = 2.028616 g / cm^3
# Si number density = 20.332437 Si / 1000 Ang^3
#
#
#
# Elastic Constant Matrix: (Units=GPa)
#
#
# Indices 1 2 3 4 5 6 
#
# 1 115.4251 40.0118 48.8151 0.6676 -10.9927 -21.2329
# 2 40.0118 97.6455 37.1774 -0.8914 -6.8881 -8.3577
# 3 48.8151 37.1774 85.1758 2.0444 -4.1962 -7.9808
# 4 0.6676 -0.8914 2.0444 27.6125 4.8585 4.6478
# 5 -10.9927 -6.8881 -4.1962 4.8585 26.0930 6.9809
# 6 -21.2329 -8.3577 -7.9808 4.6478 6.9809 34.6888
#
#
#
# Elastic Compliance Matrix: (Units=1/GPa)
#
#
# Indices 1 2 3 4 5 6 
#
# 1 0.013363 -0.002582 -0.005814 -0.001441 0.002712 0.005867
# 2 -0.002582 0.012995 -0.004106 0.000477 0.001531 0.000234
# 3 -0.005814 -0.004106 0.016825 -0.001075 -0.000512 -0.000430
# 4 -0.001441 0.000477 -0.001075 0.038302 -0.006491 -0.004840
# 5 0.002712 0.001531 -0.000512 -0.006491 0.042544 -0.005781
# 6 0.005867 0.000234 -0.000430 -0.004840 -0.005781 0.034188
#
#
# Mechanical properties :
#
#
# Convention : Reuss Voigt Hill
#
# Bulk Modulus (GPa) = 55.00847 61.13944 58.07395
# Shear Modulus (GPa) = 26.41569 29.16166 27.78867
#
# Velocity S-wave (km/s) = 3.60834 3.79125 3.70092
# Velocity P-wave (km/s) = 6.66884 7.02139 6.84738
#
# Compressibility (1/GPa) = 0.01817902
#
# Stress axis : x y z
#
# Youngs Moduli (GPa) = 74.83201 76.95297 59.43550
#
# Poissons Ratio (x) = 0.19869 0.34554
# Poissons Ratio (y) = 0.19321 0.24407
# Poissons Ratio (z) = 0.43505 0.31600
#
# Static dielectric constant tensor:
#      x y z
#    x 1.652460 0.023570 -0.044140 
#    y 0.023570 1.781310 0.026430 
#    z -0.044140 0.026430 1.737760 
# 
# From -- ./inp_files/209180.got.cif
#   From: 2010.05.17/outbox.cif.g08.bks.cpg/sg2_105_cif.got.tgz:209180.got - 2010.06.03 11:33:40.
