data_PCOD9005519
_publ_section_title
;
Structure prediction by ZEFSAII (Michael W. Deem and Ramdas Pophale) SiO2 
 PCOD9005519
Probable space group: P -1
;
_chemical_formula_sum "Si O2"
_cell_formula_units_Z 14
_cell_length_a 12.538273
_cell_length_b 6.721886
_cell_length_c 8.204074
_cell_angle_alpha 80.720466
_cell_angle_beta 62.035278
_cell_angle_gamma 65.917970
_cell_volume 557.167289
_symmetry_space_group_name_H-M "P -1"
_symmetry_group_IT_number 2
_symmetry_cell_setting 'triclinic'
loop_
_space_group_symop_operation_xyz
x,y,z
-x,-y,-z
loop_
_atom_site_type_symbol
_atom_site_label
_atom_site_fract_x
_atom_site_fract_y
_atom_site_fract_z
Si Si1 0.479639 0.129183 0.829428
Si Si2 0.684449 0.313702 0.752084
Si Si3 0.137187 0.954607 0.090074
Si Si4 0.036853 0.307789 0.861629
Si Si5 0.684212 0.478215 0.269950
Si Si6 0.908220 0.331415 0.363350
Si Si7 0.484213 0.280938 0.332910
O O1 0.490042 0.960988 0.701838
O O2 0.599322 0.211221 0.720829
O O3 0.345236 0.340325 0.874156
O O4 0.500000 0.000000 0.000000
O O5 0.819534 0.296574 0.573669
O O6 0.588693 0.565904 0.789049
O O7 0.725837 0.181655 0.906430
O O8 0.045548 0.133585 0.261897
O O9 0.138076 0.099613 0.912826
O O10 0.068065 0.785521 0.118903
O O11 0.080801 0.432083 0.670165
O O12 0.000000 0.500000 0.000000
O O13 0.825473 0.339806 0.256050
O O14 0.609945 0.325870 0.290639
O O15 0.614537 0.618897 0.460073
#
# Coordination Sequence:
#
# PCOD9005519 Si02
#       7
#     2   2   2   2   2   2   2
#     4  11  24  40  60  93 123 164 205 252 317 357
#     4  10  23  39  61  92 122 155 204 252 300 359
#     4  10  21  40  61  89 124 156 198 250 295 365
#     4   9  21  39  56  84 120 160 203 236 298 356
#     4   9  20  38  62  88 118 161 206 249 298 367
#     4  10  21  38  62  92 120 157 202 244 301 363
#     4   9  20  41  61  86 123 160 203 254 303 360
#
# _framework density 25.127105
#
# number of rings (size 3 to 8) (size 9 to 14) (size 15 to 20)
#    0.000    2.286    0.000    1.714    2.000    8.571 
#   10.286    0.000    0.000    0.000    0.000    0.000 
#    0.000    0.000    0.000    0.000    0.000    0.000 
#
# Total GULP energy -78294.973597 kJ/mol
# GULP energy per Si atom -5592.498114 kJ/mol
# Density = 2.506991 g / cm^3
# Si number density = 25.127105 Si / 1000 Ang^3
#
#
#
# Elastic Constant Matrix: (Units=GPa)
#
#
# Indices 1 2 3 4 5 6 
#
# 1 83.9248 38.9157 -3.0970 -12.4776 21.7169 -8.0310
# 2 38.9157 141.1045 22.4289 -16.0136 4.5988 11.6339
# 3 -3.0970 22.4289 71.3194 -11.9940 2.6985 1.4990
# 4 -12.4776 -16.0136 -11.9940 38.8952 -7.8429 7.8318
# 5 21.7169 4.5988 2.6985 -7.8429 40.1697 -14.3838
# 6 -8.0310 11.6339 1.4990 7.8318 -14.3838 48.2483
#
#
#
# Elastic Compliance Matrix: (Units=1/GPa)
#
#
# Indices 1 2 3 4 5 6 
#
# 1 0.016646 -0.004590 0.002868 0.002552 -0.007792 0.001051
# 2 -0.004590 0.009258 -0.002697 0.002309 0.000981 -0.002995
# 3 0.002868 -0.002697 0.015821 0.004475 -0.001638 -0.000579
# 4 0.002552 0.002309 0.004475 0.030235 0.002356 -0.004476
# 5 -0.007792 0.000981 -0.001638 0.002356 0.032350 0.007779
# 6 0.001051 -0.002995 -0.000579 -0.004476 0.007779 0.024687
#
#
# Mechanical properties :
#
#
# Convention : Reuss Voigt Hill
#
# Bulk Modulus (GPa) = 30.40634 45.87156 38.13895
# Shear Modulus (GPa) = 33.60279 41.33607 37.46943
#
# Velocity S-wave (km/s) = 3.66090 4.06036 3.86579
# Velocity P-wave (km/s) = 5.47694 6.34645 5.92766
#
# Compressibility (1/GPa) = 0.03288788
#
# Stress axis : x y z
#
# Youngs Moduli (GPa) = 60.07519 108.00986 63.20820
#
# Poissons Ratio (x) = 0.49575 -0.18129
# Poissons Ratio (y) = 0.27573 0.17046
# Poissons Ratio (z) = -0.17230 0.29129
#
# Static dielectric constant tensor:
#      x y z
#    x 1.984150 -0.011470 -0.042380 
#    y -0.011470 1.938260 -0.044830 
#    z -0.042380 -0.044830 2.124700 
# 
# From -- ./inp_files/51489.got.cif
#   From: 2010.05.17/outbox.cif.g08.bks.cpg/sg2_26_cif.got.tgz:51489.got - 2010.06.03 11:33:40.
