data_PCOD9005108
_publ_section_title
;
Structure prediction by ZEFSAII (Michael W. Deem and Ramdas Pophale) SiO2 
 PCOD9005108
Probable space group: P -1
;
_chemical_formula_sum "Si O2"
_cell_formula_units_Z 16
_cell_length_a 20.876707
_cell_length_b 5.541793
_cell_length_c 6.014722
_cell_angle_alpha 78.176774
_cell_angle_beta 89.765333
_cell_angle_gamma 65.964602
_cell_volume 619.594272
_symmetry_space_group_name_H-M "P -1"
_symmetry_group_IT_number 2
_symmetry_cell_setting 'triclinic'
loop_
_space_group_symop_operation_xyz
x,y,z
-x,-y,-z
loop_
_atom_site_type_symbol
_atom_site_label
_atom_site_fract_x
_atom_site_fract_y
_atom_site_fract_z
Si Si1 0.657907 0.710645 0.999421
Si Si2 0.461314 0.888447 0.349017
Si Si3 0.233002 0.128465 0.894823
Si Si4 0.848248 0.034239 0.458938
Si Si5 0.729655 0.379321 0.679174
Si Si6 0.392646 0.591972 0.643746
Si Si7 0.102962 0.433509 0.079399
Si Si8 0.021318 0.263341 0.729830
O O1 0.709565 0.622565 0.805112
O O2 0.582514 0.931583 0.886657
O O3 0.697835 0.818018 0.154288
O O4 0.644273 0.453961 0.129052
O O5 0.403266 0.847774 0.510360
O O6 0.525880 0.623931 0.306147
O O7 0.500000 0.000000 0.500000
O O8 0.200566 0.036678 0.702393
O O9 0.171991 0.400762 0.949905
O O10 0.251162 0.892151 0.123391
O O11 0.796838 0.308510 0.531622
O O12 0.873603 0.797761 0.688111
O O13 0.920342 0.002701 0.339141
O O14 0.657243 0.445444 0.537141
O O15 0.051295 0.707302 0.156372
O O16 0.061032 0.346128 0.909510
O O17 0.000000 0.500000 0.500000
#
# Coordination Sequence:
#
# PCOD9005108 Si02
#       8
#     2   2   2   2   2   2   2   2
#     4  12  25  42  69  96 128 176 214 269 336 389
#     4  11  24  47  68  95 129 167 215 272 329 393
#     4  10  21  38  60  91 130 173 220 269 329 388
#     4   9  18  32  57  88 129 172 218 272 322 386
#     4  11  22  41  60  95 129 166 220 269 324 395
#     4  11  25  43  67  96 127 167 217 267 328 401
#     4   8  15  28  53  86 128 168 221 269 315 389
#     4   8  13  26  50  89 125 171 220 262 326 380
#
# _framework density 25.823347999999999
#
# number of rings (size 3 to 8) (size 9 to 14) (size 15 to 20)
#    0.000    2.000    2.500    1.125    0.000    4.500 
#    0.000    0.000    0.000    0.750    0.000   86.625 
#    0.000    0.000    0.000    0.125    0.000    0.000 
#
# Total GULP energy -89406.636720 kJ/mol
# GULP energy per Si atom -5587.914795 kJ/mol
# Density = 2.576457 g / cm^3
# Si number density = 25.823348 Si / 1000 Ang^3
#
#
#
# Elastic Constant Matrix: (Units=GPa)
#
#
# Indices 1 2 3 4 5 6 
#
# 1 93.2799 17.1837 48.8061 -0.2794 6.1459 -20.5689
# 2 17.1837 69.5923 23.4924 0.1919 -7.0207 -37.4599
# 3 48.8061 23.4924 120.2823 -10.8027 2.0344 -20.3235
# 4 -0.2794 0.1919 -10.8027 38.1142 -15.7028 -10.3896
# 5 6.1459 -7.0207 2.0344 -15.7028 44.4783 -0.9080
# 6 -20.5689 -37.4599 -20.3235 -10.3896 -0.9080 38.6909
#
#
#
# Elastic Compliance Matrix: (Units=1/GPa)
#
#
# Indices 1 2 3 4 5 6 
#
# 1 0.014650 0.001336 -0.005147 -0.000290 -0.001553 0.006263
# 2 0.001336 0.037997 0.000520 0.016748 0.012571 0.042564
# 3 -0.005147 0.000520 0.011713 0.005780 0.002411 0.005529
# 4 -0.000290 0.016748 0.005780 0.043992 0.018590 0.031346
# 5 -0.001553 0.012571 0.002411 0.018590 0.031509 0.018343
# 6 0.006263 0.042564 0.005529 0.031346 0.018343 0.082137
#
#
# Mechanical properties :
#
#
# Convention : Reuss Voigt Hill
#
# Bulk Modulus (GPa) = 17.30764 51.34655 34.32709
# Shear Modulus (GPa) = 20.17432 37.16816 28.67124
#
# Velocity S-wave (km/s) = 2.79811 3.79796 3.33571
# Velocity P-wave (km/s) = 4.14199 6.25776 5.30639
#
# Compressibility (1/GPa) = 0.05777795
#
# Stress axis : x y z
#
# Youngs Moduli (GPa) = 68.26023 26.31779 85.37503
#
# Poissons Ratio (x) = -0.03515 0.43940
# Poissons Ratio (y) = -0.09117 -0.04440
# Poissons Ratio (z) = 0.35132 -0.01369
#
# Static dielectric constant tensor:
#      x y z
#    x -5.761360 0.478670 -6.617350 
#    y 0.478670 2.040790 0.483560 
#    z -6.617350 0.483560 -3.549550 
# 
# From -- ./inp_files/121555.got.cif
#   From: 2010.05.17/outbox.cif.g08.bks.cpg/sg2_61_cif.got.tgz:121555.got - 2010.06.03 11:33:40.
