data_PCOD9005815
_publ_section_title
;
Structure prediction by ZEFSAII (Michael W. Deem and Ramdas Pophale) SiO2 
 PCOD9005815
Probable space group: P -1
;
_chemical_formula_sum "Si O2"
_cell_formula_units_Z 15
_cell_length_a 13.004073
_cell_length_b 11.180544
_cell_length_c 10.214940
_cell_angle_alpha 44.530546
_cell_angle_beta 101.951458
_cell_angle_gamma 66.868455
_cell_volume 627.670948
_symmetry_space_group_name_H-M "P -1"
_symmetry_group_IT_number 2
_symmetry_cell_setting 'triclinic'
loop_
_space_group_symop_operation_xyz
x,y,z
-x,-y,-z
loop_
_atom_site_type_symbol
_atom_site_label
_atom_site_fract_x
_atom_site_fract_y
_atom_site_fract_z
Si Si1 0.500000 0.500000 0.500000
Si Si2 0.976519 0.026626 0.315783
Si Si3 0.566786 0.164148 0.289425
Si Si4 0.233720 0.419788 0.096678
Si Si5 0.888659 0.635959 0.115598
Si Si6 0.220959 0.059266 0.737392
Si Si7 0.286190 0.799667 0.470210
Si Si8 0.417137 0.958171 0.098683
O O1 0.401934 0.602383 0.533422
O O2 0.461012 0.339380 0.573932
O O3 0.873946 0.996832 0.262181
O O4 0.864526 0.337757 0.017078
O O5 0.000000 0.000000 0.500000
O O6 0.159970 0.810876 0.468334
O O7 0.668350 0.864037 0.594006
O O8 0.635343 0.109846 0.204500
O O9 0.371138 0.363283 0.103462
O O10 0.617820 0.248458 0.338669
O O11 0.101087 0.504289 0.895328
O O12 0.723711 0.787245 0.038249
O O13 0.070659 0.391638 0.424039
O O14 0.831192 0.893401 0.850503
O O15 0.305353 0.969831 0.970601
O O16 0.500000 0.000000 0.000000
#
# Coordination Sequence:
#
# PCOD9005815 Si02
#       8
#     1   2   2   2   2   2   2   2
#     4  10  26  48  70  96 132 178 232 272 336 404
#     4  12  23  38  63 101 139 170 210 279 343 393
#     4  10  21  38  66  95 128 173 222 273 332 398
#     4  10  21  38  63  94 131 171 219 271 335 394
#     4  10  21  43  64  91 132 178 226 267 333 401
#     4  12  24  40  66 102 129 171 224 272 341 403
#     4  10  22  43  65  92 137 180 218 280 326 399
#     4  11  26  47  70  94 132 181 226 284 332 397
#
# _framework density 23.897870000000001
#
# number of rings (size 3 to 8) (size 9 to 14) (size 15 to 20)
#    0.000    1.333    2.667    2.000    3.733    4.800 
#    2.400    1.333    0.000    0.000    0.000    0.000 
#    0.000    0.000    0.000    0.000    0.000    0.000 
#
# Total GULP energy -83715.483123 kJ/mol
# GULP energy per Si atom -5581.032208 kJ/mol
# Density = 2.384348 g / cm^3
# Si number density = 23.897870 Si / 1000 Ang^3
#
#
#
# Elastic Constant Matrix: (Units=GPa)
#
#
# Indices 1 2 3 4 5 6 
#
# 1 120.2623 20.8472 -7.4824 8.2133 -2.3825 -18.0269
# 2 20.8472 91.0716 3.9371 -0.2672 -2.6257 -6.5514
# 3 -7.4824 3.9371 39.3113 -28.7519 3.0024 6.8884
# 4 8.2133 -0.2672 -28.7519 20.0671 15.5607 -2.7059
# 5 -2.3825 -2.6257 3.0024 15.5607 15.0462 2.8802
# 6 -18.0269 -6.5514 6.8884 -2.7059 2.8802 47.3479
#
#
#
# Elastic Compliance Matrix: (Units=1/GPa)
#
#
# Indices 1 2 3 4 5 6 
#
# 1 0.009151 -0.002026 0.002550 0.001397 -0.001433 0.003000
# 2 -0.002026 0.011469 0.000359 0.002686 -0.001360 0.000999
# 3 0.002550 0.000359 -0.003111 -0.036272 0.039170 -0.002982
# 4 0.001397 0.002686 -0.036272 -0.043923 0.053271 0.000430
# 5 -0.001433 -0.001360 0.039170 0.053271 0.003782 -0.003618
# 6 0.003000 0.000999 -0.002982 0.000430 -0.003618 0.023079
#
#
# Mechanical properties :
#
#
# Convention : Reuss Voigt Hill
#
# Bulk Modulus (GPa) = 51.87914 31.69435 41.78674
# Shear Modulus (GPa) = 979.04047 32.04844 505.54446
#
# Velocity S-wave (km/s) = 20.26243 3.66602 14.56032
# Velocity P-wave (km/s) = 23.85744 5.58666 17.32611
#
# Compressibility (1/GPa) = 0.01927557
#
# Stress axis : x y z
#
# Youngs Moduli (GPa) = 109.27827 87.18940 -321.48672
#
# Poissons Ratio (x) = 0.17668 0.81990
# Poissons Ratio (y) = 0.22144 0.11542
# Poissons Ratio (z) = -0.27870 -0.03130
#
# Static dielectric constant tensor:
#      x y z
#    x 1.896380 -0.002870 0.007050 
#    y -0.002870 1.872910 0.002490 
#    z 0.007050 0.002490 1.501760 
# 
# From -- ./inp_files/257387.got.cif
#   From: 2010.05.17/outbox.cif.g08.bks.cpg/sg2_129_cif.got.tgz:257387.got - 2010.06.03 11:33:40.
