data_PCOD9005986
_publ_section_title
;
Structure prediction by ZEFSAII (Michael W. Deem and Ramdas Pophale) SiO2 
 PCOD9005986
Probable space group: P -1
;
_chemical_formula_sum "Si O2"
_cell_formula_units_Z 12
_cell_length_a 6.745827
_cell_length_b 8.178016
_cell_length_c 21.197162
_cell_angle_alpha 30.649163
_cell_angle_beta 114.849595
_cell_angle_gamma 118.419735
_cell_volume 524.138245
_symmetry_space_group_name_H-M "P -1"
_symmetry_group_IT_number 2
_symmetry_cell_setting 'triclinic'
loop_
_space_group_symop_operation_xyz
x,y,z
-x,-y,-z
loop_
_atom_site_type_symbol
_atom_site_label
_atom_site_fract_x
_atom_site_fract_y
_atom_site_fract_z
Si Si1 0.053480 0.246647 0.365821
Si Si2 0.617084 0.877541 0.986223
Si Si3 0.976080 0.854578 0.358417
Si Si4 0.725006 0.827939 0.816952
Si Si5 0.503194 0.727222 0.271272
Si Si6 0.034239 0.026111 0.898290
O O1 0.326237 0.373600 0.359160
O O2 0.963756 0.584957 0.242047
O O3 0.000000 0.000000 0.500000
O O4 0.960435 0.062802 0.349878
O O5 0.502303 0.109492 0.851987
O O6 0.454507 0.518653 0.090448
O O7 0.740360 0.004643 0.026175
O O8 0.831065 0.868917 0.972145
O O9 0.753709 0.771174 0.313493
O O10 0.000000 0.500000 0.500000
O O11 0.187741 0.048178 0.281187
O O12 0.609101 0.080541 0.754832
O O13 0.948744 0.839162 0.884559
#
# Coordination Sequence:
#
# PCOD9005986 Si02
#       6
#     2   2   2   2   2   2
#     4  10  22  41  64  88 120 161 200 245 301 357
#     4   9  18  36  63  90 121 159 197 240 297 358
#     4  12  26  41  61  91 120 156 207 251 295 354
#     4  10  21  38  64  91 120 158 197 244 299 355
#     4  10  23  42  62  89 124 159 198 247 298 352
#     4   9  18  36  63  91 121 159 199 241 296 356
#
# _framework density 22.894724
#
# number of rings (size 3 to 8) (size 9 to 14) (size 15 to 20)
#    0.000    2.333    0.000    5.000    0.000    9.333 
#    0.000    4.167    0.000    0.000    0.000    0.000 
#    0.000    0.000    0.000    0.000    0.000    0.000 
#
# Total GULP energy -67101.221068 kJ/mol
# GULP energy per Si atom -5591.768422 kJ/mol
# Density = 2.284261 g / cm^3
# Si number density = 22.894724 Si / 1000 Ang^3
#
#
#
# Elastic Constant Matrix: (Units=GPa)
#
#
# Indices 1 2 3 4 5 6 
#
# 1 57.2503 31.2580 63.5212 15.2450 -3.4937 22.6117
# 2 31.2580 110.5944 64.3138 8.3885 -5.3184 32.6732
# 3 63.5212 64.3138 167.4803 6.5657 -32.2170 25.8892
# 4 15.2450 8.3885 6.5657 40.7149 -4.6727 -5.7627
# 5 -3.4937 -5.3184 -32.2170 -4.6727 41.5987 -2.2534
# 6 22.6117 32.6732 25.8892 -5.7627 -2.2534 47.1436
#
#
#
# Elastic Compliance Matrix: (Units=1/GPa)
#
#
# Indices 1 2 3 4 5 6 
#
# 1 0.047308 0.003386 -0.018152 -0.019513 -0.012822 -0.018067
# 2 0.003386 0.014424 -0.005880 -0.004988 -0.003483 -0.009168
# 3 -0.018152 -0.005880 0.016184 0.007462 0.011386 0.005350
# 4 -0.019513 -0.004988 0.007462 0.034507 0.008101 0.013323
# 5 -0.012822 -0.003483 0.011386 0.008101 0.032508 0.004855
# 6 -0.018067 -0.009168 0.005350 0.013323 0.004855 0.035153
#
#
# Mechanical properties :
#
#
# Convention : Reuss Voigt Hill
#
# Bulk Modulus (GPa) = 27.30506 72.61233 49.95869
# Shear Modulus (GPa) = 21.40559 37.64026 29.52293
#
# Velocity S-wave (km/s) = 3.06102 4.05910 3.59487
# Velocity P-wave (km/s) = 4.94423 7.33164 6.25293
#
# Compressibility (1/GPa) = 0.03662325
#
# Stress axis : x y z
#
# Youngs Moduli (GPa) = 21.13829 69.32907 61.78946
#
# Poissons Ratio (x) = -0.23473 1.12158
# Poissons Ratio (y) = -0.07157 0.36334
# Poissons Ratio (z) = 0.38369 0.40767
#
# Static dielectric constant tensor:
#      x y z
#    x 1.948640 0.100750 -0.012260 
#    y 0.100750 2.372840 -0.114920 
#    z -0.012260 -0.114920 1.855420 
# 
# From -- ./inp_files/586451.got.cif
#   From: 2010.05.17/outbox.cif.g08.bks.cpg/sg2_294_cif.got.tgz:586451.got - 2010.06.03 11:33:40.
