data_PCOD9005830
_publ_section_title
;
Structure prediction by ZEFSAII (Michael W. Deem and Ramdas Pophale) SiO2 
 PCOD9005830
Probable space group: P -1
;
_chemical_formula_sum "Si O2"
_cell_formula_units_Z 14
_cell_length_a 5.412706
_cell_length_b 21.546789
_cell_length_c 11.075922
_cell_angle_alpha 30.521417
_cell_angle_beta 65.134987
_cell_angle_gamma 60.094202
_cell_volume 568.554825
_symmetry_space_group_name_H-M "P -1"
_symmetry_group_IT_number 2
_symmetry_cell_setting 'triclinic'
loop_
_space_group_symop_operation_xyz
x,y,z
-x,-y,-z
loop_
_atom_site_type_symbol
_atom_site_label
_atom_site_fract_x
_atom_site_fract_y
_atom_site_fract_z
Si Si1 0.123112 0.486107 0.725487
Si Si2 0.569321 0.324580 0.737712
Si Si3 0.886292 0.181115 0.127970
Si Si4 0.816772 0.921405 0.531902
Si Si5 0.661621 0.715322 0.505875
Si Si6 0.694016 0.715453 0.775059
Si Si7 0.842215 0.148728 0.789601
O O1 0.261026 0.390195 0.748833
O O2 0.342410 0.571681 0.535671
O O3 0.810190 0.585767 0.617558
O O4 0.138950 0.408461 0.976161
O O5 0.616410 0.195473 0.868645
O O6 0.809562 0.280823 0.867436
O O7 0.590883 0.224839 0.189984
O O8 0.093959 0.168908 0.218215
O O9 0.965278 0.034618 0.306350
O O10 0.839278 0.829992 0.566121
O O11 0.500000 0.000000 0.500000
O O12 0.626021 0.686711 0.701787
O O13 0.368385 0.795725 0.371634
O O14 0.903729 0.788762 0.339975
O O15 0.000000 0.000000 0.000000
#
# Coordination Sequence:
#
# PCOD9005830 Si02
#       7
#     2   2   2   2   2   2   2
#     4   9  20  45  64  98 130 176 230 274 338 397
#     4   9  20  42  69  91 134 172 227 279 336 402
#     4   9  19  37  61  92 129 170 219 277 339 397
#     4   9  19  35  56  94 125 168 220 269 338 391
#     4  11  25  45  69  98 139 180 228 277 341 402
#     4  10  21  38  63  95 129 173 221 280 334 403
#     4  11  26  46  68 103 135 183 224 280 344 407
#
# _framework density 24.623836000000001
#
# number of rings (size 3 to 8) (size 9 to 14) (size 15 to 20)
#    0.000    2.286    0.000    0.857    4.000    2.857 
#   28.286    3.571    0.000    0.000    0.000    0.000 
#    0.000    0.000    0.000    0.000    0.000    0.000 
#
# Total GULP energy -78138.607990 kJ/mol
# GULP energy per Si atom -5581.329142 kJ/mol
# Density = 2.456779 g / cm^3
# Si number density = 24.623836 Si / 1000 Ang^3
#
#
#
# Elastic Constant Matrix: (Units=GPa)
#
#
# Indices 1 2 3 4 5 6 
#
# 1 98.8265 33.2085 36.2198 -11.2571 32.4735 -6.4764
# 2 33.2085 141.4796 50.9609 -21.0146 24.0880 0.5114
# 3 36.2198 50.9609 94.2375 -30.9180 23.5738 -14.9234
# 4 -11.2571 -21.0146 -30.9180 34.7897 -4.0176 7.5964
# 5 32.4735 24.0880 23.5738 -4.0176 25.6163 -3.9758
# 6 -6.4764 0.5114 -14.9234 7.5964 -3.9758 21.3680
#
#
#
# Elastic Compliance Matrix: (Units=1/GPa)
#
#
# Indices 1 2 3 4 5 6 
#
# 1 0.017699 0.000149 -0.000546 0.002846 -0.021637 -0.000058
# 2 0.000149 0.009914 -0.003503 0.003262 -0.006555 -0.005018
# 3 -0.000546 -0.003503 0.021591 0.013751 -0.012519 0.007780
# 4 0.002846 0.003262 0.013751 0.043981 -0.013640 -0.007785
# 5 -0.021637 -0.006555 -0.012519 -0.013640 0.082805 0.005112
# 6 -0.000058 -0.005018 0.007780 -0.007785 0.005112 0.056054
#
#
# Mechanical properties :
#
#
# Convention : Reuss Voigt Hill
#
# Bulk Modulus (GPa) = 24.15282 63.92466 44.03874
# Shear Modulus (GPa) = 19.71272 30.63175 25.17224
#
# Velocity S-wave (km/s) = 2.83248 3.53085 3.20077
# Velocity P-wave (km/s) = 4.53070 6.52988 5.61990
#
# Compressibility (1/GPa) = 0.04140304
#
# Stress axis : x y z
#
# Youngs Moduli (GPa) = 56.50093 100.87174 46.31610
#
# Poissons Ratio (x) = -0.01505 0.02530
# Poissons Ratio (y) = -0.00843 0.16225
# Poissons Ratio (z) = 0.03086 0.35335
#
# Static dielectric constant tensor:
#      x y z
#    x 2.029040 0.009660 -0.042570 
#    y 0.009660 2.008690 -0.018200 
#    z -0.042570 -0.018200 2.043950 
# 
# From -- ./inp_files/370962.got.cif
#   From: 2010.05.17/outbox.cif.g08.bks.cpg/sg2_186_cif.got.tgz:370962.got - 2010.06.03 11:33:40.
