data_PCOD9006681
_publ_section_title
;
Structure prediction by ZEFSAII (Michael W. Deem and Ramdas Pophale) SiO2 
 PCOD9006681
Probable space group: P -1
;
_chemical_formula_sum "Si O2"
_cell_formula_units_Z 14
_cell_length_a 20.199713
_cell_length_b 11.710489
_cell_length_c 8.077361
_cell_angle_alpha 137.283159
_cell_angle_beta 28.278934
_cell_angle_gamma 141.318353
_cell_volume 558.503144
_symmetry_space_group_name_H-M "P -1"
_symmetry_group_IT_number 2
_symmetry_cell_setting 'triclinic'
loop_
_space_group_symop_operation_xyz
x,y,z
-x,-y,-z
loop_
_atom_site_type_symbol
_atom_site_label
_atom_site_fract_x
_atom_site_fract_y
_atom_site_fract_z
Si Si1 0.146713 0.769187 0.225226
Si Si2 0.672191 0.634737 0.216698
Si Si3 0.351449 0.943243 0.652641
Si Si4 0.964672 0.933789 0.318521
Si Si5 0.558845 0.645378 0.166856
Si Si6 0.788029 0.542332 0.169808
Si Si7 0.735341 0.058000 0.504695
O O1 0.053197 0.897645 0.558885
O O2 0.248590 0.847642 0.252383
O O3 0.222669 0.807285 0.914194
O O4 0.099188 0.551639 0.126661
O O5 0.500000 0.500000 0.500000
O O6 0.672776 0.596989 0.981752
O O7 0.791835 0.600804 0.032358
O O8 0.676848 0.839401 0.436698
O O9 0.500000 0.000000 0.500000
O O10 0.347438 0.142663 0.857780
O O11 0.353695 0.892920 0.399281
O O12 0.823154 0.733394 0.392929
O O13 0.000000 0.000000 0.500000
O O14 0.100324 0.896219 0.893373
O O15 0.389256 0.607420 0.573659
O O16 0.500000 0.500000 0.000000
#
# Coordination Sequence:
#
# PCOD9006681 Si02
#       7
#     2   2   2   2   2   2   2
#     4  12  25  46  73 104 142 184 236 295 346 424
#     4   9  21  41  64  99 137 175 232 277 346 424
#     4  11  23  44  67 105 143 176 235 290 355 419
#     4  12  26  49  72  98 145 191 237 292 347 419
#     4  10  21  38  67  98 140 185 224 286 354 418
#     4  11  24  44  69 104 135 184 241 284 350 419
#     4  11  25  46  71 100 143 194 231 289 360 410
#
# _framework density 25.067003
#
# number of rings (size 3 to 8) (size 9 to 14) (size 15 to 20)
#    0.000    1.143    4.286    1.286    4.000    2.857 
#    0.000    0.000    0.000    0.000    0.000    0.000 
#    0.000    0.000    0.000    0.000    0.000    0.000 
#
# Total GULP energy -78080.746321 kJ/mol
# GULP energy per Si atom -5577.196166 kJ/mol
# Density = 2.500995 g / cm^3
# Si number density = 25.067003 Si / 1000 Ang^3
#
#
#
# Elastic Constant Matrix: (Units=GPa)
#
#
# Indices 1 2 3 4 5 6 
#
# 1 202.9404 46.4876 24.7348 29.0405 7.8960 -26.7978
# 2 46.4876 113.3997 18.6280 9.2261 5.2576 -17.6665
# 3 24.7348 18.6280 52.5141 10.1003 -8.9507 -8.9828
# 4 29.0405 9.2261 10.1003 27.6883 2.0981 -4.0911
# 5 7.8960 5.2576 -8.9507 2.0981 36.3718 7.0051
# 6 -26.7978 -17.6665 -8.9828 -4.0911 7.0051 37.8009
#
#
#
# Elastic Compliance Matrix: (Units=1/GPa)
#
#
# Indices 1 2 3 4 5 6 
#
# 1 0.006748 -0.001459 -0.001342 -0.005428 -0.001956 0.003558
# 2 -0.001459 0.010600 -0.002843 -0.000219 -0.002616 0.003705
# 3 -0.001342 -0.002843 0.023263 -0.006429 0.006540 0.001341
# 4 -0.005428 -0.000219 -0.006429 0.044429 -0.002910 -0.000130
# 5 -0.001956 -0.002616 0.006540 -0.002910 0.031461 -0.007200
# 6 0.003558 0.003705 0.001341 -0.000130 -0.007200 0.032347
#
#
# Mechanical properties :
#
#
# Convention : Reuss Voigt Hill
#
# Bulk Modulus (GPa) = 34.10168 60.95055 47.52611
# Shear Modulus (GPa) = 29.42739 38.97245 34.19992
#
# Velocity S-wave (km/s) = 3.43001 3.94729 3.69770
# Velocity P-wave (km/s) = 5.41483 6.71882 6.10176
#
# Compressibility (1/GPa) = 0.02932407
#
# Stress axis : x y z
#
# Youngs Moduli (GPa) = 148.19125 94.34099 42.98602
#
# Poissons Ratio (x) = 0.13767 0.05767
# Poissons Ratio (y) = 0.21626 0.12220
# Poissons Ratio (z) = 0.19881 0.26818
#
# Static dielectric constant tensor:
#      x y z
#    x 1.583610 0.058960 0.087130 
#    y 0.058960 2.033790 -0.139820 
#    z 0.087130 -0.139820 2.132050 
# 
# From -- ./inp_files/345649.got.cif
#   From: 2010.05.17/outbox.cif.g08.bks.cpg/sg2_173_cif.got.tgz:345649.got - 2010.06.03 11:33:40.
