data_PCOD9006590
_publ_section_title
;
Structure prediction by ZEFSAII (Michael W. Deem and Ramdas Pophale) SiO2 
 PCOD9006590
Probable space group: P -1
;
_chemical_formula_sum "Si O2"
_cell_formula_units_Z 16
_cell_length_a 17.442735
_cell_length_b 18.333624
_cell_length_c 8.965845
_cell_angle_alpha 144.240636
_cell_angle_beta 28.505092
_cell_angle_gamma 151.793725
_cell_volume 637.946206
_symmetry_space_group_name_H-M "P -1"
_symmetry_group_IT_number 2
_symmetry_cell_setting 'triclinic'
loop_
_space_group_symop_operation_xyz
x,y,z
-x,-y,-z
loop_
_atom_site_type_symbol
_atom_site_label
_atom_site_fract_x
_atom_site_fract_y
_atom_site_fract_z
Si Si1 0.254532 0.254467 0.451631
Si Si2 0.404313 0.240681 0.688847
Si Si3 0.009407 0.499685 0.661764
Si Si4 0.609872 0.420087 0.355460
Si Si5 0.748009 0.974492 0.151857
Si Si6 0.180025 0.838408 0.913249
Si Si7 0.290256 0.959991 0.238197
Si Si8 0.950860 0.747058 0.679441
O O1 0.413077 0.305073 0.397496
O O2 0.344009 0.411685 0.463926
O O3 0.214854 0.118077 0.185547
O O4 0.044736 0.209136 0.798440
O O5 0.582015 0.370662 0.494179
O O6 0.421065 0.161983 0.675954
O O7 0.285123 0.095223 0.536826
O O8 0.258020 0.285191 0.054107
O O9 0.081155 0.399735 0.429630
O O10 0.000000 0.500000 0.500000
O O11 0.149478 0.683126 0.760177
O O12 0.792797 0.427795 0.984881
O O13 0.712615 0.081976 0.293348
O O14 0.925872 0.102869 0.170766
O O15 0.283869 0.956530 0.067418
O O16 0.097040 0.800823 0.375813
O O17 0.500000 0.000000 0.000000
#
# Coordination Sequence:
#
# PCOD9006590 Si02
#       8
#     2   2   2   2   2   2   2   2
#     4  10  21  38  67 102 134 177 235 287 338 409
#     4  11  23  42  68  99 139 183 227 287 347 406
#     4  11  24  45  69 100 141 183 228 286 345 410
#     4  10  23  41  66  97 140 183 228 282 345 408
#     4  11  21  38  65 101 133 173 228 282 339 408
#     4  11  22  42  72 100 135 184 234 279 350 416
#     4  11  24  45  70 103 140 181 228 292 351 412
#     4  11  23  42  67  99 143 183 227 287 348 403
#
# _framework density 25.080484999999999
#
# number of rings (size 3 to 8) (size 9 to 14) (size 15 to 20)
#    0.000    1.250    1.250    5.625    3.500    1.000 
#    4.500    4.375    0.000    0.000    0.000    0.000 
#    0.000    0.000    0.000    0.000    0.000    0.000 
#
# Total GULP energy -89590.759080 kJ/mol
# GULP energy per Si atom -5599.422442 kJ/mol
# Density = 2.502340 g / cm^3
# Si number density = 25.080485 Si / 1000 Ang^3
#
#
#
# Elastic Constant Matrix: (Units=GPa)
#
#
# Indices 1 2 3 4 5 6 
#
# 1 97.2063 45.9250 45.2958 -25.5852 9.1516 -12.3997
# 2 45.9250 123.7701 45.0542 2.4115 -0.2689 -36.8489
# 3 45.2958 45.0542 100.7770 -19.8595 -7.4754 -1.8298
# 4 -25.5852 2.4115 -19.8595 51.9021 -0.1332 15.3020
# 5 9.1516 -0.2689 -7.4754 -0.1332 40.1433 -9.8437
# 6 -12.3997 -36.8489 -1.8298 15.3020 -9.8437 51.5372
#
#
#
# Elastic Compliance Matrix: (Units=1/GPa)
#
#
# Indices 1 2 3 4 5 6 
#
# 1 0.017397 -0.006615 -0.003640 0.008764 -0.005731 -0.004370
# 2 -0.006615 0.017431 -0.006390 -0.010815 0.003983 0.014617
# 3 -0.003640 -0.006390 0.015723 0.006403 0.002173 -0.006372
# 4 0.008764 -0.010815 0.006403 0.031099 -0.004577 -0.015504
# 5 -0.005731 0.003983 0.002173 -0.004577 0.028689 0.008385
# 6 -0.004370 0.014617 -0.006372 -0.015504 0.008385 0.034782
#
#
# Mechanical properties :
#
#
# Convention : Reuss Voigt Hill
#
# Bulk Modulus (GPa) = 57.92883 66.03373 61.98128
# Shear Modulus (GPa) = 27.14961 41.08174 34.11568
#
# Velocity S-wave (km/s) = 3.29371 4.05161 3.69216
# Velocity P-wave (km/s) = 6.13286 6.94790 6.55306
#
# Compressibility (1/GPa) = 0.01726256
#
# Stress axis : x y z
#
# Youngs Moduli (GPa) = 57.47997 57.36921 63.60112
#
# Poissons Ratio (x) = 0.37947 0.23149
# Poissons Ratio (y) = 0.38021 0.40642
# Poissons Ratio (z) = 0.20921 0.36660
#
# Static dielectric constant tensor:
#      x y z
#    x 1.954070 -0.024200 -0.007370 
#    y -0.024200 2.046280 0.014390 
#    z -0.007370 0.014390 2.010290 
# 
# From -- ./inp_files/336794.got.cif
#   From: 2010.05.17/outbox.cif.g08.bks.cpg/sg2_169_cif.got.tgz:336794.got - 2010.06.03 11:33:40.
