data_PCOD9006930
_publ_section_title
;
Structure prediction by ZEFSAII (Michael W. Deem and Ramdas Pophale) SiO2 
 PCOD9006930
Probable space group: P -1
;
_chemical_formula_sum "Si O2"
_cell_formula_units_Z 16
_cell_length_a 21.112656
_cell_length_b 6.232934
_cell_length_c 8.696055
_cell_angle_alpha 79.077142
_cell_angle_beta 57.234994
_cell_angle_gamma 52.494826
_cell_volume 746.370508
_symmetry_space_group_name_H-M "P -1"
_symmetry_group_IT_number 2
_symmetry_cell_setting 'triclinic'
loop_
_space_group_symop_operation_xyz
x,y,z
-x,-y,-z
loop_
_atom_site_type_symbol
_atom_site_label
_atom_site_fract_x
_atom_site_fract_y
_atom_site_fract_z
Si Si1 0.283075 0.583290 0.513525
Si Si2 0.878392 0.321451 0.489747
Si Si3 0.359679 0.785049 0.582704
Si Si4 0.338602 0.183519 0.776844
Si Si5 0.397632 0.574481 0.089202
Si Si6 0.467978 0.260268 0.724131
Si Si7 0.054616 0.237845 0.348645
Si Si8 0.227213 0.221051 0.169563
O O1 0.187170 0.651998 0.563259
O O2 0.280389 0.821834 0.572764
O O3 0.316713 0.362800 0.632229
O O4 0.357570 0.491195 0.289174
O O5 0.974050 0.290062 0.331005
O O6 0.816505 0.585021 0.649471
O O7 0.909498 0.045094 0.575069
O O8 0.425186 0.476718 0.608628
O O9 0.425009 0.839880 0.395034
O O10 0.329184 0.958599 0.754293
O O11 0.440702 0.064857 0.732807
O O12 0.262909 0.343850 0.989587
O O13 0.317351 0.905543 0.131530
O O14 0.500000 0.500000 0.000000
O O15 0.414717 0.410868 0.931531
O O16 0.147870 0.212245 0.190740
O O17 0.000000 0.500000 0.500000
#
# Coordination Sequence:
#
# PCOD9006930 Si02
#       8
#     2   2   2   2   2   2   2   2
#     4  11  24  38  61  93 130 159 210 273 316 364
#     4  10  21  41  69 102 124 159 216 266 317 386
#     4  10  21  39  57  81 123 170 212 260 316 365
#     4  11  24  38  62  88 121 178 214 254 320 382
#     4  12  23  40  61  94 129 171 216 269 311 362
#     4  10  21  39  57  81 121 168 219 260 304 374
#     4   9  20  39  71  99 126 160 206 261 332 381
#     4  11  23  41  66  92 130 174 212 260 317 385
#
# _framework density 21.437073000000002
#
# number of rings (size 3 to 8) (size 9 to 14) (size 15 to 20)
#    0.000    1.500    3.750    1.125    1.750    1.000 
#    0.000    2.500    0.000    7.500    0.000    0.000 
#    0.000    0.000    0.000    0.000    0.000    0.000 
#
# Total GULP energy -89214.608226 kJ/mol
# GULP energy per Si atom -5575.913014 kJ/mol
# Density = 2.138828 g / cm^3
# Si number density = 21.437073 Si / 1000 Ang^3
#
#
#
# Elastic Constant Matrix: (Units=GPa)
#
#
# Indices 1 2 3 4 5 6 
#
# 1 217.7317 37.0313 27.5824 8.3120 -6.3997 21.6062
# 2 37.0313 56.1262 26.2086 9.5008 -1.2187 -2.0234
# 3 27.5824 26.2086 68.2174 -9.9096 -3.5677 -5.3937
# 4 8.3120 9.5008 -9.9096 29.6614 5.0697 2.1901
# 5 -6.3997 -1.2187 -3.5677 5.0697 27.7175 4.9214
# 6 21.6062 -2.0234 -5.3937 2.1901 4.9214 26.0348
#
#
#
# Elastic Compliance Matrix: (Units=1/GPa)
#
#
# Indices 1 2 3 4 5 6 
#
# 1 0.006058 -0.003117 -0.001785 -0.001251 0.002321 -0.005973
# 2 -0.003117 0.026837 -0.010431 -0.011565 0.000636 0.003364
# 3 -0.001785 -0.010431 0.021249 0.010770 -0.000875 0.004332
# 4 -0.001251 -0.011565 0.010770 0.042591 -0.007229 0.000154
# 5 0.002321 0.000636 -0.000875 -0.007229 0.039433 -0.008904
# 6 -0.005973 0.003364 0.004332 0.000154 -0.008904 0.046196
#
#
# Mechanical properties :
#
#
# Convention : Reuss Voigt Hill
#
# Bulk Modulus (GPa) = 42.59040 58.19110 50.39075
# Shear Modulus (GPa) = 22.63938 33.43296 28.03617
#
# Velocity S-wave (km/s) = 3.25327 3.95344 3.62032
# Velocity P-wave (km/s) = 5.83288 6.93135 6.40570
#
# Compressibility (1/GPa) = 0.02347947
#
# Stress axis : x y z
#
# Youngs Moduli (GPa) = 165.08187 37.26223 47.06027
#
# Poissons Ratio (x) = 0.11613 0.08398
# Poissons Ratio (y) = 0.51449 0.49089
# Poissons Ratio (z) = 0.29459 0.38869
#
# Static dielectric constant tensor:
#      x y z
#    x 1.851760 0.053370 -0.036560 
#    y 0.053370 1.869670 -0.015010 
#    z -0.036560 -0.015010 1.779940 
# 
# From -- ./inp_files/339707.got.cif
#   From: 2010.05.17/outbox.cif.g08.bks.cpg/sg2_170_cif.got.tgz:339707.got - 2010.06.03 11:33:40.
