data_PCOD9006783
_publ_section_title
;
Structure prediction by ZEFSAII (Michael W. Deem and Ramdas Pophale) SiO2 
 PCOD9006783
Probable space group: P -1
;
_chemical_formula_sum "Si O2"
_cell_formula_units_Z 14
_cell_length_a 9.932777
_cell_length_b 23.183183
_cell_length_c 5.292089
_cell_angle_alpha 73.181562
_cell_angle_beta 106.967543
_cell_angle_gamma 144.940494
_cell_volume 666.711044
_symmetry_space_group_name_H-M "P -1"
_symmetry_group_IT_number 2
_symmetry_cell_setting 'triclinic'
loop_
_space_group_symop_operation_xyz
x,y,z
-x,-y,-z
loop_
_atom_site_type_symbol
_atom_site_label
_atom_site_fract_x
_atom_site_fract_y
_atom_site_fract_z
Si Si1 0.405789 0.018311 0.741608
Si Si2 0.279921 0.471313 0.683062
Si Si3 0.202441 0.339083 0.143937
Si Si4 0.860330 0.166784 0.518026
Si Si5 0.988503 0.036193 0.197229
Si Si6 0.216595 0.528173 0.088124
Si Si7 0.729398 0.749537 0.017882
O O1 0.241015 0.926011 0.570870
O O2 0.255951 0.012416 0.833670
O O3 0.640352 0.120595 0.601262
O O4 0.500000 0.000000 0.000000
O O5 0.563141 0.558802 0.713706
O O6 0.194685 0.474243 0.379104
O O7 0.178345 0.371965 0.840453
O O8 0.231115 0.496920 0.869956
O O9 0.970159 0.254999 0.286080
O O10 0.255996 0.288334 0.169565
O O11 0.069243 0.210494 0.745249
O O12 0.000000 0.000000 0.500000
O O13 0.192239 0.156531 0.129052
O O14 0.000000 0.000000 0.000000
O O15 0.466143 0.649089 0.104675
O O16 0.000000 0.500000 0.000000
#
# Coordination Sequence:
#
# PCOD9006783 Si02
#       7
#     2   2   2   2   2   2   2
#     4  11  23  41  69 101 134 183 239 301 340 415
#     4  10  23  39  69 102 134 169 235 293 343 409
#     4  10  21  38  69 102 132 172 230 299 352 411
#     4  11  20  39  71  97 137 177 240 285 362 411
#     4  12  27  46  69 103 145 186 234 289 353 430
#     4  11  24  45  68  96 142 187 228 281 354 435
#     4  11  23  43  70  96 134 192 229 284 368 422
#
# _framework density 20.998602999999999
#
# number of rings (size 3 to 8) (size 9 to 14) (size 15 to 20)
#    0.000    1.143    4.286    1.286    4.000    1.714 
#    2.571    0.000    0.000    0.000    0.000    0.000 
#    0.000    0.000    0.000    0.000    0.000    0.000 
#
# Total GULP energy -78240.806398 kJ/mol
# GULP energy per Si atom -5588.629028 kJ/mol
# Density = 2.095081 g / cm^3
# Si number density = 20.998603 Si / 1000 Ang^3
#
#
#
# Elastic Constant Matrix: (Units=GPa)
#
#
# Indices 1 2 3 4 5 6 
#
# 1 145.5643 49.2725 50.8809 -7.3296 -9.0380 9.3218
# 2 49.2725 108.0128 49.7599 -25.5818 -4.3295 8.1915
# 3 50.8809 49.7599 138.4822 -23.4332 0.5175 1.4864
# 4 -7.3296 -25.5818 -23.4332 50.0701 1.6402 -1.3086
# 5 -9.0380 -4.3295 0.5175 1.6402 38.2927 -2.7286
# 6 9.3218 8.1915 1.4864 -1.3086 -2.7286 43.8729
#
#
#
# Elastic Compliance Matrix: (Units=1/GPa)
#
#
# Indices 1 2 3 4 5 6 
#
# 1 0.008875 -0.003154 -0.002378 -0.001512 0.001753 -0.001152
# 2 -0.003154 0.013281 -0.002756 0.004978 0.000472 -0.001538
# 3 -0.002378 -0.002756 0.009550 0.002767 -0.001070 0.000712
# 4 -0.001512 0.004978 0.002767 0.023615 -0.000847 -0.000050
# 5 0.001753 0.000472 -0.001070 -0.000847 0.026719 0.001212
# 6 -0.001152 -0.001538 0.000712 -0.000050 0.001212 0.023375
#
#
# Mechanical properties :
#
#
# Convention : Reuss Voigt Hill
#
# Bulk Modulus (GPa) = 66.09253 76.87622 71.48438
# Shear Modulus (GPa) = 39.35953 42.59019 40.97486
#
# Velocity S-wave (km/s) = 4.33412 4.50848 4.42216
# Velocity P-wave (km/s) = 7.52258 7.98696 7.75824
#
# Compressibility (1/GPa) = 0.01513030
#
# Stress axis : x y z
#
# Youngs Moduli (GPa) = 112.67727 75.29409 104.71522
#
# Poissons Ratio (x) = 0.23745 0.24898
# Poissons Ratio (y) = 0.35535 0.28864
# Poissons Ratio (z) = 0.26792 0.20754
#
# Static dielectric constant tensor:
#      x y z
#    x 1.738140 -0.019130 -0.033690 
#    y -0.019130 1.959140 0.003200 
#    z -0.033690 0.003200 1.781960 
# 
# From -- ./inp_files/54713.got.cif
#   From: 2010.05.17/outbox.cif.g08.bks.cpg/sg2_28_cif.got.tgz:54713.got - 2010.06.03 11:33:40.
