data_PCOD9006453
_publ_section_title
;
Structure prediction by ZEFSAII (Michael W. Deem and Ramdas Pophale) SiO2 
 PCOD9006453
Probable space group: P -1
;
_chemical_formula_sum "Si O2"
_cell_formula_units_Z 16
_cell_length_a 21.522496
_cell_length_b 11.309638
_cell_length_c 10.904191
_cell_angle_alpha 40.703093
_cell_angle_beta 25.867933
_cell_angle_gamma 39.993861
_cell_volume 721.554394
_symmetry_space_group_name_H-M "P -1"
_symmetry_group_IT_number 2
_symmetry_cell_setting 'triclinic'
loop_
_space_group_symop_operation_xyz
x,y,z
-x,-y,-z
loop_
_atom_site_type_symbol
_atom_site_label
_atom_site_fract_x
_atom_site_fract_y
_atom_site_fract_z
Si Si1 0.661643 0.847616 0.826959
Si Si2 0.176167 0.754158 0.573159
Si Si3 0.425428 0.878773 0.605173
Si Si4 0.164832 0.220574 0.886080
Si Si5 0.165690 0.887769 0.764181
Si Si6 0.375870 0.550895 0.788625
Si Si7 0.282553 0.095795 0.039271
Si Si8 0.616057 0.586707 0.659607
O O1 0.734347 0.821985 0.856094
O O2 0.747245 0.954648 0.502841
O O3 0.647381 0.644927 0.971754
O O4 0.500000 0.000000 0.000000
O O5 0.183591 0.816511 0.649694
O O6 0.304023 0.561366 0.470584
O O7 0.219592 0.915848 0.291171
O O8 0.009995 0.744113 0.849485
O O9 0.418276 0.683069 0.710009
O O10 0.518158 0.795208 0.627978
O O11 0.264094 0.018804 0.812779
O O12 0.539909 0.951721 0.262163
O O13 0.237978 0.371261 0.573756
O O14 0.201575 0.218884 0.969084
O O15 0.228322 0.698851 0.879788
O O16 0.000000 0.000000 0.000000
O O17 0.500000 0.500000 0.500000
O O18 0.500000 0.500000 0.000000
#
# Coordination Sequence:
#
# PCOD9006453 Si02
#       8
#     2   2   2   2   2   2   2   2
#     4  11  23  41  70 101 124 177 225 277 332 390
#     4  11  23  40  65  93 130 172 214 264 332 394
#     4  11  22  40  64  92 126 166 215 271 327 382
#     4  11  23  41  63  94 130 172 207 267 336 388
#     4  11  25  44  65  98 141 175 221 275 333 396
#     4  12  22  42  70  97 131 171 231 276 327 394
#     4  10  21  38  66  89 128 162 217 266 326 386
#     4  11  23  41  63  96 127 162 217 267 321 391
#
# _framework density 22.174348999999999
#
# number of rings (size 3 to 8) (size 9 to 14) (size 15 to 20)
#    0.000    1.000    2.500    5.250    3.500    0.500 
#    4.500    0.000    0.000    0.000    0.000    0.000 
#    0.000    0.000    0.000    0.000    0.000    0.000 
#
# Total GULP energy -89340.163689 kJ/mol
# GULP energy per Si atom -5583.760231 kJ/mol
# Density = 2.212388 g / cm^3
# Si number density = 22.174349 Si / 1000 Ang^3
#
#
#
# Elastic Constant Matrix: (Units=GPa)
#
#
# Indices 1 2 3 4 5 6 
#
# 1 44.1635 4.7145 5.7044 -3.4719 -15.1258 3.5808
# 2 4.7145 128.0116 70.2186 4.2147 -7.9091 7.1791
# 3 5.7044 70.2186 151.8020 -11.2194 -23.6837 -9.3350
# 4 -3.4719 4.2147 -11.2194 46.2425 -1.7570 -5.1950
# 5 -15.1258 -7.9091 -23.6837 -1.7570 24.7165 0.7903
# 6 3.5808 7.1791 -9.3350 -5.1950 0.7903 39.6497
#
#
#
# Elastic Compliance Matrix: (Units=1/GPa)
#
#
# Indices 1 2 3 4 5 6 
#
# 1 0.030090 -0.001498 0.003040 0.003751 0.021167 -0.001661
# 2 -0.001498 0.011370 -0.006186 -0.003195 -0.003313 -0.003732
# 3 0.003040 -0.006186 0.011665 0.004494 0.011252 0.003957
# 4 0.003751 -0.003195 0.004494 0.024044 0.007151 0.004306
# 5 0.021167 -0.003313 0.011252 0.007151 0.063610 0.001007
# 6 -0.001661 -0.003732 0.003957 0.004306 0.001007 0.027522
#
#
# Mechanical properties :
#
#
# Convention : Reuss Voigt Hill
#
# Bulk Modulus (GPa) = 22.81177 53.91688 38.36432
# Shear Modulus (GPa) = 26.01448 38.34438 32.17943
#
# Velocity S-wave (km/s) = 3.42889 4.16290 3.81360
# Velocity P-wave (km/s) = 5.09766 6.89015 6.06054
#
# Compressibility (1/GPa) = 0.04383702
#
# Stress axis : x y z
#
# Youngs Moduli (GPa) = 33.23410 87.95320 85.72313
#
# Poissons Ratio (x) = 0.13177 -0.26058
# Poissons Ratio (y) = 0.04979 0.53024
# Poissons Ratio (z) = -0.10102 0.54403
#
# Static dielectric constant tensor:
#      x y z
#    x 1.929170 0.027890 0.002310 
#    y 0.027890 1.796920 -0.056700 
#    z 0.002310 -0.056700 1.838660 
# 
# From -- ./inp_files/208035.got.cif
#   From: 2010.05.17/outbox.cif.g08.bks.cpg/sg2_105_cif.got.tgz:208035.got - 2010.06.03 11:33:40.
