data_PCOD9006071
_publ_section_title
;
Structure prediction by ZEFSAII (Michael W. Deem and Ramdas Pophale) SiO2 
 PCOD9006071
Probable space group: P -1
;
_chemical_formula_sum "Si O2"
_cell_formula_units_Z 14
_cell_length_a 15.187736
_cell_length_b 7.811883
_cell_length_c 12.617835
_cell_angle_alpha 83.526418
_cell_angle_beta 151.867559
_cell_angle_gamma 107.063927
_cell_volume 638.406230
_symmetry_space_group_name_H-M "P -1"
_symmetry_group_IT_number 2
_symmetry_cell_setting 'triclinic'
loop_
_space_group_symop_operation_xyz
x,y,z
-x,-y,-z
loop_
_atom_site_type_symbol
_atom_site_label
_atom_site_fract_x
_atom_site_fract_y
_atom_site_fract_z
Si Si1 0.023961 0.336775 0.469092
Si Si2 0.636607 0.820195 0.659878
Si Si3 0.372293 0.357831 0.968346
Si Si4 0.698921 0.491605 0.452819
Si Si5 0.796554 0.540380 0.782089
Si Si6 0.405760 0.928434 0.577451
Si Si7 0.413895 0.974120 0.028001
O O1 0.810231 0.187918 0.210187
O O2 0.000000 0.500000 0.500000
O O3 0.141476 0.269334 0.686893
O O4 0.162137 0.414416 0.506811
O O5 0.779699 0.705684 0.824742
O O6 0.407425 0.655156 0.401728
O O7 0.601421 0.918209 0.722761
O O8 0.692663 0.977885 0.617118
O O9 0.422076 0.178719 0.044703
O O10 0.500000 0.500000 0.000000
O O11 0.469001 0.462387 0.173783
O O12 0.766169 0.600484 0.626016
O O13 0.718733 0.293023 0.511149
O O14 0.000000 0.500000 0.000000
O O15 0.465028 0.049949 0.739974
O O16 0.500000 0.000000 0.000000
#
# Coordination Sequence:
#
# PCOD9006071 Si02
#       7
#     2   2   2   2   2   2   2
#     4  11  22  37  59  91 124 162 211 257 310 379
#     4   9  20  40  64  87 127 170 204 266 320 372
#     4   9  19  38  58  80 124 161 201 254 303 369
#     4   9  20  39  58  86 124 161 206 257 315 371
#     4  10  21  38  64  95 124 159 218 260 318 390
#     4   9  19  39  62  86 126 170 208 254 329 376
#     4  11  22  37  63  91 125 165 209 259 319 379
#
# _framework density 21.929608999999999
#
# number of rings (size 3 to 8) (size 9 to 14) (size 15 to 20)
#    0.000    2.286    0.000    3.000    2.000    3.429 
#    7.714    7.857    3.143    0.000    0.000    0.000 
#    0.000    0.000    0.000    0.000    0.000    0.000 
#
# Total GULP energy -77953.627807 kJ/mol
# GULP energy per Si atom -5568.116272 kJ/mol
# Density = 2.187970 g / cm^3
# Si number density = 21.929609 Si / 1000 Ang^3
#
#
#
# Elastic Constant Matrix: (Units=GPa)
#
#
# Indices 1 2 3 4 5 6 
#
# 1 77.8229 3.4445 17.3401 -0.6658 -17.4590 6.0390
# 2 3.4445 51.6326 -3.9801 -0.1589 5.1779 7.3802
# 3 17.3401 -3.9801 45.7123 2.6290 -8.1464 12.0746
# 4 -0.6658 -0.1589 2.6290 28.8780 0.5401 -0.4375
# 5 -17.4590 5.1779 -8.1464 0.5401 33.6208 -1.6794
# 6 6.0390 7.3802 12.0746 -0.4375 -1.6794 34.3431
#
#
#
# Elastic Compliance Matrix: (Units=1/GPa)
#
#
# Indices 1 2 3 4 5 6 
#
# 1 0.015670 -0.002107 -0.004802 0.000647 0.007275 -0.000250
# 2 -0.002107 0.020938 0.003425 -0.000258 -0.003761 -0.005520
# 3 -0.004802 0.003425 0.027179 -0.002766 0.003143 -0.009329
# 4 0.000647 -0.000258 -0.002766 0.034929 -0.000790 0.001321
# 5 0.007275 -0.003761 0.003143 -0.000790 0.034881 0.000119
# 6 -0.000250 -0.005520 -0.009329 0.001321 0.000119 0.033651
#
#
# Mechanical properties :
#
#
# Convention : Reuss Voigt Hill
#
# Bulk Modulus (GPa) = 17.60000 23.19742 20.39871
# Shear Modulus (GPa) = 25.88589 29.92593 27.90591
#
# Velocity S-wave (km/s) = 3.43943 3.69811 3.57111
# Velocity P-wave (km/s) = 4.88017 5.36989 5.13088
#
# Compressibility (1/GPa) = 0.05681819
#
# Stress axis : x y z
#
# Youngs Moduli (GPa) = 63.81572 47.76096 36.79281
#
# Poissons Ratio (x) = 0.10065 0.17669
# Poissons Ratio (y) = 0.13448 -0.12602
# Poissons Ratio (z) = 0.30646 -0.16359
#
# Static dielectric constant tensor:
#      x y z
#    x 1.907300 0.051640 -0.127420 
#    y 0.051640 1.813150 -0.109340 
#    z -0.127420 -0.109340 2.283010 
# 
# From -- ./inp_files/201300.got.cif
#   From: 2010.05.17/outbox.cif.g08.bks.cpg/sg2_101_cif.got.tgz:201300.got - 2010.06.03 11:33:40.
