data_PCOD9006491
_publ_section_title
;
Structure prediction by ZEFSAII (Michael W. Deem and Ramdas Pophale) SiO2 
 PCOD9006491
Probable space group: P -1
;
_chemical_formula_sum "Si O2"
_cell_formula_units_Z 16
_cell_length_a 13.301880
_cell_length_b 11.466358
_cell_length_c 9.437502
_cell_angle_alpha 40.004985
_cell_angle_beta 55.780370
_cell_angle_gamma 75.176750
_cell_volume 722.546410
_symmetry_space_group_name_H-M "P -1"
_symmetry_group_IT_number 2
_symmetry_cell_setting 'triclinic'
loop_
_space_group_symop_operation_xyz
x,y,z
-x,-y,-z
loop_
_atom_site_type_symbol
_atom_site_label
_atom_site_fract_x
_atom_site_fract_y
_atom_site_fract_z
Si Si1 0.360082 0.393720 0.644423
Si Si2 0.855190 0.154858 0.223078
Si Si3 0.951623 0.475965 0.399361
Si Si4 0.371879 0.871184 0.796134
Si Si5 0.145049 0.269882 0.374912
Si Si6 0.554703 0.918471 0.167038
Si Si7 0.283799 0.605089 0.737304
Si Si8 0.289044 0.478880 0.330511
O O1 0.500000 0.500000 0.500000
O O2 0.341069 0.172486 0.891886
O O3 0.270089 0.490334 0.707585
O O4 0.363127 0.412575 0.455603
O O5 0.751359 0.128924 0.199851
O O6 0.802435 0.260076 0.291138
O O7 0.867812 0.949607 0.441896
O O8 0.985358 0.317437 0.917321
O O9 0.012770 0.323329 0.427168
O O10 0.000000 0.500000 0.500000
O O11 0.803019 0.434322 0.584744
O O12 0.500000 0.000000 0.500000
O O13 0.381835 0.945274 0.880329
O O14 0.372490 0.653725 0.006875
O O15 0.204479 0.316182 0.443564
O O16 0.241438 0.432154 0.046555
O O17 0.428884 0.754835 0.484952
O O18 0.500000 0.000000 0.000000
#
# Coordination Sequence:
#
# PCOD9006491 Si02
#       8
#     2   2   2   2   2   2   2   2
#     4  10  23  40  61  86 123 167 206 247 313 367
#     4  11  21  38  65  94 123 164 205 259 313 363
#     4   9  19  40  62  90 128 158 208 261 308 360
#     4  12  21  36  61  94 128 160 205 250 308 373
#     4  10  21  38  66  93 122 159 210 257 315 365
#     4  11  23  39  59  91 125 167 209 249 303 375
#     4  10  21  42  59  88 128 163 203 256 312 364
#     4  11  21  42  62  91 127 165 202 263 306 364
#
# _framework density 22.143908
#
# number of rings (size 3 to 8) (size 9 to 14) (size 15 to 20)
#    0.000    1.500    5.000    2.250    1.750    4.000 
#    2.250    6.875    0.000    1.500    0.000    0.000 
#    0.000    0.000    0.000    0.000    0.000    0.000 
#
# Total GULP energy -89189.824628 kJ/mol
# GULP energy per Si atom -5574.364039 kJ/mol
# Density = 2.209351 g / cm^3
# Si number density = 22.143908 Si / 1000 Ang^3
#
#
#
# Elastic Constant Matrix: (Units=GPa)
#
#
# Indices 1 2 3 4 5 6 
#
# 1 38.1272 -2.6987 23.5077 -0.2635 14.4943 0.4444
# 2 -2.6987 132.2213 44.3685 -18.8136 11.7685 -9.9915
# 3 23.5077 44.3685 112.9563 -14.7784 1.6184 -25.1662
# 4 -0.2635 -18.8136 -14.7784 36.1197 -5.1296 12.7253
# 5 14.4943 11.7685 1.6184 -5.1296 33.7204 -2.1544
# 6 0.4444 -9.9915 -25.1662 12.7253 -2.1544 22.0760
#
#
#
# Elastic Compliance Matrix: (Units=1/GPa)
#
#
# Indices 1 2 3 4 5 6 
#
# 1 0.045029 0.006895 -0.015747 0.000812 -0.022055 -0.018358
# 2 0.006895 0.010463 -0.006107 0.003995 -0.006050 -0.005258
# 3 -0.015747 -0.006107 0.018829 -0.001650 0.009078 0.020855
# 4 0.000812 0.003995 -0.001650 0.036903 0.002601 -0.021108
# 5 -0.022055 -0.006050 0.009078 0.002601 0.041887 0.010643
# 6 -0.018358 -0.005258 0.020855 -0.021108 0.010643 0.080268
#
#
# Mechanical properties :
#
#
# Convention : Reuss Voigt Hill
#
# Bulk Modulus (GPa) = 22.52124 45.96218 34.24171
# Shear Modulus (GPa) = 17.97923 32.92504 25.45214
#
# Velocity S-wave (km/s) = 2.85252 3.86017 3.39395
# Velocity P-wave (km/s) = 4.58712 6.37723 5.55476
#
# Compressibility (1/GPa) = 0.04440253
#
# Stress axis : x y z
#
# Youngs Moduli (GPa) = 22.20794 95.57943 53.10861
#
# Poissons Ratio (x) = -0.65898 0.83631
# Poissons Ratio (y) = -0.15311 0.32431
# Poissons Ratio (z) = 0.34971 0.58367
#
# Static dielectric constant tensor:
#      x y z
#    x 3.901050 0.613320 -0.035680 
#    y 0.613320 2.032530 0.077960 
#    z -0.035680 0.077960 1.739590 
# 
# From -- ./inp_files/306192.got.cif
#   From: 2010.05.17/outbox.cif.g08.bks.cpg/sg2_154_cif.got.tgz:306192.got - 2010.06.03 11:33:40.
