data_PCOD9006686
_publ_section_title
;
Structure prediction by ZEFSAII (Michael W. Deem and Ramdas Pophale) SiO2 
 PCOD9006686
Probable space group: P -1
;
_chemical_formula_sum "Si O2"
_cell_formula_units_Z 16
_cell_length_a 7.787745
_cell_length_b 14.690067
_cell_length_c 9.283081
_cell_angle_alpha 99.606221
_cell_angle_beta 64.166442
_cell_angle_gamma 136.914698
_cell_volume 632.845082
_symmetry_space_group_name_H-M "P -1"
_symmetry_group_IT_number 2
_symmetry_cell_setting 'triclinic'
loop_
_space_group_symop_operation_xyz
x,y,z
-x,-y,-z
loop_
_atom_site_type_symbol
_atom_site_label
_atom_site_fract_x
_atom_site_fract_y
_atom_site_fract_z
Si Si1 0.884707 0.994314 0.766822
Si Si2 0.696196 0.283601 0.998786
Si Si3 0.859435 0.086705 0.520373
Si Si4 0.260298 0.372104 0.152785
Si Si5 0.697509 0.768886 0.106389
Si Si6 0.330838 0.608532 0.447351
Si Si7 0.693309 0.466133 0.242603
Si Si8 0.713879 0.206512 0.428576
O O1 0.972135 0.925832 0.647688
O O2 0.955661 0.097483 0.648505
O O3 0.547519 0.871337 0.892287
O O4 0.067260 0.084541 0.863936
O O5 0.550455 0.267673 0.900159
O O6 0.019894 0.375561 0.863370
O O7 0.719382 0.375449 0.130243
O O8 0.846072 0.186574 0.496064
O O9 0.530255 0.938287 0.596220
O O10 0.414169 0.406074 0.254939
O O11 0.977297 0.328427 0.264289
O O12 0.500000 0.500000 0.000000
O O13 0.164613 0.245469 0.070636
O O14 0.531089 0.648225 0.255078
O O15 0.347730 0.562619 0.580222
O O16 0.426930 0.749751 0.460968
O O17 0.000000 0.500000 0.500000
#
# Coordination Sequence:
#
# PCOD9006686 Si02
#       8
#     2   2   2   2   2   2   2   2
#     4  11  22  41  73  98 136 182 237 276 345 423
#     4  10  21  38  67  99 131 174 230 279 324 412
#     4  10  23  42  67 103 133 185 223 283 347 416
#     4  11  26  46  69  98 142 183 223 286 353 410
#     4  11  23  42  67 105 135 174 236 286 338 407
#     4  12  23  44  72 100 135 180 240 290 334 409
#     4  10  23  41  69  97 132 188 234 259 349 431
#     4  11  24  43  68  97 143 176 227 283 351 405
#
# _framework density 25.282651000000001
#
# number of rings (size 3 to 8) (size 9 to 14) (size 15 to 20)
#    0.000    1.250    2.500    3.375    8.750    0.000 
#    2.250    1.875    0.000    0.000    0.000    0.000 
#    0.000    0.000    0.000    0.000    0.000    0.000 
#
# Total GULP energy -89546.439965 kJ/mol
# GULP energy per Si atom -5596.652498 kJ/mol
# Density = 2.522511 g / cm^3
# Si number density = 25.282651 Si / 1000 Ang^3
#
#
#
# Elastic Constant Matrix: (Units=GPa)
#
#
# Indices 1 2 3 4 5 6 
#
# 1 93.4245 19.2194 47.1097 1.4097 14.1364 13.5184
# 2 19.2194 95.6168 47.0034 -12.9422 -2.1115 22.5790
# 3 47.1097 47.0034 117.5632 -3.8171 30.4840 14.0343
# 4 1.4097 -12.9422 -3.8171 37.0950 6.5672 3.0132
# 5 14.1364 -2.1115 30.4840 6.5672 42.4427 0.1381
# 6 13.5184 22.5790 14.0343 3.0132 0.1381 31.1682
#
#
#
# Elastic Compliance Matrix: (Units=1/GPa)
#
#
# Indices 1 2 3 4 5 6 
#
# 1 0.013885 0.000636 -0.005113 -0.000344 -0.000854 -0.004143
# 2 0.000636 0.016854 -0.006898 0.005096 0.004825 -0.009893
# 3 -0.005113 -0.006898 0.016054 0.001283 -0.010369 -0.000092
# 4 -0.000344 0.005096 0.001283 0.030378 -0.005231 -0.007033
# 5 -0.000854 0.004825 -0.010369 -0.005231 0.032336 0.001906
# 6 -0.004143 -0.009893 -0.000092 -0.007033 0.001906 0.041761
#
#
# Mechanical properties :
#
#
# Convention : Reuss Voigt Hill
#
# Bulk Modulus (GPa) = 41.59303 59.25218 50.42261
# Shear Modulus (GPa) = 27.46736 35.02598 31.24667
#
# Velocity S-wave (km/s) = 3.29965 3.72610 3.51934
# Velocity P-wave (km/s) = 5.56811 6.48063 6.04162
#
# Compressibility (1/GPa) = 0.02404249
#
# Stress axis : x y z
#
# Youngs Moduli (GPa) = 72.01770 59.33350 62.28878
#
# Poissons Ratio (x) = -0.03771 0.31851
# Poissons Ratio (y) = -0.04577 0.42965
# Poissons Ratio (z) = 0.36826 0.40926
#
# Static dielectric constant tensor:
#      x y z
#    x 1.965150 -0.080540 0.022170 
#    y -0.080540 2.112780 0.025880 
#    z 0.022170 0.025880 2.043280 
# 
# From -- ./inp_files/217854.got.cif
#   From: 2010.05.17/outbox.cif.g08.bks.cpg/sg2_109_cif.got.tgz:217854.got - 2010.06.03 11:33:40.
