data_PCOD9006886
_publ_section_title
;
Structure prediction by ZEFSAII (Michael W. Deem and Ramdas Pophale) SiO2 
 PCOD9006886
Probable space group: P -1
;
_chemical_formula_sum "Si O2"
_cell_formula_units_Z 14
_cell_length_a 9.508022
_cell_length_b 11.206050
_cell_length_c 19.538412
_cell_angle_alpha 32.749988
_cell_angle_beta 151.037715
_cell_angle_gamma 135.661218
_cell_volume 543.640430
_symmetry_space_group_name_H-M "P -1"
_symmetry_group_IT_number 2
_symmetry_cell_setting 'triclinic'
loop_
_space_group_symop_operation_xyz
x,y,z
-x,-y,-z
loop_
_atom_site_type_symbol
_atom_site_label
_atom_site_fract_x
_atom_site_fract_y
_atom_site_fract_z
Si Si1 0.523281 0.659390 0.628103
Si Si2 0.832715 0.247155 0.030583
Si Si3 0.677882 0.307374 0.625712
Si Si4 0.745887 0.617508 0.095599
Si Si5 0.273851 0.408693 0.054736
Si Si6 0.048197 0.934097 0.370561
Si Si7 0.725594 0.007101 0.328815
O O1 0.651394 0.411855 0.822129
O O2 0.377346 0.654034 0.495301
O O3 0.756027 0.852960 0.633140
O O4 0.279491 0.740615 0.539716
O O5 0.141309 0.216719 0.134720
O O6 0.792821 0.400548 0.008423
O O7 0.827319 0.008373 0.178077
O O8 0.500000 0.500000 0.500000
O O9 0.009887 0.292105 0.797942
O O10 0.528395 0.092563 0.689397
O O11 0.865694 0.576174 0.088946
O O12 0.612986 0.411776 0.177123
O O13 0.453164 0.779932 0.884227
O O14 0.858758 0.879662 0.380901
O O15 0.000000 0.000000 0.500000
#
# Coordination Sequence:
#
# PCOD9006886 Si02
#       7
#     2   2   2   2   2   2   2
#     4  11  23  43  71 105 143 187 236 296 363 428
#     4  11  20  41  71 106 138 181 243 303 351 424
#     4  12  29  48  69 107 155 185 239 304 370 428
#     4  11  25  44  70 103 147 191 236 300 363 427
#     4  10  21  38  75 101 135 188 244 283 365 432
#     4  11  23  43  74 107 136 185 255 295 347 438
#     4  12  26  46  75 105 142 189 252 298 352 438
#
# _framework density 25.752316
#
# number of rings (size 3 to 8) (size 9 to 14) (size 15 to 20)
#    0.000    0.857    5.714    1.286    8.000    0.000 
#    2.571    6.429    0.000    0.000    0.000    0.000 
#    0.000    0.000    0.000    0.000    0.000    0.000 
#
# Total GULP energy -78126.513714 kJ/mol
# GULP energy per Si atom -5580.465265 kJ/mol
# Density = 2.569370 g / cm^3
# Si number density = 25.752316 Si / 1000 Ang^3
#
#
#
# Elastic Constant Matrix: (Units=GPa)
#
#
# Indices 1 2 3 4 5 6 
#
# 1 201.1600 16.1196 46.6120 21.4699 -25.3915 -3.4782
# 2 16.1196 47.0243 48.1260 20.7756 -8.2835 6.2197
# 3 46.6120 48.1260 167.6689 17.9248 -12.4092 2.6180
# 4 21.4699 20.7756 17.9248 36.8888 -9.1393 2.9030
# 5 -25.3915 -8.2835 -12.4092 -9.1393 45.1011 -6.4716
# 6 -3.4782 6.2197 2.6180 2.9030 -6.4716 25.1419
#
#
#
# Elastic Compliance Matrix: (Units=1/GPa)
#
#
# Indices 1 2 3 4 5 6 
#
# 1 0.005902 0.000882 -0.001427 -0.002684 0.002804 0.001779
# 2 0.000882 0.039375 -0.009539 -0.017384 0.000655 -0.006450
# 3 -0.001427 -0.009539 0.008912 0.001894 0.000442 0.001130
# 4 -0.002684 -0.017384 0.001894 0.038424 0.003637 0.000232
# 5 0.002804 0.000655 0.000442 0.003637 0.025642 0.006360
# 6 0.001779 -0.006450 0.001130 0.000232 0.006360 0.043109
#
#
# Mechanical properties :
#
#
# Convention : Reuss Voigt Hill
#
# Bulk Modulus (GPa) = 29.39518 70.84094 50.11806
# Shear Modulus (GPa) = 25.92383 41.75940 33.84162
#
# Velocity S-wave (km/s) = 3.17623 4.03125 3.62901
# Velocity P-wave (km/s) = 4.98905 7.01686 6.08798
#
# Compressibility (1/GPa) = 0.03401919
#
# Stress axis : x y z
#
# Youngs Moduli (GPa) = 169.42545 25.39691 112.21283
#
# Poissons Ratio (x) = -0.02239 0.16016
# Poissons Ratio (y) = -0.14939 1.07043
# Poissons Ratio (z) = 0.24182 0.24227
#
# Static dielectric constant tensor:
#      x y z
#    x 2.024190 0.095670 -0.015750 
#    y 0.095670 2.372800 -0.124470 
#    z -0.015750 -0.124470 2.141730 
# 
# From -- ./inp_files/559731.got.cif
#   From: 2010.05.17/outbox.cif.g08.bks.cpg/sg2_280_cif.got.tgz:559731.got - 2010.06.03 11:33:40.
