data_PCOD9006153
_publ_section_title
;
Structure prediction by ZEFSAII (Michael W. Deem and Ramdas Pophale) SiO2 
 PCOD9006153
Probable space group: P -1
;
_chemical_formula_sum "Si O2"
_cell_formula_units_Z 16
_cell_length_a 10.020014
_cell_length_b 11.401722
_cell_length_c 20.935434
_cell_angle_alpha 30.317475
_cell_angle_beta 141.987325
_cell_angle_gamma 128.681335
_cell_volume 731.739031
_symmetry_space_group_name_H-M "P -1"
_symmetry_group_IT_number 2
_symmetry_cell_setting 'triclinic'
loop_
_space_group_symop_operation_xyz
x,y,z
-x,-y,-z
loop_
_atom_site_type_symbol
_atom_site_label
_atom_site_fract_x
_atom_site_fract_y
_atom_site_fract_z
Si Si1 0.467775 0.891224 0.320733
Si Si2 0.899421 0.770036 0.321156
Si Si3 0.838199 0.863116 0.809126
Si Si4 0.141583 0.541215 0.319352
Si Si5 0.198567 0.674938 0.139772
Si Si6 0.478246 0.970802 0.862668
Si Si7 0.294833 0.409746 0.786161
Si Si8 0.434605 0.275590 0.330844
O O1 0.278717 0.733887 0.308557
O O2 0.690449 0.705419 0.502531
O O3 0.496189 0.041170 0.197903
O O4 0.382586 0.045258 0.276969
O O5 0.758165 0.887929 0.271679
O O6 0.737767 0.765140 0.202069
O O7 0.000000 0.500000 0.500000
O O8 0.081305 0.918666 0.298324
O O9 0.774101 0.695054 0.809337
O O10 0.024275 0.760688 0.978458
O O11 0.082500 0.617875 0.188357
O O12 0.933131 0.532513 0.288868
O O13 0.341333 0.875105 0.117111
O O14 0.364243 0.444019 0.285661
O O15 0.526974 0.725668 0.033897
O O16 0.372948 0.629092 0.679078
O O17 0.500000 0.000000 0.500000
#
# Coordination Sequence:
#
# PCOD9006153 Si02
#       8
#     2   2   2   2   2   2   2   2
#     4  10  21  38  64  99 132 158 212 264 326 371
#     4  12  23  37  64  95 125 162 218 263 310 370
#     4  12  24  42  63  94 128 172 210 261 322 379
#     4  10  21  38  67  97 126 167 210 269 314 374
#     4  11  22  42  67  95 129 166 215 261 323 375
#     4  11  22  39  68 100 127 162 211 276 314 369
#     4  12  22  43  65  96 127 166 217 260 321 371
#     4  12  27  44  63  91 134 175 208 260 322 386
#
# _framework density 21.86572
#
# number of rings (size 3 to 8) (size 9 to 14) (size 15 to 20)
#    0.000    0.750    3.750    4.500    3.500    2.000 
#    0.000    6.250    0.000    0.000    0.000    0.000 
#    0.000    0.000    0.000    0.000    0.000    0.000 
#
# Total GULP energy -89582.756530 kJ/mol
# GULP energy per Si atom -5598.922283 kJ/mol
# Density = 2.181595 g / cm^3
# Si number density = 21.865720 Si / 1000 Ang^3
#
#
#
# Elastic Constant Matrix: (Units=GPa)
#
#
# Indices 1 2 3 4 5 6 
#
# 1 127.5682 24.7145 13.3725 -13.2542 -3.7442 23.2162
# 2 24.7145 41.5900 0.0193 -2.5366 -13.9978 1.9442
# 3 13.3725 0.0193 60.6759 -4.4780 0.5983 11.3419
# 4 -13.2542 -2.5366 -4.4780 26.4224 -2.1754 -6.0798
# 5 -3.7442 -13.9978 0.5983 -2.1754 35.5713 -0.9505
# 6 23.2162 1.9442 11.3419 -6.0798 -0.9505 24.1513
#
#
#
# Elastic Compliance Matrix: (Units=1/GPa)
#
#
# Indices 1 2 3 4 5 6 
#
# 1 0.011061 -0.006474 -0.000495 0.002586 -0.001465 -0.009286
# 2 -0.006474 0.031872 0.000631 0.001907 0.012082 0.004316
# 3 -0.000495 0.000631 0.018135 0.001062 -0.000253 -0.007834
# 4 0.002586 0.001907 0.001062 0.041533 0.003744 0.007465
# 5 -0.001465 0.012082 -0.000253 0.003744 0.033021 0.002797
# 6 -0.009286 0.004316 -0.007834 0.007465 0.002797 0.055653
#
#
# Mechanical properties :
#
#
# Convention : Reuss Voigt Hill
#
# Bulk Modulus (GPa) = 20.66382 34.00520 27.33451
# Shear Modulus (GPa) = 22.71912 30.01085 26.36498
#
# Velocity S-wave (km/s) = 3.22689 3.70875 3.47618
# Velocity P-wave (km/s) = 4.83266 5.82455 5.35164
#
# Compressibility (1/GPa) = 0.04839375
#
# Stress axis : x y z
#
# Youngs Moduli (GPa) = 90.41163 31.37570 55.14138
#
# Poissons Ratio (x) = 0.20312 0.02727
# Poissons Ratio (y) = 0.58529 -0.03482
# Poissons Ratio (z) = 0.04472 -0.01981
#
# Static dielectric constant tensor:
#      x y z
#    x 1.762490 -0.006130 -0.004820 
#    y -0.006130 1.783980 0.032040 
#    z -0.004820 0.032040 1.825010 
# 
# From -- ./inp_files/175307.got.cif
#   From: 2010.05.17/outbox.cif.g08.bks.cpg/sg2_88_cif.got.tgz:175307.got - 2010.06.03 11:33:40.
