data_PCOD9006507
_publ_section_title
;
Structure prediction by ZEFSAII (Michael W. Deem and Ramdas Pophale) SiO2 
 PCOD9006507
Probable space group: P -1
;
_chemical_formula_sum "Si O2"
_cell_formula_units_Z 16
_cell_length_a 22.681220
_cell_length_b 9.974605
_cell_length_c 9.071097
_cell_angle_alpha 42.305326
_cell_angle_beta 52.263329
_cell_angle_gamma 36.365979
_cell_volume 818.331713
_symmetry_space_group_name_H-M "P -1"
_symmetry_group_IT_number 2
_symmetry_cell_setting 'triclinic'
loop_
_space_group_symop_operation_xyz
x,y,z
-x,-y,-z
loop_
_atom_site_type_symbol
_atom_site_label
_atom_site_fract_x
_atom_site_fract_y
_atom_site_fract_z
Si Si1 0.111081 0.239194 0.014144
Si Si2 0.787167 0.305905 0.711481
Si Si3 0.621261 0.351225 0.068415
Si Si4 0.107862 0.638096 0.261403
Si Si5 0.107369 0.869527 0.785733
Si Si6 0.757694 0.623263 0.232201
Si Si7 0.809002 0.926111 0.307617
Si Si8 0.458340 0.906109 0.755052
O O1 0.185659 0.266595 0.950604
O O2 0.135356 0.182903 0.847948
O O3 0.000000 0.500000 0.000000
O O4 0.128692 0.983893 0.249989
O O5 0.819666 0.329275 0.801169
O O6 0.766489 0.531822 0.460959
O O7 0.694592 0.321612 0.858903
O O8 0.576047 0.224310 0.183337
O O9 0.693659 0.169933 0.241485
O O10 0.537181 0.671212 0.940802
O O11 0.159844 0.335543 0.451033
O O12 0.089381 0.723204 0.050389
O O13 0.000354 0.861214 0.321824
O O14 0.183830 0.641526 0.738531
O O15 0.154030 0.967178 0.727614
O O16 0.639667 0.847314 0.208588
O O17 0.500000 0.000000 0.500000
#
# Coordination Sequence:
#
# PCOD9006507 Si02
#       8
#     2   2   2   2   2   2   2   2
#     4  11  23  36  62  93 127 164 213 257 303 376
#     4  11  20  39  65  90 126 163 214 255 310 378
#     4  10  21  38  66  94 117 160 215 261 310 380
#     4  11  22  41  64  88 125 183 202 251 317 383
#     4  11  26  39  60  94 134 162 216 254 315 383
#     4  12  24  40  63  99 125 164 211 270 312 368
#     4  11  22  43  61  88 128 173 211 251 324 379
#     4  11  21  39  66  96 124 161 210 271 322 361
#
# _framework density 19.551974000000001
#
# number of rings (size 3 to 8) (size 9 to 14) (size 15 to 20)
#    0.000    1.000    7.500    1.125    3.500    2.000 
#    0.000    0.625    0.000    1.500    0.000    0.000 
#    0.000    0.000    0.000    0.000    0.000    0.000 
#
# Total GULP energy -89206.991878 kJ/mol
# GULP energy per Si atom -5575.436992 kJ/mol
# Density = 1.950747 g / cm^3
# Si number density = 19.551974 Si / 1000 Ang^3
#
#
#
# Elastic Constant Matrix: (Units=GPa)
#
#
# Indices 1 2 3 4 5 6 
#
# 1 69.1961 25.0943 18.2711 -4.9719 -14.1218 0.2262
# 2 25.0943 102.5802 21.8553 -15.1072 -1.9139 -14.1746
# 3 18.2711 21.8553 67.8350 -29.9640 -2.0228 -7.7760
# 4 -4.9719 -15.1072 -29.9640 35.6914 -2.8320 4.9994
# 5 -14.1218 -1.9139 -2.0228 -2.8320 23.7574 -8.4239
# 6 0.2262 -14.1746 -7.7760 4.9994 -8.4239 35.1085
#
#
#
# Elastic Compliance Matrix: (Units=1/GPa)
#
#
# Indices 1 2 3 4 5 6 
#
# 1 0.018969 -0.003760 -0.004368 -0.001809 0.010440 0.000155
# 2 -0.003760 0.011942 -0.000904 0.003212 0.000566 0.004324
# 3 -0.004368 -0.000904 0.025651 0.020341 0.003069 0.003184
# 4 -0.001809 0.003212 0.020341 0.046627 0.006755 0.000795
# 5 0.010440 0.000566 0.003069 0.006755 0.053958 0.012826
# 6 0.000155 0.004324 0.003184 0.000795 0.012826 0.033897
#
#
# Mechanical properties :
#
#
# Convention : Reuss Voigt Hill
#
# Bulk Modulus (GPa) = 25.97520 41.11698 33.54609
# Shear Modulus (GPa) = 22.52871 30.53748 26.53310
#
# Velocity S-wave (km/s) = 3.39816 3.95633 3.68782
# Velocity P-wave (km/s) = 5.35824 6.47652 5.94373
#
# Compressibility (1/GPa) = 0.03849826
#
# Stress axis : x y z
#
# Youngs Moduli (GPa) = 52.71853 83.73928 38.98508
#
# Poissons Ratio (x) = 0.31486 0.17028
# Poissons Ratio (y) = 0.19822 0.03523
# Poissons Ratio (z) = 0.23027 0.07566
#
# Static dielectric constant tensor:
#      x y z
#    x 1.693530 -0.041230 0.015400 
#    y -0.041230 1.729060 -0.031060 
#    z 0.015400 -0.031060 1.756100 
# 
# From -- ./inp_files/99568.got.cif
#   From: 2010.05.17/outbox.cif.g08.bks.cpg/sg2_50_cif.got.tgz:99568.got - 2010.06.03 11:33:40.
