data_PCOD9006423
_publ_section_title
;
Structure prediction by ZEFSAII (Michael W. Deem and Ramdas Pophale) SiO2 
 PCOD9006423
Probable space group: P -1
;
_chemical_formula_sum "Si O2"
_cell_formula_units_Z 16
_cell_length_a 17.581446
_cell_length_b 4.939083
_cell_length_c 29.532904
_cell_angle_alpha 96.942236
_cell_angle_beta 163.123479
_cell_angle_gamma 76.172731
_cell_volume 667.948322
_symmetry_space_group_name_H-M "P -1"
_symmetry_group_IT_number 2
_symmetry_cell_setting 'triclinic'
loop_
_space_group_symop_operation_xyz
x,y,z
-x,-y,-z
loop_
_atom_site_type_symbol
_atom_site_label
_atom_site_fract_x
_atom_site_fract_y
_atom_site_fract_z
Si Si1 0.089538 0.395762 0.695668
Si Si2 0.259329 0.290942 0.042933
Si Si3 0.535515 0.457931 0.333744
Si Si4 0.379819 0.197838 0.698126
Si Si5 0.148016 0.699584 0.647852
Si Si6 0.247601 0.110989 0.937876
Si Si7 0.178271 0.616630 0.840438
Si Si8 0.855418 0.893582 0.873990
O O1 0.114980 0.633225 0.679477
O O2 0.008438 0.546556 0.701728
O O3 0.841831 0.316980 0.531388
O O4 0.408424 0.117787 0.872998
O O5 0.573480 0.248102 0.203009
O O6 0.142613 0.177275 0.931111
O O7 0.337775 0.070790 0.126002
O O8 0.073981 0.631687 0.960663
O O9 0.576139 0.581501 0.309478
O O10 0.346994 0.785166 0.257067
O O11 0.348741 0.265098 0.227319
O O12 0.227350 0.387350 0.659488
O O13 0.154108 0.089323 0.543899
O O14 0.201379 0.417379 0.893342
O O15 0.091521 0.951389 0.815421
O O16 0.500000 0.500000 0.000000
O O17 0.000000 0.000000 0.000000
#
# Coordination Sequence:
#
# PCOD9006423 Si02
#       8
#     2   2   2   2   2   2   2   2
#     4  10  21  44  71 103 142 173 222 284 340 412
#     4  12  25  41  71  90 142 178 231 279 336 402
#     4  11  28  45  70  99 132 187 234 276 335 394
#     4  10  23  40  63  99 134 177 217 285 334 409
#     4  10  21  39  61 102 135 175 219 269 352 407
#     4  11  23  40  67 105 135 174 218 273 354 409
#     4  10  21  38  66 103 140 171 213 274 347 415
#     4  12  30  49  68  93 134 188 241 279 324 393
#
# _framework density 23.953945999999998
#
# number of rings (size 3 to 8) (size 9 to 14) (size 15 to 20)
#    0.000    1.250    1.250    4.500    7.000    5.000 
#    0.000    0.000    0.000    4.500    0.000    0.000 
#    0.000    0.000    0.000    0.000    0.000    0.000 
#
# Total GULP energy -89520.722743 kJ/mol
# GULP energy per Si atom -5595.045171 kJ/mol
# Density = 2.389943 g / cm^3
# Si number density = 23.953946 Si / 1000 Ang^3
#
#
#
# Elastic Constant Matrix: (Units=GPa)
#
#
# Indices 1 2 3 4 5 6 
#
# 1 92.3073 28.0077 33.5317 20.0010 -0.2467 -5.2107
# 2 28.0077 121.1021 20.5199 23.6714 5.9506 -5.8705
# 3 33.5317 20.5199 58.5195 14.5889 -7.7095 -3.1486
# 4 20.0010 23.6714 14.5889 40.7607 -8.5390 -4.1702
# 5 -0.2467 5.9506 -7.7095 -8.5390 28.5817 6.9716
# 6 -5.2107 -5.8705 -3.1486 -4.1702 6.9716 52.1493
#
#
#
# Elastic Compliance Matrix: (Units=1/GPa)
#
#
# Indices 1 2 3 4 5 6 
#
# 1 0.014889 -0.001083 -0.007376 -0.004618 -0.003256 0.000986
# 2 -0.001083 0.010226 -0.002145 -0.005497 -0.004626 0.001092
# 3 -0.007376 -0.002145 0.023417 -0.002285 0.006156 -0.000570
# 4 -0.004618 -0.005497 -0.002285 0.032977 0.010331 0.000038
# 5 -0.003256 -0.004626 0.006156 0.010331 0.041951 -0.005256
# 6 0.000986 0.001092 -0.000570 0.000038 -0.005256 0.020069
#
#
# Mechanical properties :
#
#
# Convention : Reuss Voigt Hill
#
# Bulk Modulus (GPa) = 36.59966 48.44971 42.52469
# Shear Modulus (GPa) = 28.76091 36.95634 32.85863
#
# Velocity S-wave (km/s) = 3.46884 3.93212 3.70772
# Velocity P-wave (km/s) = 5.59965 6.39418 6.01006
#
# Compressibility (1/GPa) = 0.02732266
#
# Stress axis : x y z
#
# Youngs Moduli (GPa) = 67.16311 97.78825 42.70386
#
# Poissons Ratio (x) = 0.10592 0.31499
# Poissons Ratio (y) = 0.07275 0.09162
# Poissons Ratio (z) = 0.49541 0.20980
#
# Static dielectric constant tensor:
#      x y z
#    x 1.942670 -0.040610 0.058640 
#    y -0.040610 2.018300 0.003080 
#    z 0.058640 0.003080 1.994020 
# 
# From -- ./inp_files/620103.got.cif
#   From: 2010.05.17/outbox.cif.g08.bks.cpg/sg2_311_cif.got.tgz:620103.got - 2010.06.03 11:33:40.
