data_PCOD9006836
_publ_section_title
;
Structure prediction by ZEFSAII (Michael W. Deem and Ramdas Pophale) SiO2 
 PCOD9006836
Probable space group: P -1
;
_chemical_formula_sum "Si O2"
_cell_formula_units_Z 16
_cell_length_a 16.204098
_cell_length_b 7.396976
_cell_length_c 8.029704
_cell_angle_alpha 73.839182
_cell_angle_beta 119.636539
_cell_angle_gamma 132.662500
_cell_volume 612.727011
_symmetry_space_group_name_H-M "P -1"
_symmetry_group_IT_number 2
_symmetry_cell_setting 'triclinic'
loop_
_space_group_symop_operation_xyz
x,y,z
-x,-y,-z
loop_
_atom_site_type_symbol
_atom_site_label
_atom_site_fract_x
_atom_site_fract_y
_atom_site_fract_z
Si Si1 0.373144 0.903957 0.270774
Si Si2 0.879581 0.245548 0.016483
Si Si3 0.146169 0.170020 0.076783
Si Si4 0.775536 0.878413 0.509701
Si Si5 0.640530 0.357526 0.981268
Si Si6 0.283943 0.749795 0.587538
Si Si7 0.492997 0.527982 0.690686
Si Si8 0.005283 0.306067 0.462993
O O1 0.416240 0.815215 0.195489
O O2 0.354684 0.814818 0.465967
O O3 0.556196 0.807253 0.722946
O O4 0.234857 0.763690 0.097444
O O5 0.920415 0.219280 0.239077
O O6 0.837772 0.019891 0.921487
O O7 0.000000 0.500000 0.000000
O O8 0.221631 0.263673 0.298699
O O9 0.214090 0.399709 0.964690
O O10 0.000000 0.000000 0.000000
O O11 0.747681 0.065204 0.475878
O O12 0.919121 0.054198 0.546481
O O13 0.650958 0.661533 0.344485
O O14 0.565790 0.457540 0.880313
O O15 0.646096 0.236356 0.181882
O O16 0.149904 0.469396 0.520162
O O17 0.500000 0.500000 0.500000
O O18 0.000000 0.500000 0.500000
#
# Coordination Sequence:
#
# PCOD9006836 Si02
#       8
#     2   2   2   2   2   2   2   2
#     4  12  24  48  81 110 148 211 249 310 399 444
#     4  12  20  42  76 107 149 199 245 304 391 452
#     4  12  24  44  71 111 151 193 251 312 379 458
#     4  11  22  48  73 101 158 199 240 324 379 434
#     4  12  27  47  77 115 148 201 262 310 381 456
#     4  11  22  46  74 115 155 186 254 327 375 459
#     4  12  24  52  77 104 158 200 258 317 368 461
#     4  10  21  38  70 111 143 187 245 306 380 451
#
# _framework density 26.112770999999999
#
# number of rings (size 3 to 8) (size 9 to 14) (size 15 to 20)
#    0.000    0.500    6.250    3.750    0.000    1.000 
#    2.250    5.000    2.750    0.000    0.000    0.000 
#    0.000    0.000    0.000    0.000    0.000    0.000 
#
# Total GULP energy -89637.128573 kJ/mol
# GULP energy per Si atom -5602.320536 kJ/mol
# Density = 2.605334 g / cm^3
# Si number density = 26.112771 Si / 1000 Ang^3
#
#
#
# Elastic Constant Matrix: (Units=GPa)
#
#
# Indices 1 2 3 4 5 6 
#
# 1 75.0636 57.1426 28.6965 -5.1270 16.3908 10.8788
# 2 57.1426 173.5000 28.9421 6.9549 -2.1786 23.8214
# 3 28.6965 28.9421 149.5495 -15.7956 7.9439 10.2226
# 4 -5.1270 6.9549 -15.7956 47.8746 9.5010 4.1702
# 5 16.3908 -2.1786 7.9439 9.5010 34.1682 0.5820
# 6 10.8788 23.8214 10.2226 4.1702 0.5820 40.9623
#
#
#
# Elastic Compliance Matrix: (Units=1/GPa)
#
#
# Indices 1 2 3 4 5 6 
#
# 1 0.023034 -0.007468 -0.001574 0.005711 -0.012718 -0.001783
# 2 -0.007468 0.008914 -0.000710 -0.003125 0.005232 -0.002780
# 3 -0.001574 -0.000710 0.007627 0.002937 -0.001857 -0.001345
# 4 0.005711 -0.003125 0.002937 0.025275 -0.010601 -0.002855
# 5 -0.012718 0.005232 -0.001857 -0.010601 0.039058 0.001323
# 6 -0.001783 -0.002780 -0.001345 -0.002855 0.001323 0.027110
#
#
# Mechanical properties :
#
#
# Convention : Reuss Voigt Hill
#
# Bulk Modulus (GPa) = 49.82212 69.74172 59.78192
# Shear Modulus (GPa) = 31.80396 43.48982 37.64689
#
# Velocity S-wave (km/s) = 3.49370 4.08543 3.80110
# Velocity P-wave (km/s) = 5.94942 7.00145 6.49676
#
# Compressibility (1/GPa) = 0.02007141
#
# Stress axis : x y z
#
# Youngs Moduli (GPa) = 43.41411 112.17968 131.11297
#
# Poissons Ratio (x) = 0.83771 0.20638
# Poissons Ratio (y) = 0.32420 0.09312
# Poissons Ratio (z) = 0.06834 0.07968
#
# Static dielectric constant tensor:
#      x y z
#    x 1.056520 -1.439400 -0.644530 
#    y -1.439400 0.026910 -0.640880 
#    z -0.644530 -0.640880 1.812870 
# 
# From -- ./inp_files/328773.got.cif
#   From: 2010.05.17/outbox.cif.g08.bks.cpg/sg2_165_cif.got.tgz:328773.got - 2010.06.03 11:33:40.
