data_PCOD9006475
_publ_section_title
;
Structure prediction by ZEFSAII (Michael W. Deem and Ramdas Pophale) SiO2 
 PCOD9006475
Probable space group: P -1
;
_chemical_formula_sum "Si O2"
_cell_formula_units_Z 16
_cell_length_a 8.799814
_cell_length_b 19.190741
_cell_length_c 9.055018
_cell_angle_alpha 149.822683
_cell_angle_beta 89.375698
_cell_angle_gamma 93.805259
_cell_volume 763.683248
_symmetry_space_group_name_H-M "P -1"
_symmetry_group_IT_number 2
_symmetry_cell_setting 'triclinic'
loop_
_space_group_symop_operation_xyz
x,y,z
-x,-y,-z
loop_
_atom_site_type_symbol
_atom_site_label
_atom_site_fract_x
_atom_site_fract_y
_atom_site_fract_z
Si Si1 0.917435 0.137736 0.277014
Si Si2 0.596156 0.070161 0.993226
Si Si3 0.478330 0.657669 0.419147
Si Si4 0.129836 0.596855 0.362700
Si Si5 0.566159 0.434968 0.233269
Si Si6 0.026021 0.269604 0.798537
Si Si7 0.372461 0.210889 0.645533
Si Si8 0.122177 0.633771 0.763908
O O1 0.978378 0.292402 0.497000
O O2 0.911337 0.177063 0.521313
O O3 0.761045 0.106148 0.132228
O O4 0.000000 0.000000 0.000000
O O5 0.600837 0.951248 0.654526
O O6 0.523992 0.212537 0.229443
O O7 0.500000 0.000000 0.000000
O O8 0.297278 0.603470 0.294474
O O9 0.556402 0.540212 0.289000
O O10 0.561730 0.716491 0.376320
O O11 0.170958 0.655430 0.634396
O O12 0.050161 0.437813 0.073953
O O13 0.500000 0.500000 0.500000
O O14 0.735371 0.401224 0.205292
O O15 0.460228 0.296598 0.932335
O O16 0.192761 0.222520 0.683756
O O17 0.963654 0.256434 0.942157
O O18 0.000000 0.500000 0.500000
#
# Coordination Sequence:
#
# PCOD9006475 Si02
#       8
#     2   2   2   2   2   2   2   2
#     4  11  22  38  64  90 121 164 201 254 302 360
#     4   9  21  40  59  85 130 154 200 248 306 348
#     4  10  21  38  66  92 119 160 205 257 298 352
#     4  10  21  41  61  88 127 157 205 254 301 356
#     4  12  22  39  65  89 120 161 207 244 303 361
#     4  11  22  38  61  97 124 156 204 247 314 357
#     4  11  22  39  65  92 123 159 204 254 299 365
#     4  10  23  41  59  89 128 161 193 255 308 363
#
# _framework density 20.951093
#
# number of rings (size 3 to 8) (size 9 to 14) (size 15 to 20)
#    0.000    1.500    3.750    1.500    5.250    2.000 
#    0.000    1.250    0.000    0.000    0.000    0.000 
#    0.000    0.000    0.000    0.000    0.000    0.000 
#
# Total GULP energy -89186.503208 kJ/mol
# GULP energy per Si atom -5574.156451 kJ/mol
# Density = 2.090341 g / cm^3
# Si number density = 20.951093 Si / 1000 Ang^3
#
#
#
# Elastic Constant Matrix: (Units=GPa)
#
#
# Indices 1 2 3 4 5 6 
#
# 1 60.4303 18.2399 12.7469 -7.0595 -8.0945 3.2481
# 2 18.2399 22.8032 16.5972 -2.4752 -7.4828 -5.9877
# 3 12.7469 16.5972 163.9356 -11.6194 -2.6190 -8.8932
# 4 -7.0595 -2.4752 -11.6194 29.9237 -2.2302 -4.5268
# 5 -8.0945 -7.4828 -2.6190 -2.2302 35.9584 -4.3771
# 6 3.2481 -5.9877 -8.8932 -4.5268 -4.3771 28.2836
#
#
#
# Elastic Compliance Matrix: (Units=1/GPa)
#
#
# Indices 1 2 3 4 5 6 
#
# 1 0.023272 -0.019821 0.000075 0.002969 0.000538 -0.006287
# 2 -0.019821 0.072339 -0.004319 0.003420 0.012772 0.018757
# 3 0.000075 -0.004319 0.006799 0.002543 -0.000032 0.001617
# 4 0.002969 0.003420 0.002543 0.036933 0.004810 0.007838
# 5 0.000538 0.012772 -0.000032 0.004810 0.031900 0.008339
# 6 -0.006287 0.018757 0.001617 0.007838 0.008339 0.043102
#
#
# Mechanical properties :
#
#
# Convention : Reuss Voigt Hill
#
# Bulk Modulus (GPa) = 18.42290 38.03746 28.23018
# Shear Modulus (GPa) = 17.82104 32.13880 24.97992
#
# Velocity S-wave (km/s) = 2.91967 3.92087 3.45671
# Velocity P-wave (km/s) = 4.49203 6.22032 5.42544
#
# Compressibility (1/GPa) = 0.05428028
#
# Stress axis : x y z
#
# Youngs Moduli (GPa) = 42.97077 13.82382 147.08588
#
# Poissons Ratio (x) = 0.27400 -0.01107
# Poissons Ratio (y) = 0.85173 0.63520
# Poissons Ratio (z) = -0.00323 0.05970
#
# Static dielectric constant tensor:
#      x y z
#    x 1.743720 0.015860 -0.013510 
#    y 0.015860 1.789490 0.014020 
#    z -0.013510 0.014020 1.806980 
# 
# From -- ./inp_files/221561.got.cif
#   From: 2010.05.17/outbox.cif.g08.bks.cpg/sg2_111_cif.got.tgz:221561.got - 2010.06.03 11:33:40.
