data_PCOD9006402
_publ_section_title
;
Structure prediction by ZEFSAII (Michael W. Deem and Ramdas Pophale) SiO2 
 PCOD9006402
Probable space group: P -1
;
_chemical_formula_sum "Si O2"
_cell_formula_units_Z 16
_cell_length_a 24.586618
_cell_length_b 9.229643
_cell_length_c 9.355840
_cell_angle_alpha 102.741957
_cell_angle_beta 139.359350
_cell_angle_gamma 42.978151
_cell_volume 619.682893
_symmetry_space_group_name_H-M "P -1"
_symmetry_group_IT_number 2
_symmetry_cell_setting 'triclinic'
loop_
_space_group_symop_operation_xyz
x,y,z
-x,-y,-z
loop_
_atom_site_type_symbol
_atom_site_label
_atom_site_fract_x
_atom_site_fract_y
_atom_site_fract_z
Si Si1 0.186621 0.623443 0.832540
Si Si2 0.881532 0.993276 0.792706
Si Si3 0.217971 0.397268 0.125485
Si Si4 0.387488 0.304577 0.660768
Si Si5 0.421902 0.754069 0.800660
Si Si6 0.083522 0.304584 0.770035
Si Si7 0.844001 0.491288 0.531567
Si Si8 0.622534 0.402514 0.825702
O O1 0.241233 0.465145 0.758115
O O2 0.177571 0.517700 0.913395
O O3 0.326188 0.528155 0.135097
O O4 0.000000 0.000000 0.500000
O O5 0.754493 0.333442 0.572238
O O6 0.771533 0.011139 0.577555
O O7 0.040527 0.724916 0.935238
O O8 0.977302 0.860915 0.108694
O O9 0.390369 0.212104 0.496127
O O10 0.214149 0.225169 0.079222
O O11 0.301609 0.310620 0.590265
O O12 0.549236 0.140052 0.026799
O O13 0.537291 0.575378 0.846520
O O14 0.500000 0.500000 0.000000
O O15 0.000000 0.500000 0.500000
O O16 0.935595 0.487825 0.633344
O O17 0.197841 0.980584 0.881812
O O18 0.500000 0.500000 0.500000
#
# Coordination Sequence:
#
# PCOD9006402 Si02
#       8
#     2   2   2   2   2   2   2   2
#     4  12  21  38  71  99 132 179 238 287 330 413
#     4  10  22  39  69 102 136 175 238 292 338 406
#     4  11  24  41  67 103 136 178 230 291 350 401
#     4  10  21  38  65  99 136 177 239 281 340 416
#     4  10  23  38  65  99 135 176 224 286 344 399
#     4  12  26  42  70 106 148 179 228 293 360 410
#     4  11  20  38  65  94 131 178 227 286 336 400
#     4  12  27  45  73 104 140 183 238 286 351 417
#
# _framework density 25.819655999999998
#
# number of rings (size 3 to 8) (size 9 to 14) (size 15 to 20)
#    0.000    1.000    3.750    3.750    8.750    2.000 
#    0.000    0.625    2.750    2.250    0.000    0.000 
#    0.000    0.000    0.000    0.000    0.000    0.000 
#
# Total GULP energy -89506.039731 kJ/mol
# GULP energy per Si atom -5594.127483 kJ/mol
# Density = 2.576089 g / cm^3
# Si number density = 25.819656 Si / 1000 Ang^3
#
#
#
# Elastic Constant Matrix: (Units=GPa)
#
#
# Indices 1 2 3 4 5 6 
#
# 1 133.0559 11.6074 40.6523 -4.0610 -6.9310 15.2376
# 2 11.6074 80.7521 26.0134 9.8814 7.1076 9.3019
# 3 40.6523 26.0134 139.5230 31.5624 13.6111 13.7368
# 4 -4.0610 9.8814 31.5624 45.3832 10.8093 4.5416
# 5 -6.9310 7.1076 13.6111 10.8093 50.7832 12.7512
# 6 15.2376 9.3019 13.7368 4.5416 12.7512 43.4059
#
#
#
# Elastic Compliance Matrix: (Units=1/GPa)
#
#
# Indices 1 2 3 4 5 6 
#
# 1 0.009069 -0.000498 -0.003116 0.002845 0.002307 -0.003066
# 2 -0.000498 0.013475 -0.001812 -0.001366 -0.000730 -0.001782
# 3 -0.003116 -0.001812 0.010079 -0.006514 -0.001327 -0.000636
# 4 0.002845 -0.001366 -0.006514 0.028005 -0.003498 -0.000547
# 5 0.002307 -0.000730 -0.001327 -0.003498 0.022862 -0.006584
# 6 -0.003066 -0.001782 -0.000636 -0.000547 -0.006584 0.026689
#
#
# Mechanical properties :
#
#
# Convention : Reuss Voigt Hill
#
# Bulk Modulus (GPa) = 45.93021 56.65303 51.29162
# Shear Modulus (GPa) = 38.97470 46.25166 42.61318
#
# Velocity S-wave (km/s) = 3.88944 4.23701 4.06694
# Velocity P-wave (km/s) = 6.16424 6.77686 6.47779
#
# Compressibility (1/GPa) = 0.02177216
#
# Stress axis : x y z
#
# Youngs Moduli (GPa) = 110.26155 74.20891 99.21900
#
# Poissons Ratio (x) = 0.03693 0.30920
# Poissons Ratio (y) = 0.05488 0.17975
# Poissons Ratio (z) = 0.34362 0.13444
#
# Static dielectric constant tensor:
#      x y z
#    x 1.928920 0.014530 0.009560 
#    y 0.014530 2.080550 -0.053470 
#    z 0.009560 -0.053470 2.120720 
# 
# From -- ./inp_files/352282.got.cif
#   From: 2010.05.17/outbox.cif.g08.bks.cpg/sg2_177_cif.got.tgz:352282.got - 2010.06.03 11:33:40.
