data_PCOD9006219
_publ_section_title
;
Structure prediction by ZEFSAII (Michael W. Deem and Ramdas Pophale) SiO2 
 PCOD9006219
Probable space group: P -1
;
_chemical_formula_sum "Si O2"
_cell_formula_units_Z 12
_cell_length_a 10.212274
_cell_length_b 12.194645
_cell_length_c 16.225394
_cell_angle_alpha 25.430239
_cell_angle_beta 47.468948
_cell_angle_gamma 33.621055
_cell_volume 455.198295
_symmetry_space_group_name_H-M "P -1"
_symmetry_group_IT_number 2
_symmetry_cell_setting 'triclinic'
loop_
_space_group_symop_operation_xyz
x,y,z
-x,-y,-z
loop_
_atom_site_type_symbol
_atom_site_label
_atom_site_fract_x
_atom_site_fract_y
_atom_site_fract_z
Si Si1 0.248944 0.891484 0.997467
Si Si2 0.245047 0.077665 0.696063
Si Si3 0.417072 0.835055 0.557400
Si Si4 0.037585 0.674021 0.673296
Si Si5 0.451485 0.636931 0.335934
Si Si6 0.976290 0.240263 0.043760
O O1 0.464595 0.480688 0.213496
O O2 0.145357 0.116186 0.973148
O O3 0.315262 0.990064 0.822524
O O4 0.000000 0.000000 0.000000
O O5 0.000000 0.500000 0.500000
O O6 0.457678 0.012693 0.600059
O O7 0.183190 0.850270 0.847680
O O8 0.507141 0.615523 0.581747
O O9 0.118216 0.166238 0.455379
O O10 0.337172 0.361652 0.767216
O O11 0.884743 0.622611 0.828720
O O12 0.000000 0.000000 0.500000
O O13 0.500000 0.500000 0.500000
O O14 0.165286 0.003174 0.197932
#
# Coordination Sequence:
#
# PCOD9006219 Si02
#       6
#     2   2   2   2   2   2
#     4   9  18  35  63  90 119 162 202 243 304 365
#     4  11  19  37  67  96 120 154 211 254 302 371
#     4  10  21  41  61  93 130 156 195 267 309 353
#     4  10  23  42  57  86 132 161 200 257 308 354
#     4  10  21  40  65  89 114 168 216 246 291 371
#     4  10  21  38  65  90 118 166 207 250 305 368
#
# _framework density 26.362134999999999
#
# number of rings (size 3 to 8) (size 9 to 14) (size 15 to 20)
#    0.000    2.000    5.000    0.500    2.333    0.667 
#    3.000    5.000    0.000    0.000    0.000    0.000 
#    0.000    0.000    0.000    0.000    0.000    0.000 
#
# Total GULP energy -67027.071712 kJ/mol
# GULP energy per Si atom -5585.589309 kJ/mol
# Density = 2.630213 g / cm^3
# Si number density = 26.362135 Si / 1000 Ang^3
#
#
#
# Elastic Constant Matrix: (Units=GPa)
#
#
# Indices 1 2 3 4 5 6 
#
# 1 141.5109 18.2405 52.2791 12.8292 -11.9020 -16.5425
# 2 18.2405 68.2193 27.8970 26.0705 3.4747 6.8844
# 3 52.2791 27.8970 172.3756 27.8328 22.9991 4.0433
# 4 12.8292 26.0705 27.8328 35.9427 -0.3228 5.1746
# 5 -11.9020 3.4747 22.9991 -0.3228 71.3480 5.3225
# 6 -16.5425 6.8844 4.0433 5.1746 5.3225 39.1908
#
#
#
# Elastic Compliance Matrix: (Units=1/GPa)
#
#
# Indices 1 2 3 4 5 6 
#
# 1 0.009012 -0.001624 -0.002783 -0.000461 0.002168 0.004143
# 2 -0.001624 0.020871 -0.000451 -0.013882 -0.001031 -0.002332
# 3 -0.002783 -0.000451 0.007888 -0.004686 -0.002940 -0.000891
# 4 -0.000461 -0.013882 -0.004686 0.042166 0.002538 -0.003185
# 5 0.002168 -0.001031 -0.002940 0.002538 0.015464 -0.001036
# 6 0.004143 -0.002332 -0.000891 -0.003185 -0.001036 0.028328
#
#
# Mechanical properties :
#
#
# Convention : Reuss Voigt Hill
#
# Bulk Modulus (GPa) = 35.64451 64.32655 49.98553
# Shear Modulus (GPa) = 35.01500 48.20891 41.61195
#
# Velocity S-wave (km/s) = 3.64844 4.28099 3.97731
# Velocity P-wave (km/s) = 5.59452 6.99213 6.33200
#
# Compressibility (1/GPa) = 0.02805481
#
# Stress axis : x y z
#
# Youngs Moduli (GPa) = 110.95851 47.91439 126.77612
#
# Poissons Ratio (x) = 0.07782 0.35276
# Poissons Ratio (y) = 0.18022 0.05721
# Poissons Ratio (z) = 0.30874 0.02162
#
# Static dielectric constant tensor:
#      x y z
#    x 2.189200 -0.067810 -0.106120 
#    y -0.067810 2.623880 -0.233900 
#    z -0.106120 -0.233900 2.482430 
# 
# From -- ./inp_files/516530.got.cif
#   From: 2010.05.17/outbox.cif.g08.bks.cpg/sg2_259_cif.got.tgz:516530.got - 2010.06.03 11:33:40.
