data_PCOD9006537
_publ_section_title
;
Structure prediction by ZEFSAII (Michael W. Deem and Ramdas Pophale) SiO2 
 PCOD9006537
Probable space group: P -1
;
_chemical_formula_sum "Si O2"
_cell_formula_units_Z 14
_cell_length_a 31.978780
_cell_length_b 31.011440
_cell_length_c 12.900053
_cell_angle_alpha 162.585657
_cell_angle_beta 18.119592
_cell_angle_gamma 170.960091
_cell_volume 592.594044
_symmetry_space_group_name_H-M "P -1"
_symmetry_group_IT_number 2
_symmetry_cell_setting 'triclinic'
loop_
_space_group_symop_operation_xyz
x,y,z
-x,-y,-z
loop_
_atom_site_type_symbol
_atom_site_label
_atom_site_fract_x
_atom_site_fract_y
_atom_site_fract_z
Si Si1 0.788146 0.108314 0.639048
Si Si2 0.338994 0.669735 0.531859
Si Si3 0.699530 0.328240 0.609097
Si Si4 0.750301 0.626476 0.504116
Si Si5 0.255436 0.325509 0.606217
Si Si6 0.791457 0.894612 0.319093
Si Si7 0.819042 0.353307 0.693610
O O1 0.092365 0.367285 0.478851
O O2 0.604387 0.884101 0.463239
O O3 0.734826 0.982775 0.585307
O O4 0.722443 0.215812 0.053353
O O5 0.349754 0.653566 0.347361
O O6 0.973001 0.487941 0.338212
O O7 0.437944 0.992613 0.489585
O O8 0.760803 0.519338 0.977520
O O9 0.721353 0.671900 0.565114
O O10 0.498959 0.441798 0.743012
O O11 0.722574 0.427819 0.099885
O O12 0.040434 0.920586 0.548052
O O13 0.500000 0.500000 0.500000
O O14 0.000000 0.000000 0.500000
O O15 0.000000 0.000000 0.000000
O O16 0.000000 0.500000 0.500000
#
# Coordination Sequence:
#
# PCOD9006537 Si02
#       7
#     2   2   2   2   2   2   2
#     4  10  21  40  63  96 135 172 230 285 346 398
#     4  10  21  38  66  96 134 176 219 287 349 409
#     4  12  25  43  70 107 142 184 234 284 360 427
#     4  12  26  47  74 102 142 185 234 304 358 403
#     4  12  28  47  69 100 147 191 234 282 347 438
#     4  12  27  46  71  99 139 189 245 288 346 422
#     4  12  24  42  75 106 145 176 234 297 356 420
#
# _framework density 23.624941
#
# number of rings (size 3 to 8) (size 9 to 14) (size 15 to 20)
#    0.000    0.571    1.429    6.857    2.000    5.714 
#    0.000    0.000    0.000    0.000    0.000    0.000 
#    0.000    0.000    0.000    0.000    0.000    0.000 
#
# Total GULP energy -78458.777337 kJ/mol
# GULP energy per Si atom -5604.198381 kJ/mol
# Density = 2.357117 g / cm^3
# Si number density = 23.624941 Si / 1000 Ang^3
#
#
#
# Elastic Constant Matrix: (Units=GPa)
#
#
# Indices 1 2 3 4 5 6 
#
# 1 149.2428 26.9936 -1.7704 3.0578 -4.2152 14.2918
# 2 26.9936 119.0050 2.5560 8.3235 -14.7260 3.8785
# 3 -1.7704 2.5560 56.4786 -1.9705 -3.3259 -3.2154
# 4 3.0578 8.3235 -1.9705 28.2841 3.0737 1.9441
# 5 -4.2152 -14.7260 -3.3259 3.0737 37.1183 -1.9271
# 6 14.2918 3.8785 -3.2154 1.9441 -1.9271 45.0353
#
#
#
# Elastic Compliance Matrix: (Units=1/GPa)
#
#
# Indices 1 2 3 4 5 6 
#
# 1 0.007191 -0.001537 0.000175 -0.000181 0.000127 -0.002124
# 2 -0.001537 0.009443 -0.000362 -0.003046 0.003789 -0.000058
# 3 0.000175 -0.000362 0.017924 0.001091 0.001458 0.001271
# 4 -0.000181 -0.003046 0.001091 0.036905 -0.004259 -0.001378
# 5 0.000127 0.003789 0.001458 -0.004259 0.029002 0.001162
# 6 -0.002124 -0.000058 0.001271 -0.001378 0.001162 0.023084
#
#
# Mechanical properties :
#
#
# Convention : Reuss Voigt Hill
#
# Bulk Modulus (GPa) = 32.14373 42.25387 37.19880
# Shear Modulus (GPa) = 36.39874 41.88403 39.14139
#
# Velocity S-wave (km/s) = 3.92942 4.21512 4.07477
# Velocity P-wave (km/s) = 5.85000 6.45087 6.15777
#
# Compressibility (1/GPa) = 0.03111027
#
# Stress axis : x y z
#
# Youngs Moduli (GPa) = 139.05650 105.89610 55.79129
#
# Poissons Ratio (x) = 0.16280 -0.00978
# Poissons Ratio (y) = 0.21378 0.02020
# Poissons Ratio (z) = -0.02437 0.03833
#
# Static dielectric constant tensor:
#      x y z
#    x 1.880760 0.007800 -0.013730 
#    y 0.007800 1.832980 -0.010190 
#    z -0.013730 -0.010190 1.969140 
# 
# From -- ./inp_files/477844.got.cif
#   From: 2010.05.17/outbox.cif.g08.bks.cpg/sg2_239_cif.got.tgz:477844.got - 2010.06.03 11:33:40.
