data_PCOD9006893
_publ_section_title
;
Structure prediction by ZEFSAII (Michael W. Deem and Ramdas Pophale) SiO2 
 PCOD9006893
Probable space group: P -1
;
_chemical_formula_sum "Si O2"
_cell_formula_units_Z 14
_cell_length_a 5.491024
_cell_length_b 9.650663
_cell_length_c 17.765589
_cell_angle_alpha 142.406838
_cell_angle_beta 110.484236
_cell_angle_gamma 69.936096
_cell_volume 534.431301
_symmetry_space_group_name_H-M "P -1"
_symmetry_group_IT_number 2
_symmetry_cell_setting 'triclinic'
loop_
_space_group_symop_operation_xyz
x,y,z
-x,-y,-z
loop_
_atom_site_type_symbol
_atom_site_label
_atom_site_fract_x
_atom_site_fract_y
_atom_site_fract_z
Si Si1 0.519142 0.014271 0.693980
Si Si2 0.217260 0.830102 0.682919
Si Si3 0.899197 0.333212 0.856579
Si Si4 0.386019 0.225128 0.539917
Si Si5 0.828845 0.306848 0.535123
Si Si6 0.830767 0.186966 0.159024
Si Si7 0.787519 0.697450 0.880871
O O1 0.512665 0.893560 0.722062
O O2 0.609551 0.260974 0.811706
O O3 0.704727 0.864891 0.590059
O O4 0.389949 0.621153 0.395270
O O5 0.205309 0.636701 0.532999
O O6 0.080621 0.093628 0.776705
O O7 0.148593 0.757058 0.726484
O O8 0.886547 0.460798 0.830750
O O9 0.000000 0.500000 0.000000
O O10 0.753066 0.042303 0.399920
O O11 0.123922 0.318789 0.594123
O O12 0.500000 0.000000 0.500000
O O13 0.529351 0.276241 0.144031
O O14 0.050083 0.267531 0.162386
O O15 0.851758 0.911737 0.032076
#
# Coordination Sequence:
#
# PCOD9006893 Si02
#       7
#     2   2   2   2   2   2   2
#     4   8  20  30  50  75 108 129 179 218 250 314
#     4   9  19  34  53  70 104 139 176 213 263 300
#     4  12  21  34  52  77 102 149 181 218 257 310
#     4   9  15  28  48  73 108 135 152 203 274 314
#     4   8  17  29  46  75  98 132 162 214 244 317
#     4  10  21  39  48  70  99 137 175 229 259 300
#     4  10  24  34  51  70 101 130 185 223 263 297
#
# _framework density 26.196069000000001
#
# number of rings (size 3 to 8) (size 9 to 14) (size 15 to 20)
#    1.714    0.571    2.857    0.429    4.000    1.714 
#    0.000    0.000    0.000    0.000    0.000    0.000 
#    0.000   16.000    0.000    0.000    0.000    0.000 
#
# Total GULP energy -77947.512679 kJ/mol
# GULP energy per Si atom -5567.679477 kJ/mol
# Density = 2.613645 g / cm^3
# Si number density = 26.196069 Si / 1000 Ang^3
#
#
#
# Elastic Constant Matrix: (Units=GPa)
#
#
# Indices 1 2 3 4 5 6 
#
# 1 160.2517 42.3797 39.4943 6.5688 -1.5854 29.9699
# 2 42.3797 136.7042 30.2502 2.9278 -0.7947 20.5172
# 3 39.4943 30.2502 77.1312 12.1645 -4.8731 7.9955
# 4 6.5688 2.9278 12.1645 33.5313 16.5735 -11.5017
# 5 -1.5854 -0.7947 -4.8731 16.5735 42.6172 8.2028
# 6 29.9699 20.5172 7.9955 -11.5017 8.2028 42.9343
#
#
#
# Elastic Compliance Matrix: (Units=1/GPa)
#
#
# Indices 1 2 3 4 5 6 
#
# 1 0.008612 -0.000980 -0.002349 -0.004740 0.003222 -0.006991
# 2 -0.000980 0.008710 -0.002176 -0.001694 0.001261 -0.003767
# 3 -0.002349 -0.002176 0.017712 -0.010979 0.007114 -0.004919
# 4 -0.004740 -0.001694 -0.010979 0.059093 -0.029772 0.027681
# 5 0.003222 0.001261 0.007114 -0.029772 0.039802 -0.019757
# 6 -0.006991 -0.003767 -0.004919 0.027681 -0.019757 0.042078
#
#
# Mechanical properties :
#
#
# Convention : Reuss Voigt Hill
#
# Bulk Modulus (GPa) = 41.62939 66.48170 54.05554
# Shear Modulus (GPa) = 25.63753 41.28075 33.45914
#
# Velocity S-wave (km/s) = 3.13178 3.97399 3.57775
# Velocity P-wave (km/s) = 5.38547 6.81839 6.14385
#
# Compressibility (1/GPa) = 0.02402149
#
# Stress axis : x y z
#
# Youngs Moduli (GPa) = 116.11572 114.81530 56.45824
#
# Poissons Ratio (x) = 0.11257 0.13264
# Poissons Ratio (y) = 0.11385 0.12287
# Poissons Ratio (z) = 0.27280 0.24988
#
# Static dielectric constant tensor:
#      x y z
#    x 2.370270 0.021340 0.006360 
#    y 0.021340 2.166370 -0.096030 
#    z 0.006360 -0.096030 2.124750 
# 
# From -- ./inp_files/44693.got.cif
#   From: 2010.05.17/outbox.cif.g08.bks.cpg/sg2_23_cif.got.tgz:44693.got - 2010.06.03 11:33:40.
