data_PCOD9006086
_publ_section_title
;
Structure prediction by ZEFSAII (Michael W. Deem and Ramdas Pophale) SiO2 
 PCOD9006086
Probable space group: P -1
;
_chemical_formula_sum "Si O2"
_cell_formula_units_Z 16
_cell_length_a 10.822090
_cell_length_b 10.336845
_cell_length_c 10.226527
_cell_angle_alpha 111.740459
_cell_angle_beta 61.831881
_cell_angle_gamma 140.959039
_cell_volume 635.224549
_symmetry_space_group_name_H-M "P -1"
_symmetry_group_IT_number 2
_symmetry_cell_setting 'triclinic'
loop_
_space_group_symop_operation_xyz
x,y,z
-x,-y,-z
loop_
_atom_site_type_symbol
_atom_site_label
_atom_site_fract_x
_atom_site_fract_y
_atom_site_fract_z
Si Si1 0.891335 0.555402 0.463286
Si Si2 0.846694 0.767764 0.036911
Si Si3 0.998867 0.404278 0.174192
Si Si4 0.777726 0.000029 0.551822
Si Si5 0.608481 0.415260 0.330537
Si Si6 0.406155 0.469277 0.256323
Si Si7 0.074851 0.001472 0.255953
Si Si8 0.301876 0.768658 0.967823
O O1 0.913406 0.413694 0.351119
O O2 0.808039 0.575857 0.381515
O O3 0.730366 0.494615 0.628402
O O4 0.120737 0.782041 0.458443
O O5 0.608972 0.636595 0.129480
O O6 0.946328 0.817133 0.149929
O O7 0.879685 0.651244 0.895787
O O8 0.000000 0.000000 0.000000
O O9 0.813329 0.245545 0.103544
O O10 0.147910 0.624967 0.110508
O O11 0.912062 0.984573 0.401430
O O12 0.540050 0.788148 0.578716
O O13 0.812485 0.002236 0.689689
O O14 0.495520 0.468020 0.348250
O O15 0.649239 0.348620 0.158822
O O16 0.250656 0.233743 0.196942
O O17 0.500000 0.000000 0.000000
#
# Coordination Sequence:
#
# PCOD9006086 Si02
#       8
#     2   2   2   2   2   2   2   2
#     4  10  19  33  54  82 117 143 184 240 292 349
#     4  12  25  41  59  79 118 163 203 243 274 334
#     4  10  23  36  53  86 117 152 193 233 295 351
#     4   9  17  31  56  87 116 146 176 240 291 349
#     4  10  17  28  51  85 113 147 178 220 295 357
#     4  10  20  36  57  80 109 150 198 242 278 340
#     4   9  20  34  55  85 116 146 194 235 290 338
#     4  10  20  33  54  83 122 152 173 234 303 357
#
# _framework density 25.187944000000002
#
# number of rings (size 3 to 8) (size 9 to 14) (size 15 to 20)
#    0.000    2.000    1.250    3.375    7.000    0.500 
#    0.000    0.625    0.000    3.000    0.000    0.000 
#    0.000    0.000    0.000    0.000    0.000    0.000 
#
# Total GULP energy -89498.336570 kJ/mol
# GULP energy per Si atom -5593.646036 kJ/mol
# Density = 2.513062 g / cm^3
# Si number density = 25.187944 Si / 1000 Ang^3
#
#
#
# Elastic Constant Matrix: (Units=GPa)
#
#
# Indices 1 2 3 4 5 6 
#
# 1 46.3410 30.0956 43.7940 -4.7826 -9.7919 -6.7218
# 2 30.0956 150.1213 64.7908 -12.8214 -9.9972 26.7245
# 3 43.7940 64.7908 142.5245 -0.2268 -36.9059 -8.9916
# 4 -4.7826 -12.8214 -0.2268 48.7623 5.0543 -4.5958
# 5 -9.7919 -9.9972 -36.9059 5.0543 45.5123 2.3006
# 6 -6.7218 26.7245 -8.9916 -4.5958 2.3006 33.5173
#
#
#
# Elastic Compliance Matrix: (Units=1/GPa)
#
#
# Indices 1 2 3 4 5 6 
#
# 1 0.033397 -0.004711 -0.007805 0.002931 -0.000950 0.008827
# 2 -0.004711 0.011936 -0.005297 0.001809 -0.002308 -0.011476
# 3 -0.007805 -0.005297 0.014472 -0.002485 0.008886 0.005590
# 4 0.002931 0.001809 -0.002485 0.021782 -0.003492 0.001705
# 5 -0.000950 -0.002308 0.008886 -0.003492 0.028775 0.001580
# 6 0.008827 -0.011476 0.005590 0.001705 0.001580 0.042381
#
#
# Mechanical properties :
#
#
# Convention : Reuss Voigt Hill
#
# Bulk Modulus (GPa) = 41.35860 68.48303 54.92082
# Shear Modulus (GPa) = 25.45473 38.91215 32.18344
#
# Velocity S-wave (km/s) = 3.18243 3.93475 3.57842
# Velocity P-wave (km/s) = 5.47352 6.92032 6.23900
#
# Compressibility (1/GPa) = 0.02417877
#
# Stress axis : x y z
#
# Youngs Moduli (GPa) = 29.94319 83.78242 69.09764
#
# Poissons Ratio (x) = 0.39471 0.53929
# Poissons Ratio (y) = 0.14107 0.36601
# Poissons Ratio (z) = 0.23370 0.44380
#
# Static dielectric constant tensor:
#      x y z
#    x 2.007260 -0.005580 0.036550 
#    y -0.005580 1.969360 -0.014420 
#    z 0.036550 -0.014420 2.058790 
# 
# From -- ./inp_files/424951.got.cif
#   From: 2010.05.17/outbox.cif.g08.bks.cpg/sg2_213_cif.got.tgz:424951.got - 2010.06.03 11:33:40.
