data_PCOD9006322
_publ_section_title
;
Structure prediction by ZEFSAII (Michael W. Deem and Ramdas Pophale) SiO2 
 PCOD9006322
Probable space group: P -1
;
_chemical_formula_sum "Si O2"
_cell_formula_units_Z 14
_cell_length_a 15.971161
_cell_length_b 7.974913
_cell_length_c 18.774375
_cell_angle_alpha 137.161072
_cell_angle_beta 22.157208
_cell_angle_gamma 138.705243
_cell_volume 588.402280
_symmetry_space_group_name_H-M "P -1"
_symmetry_group_IT_number 2
_symmetry_cell_setting 'triclinic'
loop_
_space_group_symop_operation_xyz
x,y,z
-x,-y,-z
loop_
_atom_site_type_symbol
_atom_site_label
_atom_site_fract_x
_atom_site_fract_y
_atom_site_fract_z
Si Si1 0.672523 0.409396 0.183098
Si Si2 0.431053 0.243631 0.800076
Si Si3 0.664277 0.261977 0.920779
Si Si4 0.135717 0.692096 0.848418
Si Si5 0.841534 0.710287 0.417107
Si Si6 0.645273 0.849496 0.002809
Si Si7 0.084459 0.755316 0.560793
O O1 0.726747 0.384168 0.216383
O O2 0.403998 0.389415 0.380971
O O3 0.874069 0.645614 0.068359
O O4 0.709361 0.156555 0.038220
O O5 0.690450 0.261048 0.578414
O O6 0.254639 0.988505 0.829468
O O7 0.360113 0.506090 0.937251
O O8 0.434679 0.195243 0.867490
O O9 0.927382 0.254227 0.707631
O O10 0.553400 0.280582 0.936937
O O11 0.500000 0.000000 0.000000
O O12 0.151293 0.503012 0.713804
O O13 0.857387 0.984269 0.451958
O O14 0.875909 0.771705 0.780623
O O15 0.000000 0.500000 0.500000
#
# Coordination Sequence:
#
# PCOD9006322 Si02
#       7
#     2   2   2   2   2   2   2
#     4  10  21  38  65  95 122 169 215 263 313 372
#     4  11  25  42  68  97 125 174 213 266 314 377
#     4  12  24  42  65  95 137 167 207 267 331 375
#     4  10  21  39  65  90 129 164 220 258 311 380
#     4  12  23  40  63  96 128 172 205 265 324 375
#     4  11  22  42  66  93 131 166 218 261 312 384
#     4  12  22  39  67  97 125 166 221 257 313 382
#
# _framework density 23.793246
#
# number of rings (size 3 to 8) (size 9 to 14) (size 15 to 20)
#    0.000    0.857    7.143    0.857    0.000    1.143 
#    0.000    3.571    0.000    0.000    0.000    0.000 
#    0.000    0.000    0.000    0.000    0.000    0.000 
#
# Total GULP energy -78437.792416 kJ/mol
# GULP energy per Si atom -5602.699458 kJ/mol
# Density = 2.373909 g / cm^3
# Si number density = 23.793246 Si / 1000 Ang^3
#
#
#
# Elastic Constant Matrix: (Units=GPa)
#
#
# Indices 1 2 3 4 5 6 
#
# 1 61.5322 17.3819 22.6395 0.8615 -12.2484 4.4814
# 2 17.3819 157.1905 44.3230 1.9308 -11.0982 14.4122
# 3 22.6395 44.3230 185.5051 -22.4750 -29.0674 7.5893
# 4 0.8615 1.9308 -22.4750 40.7954 15.7781 -5.0326
# 5 -12.2484 -11.0982 -29.0674 15.7781 37.3720 4.5053
# 6 4.4814 14.4122 7.5893 -5.0326 4.5053 34.1134
#
#
#
# Elastic Compliance Matrix: (Units=1/GPa)
#
#
# Indices 1 2 3 4 5 6 
#
# 1 0.018684 -0.000829 -0.001359 -0.004229 0.007010 -0.003352
# 2 -0.000829 0.007354 -0.001469 -0.002391 0.002179 -0.003312
# 3 -0.001359 -0.001469 0.006775 0.002384 0.003480 -0.000816
# 4 -0.004229 -0.002391 0.002384 0.032817 -0.015045 0.007864
# 5 0.007010 0.002179 0.003480 -0.015045 0.039980 -0.010115
# 6 -0.003352 -0.003312 -0.000816 0.007864 -0.010115 0.033831
#
#
# Mechanical properties :
#
#
# Convention : Reuss Voigt Hill
#
# Bulk Modulus (GPa) = 39.21493 63.65742 51.43617
# Shear Modulus (GPa) = 32.20496 43.78171 37.99334
#
# Velocity S-wave (km/s) = 3.68303 4.29428 4.00035
# Velocity P-wave (km/s) = 5.88248 7.16940 6.55759
#
# Compressibility (1/GPa) = 0.02550049
#
# Stress axis : x y z
#
# Youngs Moduli (GPa) = 53.52033 135.97379 147.60155
#
# Poissons Ratio (x) = 0.11268 0.20061
# Poissons Ratio (y) = 0.04435 0.21681
# Poissons Ratio (z) = 0.07274 0.19973
#
# Static dielectric constant tensor:
#      x y z
#    x 1.947740 -0.032320 -0.041450 
#    y -0.032320 1.933520 -0.023110 
#    z -0.041450 -0.023110 1.883530 
# 
# From -- ./inp_files/375960.got.cif
#   From: 2010.05.17/outbox.cif.g08.bks.cpg/sg2_188_cif.got.tgz:375960.got - 2010.06.03 11:33:40.
