data_PCOD9006411
_publ_section_title
;
Structure prediction by ZEFSAII (Michael W. Deem and Ramdas Pophale) SiO2 
 PCOD9006411
Probable space group: P -1
;
_chemical_formula_sum "Si O2"
_cell_formula_units_Z 14
_cell_length_a 12.218707
_cell_length_b 22.212941
_cell_length_c 8.265258
_cell_angle_alpha 40.001539
_cell_angle_beta 142.520192
_cell_angle_gamma 153.782856
_cell_volume 590.688452
_symmetry_space_group_name_H-M "P -1"
_symmetry_group_IT_number 2
_symmetry_cell_setting 'triclinic'
loop_
_space_group_symop_operation_xyz
x,y,z
-x,-y,-z
loop_
_atom_site_type_symbol
_atom_site_label
_atom_site_fract_x
_atom_site_fract_y
_atom_site_fract_z
Si Si1 0.594445 0.167038 0.923694
Si Si2 0.974092 0.020908 0.242513
Si Si3 0.145808 0.699824 0.359972
Si Si4 0.961729 0.520926 0.091994
Si Si5 0.105245 0.261560 0.788923
Si Si6 0.329309 0.438318 0.168482
Si Si7 0.996987 0.833311 0.504442
O O1 0.332855 0.063135 0.939693
O O2 0.765900 0.321899 0.865410
O O3 0.602346 0.188489 0.694510
O O4 0.758085 0.134031 0.207921
O O5 0.018222 0.951216 0.318469
O O6 0.000000 0.000000 0.500000
O O7 0.154676 0.180051 0.094521
O O8 0.120453 0.592149 0.646150
O O9 0.130491 0.774478 0.322885
O O10 0.882038 0.612431 0.114800
O O11 0.000000 0.500000 0.000000
O O12 0.744641 0.520137 0.856097
O O13 0.363506 0.425519 0.781945
O O14 0.041247 0.212488 0.630480
O O15 0.254272 0.304446 0.405139
#
# Coordination Sequence:
#
# PCOD9006411 Si02
#       7
#     2   2   2   2   2   2   2
#     4  10  24  45  66  95 136 177 227 271 328 406
#     4  12  28  44  69  97 136 185 225 271 335 405
#     4  10  21  40  67  95 133 173 223 276 335 388
#     4  10  21  38  66 101 129 173 218 279 341 382
#     4  12  25  41  67 103 131 176 225 275 345 391
#     4  10  22  40  67  99 131 169 225 280 330 398
#     4  10  24  48  67  97 136 172 226 285 335 390
#
# _framework density 23.701155
#
# number of rings (size 3 to 8) (size 9 to 14) (size 15 to 20)
#    0.000    1.714    0.000    6.429    8.000    2.857 
#    0.000    0.000    0.000    0.000    0.000    0.000 
#    0.000    0.000    0.000    0.000    0.000    0.000 
#
# Total GULP energy -78299.229384 kJ/mol
# GULP energy per Si atom -5592.802099 kJ/mol
# Density = 2.364721 g / cm^3
# Si number density = 23.701155 Si / 1000 Ang^3
#
#
#
# Elastic Constant Matrix: (Units=GPa)
#
#
# Indices 1 2 3 4 5 6 
#
# 1 105.2927 10.9032 -1.8713 5.9523 4.4800 -20.1260
# 2 10.9032 43.4409 -0.3898 -7.5884 7.5715 -19.8225
# 3 -1.8713 -0.3898 40.8368 -17.1166 2.6458 3.3115
# 4 5.9523 -7.5884 -17.1166 23.5204 -6.2718 12.1436
# 5 4.4800 7.5715 2.6458 -6.2718 35.2931 -4.5779
# 6 -20.1260 -19.8225 3.3115 12.1436 -4.5779 13.1592
#
#
#
# Elastic Compliance Matrix: (Units=1/GPa)
#
#
# Indices 1 2 3 4 5 6 
#
# 1 0.004207 -0.011360 0.009881 0.017766 0.000508 -0.029382
# 2 -0.011360 0.015559 0.021369 0.043955 -0.000900 -0.040189
# 3 0.009881 0.021369 0.014301 -0.015195 -0.002224 0.056950
# 4 0.017766 0.043955 -0.015195 -0.017089 0.001122 0.113368
# 5 0.000508 -0.000900 -0.002224 0.001122 0.030048 0.009399
# 6 -0.029382 -0.040189 0.056950 0.113368 0.009399 -0.145164
#
#
# Mechanical properties :
#
#
# Convention : Reuss Voigt Hill
#
# Bulk Modulus (GPa) = 13.54150 22.98384 18.26267
# Shear Modulus (GPa) = -44.13012 26.45644 -8.83684
#
# Velocity S-wave (km/s) = -4.31970 3.34466 -1.93301
# Velocity P-wave (km/s) = 4.37652 4.96327 1.65532
#
# Compressibility (1/GPa) = 0.07384709
#
# Stress axis : x y z
#
# Youngs Moduli (GPa) = 237.69285 64.27078 69.92329
#
# Poissons Ratio (x) = 0.73010 -0.69089
# Poissons Ratio (y) = 2.70012 -1.49417
# Poissons Ratio (z) = -2.34857 -1.37338
#
# Static dielectric constant tensor:
#      x y z
#    x 1.963510 0.084990 0.001490 
#    y 0.084990 1.981850 0.059970 
#    z 0.001490 0.059970 1.943560 
# 
# From -- ./inp_files/240035.got.cif
#   From: 2010.05.17/outbox.cif.g08.bks.cpg/sg2_121_cif.got.tgz:240035.got - 2010.06.03 11:33:40.
