data_PCOD9006376
_publ_section_title
;
Structure prediction by ZEFSAII (Michael W. Deem and Ramdas Pophale) SiO2 
 PCOD9006376
Probable space group: P -1
;
_chemical_formula_sum "Si O2"
_cell_formula_units_Z 16
_cell_length_a 5.350872
_cell_length_b 7.417418
_cell_length_c 26.152907
_cell_angle_alpha 137.278268
_cell_angle_beta 115.227760
_cell_angle_gamma 83.259824
_cell_volume 603.776064
_symmetry_space_group_name_H-M "P -1"
_symmetry_group_IT_number 2
_symmetry_cell_setting 'triclinic'
loop_
_space_group_symop_operation_xyz
x,y,z
-x,-y,-z
loop_
_atom_site_type_symbol
_atom_site_label
_atom_site_fract_x
_atom_site_fract_y
_atom_site_fract_z
Si Si1 0.096754 0.389283 0.790594
Si Si2 0.135340 0.160897 0.292501
Si Si3 0.755465 0.156775 0.017027
Si Si4 0.339148 0.149689 0.884924
Si Si5 0.504279 0.759619 0.491555
Si Si6 0.735062 0.109607 0.841297
Si Si7 0.488155 0.476596 0.240539
Si Si8 0.117200 0.976730 0.562309
O O1 0.113510 0.551290 0.880248
O O2 0.792508 0.422684 0.752469
O O3 0.572970 0.163888 0.951738
O O4 0.371350 0.513746 0.802236
O O5 0.156608 0.202730 0.466203
O O6 0.970474 0.940829 0.274887
O O7 0.891393 0.132474 0.220654
O O8 0.332776 0.009144 0.246625
O O9 0.500000 0.000000 0.000000
O O10 0.000000 0.000000 0.000000
O O11 0.541549 0.289370 0.883132
O O12 0.080734 0.250607 0.906786
O O13 0.639192 0.172968 0.455452
O O14 0.311893 0.463791 0.390085
O O15 0.500000 0.000000 0.500000
O O16 0.631479 0.834245 0.810984
O O17 0.745909 0.708929 0.340456
O O18 0.000000 0.000000 0.500000
#
# Coordination Sequence:
#
# PCOD9006376 Si02
#       8
#     2   2   2   2   2   2   2   2
#     4  12  28  44  70 102 144 185 219 290 353 412
#     4  10  27  43  70 101 146 179 234 278 354 403
#     4  12  24  46  67 104 139 177 236 281 344 405
#     4  10  23  38  70  95 135 180 228 281 333 403
#     4  10  21  38  65  98 129 171 227 283 324 397
#     4  10  21  39  69  97 126 181 231 277 327 404
#     4  12  24  44  69 102 138 183 232 277 353 411
#     4  10  22  38  64  99 126 170 229 289 322 392
#
# _framework density 26.499887999999999
#
# number of rings (size 3 to 8) (size 9 to 14) (size 15 to 20)
#    0.750    0.500    0.000    6.750    7.000    0.500 
#    0.000    4.375    0.000    0.000    0.000    0.000 
#    0.000    0.000    0.000    0.000    0.000    0.000 
#
# Total GULP energy -89356.079725 kJ/mol
# GULP energy per Si atom -5584.754983 kJ/mol
# Density = 2.643957 g / cm^3
# Si number density = 26.499888 Si / 1000 Ang^3
#
#
#
# Elastic Constant Matrix: (Units=GPa)
#
#
# Indices 1 2 3 4 5 6 
#
# 1 244.2881 31.3296 27.1403 7.6535 2.2251 21.4908
# 2 31.3296 114.7478 30.5649 27.3453 4.4075 22.5592
# 3 27.1403 30.5649 147.8859 35.5882 -2.1223 -3.6027
# 4 7.6535 27.3453 35.5882 41.9317 2.2195 -0.2558
# 5 2.2251 4.4075 -2.1223 2.2195 39.4816 -6.2569
# 6 21.4908 22.5592 -3.6027 -0.2558 -6.2569 32.1757
#
#
#
# Elastic Compliance Matrix: (Units=1/GPa)
#
#
# Indices 1 2 3 4 5 6 
#
# 1 0.004505 -0.000448 -0.000871 0.000230 -0.000728 -0.002932
# 2 -0.000448 0.012789 -0.001076 -0.007268 -0.002531 -0.009338
# 3 -0.000871 -0.001076 0.008839 -0.006702 0.001425 0.002550
# 4 0.000230 -0.007268 -0.006702 0.034303 -0.000808 0.004307
# 5 -0.000728 -0.002531 0.001425 -0.000808 0.026988 0.007663
# 6 -0.002932 -0.009338 0.002550 0.004307 0.007663 0.041394
#
#
# Mechanical properties :
#
#
# Convention : Reuss Voigt Hill
#
# Bulk Modulus (GPa) = 46.85480 76.11017 61.48248
# Shear Modulus (GPa) = 35.53048 50.57692 43.05370
#
# Velocity S-wave (km/s) = 3.66564 4.37346 4.03510
# Velocity P-wave (km/s) = 5.96954 7.36791 6.70528
#
# Compressibility (1/GPa) = 0.02134253
#
# Stress axis : x y z
#
# Youngs Moduli (GPa) = 221.96490 78.19366 113.12863
#
# Poissons Ratio (x) = 0.03506 0.09859
# Poissons Ratio (y) = 0.09953 0.12168
# Poissons Ratio (z) = 0.19343 0.08410
#
# Static dielectric constant tensor:
#      x y z
#    x 1.734780 -0.111520 0.282150 
#    y -0.111520 1.994710 0.077590 
#    z 0.282150 0.077590 1.850470 
# 
# From -- ./inp_files/603849.got.cif
#   From: 2010.05.17/outbox.cif.g08.bks.cpg/sg2_302_cif.got.tgz:603849.got - 2010.06.03 11:33:40.
