data_PCOD9006593
_publ_section_title
;
Structure prediction by ZEFSAII (Michael W. Deem and Ramdas Pophale) SiO2 
 PCOD9006593
Probable space group: P -1
;
_chemical_formula_sum "Si O2"
_cell_formula_units_Z 14
_cell_length_a 7.665771
_cell_length_b 8.471513
_cell_length_c 19.142810
_cell_angle_alpha 126.496493
_cell_angle_beta 33.001582
_cell_angle_gamma 114.402303
_cell_volume 533.791864
_symmetry_space_group_name_H-M "P -1"
_symmetry_group_IT_number 2
_symmetry_cell_setting 'triclinic'
loop_
_space_group_symop_operation_xyz
x,y,z
-x,-y,-z
loop_
_atom_site_type_symbol
_atom_site_label
_atom_site_fract_x
_atom_site_fract_y
_atom_site_fract_z
Si Si1 0.864376 0.117746 0.224034
Si Si2 0.791220 0.694159 0.154123
Si Si3 0.652261 0.022691 0.080744
Si Si4 0.169970 0.742493 0.439088
Si Si5 0.358635 0.137330 0.518195
Si Si6 0.444422 0.383019 0.339755
Si Si7 0.211224 0.694120 0.155438
O O1 0.667533 0.176702 0.378554
O O2 0.764873 0.308056 0.257016
O O3 0.743131 0.910366 0.191706
O O4 0.235394 0.034090 0.051590
O O5 0.431518 0.650183 0.270145
O O6 0.980618 0.717714 0.169614
O O7 0.000000 0.500000 0.000000
O O8 0.401830 0.878979 0.146543
O O9 0.478819 0.246390 0.222017
O O10 0.000000 0.000000 0.000000
O O11 0.326681 0.613141 0.420899
O O12 0.819358 0.691099 0.541669
O O13 0.186118 0.973109 0.494758
O O14 0.052393 0.298680 0.691761
O O15 0.500000 0.000000 0.500000
O O16 0.500000 0.500000 0.000000
#
# Coordination Sequence:
#
# PCOD9006593 Si02
#       7
#     2   2   2   2   2   2   2
#     4  10  23  40  71  98 136 181 237 282 355 407
#     4  11  25  42  68 101 141 184 237 294 349 422
#     4  10  23  43  68 102 141 183 227 292 347 419
#     4  10  21  39  68  98 138 182 230 281 359 413
#     4  11  22  46  65  96 140 184 226 294 344 420
#     4  10  21  38  67 103 136 184 232 287 347 427
#     4  12  27  44  72 103 143 190 234 287 361 418
#
# _framework density 26.227453000000001
#
# number of rings (size 3 to 8) (size 9 to 14) (size 15 to 20)
#    0.000    1.429    4.286    0.857    8.000    4.000 
#    0.000    2.857    0.000    0.000    0.000    0.000 
#    0.000    0.000    0.000    0.000    0.000    0.000 
#
# Total GULP energy -78031.367107 kJ/mol
# GULP energy per Si atom -5573.669079 kJ/mol
# Density = 2.616776 g / cm^3
# Si number density = 26.227453 Si / 1000 Ang^3
#
#
#
# Elastic Constant Matrix: (Units=GPa)
#
#
# Indices 1 2 3 4 5 6 
#
# 1 114.1543 14.3916 23.7207 2.2504 -3.6255 2.0687
# 2 14.3916 97.7443 39.3748 18.2423 -0.1469 8.4764
# 3 23.7207 39.3748 225.7858 -6.2897 15.7548 8.3626
# 4 2.2504 18.2423 -6.2897 47.5297 -0.5030 -4.6068
# 5 -3.6255 -0.1469 15.7548 -0.5030 26.9217 -6.3635
# 6 2.0687 8.4764 8.3626 -4.6068 -6.3635 27.6637
#
#
#
# Elastic Compliance Matrix: (Units=1/GPa)
#
#
# Indices 1 2 3 4 5 6 
#
# 1 0.009132 -0.000965 -0.000934 -0.000137 0.001838 0.000295
# 2 -0.000965 0.012588 -0.002105 -0.005454 0.000116 -0.004030
# 3 -0.000934 -0.002105 0.005231 0.001367 -0.003515 -0.001448
# 4 -0.000137 -0.005454 0.001367 0.023857 0.000885 0.005445
# 5 0.001838 0.000116 -0.003515 0.000885 0.041995 0.010697
# 6 0.000295 -0.004030 -0.001448 0.005445 0.010697 0.041166
#
#
# Mechanical properties :
#
#
# Convention : Reuss Voigt Hill
#
# Bulk Modulus (GPa) = 52.79039 65.85095 59.32067
# Shear Modulus (GPa) = 33.71733 44.43618 39.07676
#
# Velocity S-wave (km/s) = 3.58938 4.12061 3.86413
# Velocity P-wave (km/s) = 6.11145 6.91385 6.52500
#
# Compressibility (1/GPa) = 0.01894284
#
# Stress axis : x y z
#
# Youngs Moduli (GPa) = 109.50963 79.43923 191.16485
#
# Poissons Ratio (x) = 0.07670 0.17855
# Poissons Ratio (y) = 0.10573 0.40232
# Poissons Ratio (z) = 0.10228 0.16718
#
# Static dielectric constant tensor:
#      x y z
#    x 2.285870 -0.036110 0.062850 
#    y -0.036110 2.052790 -0.020130 
#    z 0.062850 -0.020130 2.107410 
# 
# From -- ./inp_files/588093.got.cif
#   From: 2010.05.17/outbox.cif.g08.bks.cpg/sg2_295_cif.got.tgz:588093.got - 2010.06.03 11:33:40.
