data_PCOD9006058
_publ_section_title
;
Structure prediction by ZEFSAII (Michael W. Deem and Ramdas Pophale) SiO2 
 PCOD9006058
Probable space group: P -1
;
_chemical_formula_sum "Si O2"
_cell_formula_units_Z 16
_cell_length_a 8.363854
_cell_length_b 6.652404
_cell_length_c 20.582037
_cell_angle_alpha 134.039913
_cell_angle_beta 128.897905
_cell_angle_gamma 56.534699
_cell_volume 627.021558
_symmetry_space_group_name_H-M "P -1"
_symmetry_group_IT_number 2
_symmetry_cell_setting 'triclinic'
loop_
_space_group_symop_operation_xyz
x,y,z
-x,-y,-z
loop_
_atom_site_type_symbol
_atom_site_label
_atom_site_fract_x
_atom_site_fract_y
_atom_site_fract_z
Si Si1 0.075617 0.111266 0.634296
Si Si2 0.154485 0.391701 0.852245
Si Si3 0.841780 0.985649 0.041775
Si Si4 0.433341 0.903904 0.873727
Si Si5 0.735617 0.601288 0.628123
Si Si6 0.316717 0.505171 0.553186
Si Si7 0.617716 0.649959 0.324050
Si Si8 0.162189 0.842816 0.189168
O O1 0.149520 0.261537 0.750093
O O2 0.204794 0.207817 0.629381
O O3 0.839757 0.274392 0.596803
O O4 0.123483 0.770687 0.576685
O O5 0.123750 0.731173 0.921439
O O6 0.972714 0.285154 0.821517
O O7 0.368229 0.224947 0.902562
O O8 0.690775 0.098498 0.090874
O O9 0.059653 0.801964 0.083856
O O10 0.684824 0.824084 0.927268
O O11 0.347926 0.690109 0.756244
O O12 0.511053 0.652728 0.616466
O O13 0.720529 0.649285 0.557790
O O14 0.874140 0.811839 0.738691
O O15 0.383531 0.318700 0.591910
O O16 0.403601 0.756540 0.252687
#
# Coordination Sequence:
#
# PCOD9006058 Si02
#       8
#     2   2   2   2   2   2   2   2
#     4  12  22  43  68  95 127 170 214 260 320 380
#     4  11  20  40  67  89 126 172 206 260 326 373
#     4  10  21  40  63  92 125 168 211 261 316 378
#     4  10  21  38  64  94 125 162 217 261 312 378
#     4  11  24  47  66  93 132 168 210 267 321 380
#     4  11  26  45  66  96 129 166 214 267 321 376
#     4  12  24  41  64  95 128 168 213 266 315 376
#     4  11  24  40  63  93 129 169 212 261 322 377
#
# _framework density 25.517462999999999
#
# number of rings (size 3 to 8) (size 9 to 14) (size 15 to 20)
#    0.000    1.000    5.000    2.250    0.000    1.500 
#    2.250    0.625    0.000    0.000    0.000    0.000 
#    0.000    0.000    0.000    0.000    0.000    0.000 
#
# Total GULP energy -89600.132041 kJ/mol
# GULP energy per Si atom -5600.008253 kJ/mol
# Density = 2.545938 g / cm^3
# Si number density = 25.517463 Si / 1000 Ang^3
#
#
#
# Elastic Constant Matrix: (Units=GPa)
#
#
# Indices 1 2 3 4 5 6 
#
# 1 36.5884 7.5507 2.0467 -5.9709 -5.4054 -6.1151
# 2 7.5507 107.5142 8.0986 -9.7213 3.3423 -8.6674
# 3 2.0467 8.0986 66.7047 -3.0572 5.6655 10.5744
# 4 -5.9709 -9.7213 -3.0572 42.0568 0.4540 10.0765
# 5 -5.4054 3.3423 5.6655 0.4540 30.0635 -11.3463
# 6 -6.1151 -8.6674 10.5744 10.0765 -11.3463 30.3211
#
#
#
# Elastic Compliance Matrix: (Units=1/GPa)
#
#
# Indices 1 2 3 4 5 6 
#
# 1 0.031281 -0.001307 -0.003292 0.001264 0.010347 0.010535
# 2 -0.001307 0.009840 -0.001493 0.001363 -0.000094 0.002582
# 3 -0.003292 -0.001493 0.017954 0.003346 -0.008214 -0.011538
# 4 0.001264 0.001363 0.003346 0.027356 -0.005352 -0.011616
# 5 0.010347 -0.000094 -0.008214 -0.005352 0.045754 0.023825
# 6 0.010535 0.002582 -0.011538 -0.011616 0.023825 0.052643
#
#
# Mechanical properties :
#
#
# Convention : Reuss Voigt Hill
#
# Bulk Modulus (GPa) = 21.32691 27.35547 24.34119
# Shear Modulus (GPa) = 23.51378 33.36236 28.43807
#
# Velocity S-wave (km/s) = 3.03888 3.61977 3.34197
# Velocity P-wave (km/s) = 4.54851 5.31167 4.94484
#
# Compressibility (1/GPa) = 0.04688911
#
# Stress axis : x y z
#
# Youngs Moduli (GPa) = 31.96876 101.62953 55.69841
#
# Poissons Ratio (x) = 0.13282 0.18336
# Poissons Ratio (y) = 0.04178 0.08318
# Poissons Ratio (z) = 0.10524 0.15178
#
# Static dielectric constant tensor:
#      x y z
#    x 1.951660 -0.078990 -0.013260 
#    y -0.078990 2.080380 -0.017740 
#    z -0.013260 -0.017740 1.974390 
# 
# From -- ./inp_files/46830.got.cif
#   From: 2010.05.17/outbox.cif.g08.bks.cpg/sg2_24_cif.got.tgz:46830.got - 2010.06.03 11:33:40.
