data_PCOD9006999
_publ_section_title
;
Structure prediction by ZEFSAII (Michael W. Deem and Ramdas Pophale) SiO2 
 PCOD9006999
Probable space group: P -1
;
_chemical_formula_sum "Si O2"
_cell_formula_units_Z 12
_cell_length_a 10.964765
_cell_length_b 13.067418
_cell_length_c 5.694564
_cell_angle_alpha 85.475734
_cell_angle_beta 80.800378
_cell_angle_gamma 144.118938
_cell_volume 440.372478
_symmetry_space_group_name_H-M "P -1"
_symmetry_group_IT_number 2
_symmetry_cell_setting 'triclinic'
loop_
_space_group_symop_operation_xyz
x,y,z
-x,-y,-z
loop_
_atom_site_type_symbol
_atom_site_label
_atom_site_fract_x
_atom_site_fract_y
_atom_site_fract_z
Si Si1 0.959154 0.343328 0.305954
Si Si2 0.651459 0.917766 0.796558
Si Si3 0.126307 0.242721 0.814588
Si Si4 0.837958 0.935067 0.361863
Si Si5 0.613672 0.468168 0.987882
Si Si6 0.228839 0.745791 0.120428
O O1 0.804576 0.235604 0.605623
O O2 0.071596 0.534135 0.215894
O O3 0.841926 0.245982 0.103850
O O4 0.169716 0.411244 0.255161
O O5 0.665958 0.900766 0.518428
O O6 0.562502 0.745227 0.945739
O O7 0.906528 0.113527 0.755469
O O8 0.478380 0.877225 0.963868
O O9 0.265856 0.243209 0.670191
O O10 0.272155 0.441510 0.805199
O O11 0.004986 0.107584 0.103067
O O12 0.000000 0.000000 0.500000
O O13 0.500000 0.500000 0.000000
#
# Coordination Sequence:
#
# PCOD9006999 Si02
#       6
#     2   2   2   2   2   2
#     4   9  20  40  62  95 129 168 220 274 320 391
#     4  10  22  39  66  92 121 173 214 262 327 388
#     4  10  21  39  58  90 131 162 207 272 320 389
#     4   9  18  36  57  84 126 165 205 256 318 380
#     4  11  22  41  63  97 126 166 215 266 331 390
#     4   9  19  40  66  90 128 173 221 268 323 389
#
# _framework density 27.249663000000002
#
# number of rings (size 3 to 8) (size 9 to 14) (size 15 to 20)
#    0.000    2.333    0.000    3.000    2.333    0.667 
#   21.000    1.667    0.000    0.000    0.000    0.000 
#    0.000    0.000    0.000    0.000    0.000    0.000 
#
# Total GULP energy -67077.137957 kJ/mol
# GULP energy per Si atom -5589.761496 kJ/mol
# Density = 2.718764 g / cm^3
# Si number density = 27.249663 Si / 1000 Ang^3
#
#
#
# Elastic Constant Matrix: (Units=GPa)
#
#
# Indices 1 2 3 4 5 6 
#
# 1 156.8612 22.8425 79.9518 3.0870 -28.9140 -1.4447
# 2 22.8425 91.4813 26.7175 -1.1703 -2.5777 -3.7652
# 3 79.9518 26.7175 188.7006 -7.3758 -41.9531 5.8530
# 4 3.0870 -1.1703 -7.3758 41.4653 -9.4764 -8.7348
# 5 -28.9140 -2.5777 -41.9531 -9.4764 55.7257 -0.6624
# 6 -1.4447 -3.7652 5.8530 -8.7348 -0.6624 38.5936
#
#
#
# Elastic Compliance Matrix: (Units=1/GPa)
#
#
# Indices 1 2 3 4 5 6 
#
# 1 0.008467 -0.001159 -0.003030 -0.000639 0.001956 0.000552
# 2 -0.001159 0.011667 -0.001439 0.000191 -0.001096 0.001337
# 3 -0.003030 -0.001439 0.007975 0.002527 0.004785 -0.000809
# 4 -0.000639 0.000191 0.002527 0.027299 0.006292 0.005898
# 5 0.001956 -0.001096 0.004785 0.006292 0.023594 0.001070
# 6 0.000552 0.001337 -0.000809 0.005898 0.001070 0.027538
#
#
# Mechanical properties :
#
#
# Convention : Reuss Voigt Hill
#
# Bulk Modulus (GPa) = 59.33944 77.34072 68.34008
# Shear Modulus (GPa) = 40.51389 47.65903 44.08646
#
# Velocity S-wave (km/s) = 3.86004 4.18661 4.02664
# Velocity P-wave (km/s) = 6.45679 7.19821 6.83755
#
# Compressibility (1/GPa) = 0.01685220
#
# Stress axis : x y z
#
# Youngs Moduli (GPa) = 118.11021 85.70887 125.39650
#
# Poissons Ratio (x) = 0.09937 0.38000
# Poissons Ratio (y) = 0.13693 0.18039
# Poissons Ratio (z) = 0.35792 0.12329
#
# Static dielectric constant tensor:
#      x y z
#    x 2.174170 -0.037620 -0.028530 
#    y -0.037620 2.227460 0.099580 
#    z -0.028530 0.099580 2.187710 
# 
# From -- ./inp_files/73054.got.cif
#   From: 2010.05.17/outbox.cif.g08.bks.cpg/sg2_37_cif.got.tgz:73054.got - 2010.06.03 11:33:40.
