data_PCOD9006436
_publ_section_title
;
Structure prediction by ZEFSAII (Michael W. Deem and Ramdas Pophale) SiO2 
 PCOD9006436
Probable space group: P -1
;
_chemical_formula_sum "Si O2"
_cell_formula_units_Z 14
_cell_length_a 18.030818
_cell_length_b 17.445266
_cell_length_c 5.492609
_cell_angle_alpha 127.874375
_cell_angle_beta 110.602230
_cell_angle_gamma 27.886291
_cell_volume 546.122477
_symmetry_space_group_name_H-M "P -1"
_symmetry_group_IT_number 2
_symmetry_cell_setting 'triclinic'
loop_
_space_group_symop_operation_xyz
x,y,z
-x,-y,-z
loop_
_atom_site_type_symbol
_atom_site_label
_atom_site_fract_x
_atom_site_fract_y
_atom_site_fract_z
Si Si1 0.900139 0.213666 0.727425
Si Si2 0.187098 0.304056 0.169889
Si Si3 0.953456 0.882753 0.795998
Si Si4 0.496522 0.360269 0.763810
Si Si5 0.531634 0.882109 0.104212
Si Si6 0.338122 0.656930 0.796655
Si Si7 0.310847 0.997758 0.402755
O O1 0.951651 0.217439 0.553755
O O2 0.683053 0.434961 0.874821
O O3 0.000000 0.000000 0.500000
O O4 0.940223 0.233168 0.053283
O O5 0.000000 0.500000 0.500000
O O6 0.364280 0.080757 0.106920
O O7 0.266448 0.318361 0.173093
O O8 0.187543 0.224955 0.795545
O O9 0.810059 0.952282 0.764624
O O10 0.844715 0.106734 0.085055
O O11 0.394255 0.492438 0.650540
O O12 0.602602 0.146494 0.536429
O O13 0.638856 0.290346 0.850388
O O14 0.500000 0.000000 0.500000
O O15 0.477313 0.847102 0.126157
O O16 0.500000 0.500000 0.500000
#
# Coordination Sequence:
#
# PCOD9006436 Si02
#       7
#     2   2   2   2   2   2   2
#     4  12  24  45  65 102 138 193 244 303 352 419
#     4  10  22  46  78 102 137 183 233 292 364 451
#     4  11  26  42  68  99 143 185 248 295 355 413
#     4  10  23  39  61  92 134 179 233 291 352 415
#     4   9  21  45  71 103 136 178 229 284 373 445
#     4  10  21  38  66  86 125 192 233 281 350 425
#     4  10  24  45  65 101 141 185 232 299 353 441
#
# _framework density 25.635273000000002
#
# number of rings (size 3 to 8) (size 9 to 14) (size 15 to 20)
#    0.000    1.714    1.429    1.286    8.000    3.429 
#   10.286    0.000    0.000    0.000    0.000    0.000 
#    0.000    0.000    0.000    0.000    0.000    0.000 
#
# Total GULP energy -78117.681097 kJ/mol
# GULP energy per Si atom -5579.834364 kJ/mol
# Density = 2.557693 g / cm^3
# Si number density = 25.635273 Si / 1000 Ang^3
#
#
#
# Elastic Constant Matrix: (Units=GPa)
#
#
# Indices 1 2 3 4 5 6 
#
# 1 198.4539 37.0271 62.4806 -9.2085 -30.0922 -17.8086
# 2 37.0271 98.0673 30.4354 -28.9491 1.9769 -17.0519
# 3 62.4806 30.4354 80.8006 -5.9787 -12.3822 -13.5819
# 4 -9.2085 -28.9491 -5.9787 40.3681 -1.3906 -10.0371
# 5 -30.0922 1.9769 -12.3822 -1.3906 49.6478 -1.5984
# 6 -17.8086 -17.0519 -13.5819 -10.0371 -1.5984 44.0206
#
#
#
# Elastic Compliance Matrix: (Units=1/GPa)
#
#
# Indices 1 2 3 4 5 6 
#
# 1 0.007314 -0.000931 -0.004458 0.000841 0.003431 0.001539
# 2 -0.000931 0.017091 -0.003577 0.013492 -0.001496 0.008162
# 3 -0.004458 -0.003577 0.017838 -0.000296 0.001956 0.002318
# 4 0.000841 0.013492 -0.000296 0.038184 0.001427 0.014233
# 5 0.003431 -0.001496 0.001956 0.001427 0.022892 0.002568
# 6 0.001539 0.008162 0.002318 0.014233 0.002568 0.030555
#
#
# Mechanical properties :
#
#
# Convention : Reuss Voigt Hill
#
# Bulk Modulus (GPa) = 41.13342 70.80091 55.96716
# Shear Modulus (GPa) = 31.26804 43.29920 37.28362
#
# Velocity S-wave (km/s) = 3.49625 4.11426 3.81778
# Velocity P-wave (km/s) = 5.69024 7.08858 6.42755
#
# Compressibility (1/GPa) = 0.02431113
#
# Stress axis : x y z
#
# Youngs Moduli (GPa) = 136.73092 58.51077 56.06015
#
# Poissons Ratio (x) = 0.05448 0.24991
# Poissons Ratio (y) = 0.12731 0.20051
# Poissons Ratio (z) = 0.60954 0.20927
#
# Static dielectric constant tensor:
#      x y z
#    x 2.056810 -0.034670 0.007490 
#    y -0.034670 2.014050 -0.027980 
#    z 0.007490 -0.027980 2.116470 
# 
# From -- ./inp_files/111719.got.cif
#   From: 2010.05.17/outbox.cif.g08.bks.cpg/sg2_56_cif.got.tgz:111719.got - 2010.06.03 11:33:40.
