data_PCOD9006167
_publ_section_title
;
Structure prediction by ZEFSAII (Michael W. Deem and Ramdas Pophale) SiO2 
 PCOD9006167
Probable space group: P -1
;
_chemical_formula_sum "Si O2"
_cell_formula_units_Z 14
_cell_length_a 8.056430
_cell_length_b 18.397029
_cell_length_c 11.172179
_cell_angle_alpha 42.398636
_cell_angle_beta 145.667929
_cell_angle_gamma 121.572045
_cell_volume 613.303326
_symmetry_space_group_name_H-M "P -1"
_symmetry_group_IT_number 2
_symmetry_cell_setting 'triclinic'
loop_
_space_group_symop_operation_xyz
x,y,z
-x,-y,-z
loop_
_atom_site_type_symbol
_atom_site_label
_atom_site_fract_x
_atom_site_fract_y
_atom_site_fract_z
Si Si1 0.148054 0.611525 0.776060
Si Si2 0.329695 0.643492 0.344712
Si Si3 0.352196 0.997066 0.770610
Si Si4 0.422254 0.612513 0.158304
Si Si5 0.201169 0.212756 0.824351
Si Si6 0.394615 0.796420 0.389763
Si Si7 0.737505 0.609881 0.999793
O O1 0.503283 0.581519 0.989176
O O2 0.993087 0.718432 0.482014
O O3 0.123155 0.633651 0.873822
O O4 0.064732 0.500933 0.811523
O O5 0.373411 0.642714 0.230504
O O6 0.465298 0.520159 0.623322
O O7 0.433005 0.743074 0.346451
O O8 0.977395 0.665280 0.137113
O O9 0.445963 0.102287 0.638262
O O10 0.555703 0.887753 0.964543
O O11 0.000000 0.000000 0.500000
O O12 0.500000 0.000000 0.000000
O O13 0.629680 0.694505 0.137315
O O14 0.955677 0.175038 0.809628
O O15 0.554705 0.694447 0.693189
#
# Coordination Sequence:
#
# PCOD9006167 Si02
#       7
#     2   2   2   2   2   2   2
#     4  10  21  39  64 102 143 187 233 293 359 437
#     4  11  23  38  63 104 149 192 232 292 361 437
#     4  12  31  56  79 107 147 195 251 316 379 440
#     4  11  23  37  63 104 150 190 234 290 365 435
#     4  11  25  47  74 105 141 192 247 302 361 438
#     4  11  25  47  75 104 142 191 248 300 362 440
#     4  10  21  38  65 100 144 186 234 291 361 434
#
# _framework density 22.827203000000001
#
# number of rings (size 3 to 8) (size 9 to 14) (size 15 to 20)
#    0.000    1.143    2.857    2.143    6.000    2.857 
#    0.000    1.429    0.000    0.000    0.000    0.000 
#    0.000    0.000    0.000    0.000    0.000    0.000 
#
# Total GULP energy -78005.649546 kJ/mol
# GULP energy per Si atom -5571.832110 kJ/mol
# Density = 2.277525 g / cm^3
# Si number density = 22.827203 Si / 1000 Ang^3
#
#
#
# Elastic Constant Matrix: (Units=GPa)
#
#
# Indices 1 2 3 4 5 6 
#
# 1 99.0283 54.8091 48.0510 5.6097 7.2654 4.3333
# 2 54.8091 143.9137 39.4716 7.7573 2.2271 5.8860
# 3 48.0510 39.4716 81.5568 0.5891 11.9995 -18.2720
# 4 5.6097 7.7573 0.5891 20.1110 6.9391 1.4133
# 5 7.2654 2.2271 11.9995 6.9391 37.6828 6.6592
# 6 4.3333 5.8860 -18.2720 1.4133 6.6592 41.6124
#
#
#
# Elastic Compliance Matrix: (Units=1/GPa)
#
#
# Indices 1 2 3 4 5 6 
#
# 1 0.017153 -0.003393 -0.010009 -0.003370 0.001738 -0.005865
# 2 -0.003393 0.009456 -0.003517 -0.003194 0.002296 -0.002787
# 3 -0.010009 -0.003517 0.024133 0.005586 -0.008940 0.013377
# 4 -0.003370 -0.003194 0.005586 0.055557 -0.011745 0.003248
# 5 0.001738 0.002296 -0.008940 -0.011745 0.032714 -0.009267
# 6 -0.005865 -0.002787 0.013377 0.003248 -0.009267 0.032283
#
#
# Mechanical properties :
#
#
# Convention : Reuss Voigt Hill
#
# Bulk Modulus (GPa) = 59.15831 67.68468 63.42150
# Shear Modulus (GPa) = 23.72294 32.02572 27.87433
#
# Velocity S-wave (km/s) = 3.22722 3.74968 3.49822
# Velocity P-wave (km/s) = 6.31337 6.96147 6.64532
#
# Compressibility (1/GPa) = 0.01690380
#
# Stress axis : x y z
#
# Youngs Moduli (GPa) = 58.30018 105.75419 41.43777
#
# Poissons Ratio (x) = 0.35878 0.41476
# Poissons Ratio (y) = 0.19779 0.14573
# Poissons Ratio (z) = 0.58354 0.37192
#
# Static dielectric constant tensor:
#      x y z
#    x 1.933690 -0.017090 -0.028040 
#    y -0.017090 1.952700 0.176980 
#    z -0.028040 0.176980 1.987080 
# 
# From -- ./inp_files/60337.got.cif
#   From: 2010.05.17/outbox.cif.g08.bks.cpg/sg2_31_cif.got.tgz:60337.got - 2010.06.03 11:33:40.
