data_PCOD9006565
_publ_section_title
;
Structure prediction by ZEFSAII (Michael W. Deem and Ramdas Pophale) SiO2 
 PCOD9006565
Probable space group: P -1
;
_chemical_formula_sum "Si O2"
_cell_formula_units_Z 15
_cell_length_a 19.518102
_cell_length_b 8.807366
_cell_length_c 9.327691
_cell_angle_alpha 118.777660
_cell_angle_beta 132.859349
_cell_angle_gamma 36.770545
_cell_volume 696.198341
_symmetry_space_group_name_H-M "P -1"
_symmetry_group_IT_number 2
_symmetry_cell_setting 'triclinic'
loop_
_space_group_symop_operation_xyz
x,y,z
-x,-y,-z
loop_
_atom_site_type_symbol
_atom_site_label
_atom_site_fract_x
_atom_site_fract_y
_atom_site_fract_z
Si Si1 0.228688 0.721274 0.732821
Si Si2 0.074561 0.663389 0.088401
Si Si3 0.660205 0.179856 0.281039
Si Si4 0.956542 0.330019 0.630373
Si Si5 0.370008 0.502064 0.140086
Si Si6 0.744749 0.709815 0.066980
Si Si7 0.830332 0.082420 0.719223
Si Si8 0.000000 0.500000 0.500000
O O1 0.332631 0.662239 0.737840
O O2 0.179530 0.596093 0.567139
O O3 0.286214 0.656693 0.945357
O O4 0.091364 0.025271 0.664471
O O5 0.050169 0.618451 0.188210
O O6 0.114935 0.813439 0.225900
O O7 0.196199 0.401668 0.058000
O O8 0.941528 0.855306 0.883732
O O9 0.524911 0.350728 0.262158
O O10 0.792556 0.007085 0.499530
O O11 0.672546 0.992059 0.117566
O O12 0.981930 0.450605 0.614548
O O13 0.299124 0.688279 0.261093
O O14 0.354329 0.316930 0.053850
O O15 0.876129 0.531875 0.280153
#
# Coordination Sequence:
#
# PCOD9006565 Si02
#       8
#     2   2   2   2   2   2   2   1
#     4  11  22  39  66  95 121 165 223 265 323 366
#     4  10  21  39  65  94 136 159 209 279 326 371
#     4  12  23  41  63  94 133 175 216 253 309 397
#     4  11  22  39  66  96 127 158 211 285 314 383
#     4  11  23  42  64  91 134 174 215 258 308 387
#     4  11  24  39  62  98 130 168 209 259 330 383
#     4  10  21  38  66  99 124 171 216 265 324 370
#     4  12  22  40  64  90 128 164 210 264 336 378
#
# _framework density 21.545583000000001
#
# number of rings (size 3 to 8) (size 9 to 14) (size 15 to 20)
#    0.000    1.067    5.333    2.000    0.000    0.533 
#    0.000    0.000    0.000    0.800    0.000    0.000 
#    0.000    0.000    0.000    0.000    0.000    0.000 
#
# Total GULP energy -83695.538192 kJ/mol
# GULP energy per Si atom -5579.702546 kJ/mol
# Density = 2.149654 g / cm^3
# Si number density = 21.545583 Si / 1000 Ang^3
#
#
#
# Elastic Constant Matrix: (Units=GPa)
#
#
# Indices 1 2 3 4 5 6 
#
# 1 189.3840 31.8567 52.5671 7.1959 -13.0040 7.1698
# 2 31.8567 38.3016 9.1290 13.4102 1.6234 1.9742
# 3 52.5671 9.1290 83.9782 13.8524 -5.5074 10.5746
# 4 7.1959 13.4102 13.8524 27.5081 -0.0796 0.0889
# 5 -13.0040 1.6234 -5.5074 -0.0796 38.4820 -6.7625
# 6 7.1698 1.9742 10.5746 0.0889 -6.7625 26.6727
#
#
#
# Elastic Compliance Matrix: (Units=1/GPa)
#
#
# Indices 1 2 3 4 5 6 
#
# 1 0.007684 -0.006688 -0.004626 0.003584 0.002374 0.000853
# 2 -0.006688 0.037612 0.003248 -0.018223 -0.003986 -0.003224
# 3 -0.004626 0.003248 0.016572 -0.008701 -0.000335 -0.005623
# 4 0.003584 -0.018223 -0.008701 0.048672 0.001550 0.004066
# 5 0.002374 -0.003986 -0.000335 0.001550 0.028127 0.006916
# 6 0.000853 -0.003224 -0.005623 0.004066 0.006916 0.041470
#
#
# Mechanical properties :
#
#
# Convention : Reuss Voigt Hill
#
# Bulk Modulus (GPa) = 21.86415 55.41881 38.64148
# Shear Modulus (GPa) = 23.63924 33.07330 28.35627
#
# Velocity S-wave (km/s) = 3.31595 3.92221 3.63175
# Velocity P-wave (km/s) = 4.98303 6.80361 5.96321
#
# Compressibility (1/GPa) = 0.04573696
#
# Stress axis : x y z
#
# Youngs Moduli (GPa) = 130.14612 26.58718 60.34424
#
# Poissons Ratio (x) = 0.17780 0.27913
# Poissons Ratio (y) = 0.87036 -0.19600
# Poissons Ratio (z) = 0.60200 -0.08635
#
# Static dielectric constant tensor:
#      x y z
#    x 1.754540 -0.054780 0.047540 
#    y -0.054780 1.906800 0.023430 
#    z 0.047540 0.023430 1.769610 
# 
# From -- ./inp_files/327382.got.cif
#   From: 2010.05.17/outbox.cif.g08.bks.cpg/sg2_164_cif.got.tgz:327382.got - 2010.06.03 11:33:40.
