data_PCOD9006039
_publ_section_title
;
Structure prediction by ZEFSAII (Michael W. Deem and Ramdas Pophale) SiO2 
 PCOD9006039
Probable space group: P -1
;
_chemical_formula_sum "Si O2"
_cell_formula_units_Z 14
_cell_length_a 15.216064
_cell_length_b 25.533994
_cell_length_c 26.158284
_cell_angle_alpha 11.268617
_cell_angle_beta 161.379825
_cell_angle_gamma 160.484371
_cell_volume 619.836415
_symmetry_space_group_name_H-M "P -1"
_symmetry_group_IT_number 2
_symmetry_cell_setting 'triclinic'
loop_
_space_group_symop_operation_xyz
x,y,z
-x,-y,-z
loop_
_atom_site_type_symbol
_atom_site_label
_atom_site_fract_x
_atom_site_fract_y
_atom_site_fract_z
Si Si1 0.947729 0.699056 0.235654
Si Si2 0.966766 0.429938 0.702350
Si Si3 0.875316 0.202441 0.032486
Si Si4 0.792672 0.961435 0.723180
Si Si5 0.381359 0.292400 0.569325
Si Si6 0.088517 0.882255 0.609249
Si Si7 0.669818 0.616820 0.801504
O O1 0.629808 0.557426 0.180129
O O2 0.000000 0.500000 0.500000
O O3 0.115870 0.693954 0.280590
O O4 0.000000 0.000000 0.000000
O O5 0.691890 0.382775 0.631727
O O6 0.081502 0.753928 0.451846
O O7 0.196664 0.282794 0.997170
O O8 0.004883 0.092788 0.159138
O O9 0.137487 0.288664 0.133661
O O10 0.655956 0.965005 0.167375
O O11 0.739562 0.467816 0.699282
O O12 0.500000 0.000000 0.500000
O O13 0.173682 0.194236 0.500900
O O14 0.317903 0.115697 0.482844
O O15 0.195294 0.603845 0.943525
O O16 0.000000 0.000000 0.500000
#
# Coordination Sequence:
#
# PCOD9006039 Si02
#       7
#     2   2   2   2   2   2   2
#     4  12  27  45  67  96 137 186 222 280 344 399
#     4  12  27  45  67 104 137 174 230 287 331 411
#     4  10  22  43  67  98 132 177 220 277 341 399
#     4  12  26  45  73  99 134 181 229 280 337 405
#     4  10  23  40  65  99 140 170 221 277 339 406
#     4  10  21  38  64  93 125 175 217 275 322 394
#     4  10  22  40  63  92 126 169 225 268 326 398
#
# _framework density 22.586604999999999
#
# number of rings (size 3 to 8) (size 9 to 14) (size 15 to 20)
#    0.000    1.143    0.000    5.143    4.000    6.857 
#    0.000    0.000    0.000    0.000    0.000    0.000 
#    0.000    0.000    0.000    0.000    0.000    0.000 
#
# Total GULP energy -78386.050191 kJ/mol
# GULP energy per Si atom -5599.003585 kJ/mol
# Density = 2.253520 g / cm^3
# Si number density = 22.586605 Si / 1000 Ang^3
#
#
#
# Elastic Constant Matrix: (Units=GPa)
#
#
# Indices 1 2 3 4 5 6 
#
# 1 124.0611 4.9776 35.2483 2.6071 24.1511 -16.8336
# 2 4.9776 71.0770 11.9452 -6.3881 7.4084 0.4903
# 3 35.2483 11.9452 123.4835 -9.8573 6.3103 -13.3857
# 4 2.6071 -6.3881 -9.8573 37.7214 -5.4873 10.4668
# 5 24.1511 7.4084 6.3103 -5.4873 34.7039 -10.5980
# 6 -16.8336 0.4903 -13.3857 10.4668 -10.5980 23.5063
#
#
#
# Elastic Compliance Matrix: (Units=1/GPa)
#
#
# Indices 1 2 3 4 5 6 
#
# 1 0.010720 -0.000081 -0.002477 -0.003723 -0.005985 0.005228
# 2 -0.000081 0.014981 -0.001461 0.002761 -0.003690 -0.004096
# 3 -0.002477 -0.001461 0.009384 0.001610 0.001698 0.003649
# 4 -0.003723 0.002761 0.001610 0.032177 0.002168 -0.015157
# 5 -0.005985 -0.003690 0.001698 0.002168 0.037709 0.012794
# 6 0.005228 -0.004096 0.003649 -0.015157 0.012794 0.060967
#
#
# Mechanical properties :
#
#
# Convention : Reuss Voigt Hill
#
# Bulk Modulus (GPa) = 36.97262 46.99601 41.98431
# Shear Modulus (GPa) = 27.32353 36.94968 32.13660
#
# Velocity S-wave (km/s) = 3.48188 4.04903 3.77612
# Velocity P-wave (km/s) = 5.70697 6.53542 6.13519
#
# Compressibility (1/GPa) = 0.02704704
#
# Stress axis : x y z
#
# Youngs Moduli (GPa) = 93.28173 66.74908 106.56512
#
# Poissons Ratio (x) = 0.00543 0.26395
# Poissons Ratio (y) = 0.00759 0.15570
# Poissons Ratio (z) = 0.23105 0.09752
#
# Static dielectric constant tensor:
#      x y z
#    x 1.788010 -0.011780 -0.008160 
#    y -0.011780 1.872470 0.040730 
#    z -0.008160 0.040730 1.796320 
# 
# From -- ./inp_files/619985.got.cif
#   From: 2010.05.17/outbox.cif.g08.bks.cpg/sg2_310_cif.got.tgz:619985.got - 2010.06.03 11:33:40.
