data_PCOD9006760
_publ_section_title
;
Structure prediction by ZEFSAII (Michael W. Deem and Ramdas Pophale) SiO2 
 PCOD9006760
Probable space group: P -1
;
_chemical_formula_sum "Si O2"
_cell_formula_units_Z 16
_cell_length_a 14.052911
_cell_length_b 9.145322
_cell_length_c 11.425693
_cell_angle_alpha 80.091122
_cell_angle_beta 149.902119
_cell_angle_gamma 111.127084
_cell_volume 655.506186
_symmetry_space_group_name_H-M "P -1"
_symmetry_group_IT_number 2
_symmetry_cell_setting 'triclinic'
loop_
_space_group_symop_operation_xyz
x,y,z
-x,-y,-z
loop_
_atom_site_type_symbol
_atom_site_label
_atom_site_fract_x
_atom_site_fract_y
_atom_site_fract_z
Si Si1 0.773217 0.691838 0.009048
Si Si2 0.990570 0.982036 0.661384
Si Si3 0.283077 0.338108 0.306435
Si Si4 0.967146 0.494335 0.327096
Si Si5 0.406505 0.765720 0.691496
Si Si6 0.360689 0.096293 0.860610
Si Si7 0.515224 0.909506 0.409228
Si Si8 0.061161 0.722167 0.880770
O O1 0.763486 0.524267 0.075030
O O2 0.834427 0.702617 0.937801
O O3 0.557554 0.712363 0.782343
O O4 0.941938 0.832869 0.251196
O O5 0.752250 0.881944 0.378736
O O6 0.052885 0.897476 0.844739
O O7 0.155355 0.993274 0.733945
O O8 0.500000 0.500000 0.500000
O O9 0.331605 0.181197 0.410232
O O10 0.138520 0.378706 0.238763
O O11 0.166490 0.640479 0.458338
O O12 0.000000 0.500000 0.500000
O O13 0.955153 0.340352 0.260961
O O14 0.436294 0.946742 0.656926
O O15 0.495710 0.762871 0.918109
O O16 0.500000 0.000000 0.000000
O O17 0.500000 0.000000 0.500000
O O18 0.287490 0.759994 0.165235
#
# Coordination Sequence:
#
# PCOD9006760 Si02
#       8
#     2   2   2   2   2   2   2   2
#     4  11  24  49  73 105 147 193 249 305 374 443
#     4  10  23  42  69 106 137 182 248 304 354 437
#     4  12  28  48  76 111 155 198 243 312 383 448
#     4  12  31  49  75 106 156 201 247 308 390 440
#     4  11  25  47  73 110 145 194 254 306 365 454
#     4  10  21  38  68  97 142 182 236 300 358 418
#     4  12  26  48  81 112 150 197 258 303 374 448
#     4  12  28  48  73 112 148 194 252 310 375 444
#
# _framework density 24.408619000000002
#
# number of rings (size 3 to 8) (size 9 to 14) (size 15 to 20)
#    0.000    0.750    3.750    2.250   12.250    2.500 
#    2.250    0.000    0.000    0.000    0.000    0.000 
#    0.000    0.000    0.000    0.000    0.000    0.000 
#
# Total GULP energy -89413.245776 kJ/mol
# GULP energy per Si atom -5588.327861 kJ/mol
# Density = 2.435306 g / cm^3
# Si number density = 24.408619 Si / 1000 Ang^3
#
#
#
# Elastic Constant Matrix: (Units=GPa)
#
#
# Indices 1 2 3 4 5 6 
#
# 1 110.2008 22.4779 26.6450 2.3122 -15.3495 -27.5018
# 2 22.4779 74.2444 13.2958 -8.1329 6.7132 -10.4262
# 3 26.6450 13.2958 98.8360 -9.5429 -5.4533 -5.9612
# 4 2.3122 -8.1329 -9.5429 42.9460 0.3373 1.5975
# 5 -15.3495 6.7132 -5.4533 0.3373 35.5228 2.3780
# 6 -27.5018 -10.4262 -5.9612 1.5975 2.3780 33.2022
#
#
#
# Elastic Compliance Matrix: (Units=1/GPa)
#
#
# Indices 1 2 3 4 5 6 
#
# 1 0.013476 -0.003023 -0.002576 -0.002265 0.005386 0.009474
# 2 -0.003023 0.015651 -0.001128 0.002823 -0.004625 0.002404
# 3 -0.002576 -0.001128 0.011206 0.002433 0.000841 -0.000654
# 4 -0.002265 0.002823 0.002433 0.024553 -0.001262 -0.001644
# 5 0.005386 -0.004625 0.000841 -0.001262 0.031429 0.000970
# 6 0.009474 0.002404 -0.000654 -0.001644 0.000970 0.038613
#
#
# Mechanical properties :
#
#
# Convention : Reuss Voigt Hill
#
# Bulk Modulus (GPa) = 37.20563 45.34651 41.27607
# Shear Modulus (GPa) = 31.77783 37.05836 34.41809
#
# Velocity S-wave (km/s) = 3.61211 3.90070 3.75918
# Velocity P-wave (km/s) = 5.71598 6.23744 5.98239
#
# Compressibility (1/GPa) = 0.02687765
#
# Stress axis : x y z
#
# Youngs Moduli (GPa) = 74.20642 63.89228 89.23829
#
# Poissons Ratio (x) = 0.19317 0.22991
# Poissons Ratio (y) = 0.22435 0.10067
# Poissons Ratio (z) = 0.19118 0.07208
#
# Static dielectric constant tensor:
#      x y z
#    x 2.110800 0.040900 -0.060040 
#    y 0.040900 1.914940 -0.022650 
#    z -0.060040 -0.022650 1.986940 
# 
# From -- ./inp_files/447423.got.cif
#   From: 2010.05.17/outbox.cif.g08.bks.cpg/sg2_224_cif.got.tgz:447423.got - 2010.06.03 11:33:40.
