data_PCOD9006765
_publ_section_title
;
Structure prediction by ZEFSAII (Michael W. Deem and Ramdas Pophale) SiO2 
 PCOD9006765
Probable space group: P -1
;
_chemical_formula_sum "Si O2"
_cell_formula_units_Z 16
_cell_length_a 18.631846
_cell_length_b 9.360479
_cell_length_c 7.465149
_cell_angle_alpha 69.758196
_cell_angle_beta 102.871404
_cell_angle_gamma 44.833983
_cell_volume 608.528526
_symmetry_space_group_name_H-M "P -1"
_symmetry_group_IT_number 2
_symmetry_cell_setting 'triclinic'
loop_
_space_group_symop_operation_xyz
x,y,z
-x,-y,-z
loop_
_atom_site_type_symbol
_atom_site_label
_atom_site_fract_x
_atom_site_fract_y
_atom_site_fract_z
Si Si1 0.234046 0.398610 0.428399
Si Si2 0.773890 0.852446 0.894511
Si Si3 0.856431 0.852717 0.279596
Si Si4 0.360375 0.705505 0.714304
Si Si5 0.987844 0.734382 0.919189
Si Si6 0.784776 0.306857 0.999325
Si Si7 0.449439 0.843435 0.557962
Si Si8 0.216387 0.654417 0.609082
O O1 0.243873 0.451615 0.605450
O O2 0.378950 0.057043 0.591582
O O3 0.204798 0.592693 0.195939
O O4 0.102946 0.526109 0.236520
O O5 0.858722 0.851293 0.848790
O O6 0.646567 0.945077 0.757059
O O7 0.750001 0.960097 0.033295
O O8 0.915221 0.492611 0.094948
O O9 0.000000 0.500000 0.500000
O O10 0.774483 0.015032 0.353277
O O11 0.877500 0.989998 0.171062
O O12 0.381939 0.792034 0.532358
O O13 0.341379 0.564367 0.709455
O O14 0.500000 0.500000 0.000000
O O15 0.915873 0.022590 0.701373
O O16 0.809484 0.322737 0.205707
O O17 0.617209 0.551948 0.783790
#
# Coordination Sequence:
#
# PCOD9006765 Si02
#       8
#     2   2   2   2   2   2   2   2
#     4  11  26  43  65 100 136 188 229 273 341 426
#     4  10  21  38  68  98 133 177 225 290 341 397
#     4  11  24  39  67 105 134 171 232 287 338 408
#     4  11  22  45  69 101 138 177 231 288 342 401
#     4  10  21  40  65  95 138 180 227 277 348 408
#     4  11  25  45  67 100 141 176 230 285 338 419
#     4  11  23  45  69  97 137 179 229 283 340 411
#     4  11  22  42  69  93 137 183 222 288 347 392
#
# _framework density 26.292932
#
# number of rings (size 3 to 8) (size 9 to 14) (size 15 to 20)
#    0.000    1.250    3.750    3.000    3.500    2.500 
#    4.500    1.250    0.000    0.000    0.000    0.000 
#    0.000    0.000    0.000    0.000    0.000    0.000 
#
# Total GULP energy -89378.850469 kJ/mol
# GULP energy per Si atom -5586.178154 kJ/mol
# Density = 2.623309 g / cm^3
# Si number density = 26.292932 Si / 1000 Ang^3
#
#
#
# Elastic Constant Matrix: (Units=GPa)
#
#
# Indices 1 2 3 4 5 6 
#
# 1 99.6542 101.6711 -93.0439 -18.3624 -0.1572 7.2374
# 2 101.6711 384.6942 -280.4128 21.2950 -11.5084 30.4151
# 3 -93.0439 -280.4128 423.2410 -3.5761 46.2168 -10.3420
# 4 -18.3624 21.2950 -3.5761 40.1481 9.4134 3.7162
# 5 -0.1572 -11.5084 46.2168 9.4134 41.8431 0.1611
# 6 7.2374 30.4151 -10.3420 3.7162 0.1611 27.8798
#
#
#
# Elastic Compliance Matrix: (Units=1/GPa)
#
#
# Indices 1 2 3 4 5 6 
#
# 1 0.018619 -0.004211 0.002054 0.012479 -0.006160 -0.001105
# 2 -0.004211 0.006953 0.003649 -0.004618 -0.001078 -0.004516
# 3 0.002054 0.003649 0.005794 0.001067 -0.005619 -0.002474
# 4 0.012479 -0.004618 0.001067 0.035845 -0.010456 -0.002523
# 5 -0.006160 -0.001078 -0.005619 -0.010456 0.032130 0.001899
# 6 -0.001105 -0.004516 -0.002474 -0.002523 0.001899 0.040490
#
#
# Mechanical properties :
#
#
# Convention : Reuss Voigt Hill
#
# Bulk Modulus (GPa) = 29.11227 40.44646 34.77936
# Shear Modulus (GPa) = 33.71625 100.59918 67.15771
#
# Velocity S-wave (km/s) = 3.58485 6.19225 5.05940
# Velocity P-wave (km/s) = 5.31330 8.15731 6.88378
#
# Compressibility (1/GPa) = 0.03434978
#
# Stress axis : x y z
#
# Youngs Moduli (GPa) = 53.70863 143.82778 172.59242
#
# Poissons Ratio (x) = 0.60568 -0.35454
# Poissons Ratio (y) = 0.22618 -0.62979
# Poissons Ratio (z) = -0.11033 -0.52483
#
# Static dielectric constant tensor:
#      x y z
#    x 2.230980 0.053610 -0.078790 
#    y 0.053610 2.033330 -0.002540 
#    z -0.078790 -0.002540 1.972430 
# 
# From -- ./inp_files/343555.got.cif
#   From: 2010.05.17/outbox.cif.g08.bks.cpg/sg2_172_cif.got.tgz:343555.got - 2010.06.03 11:33:40.
