data_PCOD9006816
_publ_section_title
;
Structure prediction by ZEFSAII (Michael W. Deem and Ramdas Pophale) SiO2 
 PCOD9006816
Probable space group: P -1
;
_chemical_formula_sum "Si O2"
_cell_formula_units_Z 16
_cell_length_a 8.219714
_cell_length_b 11.276828
_cell_length_c 14.529490
_cell_angle_alpha 125.211171
_cell_angle_beta 52.891806
_cell_angle_gamma 140.688290
_cell_volume 664.189983
_symmetry_space_group_name_H-M "P -1"
_symmetry_group_IT_number 2
_symmetry_cell_setting 'triclinic'
loop_
_space_group_symop_operation_xyz
x,y,z
-x,-y,-z
loop_
_atom_site_type_symbol
_atom_site_label
_atom_site_fract_x
_atom_site_fract_y
_atom_site_fract_z
Si Si1 0.440600 0.941350 0.276008
Si Si2 0.589452 0.760477 0.004245
Si Si3 0.442823 0.465955 0.356994
Si Si4 0.146109 0.733724 0.596796
Si Si5 0.245449 0.628039 0.899091
Si Si6 0.850338 0.615336 0.908760
Si Si7 0.860631 0.391525 0.651480
Si Si8 0.289111 0.186885 0.451128
O O1 0.533432 0.870640 0.137553
O O2 0.168499 0.753435 0.332355
O O3 0.669648 0.058257 0.329248
O O4 0.401489 0.087856 0.327078
O O5 0.364446 0.532161 0.005884
O O6 0.514470 0.780052 0.936631
O O7 0.846922 0.781239 0.952365
O O8 0.665694 0.476034 0.231243
O O9 0.325429 0.319574 0.417160
O O10 0.586446 0.675426 0.440515
O O11 0.168480 0.369273 0.350626
O O12 0.249314 0.726871 0.459606
O O13 0.129335 0.589808 0.608904
O O14 0.130946 0.688240 0.889419
O O15 0.000000 0.500000 0.000000
O O16 0.761968 0.477071 0.788699
O O17 0.000000 0.000000 0.500000
#
# Coordination Sequence:
#
# PCOD9006816 Si02
#       8
#     2   2   2   2   2   2   2   2
#     4  11  24  43  69 101 142 184 235 298 363 426
#     4   9  20  41  63 101 134 182 245 286 352 428
#     4  11  26  45  69 106 140 185 243 292 362 441
#     4  11  23  40  68 102 138 180 234 299 361 429
#     4  10  22  41  73 100 140 193 240 297 360 426
#     4   9  19  37  69  94 132 188 230 294 358 419
#     4  10  21  38  69  98 136 180 233 292 363 430
#     4  11  26  44  73 104 143 189 232 298 366 428
#
# _framework density 24.089493000000001
#
# number of rings (size 3 to 8) (size 9 to 14) (size 15 to 20)
#    0.000    1.750    0.000    3.375   10.500    2.000 
#    2.250    3.125    0.000    0.000    0.000    0.000 
#    0.000    0.000    0.000    0.000    0.000    0.000 
#
# Total GULP energy -89138.139601 kJ/mol
# GULP energy per Si atom -5571.133725 kJ/mol
# Density = 2.403466 g / cm^3
# Si number density = 24.089493 Si / 1000 Ang^3
#
#
#
# Elastic Constant Matrix: (Units=GPa)
#
#
# Indices 1 2 3 4 5 6 
#
# 1 142.2104 29.5333 53.9649 17.4439 -15.3777 4.0477
# 2 29.5333 96.6768 29.2697 4.6872 -9.0325 -4.0321
# 3 53.9649 29.2697 138.6274 19.5275 -10.1623 9.9852
# 4 17.4439 4.6872 19.5275 44.6186 -3.3010 -6.6494
# 5 -15.3777 -9.0325 -10.1623 -3.3010 35.9713 -0.4536
# 6 4.0477 -4.0321 9.9852 -6.6494 -0.4536 16.7729
#
#
#
# Elastic Compliance Matrix: (Units=1/GPa)
#
#
# Indices 1 2 3 4 5 6 
#
# 1 0.008932 -0.001723 -0.002462 -0.002346 0.002450 -0.001968
# 2 -0.001723 0.011876 -0.002266 0.001324 0.001792 0.005193
# 3 -0.002462 -0.002266 0.009820 -0.004154 0.000678 -0.007425
# 4 -0.002346 0.001324 -0.004154 0.027179 0.000829 0.014154
# 5 0.002450 0.001792 0.000678 0.000829 0.029572 0.000564
# 6 -0.001968 0.005193 -0.007425 0.014154 0.000564 0.071390
#
#
# Mechanical properties :
#
#
# Convention : Reuss Voigt Hill
#
# Bulk Modulus (GPa) = 56.40999 67.00560 61.70780
# Shear Modulus (GPa) = 28.15641 37.12234 32.63938
#
# Velocity S-wave (km/s) = 3.42252 3.92984 3.68492
# Velocity P-wave (km/s) = 6.25187 6.96184 6.61638
#
# Compressibility (1/GPa) = 0.01772736
#
# Stress axis : x y z
#
# Youngs Moduli (GPa) = 111.95075 84.20377 101.83399
#
# Poissons Ratio (x) = 0.14507 0.25068
# Poissons Ratio (y) = 0.19288 0.23076
# Poissons Ratio (z) = 0.27558 0.19081
#
# Static dielectric constant tensor:
#      x y z
#    x 2.085380 0.036410 -0.041600 
#    y 0.036410 1.907180 -0.030570 
#    z -0.041600 -0.030570 1.946030 
# 
# From -- ./inp_files/500794.got.cif
#   From: 2010.05.17/outbox.cif.g08.bks.cpg/sg2_251_cif.got.tgz:500794.got - 2010.06.03 11:33:40.
