data_PCOD9006242
_publ_section_title
;
Structure prediction by ZEFSAII (Michael W. Deem and Ramdas Pophale) SiO2 
 PCOD9006242
Probable space group: P -1
;
_chemical_formula_sum "Si O2"
_cell_formula_units_Z 14
_cell_length_a 10.224585
_cell_length_b 10.779640
_cell_length_c 11.747523
_cell_angle_alpha 129.737336
_cell_angle_beta 51.202996
_cell_angle_gamma 141.182553
_cell_volume 601.545807
_symmetry_space_group_name_H-M "P -1"
_symmetry_group_IT_number 2
_symmetry_cell_setting 'triclinic'
loop_
_space_group_symop_operation_xyz
x,y,z
-x,-y,-z
loop_
_atom_site_type_symbol
_atom_site_label
_atom_site_fract_x
_atom_site_fract_y
_atom_site_fract_z
Si Si1 0.948156 0.199184 0.778102
Si Si2 0.696672 0.805309 0.380355
Si Si3 0.473130 0.175862 0.128463
Si Si4 0.003118 0.744470 0.620794
Si Si5 0.083443 0.598486 0.872807
Si Si6 0.258619 0.675729 0.594172
Si Si7 0.575481 0.573385 0.872070
O O1 0.159356 0.229156 0.644790
O O2 0.914927 0.347112 0.814844
O O3 0.746471 0.954955 0.754901
O O4 0.979038 0.295937 0.945968
O O5 0.511984 0.797571 0.537573
O O6 0.566869 0.628417 0.250412
O O7 0.872516 0.025632 0.355329
O O8 0.697434 0.354340 0.171693
O O9 0.449401 0.264756 0.078310
O O10 0.500000 0.000000 0.000000
O O11 0.863069 0.569128 0.497847
O O12 0.825576 0.677097 0.774702
O O13 0.187472 0.733470 0.557149
O O14 0.154244 0.701657 0.772935
O O15 0.500000 0.500000 0.000000
#
# Coordination Sequence:
#
# PCOD9006242 Si02
#       7
#     2   2   2   2   2   2   2
#     4  10  21  38  65  91 126 161 202 265 316 368
#     4  11  22  41  65  90 130 163 210 259 320 370
#     4  10  21  40  61  93 133 163 204 264 317 377
#     4  10  23  44  63  88 132 165 213 259 319 373
#     4  10  22  40  64  91 127 162 212 256 319 370
#     4  10  24  42  64  91 124 173 211 261 308 389
#     4  11  24  39  65 100 128 162 213 266 316 378
#
# _framework density 23.273374
#
# number of rings (size 3 to 8) (size 9 to 14) (size 15 to 20)
#    0.000    1.714    2.857    0.429    2.000    4.571 
#    0.000    1.429    0.000    0.000    0.000    0.000 
#    0.000    0.000    0.000    0.000    0.000    0.000 
#
# Total GULP energy -78119.140555 kJ/mol
# GULP energy per Si atom -5579.938611 kJ/mol
# Density = 2.322040 g / cm^3
# Si number density = 23.273374 Si / 1000 Ang^3
#
#
#
# Elastic Constant Matrix: (Units=GPa)
#
#
# Indices 1 2 3 4 5 6 
#
# 1 85.3882 18.2197 10.1509 -3.7230 -26.7241 3.0904
# 2 18.2197 118.1766 5.4644 2.1876 -12.9726 0.3173
# 3 10.1509 5.4644 64.1759 -13.5755 -9.2601 2.5935
# 4 -3.7230 2.1876 -13.5755 19.4634 -0.0885 -13.0658
# 5 -26.7241 -12.9726 -9.2601 -0.0885 34.5081 -7.3654
# 6 3.0904 0.3173 2.5935 -13.0658 -7.3654 24.1098
#
#
#
# Elastic Compliance Matrix: (Units=1/GPa)
#
#
# Indices 1 2 3 4 5 6 
#
# 1 0.016336 -0.001215 0.001075 0.008583 0.013938 0.006716
# 2 -0.001215 0.008955 -0.000622 -0.001789 0.002214 -0.000188
# 3 0.001075 -0.000622 0.021426 0.024427 0.009325 0.013652
# 4 0.008583 -0.001789 0.024427 0.115476 0.027163 0.067174
# 5 0.013938 0.002214 0.009325 0.027163 0.048906 0.026842
# 6 0.006716 -0.000188 0.013652 0.067174 0.026842 0.083754
#
#
# Mechanical properties :
#
#
# Convention : Reuss Voigt Hill
#
# Bulk Modulus (GPa) = 22.12742 37.26789 29.69765
# Shear Modulus (GPa) = 16.05440 31.20997 23.63219
#
# Velocity S-wave (km/s) = 2.62929 3.66596 3.19002
# Velocity P-wave (km/s) = 4.32964 5.82811 5.13384
#
# Compressibility (1/GPa) = 0.04519280
#
# Stress axis : x y z
#
# Youngs Moduli (GPa) = 61.21391 111.67418 46.67227
#
# Poissons Ratio (x) = 0.13570 -0.05017
# Poissons Ratio (y) = 0.07439 0.02901
# Poissons Ratio (z) = -0.06580 0.06942
#
# Static dielectric constant tensor:
#      x y z
#    x 1.887260 0.045160 -0.015640 
#    y 0.045160 1.935290 -0.021240 
#    z -0.015640 -0.021240 1.914980 
# 
# From -- ./inp_files/382879.got.cif
#   From: 2010.05.17/outbox.cif.g08.bks.cpg/sg2_192_cif.got.tgz:382879.got - 2010.06.03 11:33:40.
