data_PCOD9006718
_publ_section_title
;
Structure prediction by ZEFSAII (Michael W. Deem and Ramdas Pophale) SiO2 
 PCOD9006718
Probable space group: P -1
;
_chemical_formula_sum "Si O2"
_cell_formula_units_Z 16
_cell_length_a 13.081265
_cell_length_b 12.082961
_cell_length_c 11.864689
_cell_angle_alpha 100.074148
_cell_angle_beta 77.753197
_cell_angle_gamma 156.468387
_cell_volume 730.778777
_symmetry_space_group_name_H-M "P -1"
_symmetry_group_IT_number 2
_symmetry_cell_setting 'triclinic'
loop_
_space_group_symop_operation_xyz
x,y,z
-x,-y,-z
loop_
_atom_site_type_symbol
_atom_site_label
_atom_site_fract_x
_atom_site_fract_y
_atom_site_fract_z
Si Si1 0.670372 0.824822 0.472473
Si Si2 0.634951 0.026371 0.416619
Si Si3 0.027805 0.140076 0.247010
Si Si4 0.597211 0.638934 0.684534
Si Si5 0.701917 0.540995 0.087064
Si Si6 0.769052 0.933471 0.050536
Si Si7 0.192254 0.547162 0.267660
Si Si8 0.947796 0.565093 0.963482
O O1 0.588183 0.871722 0.479079
O O2 0.700404 0.821528 0.594576
O O3 0.494871 0.560937 0.400263
O O4 0.929259 0.067909 0.383155
O O5 0.461555 0.836977 0.313634
O O6 0.500000 0.000000 0.500000
O O7 0.938034 0.329412 0.363735
O O8 0.184657 0.405267 0.223561
O O9 0.201821 0.203611 0.239667
O O10 0.796039 0.916841 0.169941
O O11 0.376358 0.486217 0.779100
O O12 0.968451 0.851615 0.032107
O O13 0.479772 0.343519 0.011301
O O14 0.758545 0.462274 0.059656
O O15 0.814463 0.114122 0.061844
O O16 0.166188 0.575236 0.156929
O O17 0.000000 0.500000 0.000000
#
# Coordination Sequence:
#
# PCOD9006718 Si02
#       8
#     2   2   2   2   2   2   2   2
#     4  10  24  41  65  94 127 181 212 269 329 389
#     4  11  23  44  67  96 124 165 225 268 320 377
#     4  10  21  38  68  88 130 173 215 264 325 390
#     4  11  23  42  63  93 138 171 222 263 330 390
#     4  10  24  41  62  97 128 168 217 270 319 384
#     4   9  23  41  62  95 130 163 223 261 321 383
#     4  10  22  40  65  93 127 166 213 266 325 385
#     4   9  22  41  64  94 128 172 211 264 332 384
#
# _framework density 21.894449000000002
#
# number of rings (size 3 to 8) (size 9 to 14) (size 15 to 20)
#    0.750    1.250    1.250    0.750    8.750    2.500 
#    2.250    0.000    0.000    0.000    0.000    0.000 
#    0.000    0.000    0.000    0.000    0.000    0.000 
#
# Total GULP energy -89284.988890 kJ/mol
# GULP energy per Si atom -5580.311806 kJ/mol
# Density = 2.184462 g / cm^3
# Si number density = 21.894449 Si / 1000 Ang^3
#
#
#
# Elastic Constant Matrix: (Units=GPa)
#
#
# Indices 1 2 3 4 5 6 
#
# 1 171.3417 26.7684 70.1205 -16.5779 10.0509 -2.5680
# 2 26.7684 53.8952 18.5785 2.7971 5.6440 20.0500
# 3 70.1205 18.5785 98.8038 -18.8680 14.4509 1.8884
# 4 -16.5779 2.7971 -18.8680 34.5403 2.4787 1.8144
# 5 10.0509 5.6440 14.4509 2.4787 42.8586 -3.7599
# 6 -2.5680 20.0500 1.8884 1.8144 -3.7599 29.2473
#
#
#
# Elastic Compliance Matrix: (Units=1/GPa)
#
#
# Indices 1 2 3 4 5 6 
#
# 1 0.008851 -0.004134 -0.005396 0.001389 0.000554 0.003944
# 2 -0.004134 0.029888 -0.002605 -0.004468 -0.003661 -0.020877
# 3 -0.005396 -0.002605 0.016424 0.006948 -0.004397 -0.000745
# 4 0.001389 -0.004468 0.006948 0.034060 -0.004041 0.000104
# 5 0.000554 -0.003661 -0.004397 -0.004041 0.025965 0.006431
# 6 0.003944 -0.020877 -0.000745 0.000104 0.006431 0.049718
#
#
# Mechanical properties :
#
#
# Convention : Reuss Voigt Hill
#
# Bulk Modulus (GPa) = 32.36813 61.66395 47.01604
# Shear Modulus (GPa) = 25.06613 35.23410 30.15012
#
# Velocity S-wave (km/s) = 3.38725 4.01592 3.71491
# Velocity P-wave (km/s) = 5.48760 7.05187 6.31833
#
# Compressibility (1/GPa) = 0.03089459
#
# Stress axis : x y z
#
# Youngs Moduli (GPa) = 112.97945 33.45871 60.88604
#
# Poissons Ratio (x) = 0.13831 0.32851
# Poissons Ratio (y) = 0.46702 0.15861
# Poissons Ratio (z) = 0.60958 0.08716
#
# Static dielectric constant tensor:
#      x y z
#    x 1.828290 0.007750 -0.049260 
#    y 0.007750 1.879090 0.011590 
#    z -0.049260 0.011590 1.827170 
# 
# From -- ./inp_files/426185.got.cif
#   From: 2010.05.17/outbox.cif.g08.bks.cpg/sg2_214_cif.got.tgz:426185.got - 2010.06.03 11:33:40.
