data_PCOD9006351
_publ_section_title
;
Structure prediction by ZEFSAII (Michael W. Deem and Ramdas Pophale) SiO2 
 PCOD9006351
Probable space group: P -1
;
_chemical_formula_sum "Si O2"
_cell_formula_units_Z 14
_cell_length_a 9.810860
_cell_length_b 18.432471
_cell_length_c 26.327561
_cell_angle_alpha 16.627415
_cell_angle_beta 25.700986
_cell_angle_gamma 27.764238
_cell_volume 581.900629
_symmetry_space_group_name_H-M "P -1"
_symmetry_group_IT_number 2
_symmetry_cell_setting 'triclinic'
loop_
_space_group_symop_operation_xyz
x,y,z
-x,-y,-z
loop_
_atom_site_type_symbol
_atom_site_label
_atom_site_fract_x
_atom_site_fract_y
_atom_site_fract_z
Si Si1 0.272367 0.789175 0.570490
Si Si2 0.942376 0.309376 0.802120
Si Si3 0.301236 0.685002 0.743872
Si Si4 0.217822 0.409432 0.535027
Si Si5 0.067958 0.184752 0.128315
Si Si6 0.863885 0.341008 0.988012
Si Si7 0.329502 0.220886 0.823534
O O1 0.373072 0.803735 0.585655
O O2 0.541445 0.815370 0.421380
O O3 0.118405 0.531908 0.786524
O O4 0.000000 0.000000 0.500000
O O5 0.603681 0.500055 0.791738
O O6 0.047413 0.343307 0.686781
O O7 0.176327 0.382033 0.718360
O O8 0.000000 0.000000 0.000000
O O9 0.123145 0.885174 0.710952
O O10 0.073753 0.484843 0.936448
O O11 0.420494 0.626262 0.336952
O O12 0.000000 0.500000 0.500000
O O13 0.433749 0.040005 0.097766
O O14 0.896684 0.164892 0.145530
O O15 0.035262 0.201123 0.973901
O O16 0.500000 0.500000 0.000000
#
# Coordination Sequence:
#
# PCOD9006351 Si02
#       7
#     2   2   2   2   2   2   2
#     4  10  23  41  66  93 130 183 228 277 340 403
#     4  12  24  42  70 102 134 181 228 278 346 405
#     4  10  21  41  62  98 136 173 227 279 334 409
#     4  11  25  46  68  96 142 179 229 287 337 405
#     4  10  21  38  65  96 135 172 220 284 338 401
#     4  10  22  41  63  93 138 172 226 281 335 409
#     4  11  24  41  67 103 134 180 228 278 347 406
#
# _framework density 24.059090999999999
#
# number of rings (size 3 to 8) (size 9 to 14) (size 15 to 20)
#    0.000    1.429    2.857    1.714    2.000    4.571 
#    0.000    0.714    0.000    0.000    0.000    0.000 
#    0.000    0.000    0.000    0.000    0.000    0.000 
#
# Total GULP energy -78106.829468 kJ/mol
# GULP energy per Si atom -5579.059248 kJ/mol
# Density = 2.400433 g / cm^3
# Si number density = 24.059091 Si / 1000 Ang^3
#
#
#
# Elastic Constant Matrix: (Units=GPa)
#
#
# Indices 1 2 3 4 5 6 
#
# 1 155.7076 60.7418 25.0381 13.3241 23.2588 -3.0395
# 2 60.7418 193.7585 19.4538 30.5208 33.3495 7.2347
# 3 25.0381 19.4538 64.6951 22.6024 9.3673 13.0381
# 4 13.3241 30.5208 22.6024 33.3533 4.5725 10.6158
# 5 23.2588 33.3495 9.3673 4.5725 30.5291 9.6894
# 6 -3.0395 7.2347 13.0381 10.6158 9.6894 46.8497
#
#
#
# Elastic Compliance Matrix: (Units=1/GPa)
#
#
# Indices 1 2 3 4 5 6 
#
# 1 0.008176 -0.001587 -0.002411 -0.000346 -0.004482 0.002452
# 2 -0.001587 0.007778 0.001454 -0.006917 -0.007120 0.001331
# 3 -0.002411 0.001454 0.021827 -0.013850 -0.003555 -0.002582
# 4 -0.000346 -0.006917 -0.013850 0.047154 0.007323 -0.007299
# 5 -0.004482 -0.007120 -0.003555 0.007323 0.046983 -0.009578
# 6 0.002452 0.001331 -0.002582 -0.007299 -0.009578 0.025652
#
#
# Mechanical properties :
#
#
# Convention : Reuss Voigt Hill
#
# Bulk Modulus (GPa) = 30.58719 69.40316 49.99518
# Shear Modulus (GPa) = 28.80944 42.74158 35.77551
#
# Velocity S-wave (km/s) = 3.46417 4.21946 3.86033
# Velocity P-wave (km/s) = 5.36112 7.25589 6.37925
#
# Compressibility (1/GPa) = 0.03269342
#
# Stress axis : x y z
#
# Youngs Moduli (GPa) = 122.30923 128.57190 45.81537
#
# Poissons Ratio (x) = 0.20398 0.11048
# Poissons Ratio (y) = 0.19405 -0.06663
# Poissons Ratio (z) = 0.29493 -0.18699
#
# Static dielectric constant tensor:
#      x y z
#    x 1.965480 0.103090 -0.028420 
#    y 0.103090 1.915030 0.016340 
#    z -0.028420 0.016340 2.011280 
# 
# From -- ./inp_files/158194.got.cif
#   From: 2010.05.17/outbox.cif.g08.bks.cpg/sg2_80_cif.got.tgz:158194.got - 2010.06.03 11:33:40.
