data_PCOD9006318
_publ_section_title
;
Structure prediction by ZEFSAII (Michael W. Deem and Ramdas Pophale) SiO2 
 PCOD9006318
Probable space group: P -1
;
_chemical_formula_sum "Si O2"
_cell_formula_units_Z 13
_cell_length_a 13.875931
_cell_length_b 4.902854
_cell_length_c 8.687891
_cell_angle_alpha 88.592297
_cell_angle_beta 60.647159
_cell_angle_gamma 106.095779
_cell_volume 485.804302
_symmetry_space_group_name_H-M "P -1"
_symmetry_group_IT_number 2
_symmetry_cell_setting 'triclinic'
loop_
_space_group_symop_operation_xyz
x,y,z
-x,-y,-z
loop_
_atom_site_type_symbol
_atom_site_label
_atom_site_fract_x
_atom_site_fract_y
_atom_site_fract_z
Si Si1 0.000000 0.000000 0.500000
Si Si2 0.417185 0.860656 0.711633
Si Si3 0.759599 0.431556 0.606405
Si Si4 0.795030 0.973898 0.756575
Si Si5 0.069255 0.258142 0.764413
Si Si6 0.822088 0.061862 0.077070
Si Si7 0.492454 0.579536 0.184553
O O1 0.967666 0.990754 0.335065
O O2 0.081341 0.797240 0.392702
O O3 0.440364 0.575154 0.755106
O O4 0.500000 0.000000 0.500000
O O5 0.282324 0.829100 0.786605
O O6 0.459391 0.083893 0.817306
O O7 0.714603 0.123760 0.731182
O O8 0.840559 0.468770 0.395997
O O9 0.644352 0.516464 0.661304
O O10 0.826564 0.700385 0.666060
O O11 0.774118 0.921736 0.950438
O O12 0.143343 0.152847 0.834323
O O13 0.949679 0.284209 0.926578
O O14 0.500000 0.500000 0.000000
#
# Coordination Sequence:
#
# PCOD9006318 Si02
#       7
#     1   2   2   2   2   2   2
#     4   8  18  36  60  92 122 166 206 258 322 384
#     4  12  26  45  69  99 141 181 225 282 340 403
#     4  11  22  42  67  99 130 176 223 274 333 391
#     4  10  21  38  65  94 136 169 218 273 327 397
#     4   9  20  39  68  95 133 170 218 273 331 404
#     4  10  21  41  64  98 132 175 219 272 338 396
#     4  12  25  45  73 101 135 181 234 282 330 399
#
# _framework density 26.759747000000001
#
# number of rings (size 3 to 8) (size 9 to 14) (size 15 to 20)
#    0.000    1.538    0.000    4.615    0.000    6.769 
#    0.000    6.154    0.000   24.923    0.000    0.000 
#    0.000    0.000    0.000    0.000    0.000    0.000 
#
# Total GULP energy -72463.424056 kJ/mol
# GULP energy per Si atom -5574.109543 kJ/mol
# Density = 2.669884 g / cm^3
# Si number density = 26.759747 Si / 1000 Ang^3
#
#
#
# Elastic Constant Matrix: (Units=GPa)
#
#
# Indices 1 2 3 4 5 6 
#
# 1 144.5094 25.7728 86.0310 -1.7055 -8.7873 -34.0966
# 2 25.7728 92.0111 12.6916 1.7977 11.9263 -0.2651
# 3 86.0310 12.6916 156.0843 -1.9550 -17.1482 -6.9534
# 4 -1.7055 1.7977 -1.9550 25.5418 -5.2766 6.2836
# 5 -8.7873 11.9263 -17.1482 -5.2766 51.9004 9.1980
# 6 -34.0966 -0.2651 -6.9534 6.2836 9.1980 42.1852
#
#
#
# Elastic Compliance Matrix: (Units=1/GPa)
#
#
# Indices 1 2 3 4 5 6 
#
# 1 0.014243 -0.002689 -0.007348 -0.002458 -0.001598 0.010998
# 2 -0.002689 0.012036 0.000090 -0.001369 -0.003118 -0.001199
# 3 -0.007348 0.000090 0.010619 0.002320 0.003415 -0.005279
# 4 -0.002458 -0.001369 0.002320 0.042980 0.006715 -0.009479
# 5 -0.001598 -0.003118 0.003415 0.006715 0.022712 -0.006700
# 6 0.010998 -0.001199 -0.005279 -0.009479 -0.006700 0.034590
#
#
# Mechanical properties :
#
#
# Convention : Reuss Voigt Hill
#
# Bulk Modulus (GPa) = 58.80875 71.28841 65.04858
# Shear Modulus (GPa) = 30.72332 41.79942 36.26137
#
# Velocity S-wave (km/s) = 3.39206 3.95654 3.68512
# Velocity P-wave (km/s) = 6.11275 6.89712 6.51675
#
# Compressibility (1/GPa) = 0.01700427
#
# Stress axis : x y z
#
# Youngs Moduli (GPa) = 70.20933 83.08071 94.17314
#
# Poissons Ratio (x) = 0.22342 0.69200
# Poissons Ratio (y) = 0.18881 -0.00851
# Poissons Ratio (z) = 0.51591 -0.00751
#
# Static dielectric constant tensor:
#      x y z
#    x 2.283810 -0.203200 0.136750 
#    y -0.203200 1.780670 0.241980 
#    z 0.136750 0.241980 1.922860 
# 
# From -- ./inp_files/286955.got.cif
#   From: 2010.05.17/outbox.cif.g08.bks.cpg/sg2_144_cif.got.tgz:286955.got - 2010.06.03 11:33:40.
