data_PCOD9006169
_publ_section_title
;
Structure prediction by ZEFSAII (Michael W. Deem and Ramdas Pophale) SiO2 
 PCOD9006169
Probable space group: P -1
;
_chemical_formula_sum "Si O2"
_cell_formula_units_Z 14
_cell_length_a 15.713968
_cell_length_b 7.679672
_cell_length_c 7.377657
_cell_angle_alpha 102.190823
_cell_angle_beta 37.658923
_cell_angle_gamma 91.358847
_cell_volume 516.114895
_symmetry_space_group_name_H-M "P -1"
_symmetry_group_IT_number 2
_symmetry_cell_setting 'triclinic'
loop_
_space_group_symop_operation_xyz
x,y,z
-x,-y,-z
loop_
_atom_site_type_symbol
_atom_site_label
_atom_site_fract_x
_atom_site_fract_y
_atom_site_fract_z
Si Si1 0.713279 0.119355 0.793735
Si Si2 0.733271 0.093593 0.154846
Si Si3 0.132872 0.307397 0.516034
Si Si4 0.322922 0.283951 0.862861
Si Si5 0.555596 0.301953 0.778055
Si Si6 0.838548 0.540523 0.129415
Si Si7 0.998225 0.858285 0.809330
O O1 0.674079 0.169401 0.077579
O O2 0.700848 0.242317 0.400687
O O3 0.840441 0.215305 0.545882
O O4 0.788127 0.902940 0.622639
O O5 0.588935 0.169046 0.866603
O O6 0.661302 0.923068 0.281058
O O7 0.899039 0.982619 0.851780
O O8 0.180470 0.344094 0.242386
O O9 0.961155 0.360158 0.837331
O O10 0.187761 0.424817 0.606049
O O11 0.298531 0.416746 0.760620
O O12 0.443252 0.281665 0.808508
O O13 0.500000 0.500000 0.000000
O O14 0.920911 0.702520 0.971729
O O15 0.000000 0.000000 0.000000
#
# Coordination Sequence:
#
# PCOD9006169 Si02
#       7
#     2   2   2   2   2   2   2
#     4  11  23  43  66  99 131 173 220 270 332 390
#     4  10  23  43  69  98 126 177 225 265 329 391
#     4  10  21  38  65 101 126 171 220 272 324 385
#     4  10  23  42  67  92 133 175 221 263 324 397
#     4  12  27  45  65  95 137 177 217 273 332 389
#     4  10  21  39  65  99 133 170 218 267 331 385
#     4  11  19  39  70  97 139 168 209 280 337 381
#
# _framework density 27.125744999999998
#
# number of rings (size 3 to 8) (size 9 to 14) (size 15 to 20)
#    0.000    1.429    2.857    2.143    2.000    4.000 
#    2.571    0.000    0.000    0.000    0.000    0.000 
#    0.000    0.000    0.000    0.000    0.000    0.000 
#
# Total GULP energy -78443.702276 kJ/mol
# GULP energy per Si atom -5603.121591 kJ/mol
# Density = 2.706401 g / cm^3
# Si number density = 27.125745 Si / 1000 Ang^3
#
#
#
# Elastic Constant Matrix: (Units=GPa)
#
#
# Indices 1 2 3 4 5 6 
#
# 1 177.8908 41.6099 24.8433 25.6642 3.9714 -42.6233
# 2 41.6099 97.2827 20.1257 29.2326 10.6456 -2.5932
# 3 24.8433 20.1257 89.2773 22.7769 23.9210 -1.2711
# 4 25.6642 29.2326 22.7769 36.9531 1.1461 4.5991
# 5 3.9714 10.6456 23.9210 1.1461 53.9891 -1.4350
# 6 -42.6233 -2.5932 -1.2711 4.5991 -1.4350 54.0320
#
#
#
# Elastic Compliance Matrix: (Units=1/GPa)
#
#
# Indices 1 2 3 4 5 6 
#
# 1 0.008554 -0.001889 -0.000693 -0.004910 0.000342 0.007068
# 2 -0.001889 0.014375 0.000682 -0.010397 -0.002776 0.000027
# 3 -0.000693 0.000682 0.015454 -0.009434 -0.006718 0.000474
# 4 -0.004910 -0.010397 -0.009434 0.045378 0.005407 -0.008313
# 5 0.000342 -0.002776 -0.006718 0.005407 0.021909 0.000100
# 6 0.007068 0.000027 0.000474 -0.008313 0.000100 0.024806
#
#
# Mechanical properties :
#
#
# Convention : Reuss Voigt Hill
#
# Bulk Modulus (GPa) = 28.91627 59.73427 44.32527
# Shear Modulus (GPa) = 34.29259 47.51964 40.90611
#
# Velocity S-wave (km/s) = 3.55943 4.19003 3.88753
# Velocity P-wave (km/s) = 5.25128 6.74370 6.04373
#
# Compressibility (1/GPa) = 0.03458260
#
# Stress axis : x y z
#
# Youngs Moduli (GPa) = 116.89968 69.56464 64.70918
#
# Poissons Ratio (x) = 0.13142 0.04485
# Poissons Ratio (y) = 0.22085 -0.04413
# Poissons Ratio (z) = 0.08102 -0.04744
#
# Static dielectric constant tensor:
#      x y z
#    x 2.116250 0.052680 -0.086850 
#    y 0.052680 2.180950 -0.061830 
#    z -0.086850 -0.061830 2.158300 
# 
# From -- ./inp_files/295726.got.cif
#   From: 2010.05.17/outbox.cif.g08.bks.cpg/sg2_148_cif.got.tgz:295726.got - 2010.06.03 11:33:40.
