data_PCOD9006953
_publ_section_title
;
Structure prediction by ZEFSAII (Michael W. Deem and Ramdas Pophale) SiO2 
 PCOD9006953
Probable space group: P -1
;
_chemical_formula_sum "Si O2"
_cell_formula_units_Z 16
_cell_length_a 29.274897
_cell_length_b 27.149203
_cell_length_c 11.758900
_cell_angle_alpha 30.857064
_cell_angle_beta 30.306731
_cell_angle_gamma 9.517030
_cell_volume 777.032787
_symmetry_space_group_name_H-M "P -1"
_symmetry_group_IT_number 2
_symmetry_cell_setting 'triclinic'
loop_
_space_group_symop_operation_xyz
x,y,z
-x,-y,-z
loop_
_atom_site_type_symbol
_atom_site_label
_atom_site_fract_x
_atom_site_fract_y
_atom_site_fract_z
Si Si1 0.329284 0.369027 0.213004
Si Si2 0.374421 0.934142 0.046866
Si Si3 0.910647 0.592026 0.378699
Si Si4 0.119714 0.094068 0.483407
Si Si5 0.440841 0.105491 0.085178
Si Si6 0.258824 0.358440 0.728289
Si Si7 0.687629 0.065863 0.257205
Si Si8 0.527280 0.585145 0.792830
O O1 0.310273 0.271149 0.442900
O O2 0.554911 0.181593 0.188924
O O3 0.416993 0.313040 0.008652
O O4 0.019919 0.713437 0.234175
O O5 0.530395 0.838945 0.997031
O O6 0.201686 0.031685 0.299751
O O7 0.189191 0.202085 0.851392
O O8 0.000000 0.500000 0.500000
O O9 0.190531 0.290681 0.302434
O O10 0.019251 0.297642 0.349052
O O11 0.850032 0.296094 0.672876
O O12 0.368941 0.800437 0.604575
O O13 0.345908 0.241744 0.898902
O O14 0.720999 0.759206 0.155462
O O15 0.502980 0.180678 0.505712
O O16 0.619664 0.235125 0.129117
O O17 0.500000 0.500000 0.000000
#
# Coordination Sequence:
#
# PCOD9006953 Si02
#       8
#     2   2   2   2   2   2   2   2
#     4  12  25  39  61  91 134 179 224 266 301 367
#     4  12  25  38  61  89 133 181 231 263 313 364
#     4  12  23  39  56  88 133 191 239 267 298 352
#     4  11  24  43  71  99 131 168 214 270 335 399
#     4  11  22  38  57  86 136 178 233 273 314 355
#     4  10  21  39  57  91 128 174 218 275 317 369
#     4  11  23  41  64  93 125 163 213 264 333 388
#     4  11  25  48  77 104 126 156 202 272 353 423
#
# _framework density 20.591149999999999
#
# number of rings (size 3 to 8) (size 9 to 14) (size 15 to 20)
#    0.000    0.750    3.750    5.250    0.000    0.500 
#    0.000    0.000    0.000    4.500    0.000    0.000 
#    0.000    0.000    0.000    0.000    0.000    0.000 
#
# Total GULP energy -89530.243483 kJ/mol
# GULP energy per Si atom -5595.640218 kJ/mol
# Density = 2.054428 g / cm^3
# Si number density = 20.591150 Si / 1000 Ang^3
#
#
#
# Elastic Constant Matrix: (Units=GPa)
#
#
# Indices 1 2 3 4 5 6 
#
# 1 99.8710 6.2335 31.9410 -8.1447 9.2675 10.5475
# 2 6.2335 53.7433 11.5533 5.9844 7.1226 8.7224
# 3 31.9410 11.5533 54.2303 -0.4192 2.4124 18.2994
# 4 -8.1447 5.9844 -0.4192 30.8215 6.1306 6.9057
# 5 9.2675 7.1226 2.4124 6.1306 40.3010 3.7913
# 6 10.5475 8.7224 18.2994 6.9057 3.7913 39.8116
#
#
#
# Elastic Compliance Matrix: (Units=1/GPa)
#
#
# Indices 1 2 3 4 5 6 
#
# 1 0.013037 0.000117 -0.007363 0.004060 -0.003148 -0.000499
# 2 0.000117 0.020404 -0.003621 -0.002968 -0.002771 -0.002058
# 3 -0.007363 -0.003621 0.026835 0.001045 0.001501 -0.009915
# 4 0.004060 -0.002968 0.001045 0.036700 -0.005419 -0.006756
# 5 -0.003148 -0.002771 0.001501 -0.005419 0.026843 -0.000865
# 6 -0.000499 -0.002058 -0.009915 -0.006756 -0.000865 0.031513
#
#
# Mechanical properties :
#
#
# Convention : Reuss Voigt Hill
#
# Bulk Modulus (GPa) = 25.94645 34.14448 30.04546
# Shear Modulus (GPa) = 26.32793 32.72796 29.52794
#
# Velocity S-wave (km/s) = 3.57964 3.99108 3.79094
# Velocity P-wave (km/s) = 5.45098 6.15275 5.81247
#
# Compressibility (1/GPa) = 0.03854092
#
# Stress axis : x y z
#
# Youngs Moduli (GPa) = 76.70710 49.01117 37.26455
#
# Poissons Ratio (x) = -0.00574 0.27439
# Poissons Ratio (y) = -0.00898 0.13493
# Poissons Ratio (z) = 0.56482 0.17746
#
# Static dielectric constant tensor:
#      x y z
#    x 1.747420 0.017440 -0.009360 
#    y 0.017440 1.802220 0.019320 
#    z -0.009360 0.019320 1.737140 
# 
# From -- ./inp_files/108849.got.cif
#   From: 2010.05.17/outbox.cif.g08.bks.cpg/sg2_55_cif.got.tgz:108849.got - 2010.06.03 11:33:40.
