data_PCOD9006009
_publ_section_title
;
Structure prediction by ZEFSAII (Michael W. Deem and Ramdas Pophale) SiO2 
 PCOD9006009
Probable space group: P -1
;
_chemical_formula_sum "Si O2"
_cell_formula_units_Z 14
_cell_length_a 8.916876
_cell_length_b 20.875281
_cell_length_c 17.533873
_cell_angle_alpha 18.646205
_cell_angle_beta 34.949940
_cell_angle_gamma 43.183824
_cell_volume 577.362092
_symmetry_space_group_name_H-M "P -1"
_symmetry_group_IT_number 2
_symmetry_cell_setting 'triclinic'
loop_
_space_group_symop_operation_xyz
x,y,z
-x,-y,-z
loop_
_atom_site_type_symbol
_atom_site_label
_atom_site_fract_x
_atom_site_fract_y
_atom_site_fract_z
Si Si1 0.611034 0.946621 0.297411
Si Si2 0.047595 0.648152 0.237370
Si Si3 0.983959 0.272503 0.580993
Si Si4 0.977362 0.803572 0.518280
Si Si5 0.707355 0.483921 0.104170
Si Si6 0.464729 0.586584 0.578573
Si Si7 0.392553 0.158071 0.007861
O O1 0.395337 0.733805 0.651621
O O2 0.880789 0.865428 0.264628
O O3 0.475760 0.022598 0.194378
O O4 0.711005 0.148243 0.080934
O O5 0.061948 0.503498 0.322515
O O6 0.759334 0.707999 0.288604
O O7 0.000000 0.500000 0.500000
O O8 0.102354 0.239029 0.487574
O O9 0.658347 0.202568 0.793681
O O10 0.236919 0.707347 0.527757
O O11 0.111588 0.039132 0.220868
O O12 0.748272 0.678687 0.811894
O O13 0.527627 0.469534 0.271435
O O14 0.000000 0.500000 0.000000
O O15 0.381276 0.374510 0.805211
#
# Coordination Sequence:
#
# PCOD9006009 Si02
#       7
#     2   2   2   2   2   2   2
#     4  12  22  39  66  93 122 157 212 256 298 368
#     4  11  22  37  64  99 118 156 206 259 313 348
#     4  11  25  39  65  94 130 158 197 264 312 362
#     4  11  24  44  58  92 132 166 202 244 315 366
#     4  10  22  41  63  88 123 168 206 250 296 369
#     4  10  21  38  64  92 122 159 209 257 295 365
#     4  11  22  37  69  95 115 163 210 254 311 351
#
# _framework density 24.248217
#
# number of rings (size 3 to 8) (size 9 to 14) (size 15 to 20)
#    0.000    1.143    5.714    2.571    0.000    4.571 
#    0.000    0.714    0.000    0.000    0.000    0.000 
#    0.000    0.000    0.000    0.000    0.000    0.000 
#
# Total GULP energy -78298.595881 kJ/mol
# GULP energy per Si atom -5592.756849 kJ/mol
# Density = 2.419303 g / cm^3
# Si number density = 24.248217 Si / 1000 Ang^3
#
#
#
# Elastic Constant Matrix: (Units=GPa)
#
#
# Indices 1 2 3 4 5 6 
#
# 1 70.3611 17.3974 40.9294 2.3668 -22.2094 25.1740
# 2 17.3974 39.0390 14.7012 -18.6352 -10.6852 14.6264
# 3 40.9294 14.7012 148.6304 -18.4992 -45.9764 33.6794
# 4 2.3668 -18.6352 -18.4992 30.7928 8.9727 -0.6553
# 5 -22.2094 -10.6852 -45.9764 8.9727 35.7657 -6.9802
# 6 25.1740 14.6264 33.6794 -0.6553 -6.9802 42.2054
#
#
#
# Elastic Compliance Matrix: (Units=1/GPa)
#
#
# Indices 1 2 3 4 5 6 
#
# 1 0.024836 -0.010447 -0.002179 -0.012980 0.011234 -0.007798
# 2 -0.010447 0.051954 0.008115 0.034559 0.007584 -0.016458
# 3 -0.002179 0.008115 0.015066 0.009231 0.016026 -0.010741
# 4 -0.012980 0.034559 0.009231 0.060647 -0.003270 -0.011200
# 5 0.011234 0.007584 0.016026 -0.003270 0.056107 -0.012889
# 6 -0.007798 -0.016458 -0.010741 -0.011200 -0.012889 0.040314
#
#
# Mechanical properties :
#
#
# Convention : Reuss Voigt Hill
#
# Bulk Modulus (GPa) = 12.07255 44.89849 28.48552
# Shear Modulus (GPa) = 17.50962 34.08627 25.79795
#
# Velocity S-wave (km/s) = 2.69011 3.75336 3.26530
# Velocity P-wave (km/s) = 3.82602 6.11065 5.09797
#
# Compressibility (1/GPa) = 0.08283253
#
# Stress axis : x y z
#
# Youngs Moduli (GPa) = 40.26454 19.24788 66.37616
#
# Poissons Ratio (x) = 0.20107 0.14465
# Poissons Ratio (y) = 0.42063 -0.53861
# Poissons Ratio (z) = 0.08775 -0.15619
#
# Static dielectric constant tensor:
#      x y z
#    x 1.996610 -0.000070 0.009160 
#    y -0.000070 1.937180 0.002250 
#    z 0.009160 0.002250 1.953510 
# 
# From -- ./inp_files/389622.got.cif
#   From: 2010.05.17/outbox.cif.g08.bks.cpg/sg2_195_cif.got.tgz:389622.got - 2010.06.03 11:33:40.
