data_PCOD9007645
_publ_section_title
;
Structure prediction by ZEFSAII (Michael W. Deem and Ramdas Pophale) SiO2 
 PCOD9007645
Probable space group: P -1
;
_chemical_formula_sum "Si O2"
_cell_formula_units_Z 16
_cell_length_a 12.100579
_cell_length_b 9.096284
_cell_length_c 11.804033
_cell_angle_alpha 132.244801
_cell_angle_beta 74.046851
_cell_angle_gamma 132.742087
_cell_volume 665.883159
_symmetry_space_group_name_H-M "P -1"
_symmetry_group_IT_number 2
_symmetry_cell_setting 'triclinic'
loop_
_space_group_symop_operation_xyz
x,y,z
-x,-y,-z
loop_
_atom_site_type_symbol
_atom_site_label
_atom_site_fract_x
_atom_site_fract_y
_atom_site_fract_z
Si Si1 0.153913 0.566124 0.037204
Si Si2 0.156672 0.532472 0.420663
Si Si3 0.283637 0.689409 0.834232
Si Si4 0.656873 0.967548 0.197153
Si Si5 0.612345 0.617148 0.416803
Si Si6 0.095830 0.757793 0.353413
Si Si7 0.548598 0.283222 0.667082
Si Si8 0.914061 0.945536 0.116603
O O1 0.283583 0.731869 0.989185
O O2 0.113588 0.292192 0.934764
O O3 0.188049 0.717196 0.221967
O O4 0.000000 0.500000 0.000000
O O5 0.244171 0.741864 0.609681
O O6 0.109906 0.657523 0.415856
O O7 0.268772 0.512639 0.310541
O O8 0.009365 0.209090 0.310258
O O9 0.361412 0.959663 0.882024
O O10 0.369239 0.588980 0.727196
O O11 0.091899 0.446014 0.729510
O O12 0.756047 0.885946 0.111024
O O13 0.504700 0.749910 0.206490
O O14 0.500000 0.500000 0.500000
O O15 0.535778 0.659592 0.360939
O O16 0.795827 0.918104 0.525833
O O17 0.500000 0.000000 0.500000
O O18 0.000000 0.000000 0.000000
#
# Coordination Sequence:
#
# PCOD9007645 Si02
#       8
#     2   2   2   2   2   2   2   2
#     4  10  23  41  61  93 134 166 202 264 321 376
#     4  11  22  40  69  98 123 164 220 265 312 370
#     4  11  24  40  64  99 129 167 209 265 323 371
#     4  11  22  40  66  97 124 167 217 261 313 373
#     4  12  24  41  66  97 131 165 211 264 326 375
#     4  11  22  43  66  95 127 167 213 266 317 372
#     4  10  21  39  62  90 129 167 204 262 310 376
#     4  12  22  40  67  95 126 167 216 261 313 375
#
# _framework density 24.028238999999999
#
# number of rings (size 3 to 8) (size 9 to 14) (size 15 to 20)
#    0.000    1.000    5.000    3.750    0.000    4.000 
#    0.000    1.250    0.000    0.000    0.000    0.000 
#    0.000    0.000    0.000    0.000    0.000    0.000 
#
# Total GULP energy -89489.081858 kJ/mol
# GULP energy per Si atom -5593.067616 kJ/mol
# Density = 2.397355 g / cm^3
# Si number density = 24.028239 Si / 1000 Ang^3
#
#
#
# Elastic Constant Matrix: (Units=GPa)
#
#
# Indices 1 2 3 4 5 6 
#
# 1 127.0435 59.1569 25.9789 -9.8164 -37.6704 -2.1110
# 2 59.1569 122.5571 38.6800 -24.4248 -17.5366 -21.7751
# 3 25.9789 38.6800 84.7784 -14.9416 -23.7802 -0.9540
# 4 -9.8164 -24.4248 -14.9416 47.8268 14.9000 -6.4065
# 5 -37.6704 -17.5366 -23.7802 14.9000 46.1144 -0.6746
# 6 -2.1110 -21.7751 -0.9540 -6.4065 -0.6746 49.4538
#
#
#
# Elastic Compliance Matrix: (Units=1/GPa)
#
#
# Indices 1 2 3 4 5 6 
#
# 1 0.013395 -0.006570 0.001046 -0.003804 0.010174 -0.002655
# 2 -0.006570 0.014832 -0.004636 0.007056 -0.004294 0.007016
# 3 0.001046 -0.004636 0.015595 0.000328 0.007005 -0.001558
# 4 -0.003804 0.007056 0.000328 0.027509 -0.009050 0.006391
# 5 0.010174 -0.004294 0.007005 -0.009050 0.034870 -0.002018
# 6 -0.002655 0.007016 -0.001558 0.006391 -0.002018 0.023967
#
#
# Mechanical properties :
#
#
# Convention : Reuss Voigt Hill
#
# Bulk Modulus (GPa) = 42.54761 64.66783 53.60772
# Shear Modulus (GPa) = 31.58092 42.71653 37.14873
#
# Velocity S-wave (km/s) = 3.62930 4.22093 3.93624
# Velocity P-wave (km/s) = 5.94207 7.12227 6.55877
#
# Compressibility (1/GPa) = 0.02350308
#
# Stress axis : x y z
#
# Youngs Moduli (GPa) = 74.65282 67.42092 64.12233
#
# Poissons Ratio (x) = 0.44296 -0.06709
# Poissons Ratio (y) = 0.49047 0.29727
# Poissons Ratio (z) = -0.07810 0.31256
#
# Static dielectric constant tensor:
#      x y z
#    x 1.934440 0.125000 0.030480 
#    y 0.125000 1.863400 0.024690 
#    z 0.030480 0.024690 1.920490 
# 
# From -- ./inp_files/222229.got.cif
#   From: 2010.05.17/outbox.cif.g08.bks.cpg/sg2_112_cif.got.tgz:222229.got - 2010.06.03 11:33:40.
