data_PCOD9007208
_publ_section_title
;
Structure prediction by ZEFSAII (Michael W. Deem and Ramdas Pophale) SiO2 
 PCOD9007208
Probable space group: P -1
;
_chemical_formula_sum "Si O2"
_cell_formula_units_Z 14
_cell_length_a 21.795768
_cell_length_b 22.328324
_cell_length_c 9.651612
_cell_angle_alpha 24.560539
_cell_angle_beta 152.598737
_cell_angle_gamma 162.579356
_cell_volume 576.908846
_symmetry_space_group_name_H-M "P -1"
_symmetry_group_IT_number 2
_symmetry_cell_setting 'triclinic'
loop_
_space_group_symop_operation_xyz
x,y,z
-x,-y,-z
loop_
_atom_site_type_symbol
_atom_site_label
_atom_site_fract_x
_atom_site_fract_y
_atom_site_fract_z
Si Si1 0.627988 0.049075 0.852666
Si Si2 0.826851 0.196498 0.508471
Si Si3 0.615469 0.418047 0.759679
Si Si4 0.020524 0.144289 0.840840
Si Si5 0.426867 0.487044 0.038287
Si Si6 0.765062 0.472129 0.226618
Si Si7 0.987680 0.631589 0.870067
O O1 0.744739 0.287850 0.526677
O O2 0.400895 0.931098 0.665460
O O3 0.775071 0.137209 0.095052
O O4 0.566376 0.852523 0.061450
O O5 0.825420 0.049700 0.725166
O O6 0.988938 0.296483 0.746557
O O7 0.952581 0.433660 0.191798
O O8 0.565962 0.516010 0.362995
O O9 0.833112 0.538261 0.883005
O O10 0.657917 0.475093 0.885553
O O11 0.090134 0.334938 0.482102
O O12 0.191271 0.232764 0.104220
O O13 0.000000 0.000000 0.000000
O O14 0.500000 0.500000 0.000000
O O15 0.362728 0.591868 0.753295
#
# Coordination Sequence:
#
# PCOD9007208 Si02
#       7
#     2   2   2   2   2   2   2
#     4  10  22  39  64  97 121 161 207 258 304 369
#     4   9  22  39  59  91 124 161 200 253 310 363
#     4  11  22  41  65  93 124 164 203 254 310 365
#     4  11  22  38  61  88 124 161 208 253 303 364
#     4  11  23  42  63  87 125 166 205 251 309 363
#     4  10  23  41  64  93 126 160 205 255 308 368
#     4  10  21  39  60  90 125 161 201 253 306 368
#
# _framework density 24.267264999999998
#
# number of rings (size 3 to 8) (size 9 to 14) (size 15 to 20)
#    0.000    1.714    1.429    2.143    2.000    6.857 
#    0.000    0.000    0.000    6.000    0.000    0.000 
#    0.000    0.000    0.000    0.000    0.000    0.000 
#
# Total GULP energy -77937.762374 kJ/mol
# GULP energy per Si atom -5566.983027 kJ/mol
# Density = 2.421203 g / cm^3
# Si number density = 24.267265 Si / 1000 Ang^3
#
#
#
# Elastic Constant Matrix: (Units=GPa)
#
#
# Indices 1 2 3 4 5 6 
#
# 1 93.8392 22.3454 27.8667 7.8024 15.8636 0.2874
# 2 22.3454 112.5775 13.9919 23.6228 10.6093 4.4294
# 3 27.8667 13.9919 97.6724 25.7667 6.1421 -9.5298
# 4 7.8024 23.6228 25.7667 36.7864 -4.1179 10.4918
# 5 15.8636 10.6093 6.1421 -4.1179 39.4800 4.0765
# 6 0.2874 4.4294 -9.5298 10.4918 4.0765 21.2998
#
#
#
# Elastic Compliance Matrix: (Units=1/GPa)
#
#
# Indices 1 2 3 4 5 6 
#
# 1 0.012708 -0.001836 -0.003373 0.000654 -0.003930 -0.000868
# 2 -0.001836 0.011337 0.002333 -0.010309 -0.004222 0.004597
# 3 -0.003373 0.002333 0.018170 -0.019438 -0.006028 0.018418
# 4 0.000654 -0.010309 -0.019438 0.060262 0.015873 -0.039283
# 5 -0.003930 -0.004222 -0.006028 0.015873 0.032264 -0.015760
# 6 -0.000868 0.004597 0.018418 -0.039283 -0.015760 0.076612
#
#
# Mechanical properties :
#
#
# Convention : Reuss Voigt Hill
#
# Bulk Modulus (GPa) = 27.42327 48.05523 37.73925
# Shear Modulus (GPa) = 21.80946 35.50558 28.65752
#
# Velocity S-wave (km/s) = 3.00112 3.82921 3.44017
# Velocity P-wave (km/s) = 4.83053 6.27662 5.60044
#
# Compressibility (1/GPa) = 0.03646539
#
# Stress axis : x y z
#
# Youngs Moduli (GPa) = 78.69069 88.20370 55.03465
#
# Poissons Ratio (x) = 0.16192 0.18562
# Poissons Ratio (y) = 0.14446 -0.12841
# Poissons Ratio (z) = 0.26540 -0.20581
#
# Static dielectric constant tensor:
#      x y z
#    x 2.037260 -0.040210 0.003320 
#    y -0.040210 2.010340 -0.029510 
#    z 0.003320 -0.029510 1.985190 
# 
# From -- ./inp_files/349666.got.cif
#   From: 2010.05.17/outbox.cif.g08.bks.cpg/sg2_175_cif.got.tgz:349666.got - 2010.06.03 11:33:40.
