data_PCOD9007528
_publ_section_title
;
Structure prediction by ZEFSAII (Michael W. Deem and Ramdas Pophale) SiO2 
 PCOD9007528
Probable space group: P -1
;
_chemical_formula_sum "Si O2"
_cell_formula_units_Z 13
_cell_length_a 7.812897
_cell_length_b 7.945981
_cell_length_c 11.746279
_cell_angle_alpha 102.884423
_cell_angle_beta 108.975916
_cell_angle_gamma 48.611500
_cell_volume 517.329979
_symmetry_space_group_name_H-M "P -1"
_symmetry_group_IT_number 2
_symmetry_cell_setting 'triclinic'
loop_
_space_group_symop_operation_xyz
x,y,z
-x,-y,-z
loop_
_atom_site_type_symbol
_atom_site_label
_atom_site_fract_x
_atom_site_fract_y
_atom_site_fract_z
Si Si1 0.611664 0.612327 0.278857
Si Si2 0.788695 0.131076 0.221523
Si Si3 0.071561 0.143077 0.584238
Si Si4 0.510430 0.285461 0.974395
Si Si5 0.263809 0.036310 0.371918
Si Si6 0.876199 0.562333 0.715254
Si Si7 0.000000 0.500000 0.000000
O O1 0.625246 0.396447 0.253635
O O2 0.872929 0.519852 0.293901
O O3 0.482510 0.774356 0.380944
O O4 0.465195 0.770351 0.161261
O O5 0.720921 0.106418 0.077666
O O6 0.049129 0.052751 0.275355
O O7 0.775040 0.990676 0.290840
O O8 0.190328 0.144243 0.497444
O O9 0.860147 0.388770 0.622698
O O10 0.000000 0.000000 0.500000
O O11 0.500000 0.500000 0.000000
O O12 0.265908 0.367306 0.983856
O O13 0.299269 0.183753 0.325774
O O14 0.895029 0.539531 0.851338
#
# Coordination Sequence:
#
# PCOD9007528 Si02
#       7
#     2   2   2   2   2   2   1
#     4   9  20  38  61  90 122 163 213 259 319 384
#     4   9  20  38  60  91 127 163 214 263 307 379
#     4  10  22  39  60  88 124 168 214 260 311 373
#     4   9  19  38  63  95 129 163 211 264 319 385
#     4  10  21  39  62  86 124 173 206 256 321 367
#     4  10  22  41  61  90 125 160 214 264 312 384
#     4  10  22  40  68  96 126 168 206 266 332 372
#
# _framework density 25.12903
#
# number of rings (size 3 to 8) (size 9 to 14) (size 15 to 20)
#    0.000    2.462    0.000    1.385    0.000    9.231 
#    0.000    6.154    0.000    0.000    0.000    0.000 
#    0.000    0.000    0.000    0.000    0.000    0.000 
#
# Total GULP energy -72410.332292 kJ/mol
# GULP energy per Si atom -5570.025561 kJ/mol
# Density = 2.507184 g / cm^3
# Si number density = 25.129030 Si / 1000 Ang^3
#
#
#
# Elastic Constant Matrix: (Units=GPa)
#
#
# Indices 1 2 3 4 5 6 
#
# 1 66.6574 18.2170 17.6684 -2.8098 -0.2839 -4.9982
# 2 18.2170 84.6999 27.0124 8.0279 -16.2258 12.3291
# 3 17.6684 27.0124 70.3756 -9.5282 -15.0228 -0.8728
# 4 -2.8098 8.0279 -9.5282 42.3243 -9.9374 5.9601
# 5 -0.2839 -16.2258 -15.0228 -9.9374 36.7329 2.0163
# 6 -4.9982 12.3291 -0.8728 5.9601 2.0163 28.8015
#
#
#
# Elastic Compliance Matrix: (Units=1/GPa)
#
#
# Indices 1 2 3 4 5 6 
#
# 1 0.017361 -0.003928 -0.003581 -0.000409 -0.003446 0.004912
# 2 -0.003928 0.016449 -0.004593 -0.002092 0.005219 -0.007795
# 3 -0.003581 -0.004593 0.019451 0.006835 0.007748 -0.000023
# 4 -0.000409 -0.002092 0.006835 0.028654 0.009927 -0.005593
# 5 -0.003446 0.005219 0.007748 0.009927 0.035749 -0.007154
# 6 0.004912 -0.007795 -0.000023 -0.005593 -0.007154 0.040567
#
#
# Mechanical properties :
#
#
# Convention : Reuss Voigt Hill
#
# Bulk Modulus (GPa) = 34.41646 38.61427 36.51536
# Shear Modulus (GPa) = 26.02530 32.16074 29.09302
#
# Velocity S-wave (km/s) = 3.22167 3.58134 3.40626
# Velocity P-wave (km/s) = 5.25019 5.70098 5.48022
#
# Compressibility (1/GPa) = 0.02905587
#
# Stress axis : x y z
#
# Youngs Moduli (GPa) = 57.59963 60.79488 51.41233
#
# Poissons Ratio (x) = 0.23882 0.18411
# Poissons Ratio (y) = 0.22627 0.23614
# Poissons Ratio (z) = 0.20626 0.27924
#
# Static dielectric constant tensor:
#      x y z
#    x 2.067440 0.031920 0.036540 
#    y 0.031920 2.011410 -0.036780 
#    z 0.036540 -0.036780 2.004580 
# 
# From -- ./inp_files/87251.got.cif
#   From: 2010.05.17/outbox.cif.g08.bks.cpg/sg2_44_cif.got.tgz:87251.got - 2010.06.03 11:33:40.
