data_PCOD9007174
_publ_section_title
;
Structure prediction by ZEFSAII (Michael W. Deem and Ramdas Pophale) SiO2 
 PCOD9007174
Probable space group: P -1
;
_chemical_formula_sum "Si O2"
_cell_formula_units_Z 15
_cell_length_a 9.662179
_cell_length_b 11.459119
_cell_length_c 7.494613
_cell_angle_alpha 97.351876
_cell_angle_beta 48.501763
_cell_angle_gamma 86.169972
_cell_volume 603.423212
_symmetry_space_group_name_H-M "P -1"
_symmetry_group_IT_number 2
_symmetry_cell_setting 'triclinic'
loop_
_space_group_symop_operation_xyz
x,y,z
-x,-y,-z
loop_
_atom_site_type_symbol
_atom_site_label
_atom_site_fract_x
_atom_site_fract_y
_atom_site_fract_z
Si Si1 0.685638 0.852994 0.781745
Si Si2 0.505985 0.876234 0.570902
Si Si3 0.972544 0.619932 0.327101
Si Si4 0.892441 0.111094 0.234217
Si Si5 0.420027 0.333920 0.932964
Si Si6 0.720820 0.461966 0.653729
Si Si7 0.877528 0.704005 0.054948
Si Si8 0.000000 0.000000 0.500000
O O1 0.536045 0.887965 0.757932
O O2 0.839830 0.738832 0.550491
O O3 0.586370 0.799640 0.021957
O O4 0.811455 0.951464 0.722596
O O5 0.308976 0.843612 0.679143
O O6 0.691304 0.785625 0.322382
O O7 0.500000 0.000000 0.500000
O O8 0.855113 0.513076 0.413447
O O9 0.004913 0.647359 0.099884
O O10 0.147820 0.595122 0.305870
O O11 0.884419 0.060105 0.429865
O O12 0.011400 0.215690 0.140705
O O13 0.000000 0.000000 0.000000
O O14 0.410748 0.415602 0.134270
O O15 0.594824 0.368209 0.687262
O O16 0.226719 0.376114 0.997172
#
# Coordination Sequence:
#
# PCOD9007174 Si02
#       8
#     2   2   2   2   2   2   2   1
#     4  10  21  39  60  88 127 162 212 262 313 383
#     4  11  22  42  60  88 130 171 216 260 316 380
#     4   9  20  40  62  87 119 165 206 262 323 379
#     4  12  24  43  64  92 131 176 214 265 319 376
#     4  10  21  39  60  92 121 157 213 259 323 385
#     4   9  20  40  63  85 122 160 206 267 324 385
#     4  11  23  40  62  93 126 163 215 266 314 389
#     4  12  22  40  66  94 130 170 214 268 308 384
#
# _framework density 24.858176
#
# number of rings (size 3 to 8) (size 9 to 14) (size 15 to 20)
#    0.000    1.600    4.000    0.800    1.867    2.133 
#    4.800    2.000    0.000    0.000    0.000    0.000 
#    0.000    0.000    0.000    0.000    0.000    0.000 
#
# Total GULP energy -83662.208806 kJ/mol
# GULP energy per Si atom -5577.480587 kJ/mol
# Density = 2.480160 g / cm^3
# Si number density = 24.858176 Si / 1000 Ang^3
#
#
#
# Elastic Constant Matrix: (Units=GPa)
#
#
# Indices 1 2 3 4 5 6 
#
# 1 92.5834 19.1581 13.6425 -15.1195 -19.2326 -4.7773
# 2 19.1581 66.2385 32.7548 -16.1851 -7.7515 -0.7362
# 3 13.6425 32.7548 73.0720 -19.2528 -19.5039 6.6573
# 4 -15.1195 -16.1851 -19.2528 45.5839 0.2063 -0.5808
# 5 -19.2326 -7.7515 -19.5039 0.2063 47.1565 -16.4185
# 6 -4.7773 -0.7362 6.6573 -0.5808 -16.4185 44.6627
#
#
#
# Elastic Compliance Matrix: (Units=1/GPa)
#
#
# Indices 1 2 3 4 5 6 
#
# 1 0.013453 -0.002668 0.001239 0.004056 0.006861 0.003785
# 2 -0.002668 0.020595 -0.008254 0.002958 -0.000767 0.001041
# 3 0.001239 -0.008254 0.020872 0.006258 0.007681 -0.000210
# 4 0.004056 0.002958 0.006258 0.026976 0.005248 0.001830
# 5 0.006861 -0.000767 0.007681 0.005248 0.030858 0.010988
# 6 0.003785 0.001041 -0.000210 0.001830 0.010988 0.026906
#
#
# Mechanical properties :
#
#
# Convention : Reuss Voigt Hill
#
# Bulk Modulus (GPa) = 28.12556 40.33386 34.22971
# Shear Modulus (GPa) = 29.26089 38.56986 33.91538
#
# Velocity S-wave (km/s) = 3.43463 3.94330 3.69772
# Velocity P-wave (km/s) = 5.20268 6.08224 5.65957
#
# Compressibility (1/GPa) = 0.03555484
#
# Stress axis : x y z
#
# Youngs Moduli (GPa) = 74.33049 48.55629 47.91176
#
# Poissons Ratio (x) = 0.12955 -0.05937
# Poissons Ratio (y) = 0.19831 0.39545
# Poissons Ratio (z) = -0.09211 0.40077
#
# Static dielectric constant tensor:
#      x y z
#    x 1.963340 0.037920 -0.014820 
#    y 0.037920 2.036990 0.082390 
#    z -0.014820 0.082390 2.009880 
# 
# From -- ./inp_files/186391.got.cif
#   From: 2010.05.17/outbox.cif.g08.bks.cpg/sg2_94_cif.got.tgz:186391.got - 2010.06.03 11:33:40.
