data_PCOD9007785
_publ_section_title
;
Structure prediction by ZEFSAII (Michael W. Deem and Ramdas Pophale) SiO2 
 PCOD9007785
Probable space group: P -1
;
_chemical_formula_sum "Si O2"
_cell_formula_units_Z 14
_cell_length_a 17.879588
_cell_length_b 12.683722
_cell_length_c 9.378856
_cell_angle_alpha 47.688666
_cell_angle_beta 145.935149
_cell_angle_gamma 150.782375
_cell_volume 571.790206
_symmetry_space_group_name_H-M "P -1"
_symmetry_group_IT_number 2
_symmetry_cell_setting 'triclinic'
loop_
_space_group_symop_operation_xyz
x,y,z
-x,-y,-z
loop_
_atom_site_type_symbol
_atom_site_label
_atom_site_fract_x
_atom_site_fract_y
_atom_site_fract_z
Si Si1 0.175865 0.850482 0.068670
Si Si2 0.997756 0.397518 0.727046
Si Si3 0.599239 0.701148 0.874158
Si Si4 0.292498 0.423422 0.397214
Si Si5 0.809342 0.204010 0.182214
Si Si6 0.514740 0.714037 0.198150
Si Si7 0.865507 0.677167 0.214372
O O1 0.196217 0.797624 0.995314
O O2 0.942836 0.722339 0.829375
O O3 0.185745 0.756878 0.308302
O O4 0.328276 0.104570 0.100916
O O5 0.176172 0.625023 0.890203
O O6 0.006750 0.251801 0.793602
O O7 0.000000 0.500000 0.500000
O O8 0.431862 0.600603 0.581679
O O9 0.500000 0.500000 0.000000
O O10 0.793861 0.779394 0.036342
O O11 0.398148 0.557612 0.294522
O O12 0.317217 0.271697 0.584949
O O13 0.011713 0.287923 0.490070
O O14 0.623782 0.953465 0.169046
O O15 0.345716 0.575988 0.931275
#
# Coordination Sequence:
#
# PCOD9007785 Si02
#       7
#     2   2   2   2   2   2   2
#     4  12  23  43  66  95 131 171 205 268 325 372
#     4  10  24  43  64  92 124 174 225 258 306 375
#     4  11  24  39  67 101 134 160 206 267 329 385
#     4  10  22  37  64  98 128 161 213 257 327 384
#     4  11  24  40  67  89 132 173 215 256 315 374
#     4  10  21  39  62  97 128 164 209 266 312 383
#     4  10  21  42  63  94 130 162 212 263 315 373
#
# _framework density 24.484504999999999
#
# number of rings (size 3 to 8) (size 9 to 14) (size 15 to 20)
#    0.000    1.429    1.429    3.857    4.000    2.857 
#    0.000    0.000    0.000    6.000    0.000    0.000 
#    0.000    0.000    0.000    0.000    0.000    0.000 
#
# Total GULP energy -78234.719301 kJ/mol
# GULP energy per Si atom -5588.194236 kJ/mol
# Density = 2.442878 g / cm^3
# Si number density = 24.484505 Si / 1000 Ang^3
#
#
#
# Elastic Constant Matrix: (Units=GPa)
#
#
# Indices 1 2 3 4 5 6 
#
# 1 105.2931 28.6003 17.5582 -5.8796 -41.9477 -15.5116
# 2 28.6003 119.0341 24.2433 -10.3218 -23.4149 -7.0443
# 3 17.5582 24.2433 83.0554 4.6344 -23.7664 2.0505
# 4 -5.8796 -10.3218 4.6344 25.4311 -2.1259 -8.2818
# 5 -41.9477 -23.4149 -23.7664 -2.1259 47.3741 1.3075
# 6 -15.5116 -7.0443 2.0505 -8.2818 1.3075 39.1725
#
#
#
# Elastic Compliance Matrix: (Units=1/GPa)
#
#
# Indices 1 2 3 4 5 6 
#
# 1 0.017253 0.000028 0.000143 0.007867 0.015495 0.007976
# 2 0.000028 0.010385 -0.002243 0.006000 0.004215 0.003124
# 3 0.000143 -0.002243 0.014727 -0.003724 0.006297 -0.002115
# 4 0.007867 0.006000 -0.003724 0.049835 0.009897 0.014595
# 5 0.015495 0.004215 0.006297 0.009897 0.040314 0.007311
# 6 0.007976 0.003124 -0.002115 0.014595 0.007311 0.032200
#
#
# Mechanical properties :
#
#
# Convention : Reuss Voigt Hill
#
# Bulk Modulus (GPa) = 26.16433 49.79847 37.98140
# Shear Modulus (GPa) = 27.53312 38.19425 32.86369
#
# Velocity S-wave (km/s) = 3.35701 3.95389 3.66761
# Velocity P-wave (km/s) = 5.07300 6.42084 5.78630
#
# Compressibility (1/GPa) = 0.03821997
#
# Stress axis : x y z
#
# Youngs Moduli (GPa) = 57.95961 96.28865 67.90444
#
# Poissons Ratio (x) = -0.00266 -0.00968
# Poissons Ratio (y) = -0.00160 0.15231
# Poissons Ratio (z) = -0.00827 0.21597
#
# Static dielectric constant tensor:
#      x y z
#    x 2.019930 0.021630 0.042060 
#    y 0.021630 1.900380 -0.019610 
#    z 0.042060 -0.019610 2.053240 
# 
# From -- ./inp_files/187019.got.cif
#   From: 2010.05.17/outbox.cif.g08.bks.cpg/sg2_94_cif.got.tgz:187019.got - 2010.06.03 11:33:40.
