data_PCOD9007567
_publ_section_title
;
Structure prediction by ZEFSAII (Michael W. Deem and Ramdas Pophale) SiO2 
 PCOD9007567
Probable space group: P -1
;
_chemical_formula_sum "Si O2"
_cell_formula_units_Z 12
_cell_length_a 9.537621
_cell_length_b 8.832869
_cell_length_c 8.569516
_cell_angle_alpha 96.898851
_cell_angle_beta 46.796146
_cell_angle_gamma 99.693740
_cell_volume 518.709346
_symmetry_space_group_name_H-M "P -1"
_symmetry_group_IT_number 2
_symmetry_cell_setting 'triclinic'
loop_
_space_group_symop_operation_xyz
x,y,z
-x,-y,-z
loop_
_atom_site_type_symbol
_atom_site_label
_atom_site_fract_x
_atom_site_fract_y
_atom_site_fract_z
Si Si1 0.078467 0.306590 0.142396
Si Si2 0.319759 0.581525 0.087745
Si Si3 0.918018 0.976792 0.340435
Si Si4 0.721565 0.388066 0.248125
Si Si5 0.346122 0.271511 0.675310
Si Si6 0.708179 0.082897 0.803386
O O1 0.132356 0.454469 0.227285
O O2 0.979907 0.153326 0.274540
O O3 0.933579 0.348200 0.122426
O O4 0.282041 0.276405 0.904389
O O5 0.307749 0.740743 0.204599
O O6 0.500000 0.500000 0.000000
O O7 0.331917 0.620914 0.896172
O O8 0.793105 0.980697 0.593070
O O9 0.783441 0.875889 0.310705
O O10 0.121027 0.908373 0.197322
O O11 0.567862 0.278618 0.455143
O O12 0.707503 0.564977 0.330329
O O13 0.500000 0.000000 0.000000
#
# Coordination Sequence:
#
# PCOD9007567 Si02
#       6
#     2   2   2   2   2   2
#     4  11  23  40  64  94 124 161 209 258 310 366
#     4  11  23  42  67  92 125 168 211 256 309 371
#     4  11  24  39  63  96 126 166 207 254 317 373
#     4  10  22  40  65  91 121 165 209 256 309 363
#     4  10  21  39  62  88 124 160 206 258 307 364
#     4  11  24  42  62  90 132 168 206 256 311 374
#
# _framework density 23.134342
#
# number of rings (size 3 to 8) (size 9 to 14) (size 15 to 20)
#    0.000    1.333    0.000    6.500    0.000    8.000 
#    0.000    0.000    0.000    0.000    0.000    0.000 
#    0.000    0.000    0.000    0.000    0.000    0.000 
#
# Total GULP energy -67065.027990 kJ/mol
# GULP energy per Si atom -5588.752332 kJ/mol
# Density = 2.308169 g / cm^3
# Si number density = 23.134342 Si / 1000 Ang^3
#
#
#
# Elastic Constant Matrix: (Units=GPa)
#
#
# Indices 1 2 3 4 5 6 
#
# 1 98.6429 17.7932 23.4574 3.8707 -24.0450 -4.4580
# 2 17.7932 116.3641 28.3725 -11.1389 -20.1145 19.1125
# 3 23.4574 28.3725 93.7302 -19.4378 -27.6150 11.1354
# 4 3.8707 -11.1389 -19.4378 39.8821 6.4409 -5.3220
# 5 -24.0450 -20.1145 -27.6150 6.4409 26.1763 -0.0651
# 6 -4.4580 19.1125 11.1354 -5.3220 -0.0651 38.4608
#
#
#
# Elastic Compliance Matrix: (Units=1/GPa)
#
#
# Indices 1 2 3 4 5 6 
#
# 1 0.013578 -0.000358 -0.000487 -0.003490 0.012545 0.001431
# 2 -0.000358 0.010984 -0.000103 0.001098 0.007720 -0.005305
# 3 -0.000487 -0.000103 0.017223 0.005206 0.016352 -0.004244
# 4 -0.003490 0.001098 0.005206 0.029116 -0.004031 0.001565
# 5 0.012545 0.007720 0.016352 -0.004031 0.073882 -0.007549
# 6 0.001431 -0.005305 -0.004244 0.001565 -0.007549 0.030235
#
#
# Mechanical properties :
#
#
# Convention : Reuss Voigt Hill
#
# Bulk Modulus (GPa) = 25.06966 49.77593 37.42280
# Shear Modulus (GPa) = 26.28644 36.84480 31.56562
#
# Velocity S-wave (km/s) = 3.37449 3.99513 3.69785
# Velocity P-wave (km/s) = 5.10323 6.54554 5.86886
#
# Compressibility (1/GPa) = 0.03988885
#
# Stress axis : x y z
#
# Youngs Moduli (GPa) = 73.65018 91.03753 58.06043
#
# Poissons Ratio (x) = 0.03258 0.02830
# Poissons Ratio (y) = 0.02636 0.00599
# Poissons Ratio (z) = 0.03589 0.00939
#
# Static dielectric constant tensor:
#      x y z
#    x 1.868950 0.006540 0.038180 
#    y 0.006540 1.868200 0.009510 
#    z 0.038180 0.009510 1.885600 
# 
# From -- ./inp_files/159044.got.cif
#   From: 2010.05.17/outbox.cif.g08.bks.cpg/sg2_80_cif.got.tgz:159044.got - 2010.06.03 11:33:40.
