data_PCOD9007861
_publ_section_title
;
Structure prediction by ZEFSAII (Michael W. Deem and Ramdas Pophale) SiO2 
 PCOD9007861
Probable space group: P -1
;
_chemical_formula_sum "Si O2"
_cell_formula_units_Z 14
_cell_length_a 6.908450
_cell_length_b 5.746173
_cell_length_c 23.463870
_cell_angle_alpha 64.760408
_cell_angle_beta 138.310211
_cell_angle_gamma 115.630846
_cell_volume 550.181769
_symmetry_space_group_name_H-M "P -1"
_symmetry_group_IT_number 2
_symmetry_cell_setting 'triclinic'
loop_
_space_group_symop_operation_xyz
x,y,z
-x,-y,-z
loop_
_atom_site_type_symbol
_atom_site_label
_atom_site_fract_x
_atom_site_fract_y
_atom_site_fract_z
Si Si1 0.683341 0.500608 0.771791
Si Si2 0.686998 0.487989 0.485033
Si Si3 0.230485 0.274747 0.776027
Si Si4 0.732678 0.634610 0.098239
Si Si5 0.203450 0.184416 0.627905
Si Si6 0.783423 0.897644 0.647667
Si Si7 0.660250 0.887016 0.946553
O O1 0.451133 0.518123 0.769574
O O2 0.499984 0.252085 0.722968
O O3 0.756649 0.719523 0.716769
O O4 0.002396 0.464340 0.867006
O O5 0.500000 0.500000 0.500000
O O6 0.716417 0.757993 0.426854
O O7 0.517451 0.238511 0.436330
O O8 0.008443 0.413701 0.571569
O O9 0.136911 0.304686 0.816903
O O10 0.445125 0.062030 0.853421
O O11 0.942489 0.168941 0.685413
O O12 0.454613 0.404026 0.071420
O O13 0.638419 0.845142 0.014070
O O14 0.008938 0.923729 0.639686
O O15 0.000000 0.000000 0.000000
#
# Coordination Sequence:
#
# PCOD9007861 Si02
#       7
#     2   2   2   2   2   2   2
#     4  10  21  41  60  93 129 159 216 260 300 388
#     4  10  21  40  64  91 126 166 211 256 313 372
#     4  11  23  42  64  92 128 168 212 261 318 369
#     4  11  24  41  66  92 127 170 209 262 320 371
#     4   9  21  39  61  90 126 160 208 264 302 371
#     4  10  21  39  63  88 130 165 204 260 309 367
#     4  11  23  43  66  94 127 161 217 264 311 386
#
# _framework density 25.446138000000001
#
# number of rings (size 3 to 8) (size 9 to 14) (size 15 to 20)
#    0.000    1.714    2.857    0.857    0.000    6.857 
#    0.000    8.571    0.000    0.000    0.000    0.000 
#    0.000    0.000    0.000    0.000    0.000    0.000 
#
# Total GULP energy -77986.558078 kJ/mol
# GULP energy per Si atom -5570.468434 kJ/mol
# Density = 2.538822 g / cm^3
# Si number density = 25.446138 Si / 1000 Ang^3
#
#
#
# Elastic Constant Matrix: (Units=GPa)
#
#
# Indices 1 2 3 4 5 6 
#
# 1 150.6329 39.0193 24.2335 -8.6077 11.9100 36.3540
# 2 39.0193 57.8215 27.9465 12.1282 -0.2333 37.3194
# 3 24.2335 27.9465 106.4527 8.7380 -23.7327 2.0063
# 4 -8.6077 12.1282 8.7380 47.2243 17.0787 -8.2400
# 5 11.9100 -0.2333 -23.7327 17.0787 82.3699 5.4041
# 6 36.3540 37.3194 2.0063 -8.2400 5.4041 53.2859
#
#
#
# Elastic Compliance Matrix: (Units=1/GPa)
#
#
# Indices 1 2 3 4 5 6 
#
# 1 0.009020 -0.005004 -0.001562 0.003794 -0.002440 -0.001756
# 2 -0.005004 0.054632 -0.009547 -0.021735 0.005151 -0.038372
# 3 -0.001562 -0.009547 0.012942 -0.000312 0.003542 0.006857
# 4 0.003794 -0.021735 -0.000312 0.034043 -0.008993 0.018822
# 5 -0.002440 0.005151 0.003542 -0.008993 0.015725 -0.005062
# 6 -0.001756 -0.038372 0.006857 0.018822 -0.005062 0.050005
#
#
# Mechanical properties :
#
#
# Convention : Reuss Voigt Hill
#
# Bulk Modulus (GPa) = 22.53945 55.25617 38.89781
# Shear Modulus (GPa) = 22.38316 51.48988 36.93652
#
# Velocity S-wave (km/s) = 2.96907 4.50320 3.81406
# Velocity P-wave (km/s) = 4.54211 6.98573 5.89200
#
# Compressibility (1/GPa) = 0.04436666
#
# Stress axis : x y z
#
# Youngs Moduli (GPa) = 110.86874 18.30437 77.26812
#
# Poissons Ratio (x) = 0.09160 0.12068
# Poissons Ratio (y) = 0.55481 0.73771
# Poissons Ratio (z) = 0.17316 0.17476
#
# Static dielectric constant tensor:
#      x y z
#    x 2.095640 -0.035370 -0.027290 
#    y -0.035370 2.042650 -0.037830 
#    z -0.027290 -0.037830 1.991130 
# 
# From -- ./inp_files/601663.got.cif
#   From: 2010.05.17/outbox.cif.g08.bks.cpg/sg2_301_cif.got.tgz:601663.got - 2010.06.03 11:33:40.
