data_PCOD9007225
_publ_section_title
;
Structure prediction by ZEFSAII (Michael W. Deem and Ramdas Pophale) SiO2 
 PCOD9007225
Probable space group: P -1
;
_chemical_formula_sum "Si O2"
_cell_formula_units_Z 16
_cell_length_a 6.843216
_cell_length_b 17.086196
_cell_length_c 7.498118
_cell_angle_alpha 57.334841
_cell_angle_beta 115.813907
_cell_angle_gamma 94.470871
_cell_volume 649.976574
_symmetry_space_group_name_H-M "P -1"
_symmetry_group_IT_number 2
_symmetry_cell_setting 'triclinic'
loop_
_space_group_symop_operation_xyz
x,y,z
-x,-y,-z
loop_
_atom_site_type_symbol
_atom_site_label
_atom_site_fract_x
_atom_site_fract_y
_atom_site_fract_z
Si Si1 0.397646 0.026913 0.645295
Si Si2 0.243367 0.900482 0.460959
Si Si3 0.627257 0.391336 0.173302
Si Si4 0.653805 0.702048 0.278599
Si Si5 0.218275 0.326462 0.057840
Si Si6 0.201905 0.733638 0.919651
Si Si7 0.986106 0.534182 0.653888
Si Si8 0.202313 0.107252 0.837115
O O1 0.247033 0.990150 0.483306
O O2 0.514417 0.109560 0.517662
O O3 0.268837 0.056000 0.738524
O O4 0.614173 0.944534 0.884880
O O5 0.215368 0.817632 0.685652
O O6 0.052867 0.902319 0.234933
O O7 0.706355 0.361399 0.041643
O O8 0.851306 0.391310 0.365547
O O9 0.500000 0.500000 0.000000
O O10 0.456030 0.326581 0.241527
O O11 0.749339 0.598614 0.527450
O O12 0.765813 0.785127 0.294462
O O13 0.721484 0.690310 0.108122
O O14 0.387890 0.732730 0.144834
O O15 0.080115 0.434745 0.909888
O O16 0.047078 0.262339 0.122612
O O17 0.000000 0.500000 0.500000
#
# Coordination Sequence:
#
# PCOD9007225 Si02
#       8
#     2   2   2   2   2   2   2   2
#     4  10  24  44  65  92 125 162 207 262 319 375
#     4  11  23  43  65  91 126 166 205 259 317 376
#     4   9  19  37  58  84 120 156 208 254 302 366
#     4  10  21  39  60  91 127 158 209 263 303 375
#     4   9  21  38  61  88 123 171 203 257 313 362
#     4  11  22  39  60  90 125 164 213 252 310 383
#     4   9  18  37  60  85 121 162 205 253 312 358
#     4  11  22  42  67  96 121 160 212 259 316 380
#
# _framework density 24.616273
#
# number of rings (size 3 to 8) (size 9 to 14) (size 15 to 20)
#    0.000    2.000    1.250    2.250    0.000    5.500 
#    2.250    6.250    0.000    0.000    0.000    0.000 
#    0.000    0.000    0.000    0.000    0.000    0.000 
#
# Total GULP energy -89362.773529 kJ/mol
# GULP energy per Si atom -5585.173346 kJ/mol
# Density = 2.456025 g / cm^3
# Si number density = 24.616273 Si / 1000 Ang^3
#
#
#
# Elastic Constant Matrix: (Units=GPa)
#
#
# Indices 1 2 3 4 5 6 
#
# 1 93.8188 11.2212 0.6834 1.5840 9.6052 33.0711
# 2 11.2212 98.7643 12.1304 13.5730 14.1434 20.1102
# 3 0.6834 12.1304 45.4538 2.8600 16.9713 9.7474
# 4 1.5840 13.5730 2.8600 40.3276 7.1060 4.6518
# 5 9.6052 14.1434 16.9713 7.1060 32.0036 6.4302
# 6 33.0711 20.1102 9.7474 4.6518 6.4302 48.5871
#
#
#
# Elastic Compliance Matrix: (Units=1/GPa)
#
#
# Indices 1 2 3 4 5 6 
#
# 1 0.014703 0.000545 0.003547 0.001012 -0.004665 -0.010424
# 2 0.000545 0.011955 -0.000754 -0.002860 -0.003522 -0.004428
# 3 0.003547 -0.000754 0.029044 0.001437 -0.015237 -0.006050
# 4 0.001012 -0.002860 0.001437 0.026761 -0.005415 -0.001639
# 5 -0.004665 -0.003522 -0.015237 -0.005415 0.042979 0.002520
# 6 -0.010424 -0.004428 -0.006050 -0.001639 0.002520 0.030547
#
#
# Mechanical properties :
#
#
# Convention : Reuss Voigt Hill
#
# Bulk Modulus (GPa) = 16.03095 31.78964 23.91030
# Shear Modulus (GPa) = 29.39356 38.45046 33.92201
#
# Velocity S-wave (km/s) = 3.45928 3.95649 3.71621
# Velocity P-wave (km/s) = 4.74152 5.81497 5.30546
#
# Compressibility (1/GPa) = 0.06237932
#
# Stress axis : x y z
#
# Youngs Moduli (GPa) = 68.01380 83.64792 34.43005
#
# Poissons Ratio (x) = -0.04563 -0.12212
# Poissons Ratio (y) = -0.03710 0.02596
# Poissons Ratio (z) = -0.24124 0.06306
#
# Static dielectric constant tensor:
#      x y z
#    x 2.580040 -0.359070 0.236640 
#    y -0.359070 2.202190 -0.145240 
#    z 0.236640 -0.145240 2.116990 
# 
# From -- ./inp_files/46963.got.cif
#   From: 2010.05.17/outbox.cif.g08.bks.cpg/sg2_24_cif.got.tgz:46963.got - 2010.06.03 11:33:40.
