data_PCOD9007572
_publ_section_title
;
Structure prediction by ZEFSAII (Michael W. Deem and Ramdas Pophale) SiO2 
 PCOD9007572
Probable space group: P -1
;
_chemical_formula_sum "Si O2"
_cell_formula_units_Z 16
_cell_length_a 20.228127
_cell_length_b 11.202232
_cell_length_c 8.648510
_cell_angle_alpha 74.454553
_cell_angle_beta 43.209032
_cell_angle_gamma 40.731909
_cell_volume 675.363475
_symmetry_space_group_name_H-M "P -1"
_symmetry_group_IT_number 2
_symmetry_cell_setting 'triclinic'
loop_
_space_group_symop_operation_xyz
x,y,z
-x,-y,-z
loop_
_atom_site_type_symbol
_atom_site_label
_atom_site_fract_x
_atom_site_fract_y
_atom_site_fract_z
Si Si1 0.031854 0.118049 0.238516
Si Si2 0.515082 0.044920 0.294393
Si Si3 0.112358 0.479413 0.721352
Si Si4 0.463248 0.607839 0.364101
Si Si5 0.285850 0.206945 0.244758
Si Si6 0.828888 0.949896 0.476035
Si Si7 0.616267 0.214905 0.061606
Si Si8 0.849609 0.286319 0.826397
O O1 0.938405 0.323882 0.220192
O O2 0.913769 0.227517 0.559106
O O3 0.082245 0.925732 0.162763
O O4 0.222758 0.969827 0.021198
O O5 0.322062 0.218894 0.489377
O O6 0.516116 0.193199 0.241364
O O7 0.500000 0.000000 0.500000
O O8 0.690995 0.810222 0.974207
O O9 0.126249 0.459046 0.516245
O O10 0.000000 0.500000 0.000000
O O11 0.500000 0.500000 0.500000
O O12 0.263533 0.882290 0.572003
O O13 0.502421 0.459705 0.219802
O O14 0.627188 0.531275 0.110943
O O15 0.225825 0.133185 0.412035
O O16 0.500000 0.000000 0.000000
O O17 0.714601 0.123940 0.760671
O O18 0.040416 0.743899 0.234880
#
# Coordination Sequence:
#
# PCOD9007572 Si02
#       8
#     2   2   2   2   2   2   2   2
#     4   9  19  38  64  89 123 157 210 268 319 374
#     4  10  21  39  62  88 125 167 211 265 314 381
#     4  11  23  39  64  94 126 171 212 266 329 382
#     4  11  24  37  60  94 128 166 203 264 331 378
#     4   9  22  41  64  91 122 175 212 261 322 384
#     4  10  21  41  67  86 123 168 216 259 316 385
#     4   9  20  40  60  89 117 160 212 256 313 384
#     4   9  21  39  62  94 122 163 213 268 313 387
#
# _framework density 23.690947000000001
#
# number of rings (size 3 to 8) (size 9 to 14) (size 15 to 20)
#    0.000    2.250    0.000    1.875    7.000    4.500 
#    2.250    8.750    0.000    0.000    0.000    0.000 
#    0.000    0.000    0.000    0.000    0.000    0.000 
#
# Total GULP energy -89290.388724 kJ/mol
# GULP energy per Si atom -5580.649295 kJ/mol
# Density = 2.363702 g / cm^3
# Si number density = 23.690947 Si / 1000 Ang^3
#
#
#
# Elastic Constant Matrix: (Units=GPa)
#
#
# Indices 1 2 3 4 5 6 
#
# 1 71.9604 6.6206 27.4915 -1.2647 -17.0187 11.8096
# 2 6.6206 74.7087 18.6707 -9.8739 14.2480 2.2307
# 3 27.4915 18.6707 93.2595 -7.5747 -19.7571 5.9744
# 4 -1.2647 -9.8739 -7.5747 26.7082 2.9815 2.4788
# 5 -17.0187 14.2480 -19.7571 2.9815 34.6663 -0.5837
# 6 11.8096 2.2307 5.9744 2.4788 -0.5837 25.0343
#
#
#
# Elastic Compliance Matrix: (Units=1/GPa)
#
#
# Indices 1 2 3 4 5 6 
#
# 1 0.018378 -0.002471 -0.002741 -0.001068 0.008441 -0.007493
# 2 -0.002471 0.017954 -0.004851 0.006493 -0.011918 -0.000197
# 3 -0.002741 -0.004851 0.014590 0.001387 0.008816 -0.001688
# 4 -0.001068 0.006493 0.001387 0.041289 -0.006031 -0.004635
# 5 0.008441 -0.011918 0.008816 -0.006031 0.043374 -0.003415
# 6 -0.007493 -0.000197 -0.001688 -0.004635 -0.003415 0.044280
#
#
# Mechanical properties :
#
#
# Convention : Reuss Voigt Hill
#
# Bulk Modulus (GPa) = 32.47133 38.38825 35.42979
# Shear Modulus (GPa) = 23.78042 29.75816 26.76929
#
# Velocity S-wave (km/s) = 3.17168 3.54799 3.36510
# Velocity P-wave (km/s) = 5.21044 5.74659 5.48507
#
# Compressibility (1/GPa) = 0.03079640
#
# Stress axis : x y z
#
# Youngs Moduli (GPa) = 54.41155 55.69878 68.53782
#
# Poissons Ratio (x) = 0.13762 0.18789
# Poissons Ratio (y) = 0.13444 0.33247
# Poissons Ratio (z) = 0.14917 0.27019
#
# Static dielectric constant tensor:
#      x y z
#    x 2.123980 -0.092510 0.072120 
#    y -0.092510 1.942210 -0.033140 
#    z 0.072120 -0.033140 1.888980 
# 
# From -- ./inp_files/318989.got.cif
#   From: 2010.05.17/outbox.cif.g08.bks.cpg/sg2_160_cif.got.tgz:318989.got - 2010.06.03 11:33:40.
