data_PCOD9007580
_publ_section_title
;
Structure prediction by ZEFSAII (Michael W. Deem and Ramdas Pophale) SiO2 
 PCOD9007580
Probable space group: P -1
;
_chemical_formula_sum "Si O2"
_cell_formula_units_Z 16
_cell_length_a 9.626867
_cell_length_b 19.994535
_cell_length_c 10.822865
_cell_angle_alpha 23.496342
_cell_angle_beta 70.058827
_cell_angle_gamma 71.326207
_cell_volume 780.616170
_symmetry_space_group_name_H-M "P -1"
_symmetry_group_IT_number 2
_symmetry_cell_setting 'triclinic'
loop_
_space_group_symop_operation_xyz
x,y,z
-x,-y,-z
loop_
_atom_site_type_symbol
_atom_site_label
_atom_site_fract_x
_atom_site_fract_y
_atom_site_fract_z
Si Si1 0.580215 0.151256 0.846000
Si Si2 0.725249 0.840158 0.192224
Si Si3 0.925015 0.837398 0.356908
Si Si4 0.160672 0.948881 0.588005
Si Si5 0.247622 0.230304 0.253621
Si Si6 0.476607 0.925596 0.491914
Si Si7 0.012269 0.681715 0.254535
Si Si8 0.161409 0.607197 0.598526
O O1 0.430477 0.219800 0.710901
O O2 0.685036 0.298561 0.604949
O O3 0.674849 0.030934 0.925825
O O4 0.534587 0.044083 0.163107
O O5 0.797472 0.775386 0.408283
O O6 0.856878 0.787300 0.146088
O O7 0.849624 0.878093 0.439065
O O8 0.050499 0.697476 0.574774
O O9 0.000000 0.000000 0.000000
O O10 0.307677 0.882128 0.585755
O O11 0.227426 0.125648 0.313119
O O12 0.000000 0.000000 0.500000
O O13 0.122108 0.802450 0.943810
O O14 0.410032 0.230789 0.262585
O O15 0.184341 0.413993 0.944970
O O16 0.500000 0.000000 0.500000
O O17 0.000000 0.500000 0.500000
O O18 0.082533 0.642763 0.432152
#
# Coordination Sequence:
#
# PCOD9007580 Si02
#       8
#     2   2   2   2   2   2   2   2
#     4  11  21  41  65  97 125 168 216 262 328 391
#     4  10  22  38  69  92 125 163 216 266 320 385
#     4  11  19  39  63  90 121 168 207 259 317 384
#     4  11  23  40  64  92 124 171 214 265 320 378
#     4  11  22  39  59  93 127 163 212 264 313 386
#     4  10  21  39  62  88 126 168 213 255 314 383
#     4  11  24  43  65  93 128 169 218 268 319 389
#     4  11  23  37  64  94 127 164 213 261 323 378
#
# _framework density 20.49663
#
# number of rings (size 3 to 8) (size 9 to 14) (size 15 to 20)
#    0.000    1.250    2.500    4.875    0.000    2.000 
#    0.000    4.375    0.000    0.000    0.000    0.000 
#    0.000    0.000    0.000    0.000    0.000    0.000 
#
# Total GULP energy -89081.480888 kJ/mol
# GULP energy per Si atom -5567.592555 kJ/mol
# Density = 2.044998 g / cm^3
# Si number density = 20.496630 Si / 1000 Ang^3
#
#
#
# Elastic Constant Matrix: (Units=GPa)
#
#
# Indices 1 2 3 4 5 6 
#
# 1 164.9861 13.6362 39.7990 -4.9397 5.4721 -15.0756
# 2 13.6362 51.9446 20.7279 -3.1271 -9.5295 -11.2341
# 3 39.7990 20.7279 83.6800 -8.5304 5.6719 -21.1595
# 4 -4.9397 -3.1271 -8.5304 22.3333 2.4199 0.3889
# 5 5.4721 -9.5295 5.6719 2.4199 26.3673 -4.3567
# 6 -15.0756 -11.2341 -21.1595 0.3889 -4.3567 32.0482
#
#
#
# Elastic Compliance Matrix: (Units=1/GPa)
#
#
# Indices 1 2 3 4 5 6 
#
# 1 0.006921 -0.000628 -0.002749 0.000475 -0.000936 0.001087
# 2 -0.000628 0.024914 -0.004926 0.000127 0.011293 0.006719
# 3 -0.002749 -0.004926 0.017298 0.005625 -0.004164 0.007766
# 4 0.000475 0.000127 0.005625 0.047562 -0.005181 0.002700
# 5 -0.000936 0.011293 -0.004164 -0.005181 0.044715 0.006911
# 6 0.001087 0.006719 0.007766 0.002700 0.006911 0.040104
#
#
# Mechanical properties :
#
#
# Convention : Reuss Voigt Hill
#
# Bulk Modulus (GPa) = 30.74431 49.88189 40.31310
# Shear Modulus (GPa) = 23.92776 31.24624 27.58700
#
# Velocity S-wave (km/s) = 3.42043 3.90867 3.67267
# Velocity P-wave (km/s) = 5.53456 6.69027 6.13967
#
# Compressibility (1/GPa) = 0.03252634
#
# Stress axis : x y z
#
# Youngs Moduli (GPa) = 144.49148 40.13729 57.81162
#
# Poissons Ratio (x) = 0.02519 0.15894
# Poissons Ratio (y) = 0.09068 0.28480
# Poissons Ratio (z) = 0.39725 0.19773
#
# Static dielectric constant tensor:
#      x y z
#    x 1.800050 -0.059280 0.029830 
#    y -0.059280 1.881180 -0.034560 
#    z 0.029830 -0.034560 1.705040 
# 
# From -- ./inp_files/405203.got.cif
#   From: 2010.05.17/outbox.cif.g08.bks.cpg/sg2_203_cif.got.tgz:405203.got - 2010.06.03 11:33:40.
