data_PCOD9007164
_publ_section_title
;
Structure prediction by ZEFSAII (Michael W. Deem and Ramdas Pophale) SiO2 
 PCOD9007164
Probable space group: P -1
;
_chemical_formula_sum "Si O2"
_cell_formula_units_Z 15
_cell_length_a 12.572676
_cell_length_b 18.417653
_cell_length_c 4.994981
_cell_angle_alpha 87.722889
_cell_angle_beta 96.546255
_cell_angle_gamma 143.966448
_cell_volume 673.235139
_symmetry_space_group_name_H-M "P -1"
_symmetry_group_IT_number 2
_symmetry_cell_setting 'triclinic'
loop_
_space_group_symop_operation_xyz
x,y,z
-x,-y,-z
loop_
_atom_site_type_symbol
_atom_site_label
_atom_site_fract_x
_atom_site_fract_y
_atom_site_fract_z
Si Si1 0.300892 0.415995 0.677677
Si Si2 0.040993 0.278062 0.120523
Si Si3 0.292171 0.841759 0.688238
Si Si4 0.000000 0.000000 0.500000
Si Si5 0.486324 0.893437 0.254858
Si Si6 0.670423 0.842273 0.250747
Si Si7 0.598492 0.667374 0.959122
Si Si8 0.025360 0.908567 0.034232
O O1 0.190043 0.344786 0.384353
O O2 0.399062 0.395777 0.806767
O O3 0.152973 0.356562 0.872987
O O4 0.454714 0.562487 0.714021
O O5 0.904581 0.260713 0.216705
O O6 0.914370 0.139274 0.015900
O O7 0.319287 0.814665 0.422699
O O8 0.364374 0.963754 0.641929
O O9 0.424991 0.877794 0.938803
O O10 0.040453 0.945812 0.331753
O O11 0.777849 0.856733 0.499721
O O12 0.565276 0.856039 0.295676
O O13 0.559108 0.725729 0.055771
O O14 0.870933 0.977209 0.149663
O O15 0.812004 0.786082 0.938423
#
# Coordination Sequence:
#
# PCOD9007164 Si02
#       8
#     2   2   2   1   2   2   2   2
#     4  10  23  41  61  92 116 171 208 251 288 364
#     4  11  22  40  68  85 122 158 217 247 306 351
#     4  10  21  39  60  88 120 157 194 265 294 370
#     4  10  22  34  52  86 126 158 190 226 306 368
#     4  10  22  36  60  90 123 152 200 242 322 355
#     4  11  22  38  59  92 126 166 193 250 310 378
#     4   9  21  40  58  88 128 159 208 248 296 361
#     4  10  22  36  58  90 121 166 190 250 300 377
#
# _framework density 22.280477999999999
#
# number of rings (size 3 to 8) (size 9 to 14) (size 15 to 20)
#    0.000    1.867    1.333    2.400    7.467    5.867 
#    4.800    0.000    0.000    4.800    0.000    0.000 
#    0.000    0.000    0.000    0.000    0.000    0.000 
#
# Total GULP energy -83562.016608 kJ/mol
# GULP energy per Si atom -5570.801107 kJ/mol
# Density = 2.222977 g / cm^3
# Si number density = 22.280478 Si / 1000 Ang^3
#
#
#
# Elastic Constant Matrix: (Units=GPa)
#
#
# Indices 1 2 3 4 5 6 
#
# 1 109.7625 13.4445 29.9716 1.0499 -38.0823 -1.3160
# 2 13.4445 77.9533 34.3709 13.2233 -21.5645 -1.6102
# 3 29.9716 34.3709 121.7985 12.6690 -20.1378 -6.7677
# 4 1.0499 13.2233 12.6690 31.0336 3.4200 -9.8361
# 5 -38.0823 -21.5645 -20.1378 3.4200 33.6777 -0.5357
# 6 -1.3160 -1.6102 -6.7677 -9.8361 -0.5357 24.7758
#
#
#
# Elastic Compliance Matrix: (Units=1/GPa)
#
#
# Indices 1 2 3 4 5 6 
#
# 1 0.016121 0.004193 -0.001346 -0.004190 0.020528 -0.000459
# 2 0.004193 0.019619 -0.002957 -0.010046 0.016509 -0.002941
# 3 -0.001346 -0.002957 0.010241 -0.002726 0.003009 0.001517
# 4 -0.004190 -0.010046 -0.002726 0.044626 -0.017083 0.015727
# 5 0.020528 0.016509 0.003009 -0.017083 0.066974 -0.002348
# 6 -0.000459 -0.002941 0.001517 0.015727 -0.002348 0.046754
#
#
# Mechanical properties :
#
#
# Convention : Reuss Voigt Hill
#
# Bulk Modulus (GPa) = 21.85216 51.67647 36.76432
# Shear Modulus (GPa) = 22.74696 33.34592 28.04644
#
# Velocity S-wave (km/s) = 3.19868 3.87284 3.55179
# Velocity P-wave (km/s) = 4.84470 6.57590 5.77554
#
# Compressibility (1/GPa) = 0.04576206
#
# Stress axis : x y z
#
# Youngs Moduli (GPa) = 62.02947 50.97046 97.64307
#
# Poissons Ratio (x) = -0.21373 0.13142
# Poissons Ratio (y) = -0.26010 0.28875
# Poissons Ratio (z) = 0.08349 0.15073
#
# Static dielectric constant tensor:
#      x y z
#    x 1.754950 0.083250 -0.187270 
#    y 0.083250 1.845330 0.135500 
#    z -0.187270 0.135500 1.580680 
# 
# From -- ./inp_files/79922.got.cif
#   From: 2010.05.17/outbox.cif.g08.bks.cpg/sg2_40_cif.got.tgz:79922.got - 2010.06.03 11:33:40.
