data_PCOD9007911
_publ_section_title
;
Structure prediction by ZEFSAII (Michael W. Deem and Ramdas Pophale) SiO2 
 PCOD9007911
Probable space group: P -1
;
_chemical_formula_sum "Si O2"
_cell_formula_units_Z 16
_cell_length_a 9.282529
_cell_length_b 9.727532
_cell_length_c 16.051887
_cell_angle_alpha 140.594998
_cell_angle_beta 71.487975
_cell_angle_gamma 100.581805
_cell_volume 867.888709
_symmetry_space_group_name_H-M "P -1"
_symmetry_group_IT_number 2
_symmetry_cell_setting 'triclinic'
loop_
_space_group_symop_operation_xyz
x,y,z
-x,-y,-z
loop_
_atom_site_type_symbol
_atom_site_label
_atom_site_fract_x
_atom_site_fract_y
_atom_site_fract_z
Si Si1 0.572629 0.085423 0.370505
Si Si2 0.289677 0.134549 0.325501
Si Si3 0.898566 0.215898 0.870830
Si Si4 0.617581 0.804655 0.853649
Si Si5 0.053247 0.089882 0.119980
Si Si6 0.421117 0.435138 0.678019
Si Si7 0.762296 0.397827 0.372598
Si Si8 0.776203 0.646147 0.169769
O O1 0.427586 0.062730 0.328211
O O2 0.509417 0.209995 0.523768
O O3 0.677820 0.248124 0.381246
O O4 0.666395 0.853542 0.256873
O O5 0.352853 0.160679 0.233316
O O6 0.219646 0.370540 0.480278
O O7 0.171286 0.957153 0.256152
O O8 0.051669 0.290061 0.837785
O O9 0.933793 0.096150 0.897571
O O10 0.781374 0.427887 0.011001
O O11 0.781391 0.819595 0.873611
O O12 0.538458 0.582282 0.769622
O O13 0.500000 0.000000 0.000000
O O14 0.923418 0.274974 0.259769
O O15 0.000000 0.000000 0.000000
O O16 0.347751 0.555853 0.665670
O O17 0.283866 0.404687 0.751634
#
# Coordination Sequence:
#
# PCOD9007911 Si02
#       8
#     2   2   2   2   2   2   2   2
#     4  11  21  39  64  89 121 161 203 249 299 361
#     4  10  21  39  63  91 117 157 206 253 302 348
#     4  10  23  41  59  86 124 166 198 248 304 359
#     4  11  21  35  60  90 123 151 199 256 300 347
#     4  11  23  38  62  93 119 156 203 253 304 352
#     4  11  21  40  60  92 122 157 200 251 308 350
#     4  11  20  40  65  92 120 156 203 256 300 356
#     4  11  23  40  59  84 126 166 200 241 305 367
#
# _framework density 18.435544
#
# number of rings (size 3 to 8) (size 9 to 14) (size 15 to 20)
#    0.000    1.250    3.750    4.125    0.000    3.500 
#    0.000    6.250    0.000    0.000    0.000    0.000 
#    0.000    0.000    0.000    0.000    0.000    0.000 
#
# Total GULP energy -89371.099867 kJ/mol
# GULP energy per Si atom -5585.693742 kJ/mol
# Density = 1.839358 g / cm^3
# Si number density = 18.435544 Si / 1000 Ang^3
#
#
#
# Elastic Constant Matrix: (Units=GPa)
#
#
# Indices 1 2 3 4 5 6 
#
# 1 98.7582 21.9808 73.2450 -4.2613 11.0064 14.6808
# 2 21.9808 52.2745 41.0750 1.9012 3.2960 11.2507
# 3 73.2450 41.0750 148.6278 -4.3872 0.1977 0.6890
# 4 -4.2613 1.9012 -4.3872 21.3310 5.2712 -6.1359
# 5 11.0064 3.2960 0.1977 5.2712 40.4985 4.4442
# 6 14.6808 11.2507 0.6890 -6.1359 4.4442 21.1496
#
#
#
# Elastic Compliance Matrix: (Units=1/GPa)
#
#
# Indices 1 2 3 4 5 6 
#
# 1 0.019932 0.003735 -0.010840 -0.002057 -0.003723 -0.015284
# 2 0.003735 0.030959 -0.010607 -0.010547 0.000286 -0.021836
# 3 -0.010840 -0.010607 0.015098 0.005538 0.001482 0.013970
# 4 -0.002057 -0.010547 0.005538 0.058137 -0.008987 0.025613
# 5 -0.003723 0.000286 0.001482 -0.008987 0.027502 -0.006002
# 6 -0.015284 -0.021836 0.013970 0.025613 -0.006002 0.077744
#
#
# Mechanical properties :
#
#
# Convention : Reuss Voigt Hill
#
# Bulk Modulus (GPa) = 32.71611 63.58468 48.15039
# Shear Modulus (GPa) = 18.18286 27.48646 22.83466
#
# Velocity S-wave (km/s) = 3.14394 3.86547 3.52322
# Velocity P-wave (km/s) = 5.56452 7.38157 6.53649
#
# Compressibility (1/GPa) = 0.03056598
#
# Stress axis : x y z
#
# Youngs Moduli (GPa) = 50.17035 32.30085 66.23232
#
# Poissons Ratio (x) = -0.12066 0.71795
# Poissons Ratio (y) = -0.18741 0.70254
# Poissons Ratio (z) = 0.54384 0.34262
#
# Static dielectric constant tensor:
#      x y z
#    x 1.640090 0.017460 0.018240 
#    y 0.017460 1.642810 0.018090 
#    z 0.018240 0.018090 1.638350 
# 
# From -- ./inp_files/206337.got.cif
#   From: 2010.05.17/outbox.cif.g08.bks.cpg/sg2_104_cif.got.tgz:206337.got - 2010.06.03 11:33:40.
