data_PCOD9007298
_publ_section_title
;
Structure prediction by ZEFSAII (Michael W. Deem and Ramdas Pophale) SiO2 
 PCOD9007298
Probable space group: P -1
;
_chemical_formula_sum "Si O2"
_cell_formula_units_Z 16
_cell_length_a 19.099341
_cell_length_b 17.526948
_cell_length_c 5.476118
_cell_angle_alpha 44.702322
_cell_angle_beta 123.910484
_cell_angle_gamma 145.323570
_cell_volume 732.012551
_symmetry_space_group_name_H-M "P -1"
_symmetry_group_IT_number 2
_symmetry_cell_setting 'triclinic'
loop_
_space_group_symop_operation_xyz
x,y,z
-x,-y,-z
loop_
_atom_site_type_symbol
_atom_site_label
_atom_site_fract_x
_atom_site_fract_y
_atom_site_fract_z
Si Si1 0.395633 0.370005 0.897252
Si Si2 0.113850 0.689358 0.820323
Si Si3 0.445519 0.071638 0.221159
Si Si4 0.031750 0.656875 0.232490
Si Si5 0.165428 0.353639 0.002325
Si Si6 0.568110 0.386893 0.920975
Si Si7 0.629979 0.058292 0.130112
Si Si8 0.873100 0.814809 0.180799
O O1 0.447915 0.310747 0.010222
O O2 0.402059 0.478187 0.482087
O O3 0.252123 0.231906 0.004640
O O4 0.500000 0.500000 0.000000
O O5 0.243951 0.757502 0.998004
O O6 0.119995 0.748923 0.429920
O O7 0.000000 0.500000 0.000000
O O8 0.082344 0.736195 0.883308
O O9 0.500000 0.000000 0.500000
O O10 0.378002 0.019880 0.465026
O O11 0.545338 0.260926 0.994978
O O12 0.367038 0.002041 0.981215
O O13 0.000000 0.500000 0.500000
O O14 0.911719 0.611773 0.168233
O O15 0.310825 0.516781 0.900474
O O16 0.140095 0.253136 0.420639
O O17 0.126296 0.266628 0.864282
O O18 0.500000 0.000000 0.000000
O O19 0.000000 0.000000 0.000000
#
# Coordination Sequence:
#
# PCOD9007298 Si02
#       8
#     2   2   2   2   2   2   2   2
#     4  10  21  44  71 102 132 170 232 284 337 398
#     4  10  21  39  61  86 123 175 225 267 314 378
#     4  10  23  40  62  98 136 175 216 270 331 395
#     4  10  22  39  62  94 128 172 221 273 311 379
#     4  11  23  43  70  99 131 182 230 266 336 409
#     4  10  23  41  71 101 133 179 227 281 334 404
#     4  10  22  40  60  89 130 172 220 267 330 389
#     4  11  24  45  70 102 136 171 218 285 349 400
#
# _framework density 21.857548000000001
#
# number of rings (size 3 to 8) (size 9 to 14) (size 15 to 20)
#    0.000    1.750    1.250    1.875    1.750    8.000 
#    6.750    1.250    0.000    0.000    0.000    0.000 
#    0.000    0.000    0.000    0.000    0.000    0.000 
#
# Total GULP energy -89130.472559 kJ/mol
# GULP energy per Si atom -5570.654535 kJ/mol
# Density = 2.180780 g / cm^3
# Si number density = 21.857548 Si / 1000 Ang^3
#
#
#
# Elastic Constant Matrix: (Units=GPa)
#
#
# Indices 1 2 3 4 5 6 
#
# 1 128.2852 64.1949 36.7931 0.8922 2.3428 3.9881
# 2 64.1949 165.2413 39.1592 7.3503 3.4129 9.9300
# 3 36.7931 39.1592 52.9219 14.0234 -19.9642 -14.5352
# 4 0.8922 7.3503 14.0234 35.8602 -14.7383 -10.5676
# 5 2.3428 3.4129 -19.9642 -14.7383 41.3123 11.9187
# 6 3.9881 9.9300 -14.5352 -10.5676 11.9187 46.3833
#
#
#
# Elastic Compliance Matrix: (Units=1/GPa)
#
#
# Indices 1 2 3 4 5 6 
#
# 1 0.011523 -0.002336 -0.008529 0.001531 -0.003482 -0.001920
# 2 -0.002336 0.008899 -0.006769 -0.001510 -0.003466 -0.003279
# 3 -0.008529 -0.006769 0.039624 -0.004601 0.015813 0.009488
# 4 0.001531 -0.001510 -0.004601 0.034959 0.009018 0.004397
# 5 -0.003482 -0.003466 0.015813 0.009018 0.035886 -0.001170
# 6 -0.001920 -0.003279 0.009488 0.004397 -0.001170 0.026702
#
#
# Mechanical properties :
#
#
# Convention : Reuss Voigt Hill
#
# Bulk Modulus (GPa) = 40.35793 69.63808 54.99801
# Shear Modulus (GPa) = 24.86069 38.46457 31.66263
#
# Velocity S-wave (km/s) = 3.37619 4.19953 3.81016
# Velocity P-wave (km/s) = 5.80537 7.44606 6.67631
#
# Compressibility (1/GPa) = 0.02477828
#
# Stress axis : x y z
#
# Youngs Moduli (GPa) = 86.78316 112.36936 25.23710
#
# Poissons Ratio (x) = 0.26251 0.21525
# Poissons Ratio (y) = 0.20274 0.17083
# Poissons Ratio (z) = 0.74018 0.76061
#
# Static dielectric constant tensor:
#      x y z
#    x 1.763280 0.021510 -0.136080 
#    y 0.021510 1.888930 0.043900 
#    z -0.136080 0.043900 1.823050 
# 
# From -- ./inp_files/119988.got.cif
#   From: 2010.05.17/outbox.cif.g08.bks.cpg/sg2_60_cif.got.tgz:119988.got - 2010.06.03 11:33:40.
