data_PCOD9007525
_publ_section_title
;
Structure prediction by ZEFSAII (Michael W. Deem and Ramdas Pophale) SiO2 
 PCOD9007525
Probable space group: P -1
;
_chemical_formula_sum "Si O2"
_cell_formula_units_Z 16
_cell_length_a 10.157206
_cell_length_b 14.199267
_cell_length_c 9.406999
_cell_angle_alpha 35.693247
_cell_angle_beta 90.306528
_cell_angle_gamma 81.000446
_cell_volume 760.916614
_symmetry_space_group_name_H-M "P -1"
_symmetry_group_IT_number 2
_symmetry_cell_setting 'triclinic'
loop_
_space_group_symop_operation_xyz
x,y,z
-x,-y,-z
loop_
_atom_site_type_symbol
_atom_site_label
_atom_site_fract_x
_atom_site_fract_y
_atom_site_fract_z
Si Si1 0.294649 0.629536 0.440708
Si Si2 0.472679 0.278429 0.813442
Si Si3 0.447481 0.756867 0.823222
Si Si4 0.287509 0.150499 0.340422
Si Si5 0.027367 0.325372 0.297979
Si Si6 0.011071 0.324353 0.637077
Si Si7 0.260043 0.722027 0.632836
Si Si8 0.258274 0.094989 0.090547
O O1 0.353805 0.452295 0.578036
O O2 0.401452 0.734096 0.274997
O O3 0.294091 0.601287 0.644922
O O4 0.136799 0.711792 0.300552
O O5 0.529635 0.298163 0.946909
O O6 0.398864 0.131066 0.994892
O O7 0.592010 0.759641 0.752046
O O8 0.362412 0.668207 0.830482
O O9 0.359225 0.952183 0.592107
O O10 0.167314 0.207815 0.381185
O O11 0.232459 0.182953 0.138524
O O12 0.034020 0.342857 0.446520
O O13 0.895877 0.257828 0.349584
O O14 0.000000 0.500000 0.000000
O O15 0.000000 0.500000 0.500000
O O16 0.134164 0.181438 0.880913
O O17 0.271650 0.900959 0.355689
#
# Coordination Sequence:
#
# PCOD9007525 Si02
#       8
#     2   2   2   2   2   2   2   2
#     4  10  23  39  57  90 126 153 208 254 302 369
#     4  10  21  39  62  86 121 166 200 253 302 365
#     4   9  20  38  64  87 120 166 196 251 307 357
#     4   9  20  40  61  91 124 156 206 247 305 364
#     4  11  25  40  61  92 129 161 205 259 303 367
#     4  11  22  40  64  88 121 168 203 249 315 360
#     4  10  24  41  59  95 122 158 206 256 309 358
#     4  10  21  40  66  87 122 160 201 253 305 365
#
# _framework density 21.027270000000001
#
# number of rings (size 3 to 8) (size 9 to 14) (size 15 to 20)
#    0.000    2.000    1.250    1.500    5.250   10.000 
#    0.000    0.000    0.000    0.000    0.000    0.000 
#    0.000    0.000    0.000    0.000    0.000    0.000 
#
# Total GULP energy -89395.301943 kJ/mol
# GULP energy per Si atom -5587.206371 kJ/mol
# Density = 2.097941 g / cm^3
# Si number density = 21.027270 Si / 1000 Ang^3
#
#
#
# Elastic Constant Matrix: (Units=GPa)
#
#
# Indices 1 2 3 4 5 6 
#
# 1 149.8746 58.8738 34.6224 15.7127 -5.8383 -23.2839
# 2 58.8738 60.1963 5.3695 9.7295 0.3479 -11.8368
# 3 34.6224 5.3695 77.4307 4.1198 6.2130 -4.4546
# 4 15.7127 9.7295 4.1198 28.0985 12.0585 -5.9646
# 5 -5.8383 0.3479 6.2130 12.0585 38.5278 10.5657
# 6 -23.2839 -11.8368 -4.4546 -5.9646 10.5657 32.7307
#
#
#
# Elastic Compliance Matrix: (Units=1/GPa)
#
#
# Indices 1 2 3 4 5 6 
#
# 1 0.013263 -0.011396 -0.005042 -0.003477 0.003202 0.002960
# 2 -0.011396 0.028418 0.003644 -0.002139 -0.002771 0.003171
# 3 -0.005042 0.003644 0.015248 0.001349 -0.004051 0.001360
# 4 -0.003477 -0.002139 0.001349 0.048960 -0.019370 0.012111
# 5 0.003202 -0.002771 -0.004051 -0.019370 0.037248 -0.014829
# 6 0.002960 0.003171 0.001360 0.012111 -0.014829 0.040984
#
#
# Mechanical properties :
#
#
# Convention : Reuss Voigt Hill
#
# Bulk Modulus (GPa) = 31.90749 53.91479 42.91114
# Shear Modulus (GPa) = 22.71115 32.44711 27.57913
#
# Velocity S-wave (km/s) = 3.29002 3.93249 3.62552
# Velocity P-wave (km/s) = 5.44423 6.80554 6.16259
#
# Compressibility (1/GPa) = 0.03134061
#
# Stress axis : x y z
#
# Youngs Moduli (GPa) = 75.39993 35.18862 65.58267
#
# Poissons Ratio (x) = 0.40101 0.33064
# Poissons Ratio (y) = 0.85926 -0.23895
# Poissons Ratio (z) = 0.38014 -0.12821
#
# Static dielectric constant tensor:
#      x y z
#    x 1.752230 0.019780 0.009860 
#    y 0.019780 1.766400 -0.015560 
#    z 0.009860 -0.015560 1.767970 
# 
# From -- ./inp_files/205236.got.cif
#   From: 2010.05.17/outbox.cif.g08.bks.cpg/sg2_103_cif.got.tgz:205236.got - 2010.06.03 11:33:40.
