data_PCOD9007427
_publ_section_title
;
Structure prediction by ZEFSAII (Michael W. Deem and Ramdas Pophale) SiO2 
 PCOD9007427
Probable space group: P -1
;
_chemical_formula_sum "Si O2"
_cell_formula_units_Z 16
_cell_length_a 6.781659
_cell_length_b 10.366629
_cell_length_c 13.875421
_cell_angle_alpha 89.813231
_cell_angle_beta 125.284204
_cell_angle_gamma 111.935325
_cell_volume 708.948507
_symmetry_space_group_name_H-M "P -1"
_symmetry_group_IT_number 2
_symmetry_cell_setting 'triclinic'
loop_
_space_group_symop_operation_xyz
x,y,z
-x,-y,-z
loop_
_atom_site_type_symbol
_atom_site_label
_atom_site_fract_x
_atom_site_fract_y
_atom_site_fract_z
Si Si1 0.076894 0.349628 0.512113
Si Si2 0.530716 0.163987 0.118880
Si Si3 0.156036 0.287510 0.332519
Si Si4 0.652313 0.671041 0.067013
Si Si5 0.713255 0.796176 0.287411
Si Si6 0.243992 0.892188 0.163671
Si Si7 0.414241 0.646198 0.688220
Si Si8 0.711546 0.965063 0.618348
O O1 0.170708 0.385363 0.427452
O O2 0.206671 0.253030 0.590835
O O3 0.179979 0.483013 0.614041
O O4 0.751591 0.277397 0.412926
O O5 0.507012 0.275311 0.188745
O O6 0.840290 0.190568 0.217502
O O7 0.317565 0.001519 0.091722
O O8 0.489510 0.228664 0.007216
O O9 0.331393 0.362949 0.288490
O O10 0.302076 0.190239 0.401701
O O11 0.667682 0.685361 0.186896
O O12 0.946364 0.757789 0.096966
O O13 0.500000 0.500000 0.000000
O O14 0.464489 0.832479 0.227463
O O15 0.986298 0.933003 0.333257
O O16 0.286220 0.993840 0.268741
O O17 0.500000 0.000000 0.500000
#
# Coordination Sequence:
#
# PCOD9007427 Si02
#       8
#     2   2   2   2   2   2   2   2
#     4  10  22  37  60  93 130 170 207 257 311 393
#     4  11  23  42  67  93 126 166 218 264 316 385
#     4  11  21  36  63  94 125 166 211 254 319 371
#     4  11  27  47  67  92 125 169 217 272 325 373
#     4  11  24  41  63  95 128 162 215 258 320 377
#     4  11  24  43  65  97 126 168 217 261 326 378
#     4  10  21  39  61  92 130 167 210 256 320 372
#     4  11  22  37  63  96 134 166 204 258 313 380
#
# _framework density 22.568635
#
# number of rings (size 3 to 8) (size 9 to 14) (size 15 to 20)
#    0.000    1.250    2.500    3.000    1.750    5.000 
#    0.000    0.000    0.000    0.000    0.000    0.000 
#    0.000    0.000    0.000    0.000    0.000    0.000 
#
# Total GULP energy -89253.737096 kJ/mol
# GULP energy per Si atom -5578.358568 kJ/mol
# Density = 2.251727 g / cm^3
# Si number density = 22.568635 Si / 1000 Ang^3
#
#
#
# Elastic Constant Matrix: (Units=GPa)
#
#
# Indices 1 2 3 4 5 6 
#
# 1 117.8368 8.2874 29.9102 5.7887 22.3003 -0.5889
# 2 8.2874 52.9554 16.4279 4.8709 13.4070 1.8957
# 3 29.9102 16.4279 65.3201 -8.4294 14.0039 9.3093
# 4 5.7887 4.8709 -8.4294 40.8738 -3.8185 3.6062
# 5 22.3003 13.4070 14.0039 -3.8185 30.3194 -4.1445
# 6 -0.5889 1.8957 9.3093 3.6062 -4.1445 26.7995
#
#
#
# Elastic Compliance Matrix: (Units=1/GPa)
#
#
# Indices 1 2 3 4 5 6 
#
# 1 0.011041 0.001767 -0.004587 -0.003477 -0.007073 0.001085
# 2 0.001767 0.023162 -0.005035 -0.004913 -0.009934 -0.000726
# 3 -0.004587 -0.005035 0.021777 0.006066 -0.004909 -0.008885
# 4 -0.003477 -0.004913 0.006066 0.027664 0.004752 -0.004824
# 5 -0.007073 -0.009934 -0.004909 0.004752 0.046650 0.008827
# 6 0.001085 -0.000726 -0.008885 -0.004824 0.008827 0.042490
#
#
# Mechanical properties :
#
#
# Convention : Reuss Voigt Hill
#
# Bulk Modulus (GPa) = 24.83235 38.37371 31.60303
# Shear Modulus (GPa) = 24.76252 31.69766 28.23009
#
# Velocity S-wave (km/s) = 3.31601 3.75173 3.54058
# Velocity P-wave (km/s) = 5.06835 5.98392 5.54507
#
# Compressibility (1/GPa) = 0.04027005
#
# Stress axis : x y z
#
# Youngs Moduli (GPa) = 90.57047 43.17376 45.91924
#
# Poissons Ratio (x) = -0.07628 0.21063
# Poissons Ratio (y) = -0.16001 0.23121
# Poissons Ratio (z) = 0.41545 0.21738
#
# Static dielectric constant tensor:
#      x y z
#    x 1.920450 0.117640 0.009450 
#    y 0.117640 2.081710 -0.041510 
#    z 0.009450 -0.041510 1.842260 
# 
# From -- ./inp_files/368058.got.cif
#   From: 2010.05.17/outbox.cif.g08.bks.cpg/sg2_185_cif.got.tgz:368058.got - 2010.06.03 11:33:40.
