data_PCOD9007260
_publ_section_title
;
Structure prediction by ZEFSAII (Michael W. Deem and Ramdas Pophale) SiO2 
 PCOD9007260
Probable space group: P -1
;
_chemical_formula_sum "Si O2"
_cell_formula_units_Z 12
_cell_length_a 7.229909
_cell_length_b 11.011165
_cell_length_c 12.341824
_cell_angle_alpha 96.614244
_cell_angle_beta 138.890979
_cell_angle_gamma 81.014229
_cell_volume 638.073855
_symmetry_space_group_name_H-M "P -1"
_symmetry_group_IT_number 2
_symmetry_cell_setting 'triclinic'
loop_
_space_group_symop_operation_xyz
x,y,z
-x,-y,-z
loop_
_atom_site_type_symbol
_atom_site_label
_atom_site_fract_x
_atom_site_fract_y
_atom_site_fract_z
Si Si1 0.850820 0.041910 0.549756
Si Si2 0.444676 0.598626 0.390201
Si Si3 0.273882 0.672345 0.907445
Si Si4 0.127770 0.271677 0.783849
Si Si5 0.273371 0.173255 0.365583
Si Si6 0.629639 0.541391 0.228456
O O1 0.530855 0.107728 0.401742
O O2 0.024672 0.142593 0.694246
O O3 0.824607 0.926910 0.605043
O O4 0.000000 0.000000 0.500000
O O5 0.500000 0.500000 0.500000
O O6 0.599794 0.717731 0.501633
O O7 0.555935 0.541531 0.320502
O O8 0.112981 0.649251 0.245301
O O9 0.240874 0.586011 0.780227
O O10 0.997713 0.764964 0.811637
O O11 0.561677 0.737140 0.027167
O O12 0.352017 0.583860 0.036150
O O13 0.169189 0.353379 0.702485
#
# Coordination Sequence:
#
# PCOD9007260 Si02
#       6
#     2   2   2   2   2   2
#     4  10  21  39  61  81 112 154 194 240 283 337
#     4  11  22  35  61  87 115 157 193 230 289 344
#     4   9  20  40  58  85 122 153 181 242 293 330
#     4   9  20  38  56  85 116 149 194 232 288 340
#     4  10  22  39  57  85 117 142 201 240 277 341
#     4   9  20  39  58  84 128 145 186 238 284 346
#
# _framework density 18.8066
#
# number of rings (size 3 to 8) (size 9 to 14) (size 15 to 20)
#    1.000    1.333    0.000    2.000    0.000    6.667 
#    3.000    0.833    0.000    0.000    0.000    0.000 
#    0.000    0.000    0.000    0.000    0.000    0.000 
#
# Total GULP energy -66892.233277 kJ/mol
# GULP energy per Si atom -5574.352773 kJ/mol
# Density = 1.876380 g / cm^3
# Si number density = 18.806600 Si / 1000 Ang^3
#
#
#
# Elastic Constant Matrix: (Units=GPa)
#
#
# Indices 1 2 3 4 5 6 
#
# 1 117.2552 52.3095 29.9524 4.9896 -7.2333 -1.8458
# 2 52.3095 106.0700 31.2321 8.7666 3.7977 0.8141
# 3 29.9524 31.2321 45.5090 -5.5651 19.9427 -0.4793
# 4 4.9896 8.7666 -5.5651 30.4427 -7.2511 15.1071
# 5 -7.2333 3.7977 19.9427 -7.2511 31.4179 -0.0344
# 6 -1.8458 0.8141 -0.4793 15.1071 -0.0344 25.6248
#
#
#
# Elastic Compliance Matrix: (Units=1/GPa)
#
#
# Indices 1 2 3 4 5 6 
#
# 1 0.013824 -0.003740 -0.011279 -0.001739 0.010395 0.001943
# 2 -0.003740 0.014264 -0.008722 -0.006049 0.001558 0.002683
# 3 -0.011279 -0.008722 0.050134 0.008273 -0.031461 -0.004517
# 4 -0.001739 -0.006049 0.008273 0.053785 0.007458 -0.031477
# 5 0.010395 0.001558 -0.031461 0.007458 0.055721 -0.004211
# 6 0.001943 0.002683 -0.004517 -0.031477 -0.004211 0.057547
#
#
# Mechanical properties :
#
#
# Convention : Reuss Voigt Hill
#
# Bulk Modulus (GPa) = 32.53138 55.09137 43.81137
# Shear Modulus (GPa) = 16.50153 27.85308 22.17730
#
# Velocity S-wave (km/s) = 2.96536 3.85259 3.43772
# Velocity P-wave (km/s) = 5.39072 7.01050 6.25328
#
# Compressibility (1/GPa) = 0.03073955
#
# Stress axis : x y z
#
# Youngs Moduli (GPa) = 72.33904 70.10813 19.94656
#
# Poissons Ratio (x) = 0.26217 0.22499
# Poissons Ratio (y) = 0.27051 0.17397
# Poissons Ratio (z) = 0.81594 0.61148
#
# Static dielectric constant tensor:
#      x y z
#    x 1.642710 0.000090 0.039010 
#    y 0.000090 1.650020 -0.012500 
#    z 0.039010 -0.012500 1.668660 
# 
# From -- ./inp_files/91916.got.cif
#   From: 2010.05.17/outbox.cif.g08.bks.cpg/sg2_46_cif.got.tgz:91916.got - 2010.06.03 11:33:40.
