data_PCOD9007988
_publ_section_title
;
Structure prediction by ZEFSAII (Michael W. Deem and Ramdas Pophale) SiO2 
 PCOD9007988
Probable space group: P -1
;
_chemical_formula_sum "Si O2"
_cell_formula_units_Z 14
_cell_length_a 9.655323
_cell_length_b 20.652361
_cell_length_c 9.445257
_cell_angle_alpha 39.645173
_cell_angle_beta 137.764601
_cell_angle_gamma 142.062228
_cell_volume 694.975824
_symmetry_space_group_name_H-M "P -1"
_symmetry_group_IT_number 2
_symmetry_cell_setting 'triclinic'
loop_
_space_group_symop_operation_xyz
x,y,z
-x,-y,-z
loop_
_atom_site_type_symbol
_atom_site_label
_atom_site_fract_x
_atom_site_fract_y
_atom_site_fract_z
Si Si1 0.621047 0.249838 0.343755
Si Si2 0.958017 0.213341 0.318837
Si Si3 0.561689 0.860627 0.069041
Si Si4 0.480988 0.334358 0.823523
Si Si5 0.749416 0.062556 0.665427
Si Si6 0.768160 0.872132 0.500661
Si Si7 0.897145 0.595051 0.653228
O O1 0.733227 0.165442 0.559794
O O2 0.422873 0.195261 0.406492
O O3 0.871139 0.375231 0.315986
O O4 0.490098 0.257504 0.089611
O O5 0.931786 0.119579 0.578177
O O6 0.137627 0.212970 0.341462
O O7 0.023223 0.328544 0.268184
O O8 0.702884 0.165329 0.129922
O O9 0.553910 0.741969 0.213753
O O10 0.629139 0.887985 0.236930
O O11 0.746259 0.970502 0.926556
O O12 0.727353 0.458360 0.790158
O O13 0.271036 0.364571 0.621497
O O14 0.500000 0.000000 0.500000
O O15 0.000000 0.000000 0.500000
#
# Coordination Sequence:
#
# PCOD9007988 Si02
#       7
#     2   2   2   2   2   2   2
#     4  11  23  41  62  95 129 163 204 266 311 365
#     4  10  21  39  63  93 124 161 214 256 306 379
#     4  11  22  39  66  91 128 166 206 260 313 364
#     4  11  21  40  74  93 118 167 213 263 307 363
#     4   9  17  35  61  90 116 157 211 249 294 370
#     4  12  27  40  59  94 136 167 203 253 324 373
#     4  10  22  41  70  98 117 157 228 257 300 377
#
# _framework density 20.144586
#
# number of rings (size 3 to 8) (size 9 to 14) (size 15 to 20)
#    0.000    1.429    5.714    2.143    0.000    6.286 
#    0.000    1.429    0.000    0.000    0.000    0.000 
#    0.000    0.000    0.000    0.000    0.000    0.000 
#
# Total GULP energy -78062.238994 kJ/mol
# GULP energy per Si atom -5575.874214 kJ/mol
# Density = 2.009874 g / cm^3
# Si number density = 20.144586 Si / 1000 Ang^3
#
#
#
# Elastic Constant Matrix: (Units=GPa)
#
#
# Indices 1 2 3 4 5 6 
#
# 1 121.1811 49.3591 28.2965 -2.6582 -20.8735 27.9205
# 2 49.3591 127.5537 51.8605 6.4724 -23.7572 12.5480
# 3 28.2965 51.8605 98.8459 6.5129 -8.0778 1.5381
# 4 -2.6582 6.4724 6.5129 30.8363 0.0583 3.4785
# 5 -20.8735 -23.7572 -8.0778 0.0583 32.1704 -1.0263
# 6 27.9205 12.5480 1.5381 3.4785 -1.0263 29.7685
#
#
#
# Elastic Compliance Matrix: (Units=1/GPa)
#
#
# Indices 1 2 3 4 5 6 
#
# 1 0.013547 -0.002163 -0.002275 0.003429 0.006237 -0.011862
# 2 -0.002163 0.012265 -0.005172 -0.001399 0.006279 -0.002495
# 3 -0.002275 -0.005172 0.013432 -0.002377 -0.001796 0.003836
# 4 0.003429 -0.001399 -0.002377 0.034253 0.000325 -0.006495
# 5 0.006237 0.006279 -0.001796 0.000325 0.039090 -0.007094
# 6 -0.011862 -0.002495 0.003836 -0.006495 -0.007094 0.046086
#
#
# Mechanical properties :
#
#
# Convention : Reuss Voigt Hill
#
# Bulk Modulus (GPa) = 49.93841 67.40142 58.66992
# Shear Modulus (GPa) = 27.09050 33.09268 30.09159
#
# Velocity S-wave (km/s) = 3.67113 4.05749 3.86914
# Velocity P-wave (km/s) = 6.54320 7.44865 7.01056
#
# Compressibility (1/GPa) = 0.02002467
#
# Stress axis : x y z
#
# Youngs Moduli (GPa) = 73.81803 81.53080 74.45099
#
# Poissons Ratio (x) = 0.17632 0.16938
# Poissons Ratio (y) = 0.15964 0.38505
# Poissons Ratio (z) = 0.16794 0.42167
#
# Static dielectric constant tensor:
#      x y z
#    x 1.672190 0.084170 -0.007600 
#    y 0.084170 1.704780 0.053950 
#    z -0.007600 0.053950 1.708350 
# 
# From -- ./inp_files/221757.got.cif
#   From: 2010.05.17/outbox.cif.g08.bks.cpg/sg2_111_cif.got.tgz:221757.got - 2010.06.03 11:33:40.
