data_PCOD9007127
_publ_section_title
;
Structure prediction by ZEFSAII (Michael W. Deem and Ramdas Pophale) SiO2 
 PCOD9007127
Probable space group: P -1
;
_chemical_formula_sum "Si O2"
_cell_formula_units_Z 14
_cell_length_a 8.669123
_cell_length_b 19.916673
_cell_length_c 29.055626
_cell_angle_alpha 168.261068
_cell_angle_beta 36.773729
_cell_angle_gamma 143.006080
_cell_volume 606.717407
_symmetry_space_group_name_H-M "P -1"
_symmetry_group_IT_number 2
_symmetry_cell_setting 'triclinic'
loop_
_space_group_symop_operation_xyz
x,y,z
-x,-y,-z
loop_
_atom_site_type_symbol
_atom_site_label
_atom_site_fract_x
_atom_site_fract_y
_atom_site_fract_z
Si Si1 0.459619 0.755759 0.640586
Si Si2 0.803908 0.307044 0.614522
Si Si3 0.790007 0.730749 0.293365
Si Si4 0.407126 0.612544 0.803543
Si Si5 0.286485 0.716093 0.800442
Si Si6 0.956699 0.451844 0.531951
Si Si7 0.944647 0.113154 0.803366
O O1 0.500000 0.500000 0.500000
O O2 0.558260 0.583375 0.455602
O O3 0.153190 0.754718 0.709669
O O4 0.664400 0.061514 0.810436
O O5 0.507406 0.358603 0.713476
O O6 0.013635 0.630853 0.782288
O O7 0.852289 0.109810 0.517559
O O8 0.869979 0.051852 0.387188
O O9 0.768337 0.633894 0.286856
O O10 0.980480 0.495759 0.066031
O O11 0.264722 0.712497 0.858617
O O12 0.663246 0.462211 0.624076
O O13 0.533203 0.939584 0.020856
O O14 0.000000 0.500000 0.500000
O O15 0.043764 0.115358 0.307149
#
# Coordination Sequence:
#
# PCOD9007127 Si02
#       7
#     2   2   2   2   2   2   2
#     4   9  18  33  52  81 116 148 189 234 292 337
#     4  10  23  43  61  87 118 156 203 242 294 348
#     4  11  23  40  64  87 117 159 197 246 294 352
#     4  11  22  36  60  90 120 155 199 238 300 352
#     4  10  22  38  57  87 120 154 195 247 292 352
#     4  11  20  34  56  88 124 155 191 243 294 353
#     4  10  21  39  60  86 116 157 195 245 293 348
#
# _framework density 23.074992999999999
#
# number of rings (size 3 to 8) (size 9 to 14) (size 15 to 20)
#    0.000    1.714    2.857    2.143    4.000    1.143 
#    0.000    0.000    0.000    0.857    0.000    0.000 
#    0.000    0.000    0.000    0.000    0.000    0.000 
#
# Total GULP energy -78141.921848 kJ/mol
# GULP energy per Si atom -5581.565846 kJ/mol
# Density = 2.302247 g / cm^3
# Si number density = 23.074993 Si / 1000 Ang^3
#
#
#
# Elastic Constant Matrix: (Units=GPa)
#
#
# Indices 1 2 3 4 5 6 
#
# 1 63.8628 13.4889 8.9621 0.4707 -6.5120 -6.9334
# 2 13.4889 68.0287 15.0973 -6.8067 3.1766 -20.2377
# 3 8.9621 15.0973 68.5768 -15.9426 -2.3901 -6.9035
# 4 0.4707 -6.8067 -15.9426 24.1943 -4.9325 -5.2520
# 5 -6.5120 3.1766 -2.3901 -4.9325 19.4273 4.3451
# 6 -6.9334 -20.2377 -6.9035 -5.2520 4.3451 45.9843
#
#
#
# Elastic Compliance Matrix: (Units=1/GPa)
#
#
# Indices 1 2 3 4 5 6 
#
# 1 0.017213 -0.003393 -0.001527 -0.001065 0.005821 0.000201
# 2 -0.003393 0.019121 -0.001905 0.005021 -0.005164 0.008679
# 3 -0.001527 -0.001905 0.018794 0.013492 0.004904 0.002830
# 4 -0.001065 0.005021 0.013492 0.056261 0.012686 0.009302
# 5 0.005821 -0.005164 0.004904 0.012686 0.059168 -0.004801
# 6 0.000201 0.008679 0.002830 0.009302 -0.004801 0.027537
#
#
# Mechanical properties :
#
#
# Convention : Reuss Voigt Hill
#
# Bulk Modulus (GPa) = 24.10952 30.61832 27.36392
# Shear Modulus (GPa) = 22.16623 28.78252 25.47437
#
# Velocity S-wave (km/s) = 3.10274 3.53561 3.32623
# Velocity P-wave (km/s) = 4.82774 5.47405 5.16102
#
# Compressibility (1/GPa) = 0.04147738
#
# Stress axis : x y z
#
# Youngs Moduli (GPa) = 58.09664 52.29965 53.20962
#
# Poissons Ratio (x) = 0.17743 0.08126
# Poissons Ratio (y) = 0.19710 0.10137
# Poissons Ratio (z) = 0.08872 0.09963
#
# Static dielectric constant tensor:
#      x y z
#    x 1.886160 -0.006460 0.004380 
#    y -0.006460 1.912010 -0.017880 
#    z 0.004380 -0.017880 1.902040 
# 
# From -- ./inp_files/200564.got.cif
#   From: 2010.05.17/outbox.cif.g08.bks.cpg/sg2_101_cif.got.tgz:200564.got - 2010.06.03 11:33:40.
