data_PCOD9007470
_publ_section_title
;
Structure prediction by ZEFSAII (Michael W. Deem and Ramdas Pophale) SiO2 
 PCOD9007470
Probable space group: P -1
;
_chemical_formula_sum "Si O2"
_cell_formula_units_Z 16
_cell_length_a 11.562973
_cell_length_b 14.599741
_cell_length_c 8.011706
_cell_angle_alpha 128.321398
_cell_angle_beta 40.900609
_cell_angle_gamma 125.252632
_cell_volume 679.079956
_symmetry_space_group_name_H-M "P -1"
_symmetry_group_IT_number 2
_symmetry_cell_setting 'triclinic'
loop_
_space_group_symop_operation_xyz
x,y,z
-x,-y,-z
loop_
_atom_site_type_symbol
_atom_site_label
_atom_site_fract_x
_atom_site_fract_y
_atom_site_fract_z
Si Si1 0.003206 0.610881 0.751106
Si Si2 0.728048 0.524236 0.214004
Si Si3 0.704234 0.192547 0.717354
Si Si4 0.362672 0.051704 0.324794
Si Si5 0.322305 0.221817 0.298174
Si Si6 0.113322 0.296633 0.324046
Si Si7 0.398248 0.753882 0.477648
Si Si8 0.407160 0.525860 0.356564
O O1 0.000000 0.500000 0.500000
O O2 0.907077 0.701992 0.853065
O O3 0.193778 0.693715 0.684107
O O4 0.915654 0.551071 0.947257
O O5 0.703447 0.654468 0.451876
O O6 0.584371 0.482582 0.175924
O O7 0.676188 0.441835 0.338073
O O8 0.904977 0.277786 0.595968
O O9 0.627074 0.194267 0.616472
O O10 0.733991 0.062759 0.593562
O O11 0.534705 0.222088 0.038144
O O12 0.252995 0.118082 0.391612
O O13 0.481880 0.149455 0.426338
O O14 0.500000 0.000000 0.000000
O O15 0.212981 0.211039 0.229428
O O16 0.248241 0.423073 0.350180
O O17 0.472359 0.632160 0.276234
#
# Coordination Sequence:
#
# PCOD9007470 Si02
#       8
#     2   2   2   2   2   2   2   2
#     4  11  24  42  62  99 138 176 213 265 326 402
#     4  10  23  40  60  96 138 171 218 263 331 399
#     4  10  24  42  70  93 134 175 225 273 328 385
#     4  10  22  43  69  96 128 175 226 276 330 382
#     4  10  22  43  67  98 131 176 222 275 329 385
#     4  10  23  41  62 101 129 173 220 261 331 397
#     4  11  22  42  67  96 130 172 220 269 330 388
#     4  10  21  39  61  95 129 172 212 263 330 390
#
# _framework density 23.56129
#
# number of rings (size 3 to 8) (size 9 to 14) (size 15 to 20)
#    0.000    1.750    2.500    0.375    1.750   11.500 
#    0.000    1.250    0.000    8.250    0.000    0.000 
#    0.000    0.000    0.000    0.000    0.000    0.000 
#
# Total GULP energy -89222.115320 kJ/mol
# GULP energy per Si atom -5576.382208 kJ/mol
# Density = 2.350766 g / cm^3
# Si number density = 23.561290 Si / 1000 Ang^3
#
#
#
# Elastic Constant Matrix: (Units=GPa)
#
#
# Indices 1 2 3 4 5 6 
#
# 1 113.6119 32.2676 -5.6981 9.1205 -17.0719 -24.0240
# 2 32.2676 119.9916 11.7750 2.8568 1.4539 -23.3732
# 3 -5.6981 11.7750 55.3746 -17.9252 -3.9057 6.5504
# 4 9.1205 2.8568 -17.9252 30.9620 -0.1003 -7.6452
# 5 -17.0719 1.4539 -3.9057 -0.1003 26.7176 -7.5946
# 6 -24.0240 -23.3732 6.5504 -7.6452 -7.5946 54.8047
#
#
#
# Elastic Compliance Matrix: (Units=1/GPa)
#
#
# Indices 1 2 3 4 5 6 
#
# 1 0.012258 -0.002494 0.001461 -0.001192 0.009687 0.005311
# 2 -0.002494 0.009993 -0.003306 -0.001332 -0.001734 0.003138
# 3 0.001461 -0.003306 0.023657 0.013301 0.004296 -0.001146
# 4 -0.001192 -0.001332 0.013301 0.041323 0.002381 0.003414
# 5 0.009687 -0.001734 0.004296 0.002381 0.047152 0.009860
# 6 0.005311 0.003138 -0.001146 0.003414 0.009860 0.023892
#
#
# Mechanical properties :
#
#
# Convention : Reuss Voigt Hill
#
# Bulk Modulus (GPa) = 26.86143 40.62969 33.74556
# Shear Modulus (GPa) = 27.87624 39.20575 33.54100
#
# Velocity S-wave (km/s) = 3.44341 4.08363 3.77711
# Velocity P-wave (km/s) = 5.21870 6.28621 5.77716
#
# Compressibility (1/GPa) = 0.03722810
#
# Stress axis : x y z
#
# Youngs Moduli (GPa) = 81.57973 100.07028 42.27157
#
# Poissons Ratio (x) = 0.24959 -0.06175
# Poissons Ratio (y) = 0.20347 0.13976
# Poissons Ratio (z) = -0.11917 0.33087
#
# Static dielectric constant tensor:
#      x y z
#    x 1.996390 -0.098420 -0.066010 
#    y -0.098420 1.939430 0.035500 
#    z -0.066010 0.035500 2.007200 
# 
# From -- ./inp_files/274250.got.cif
#   From: 2010.05.17/outbox.cif.g08.bks.cpg/sg2_138_cif.got.tgz:274250.got - 2010.06.03 11:33:40.
