data_PCOD9007687
_publ_section_title
;
Structure prediction by ZEFSAII (Michael W. Deem and Ramdas Pophale) SiO2 
 PCOD9007687
Probable space group: P -1
;
_chemical_formula_sum "Si O2"
_cell_formula_units_Z 14
_cell_length_a 12.406001
_cell_length_b 8.480161
_cell_length_c 10.400995
_cell_angle_alpha 107.142267
_cell_angle_beta 36.243845
_cell_angle_gamma 108.474490
_cell_volume 612.097836
_symmetry_space_group_name_H-M "P -1"
_symmetry_group_IT_number 2
_symmetry_cell_setting 'triclinic'
loop_
_space_group_symop_operation_xyz
x,y,z
-x,-y,-z
loop_
_atom_site_type_symbol
_atom_site_label
_atom_site_fract_x
_atom_site_fract_y
_atom_site_fract_z
Si Si1 0.224568 0.577800 0.165284
Si Si2 0.982700 0.926739 0.197985
Si Si3 0.695147 0.963314 0.250952
Si Si4 0.933493 0.763623 0.619200
Si Si5 0.436319 0.172936 0.135634
Si Si6 0.312400 0.336104 0.520403
Si Si7 0.602596 0.599956 0.247556
O O1 0.152121 0.407504 0.268262
O O2 0.088975 0.708638 0.363500
O O3 0.426585 0.677110 0.025331
O O4 0.257481 0.515208 0.973918
O O5 0.836461 0.954886 0.232277
O O6 0.896283 0.751321 0.300743
O O7 0.992127 0.085385 0.320753
O O8 0.182341 0.921622 0.941513
O O9 0.647682 0.781612 0.187325
O O10 0.500000 0.000000 0.500000
O O11 0.768243 0.823700 0.715054
O O12 0.425582 0.206793 0.307251
O O13 0.500000 0.000000 0.000000
O O14 0.392621 0.508122 0.412824
O O15 0.364217 0.367998 0.626013
#
# Coordination Sequence:
#
# PCOD9007687 Si02
#       7
#     2   2   2   2   2   2   2
#     4  10  22  42  64  94 126 172 218 270 321 388
#     4  10  21  39  62  92 124 162 214 264 315 385
#     4  10  21  39  63  92 125 166 210 260 323 382
#     4  11  23  41  66  94 129 172 220 270 319 384
#     4  11  24  42  64  94 133 175 216 264 328 391
#     4   9  20  38  62  90 126 164 208 263 321 379
#     4   9  18  41  63  88 128 164 209 268 318 386
#
# _framework density 22.872160999999998
#
# number of rings (size 3 to 8) (size 9 to 14) (size 15 to 20)
#    0.000    2.000    1.429    1.286    0.000    5.714 
#   10.286    5.714    0.000    0.000    0.000    0.000 
#    0.000    0.000    0.000    0.000    0.000    0.000 
#
# Total GULP energy -78088.597087 kJ/mol
# GULP energy per Si atom -5577.756935 kJ/mol
# Density = 2.282010 g / cm^3
# Si number density = 22.872161 Si / 1000 Ang^3
#
#
#
# Elastic Constant Matrix: (Units=GPa)
#
#
# Indices 1 2 3 4 5 6 
#
# 1 40.2035 27.5601 44.7629 6.8596 -3.0508 11.7627
# 2 27.5601 120.8829 66.5940 -19.7177 -2.7088 39.2944
# 3 44.7629 66.5940 190.3999 -2.1968 -9.1687 23.6871
# 4 6.8596 -19.7177 -2.1968 57.9166 5.8710 1.2951
# 5 -3.0508 -2.7088 -9.1687 5.8710 30.0924 4.0292
# 6 11.7627 39.2944 23.6871 1.2951 4.0292 19.9435
#
#
#
# Elastic Compliance Matrix: (Units=1/GPa)
#
#
# Indices 1 2 3 4 5 6 
#
# 1 0.038420 -0.002870 -0.006731 -0.005979 0.004016 -0.009435
# 2 -0.002870 0.032437 -0.002494 0.011875 0.007801 -0.061603
# 3 -0.006731 -0.002494 0.007885 0.000105 0.001583 -0.000808
# 4 -0.005979 0.011875 0.000105 0.022605 -0.001071 -0.021248
# 5 0.004016 0.007801 0.001583 -0.001071 0.038696 -0.027366
# 6 -0.009435 -0.061603 -0.000808 -0.021248 -0.027366 0.184951
#
#
# Mechanical properties :
#
#
# Convention : Reuss Voigt Hill
#
# Bulk Modulus (GPa) = 18.33076 69.92449 44.12762
# Shear Modulus (GPa) = 13.61038 35.76178 24.68608
#
# Velocity S-wave (km/s) = 2.44204 3.95847 3.28884
# Velocity P-wave (km/s) = 3.99790 7.17850 5.81008
#
# Compressibility (1/GPa) = 0.05455310
#
# Stress axis : x y z
#
# Youngs Moduli (GPa) = 26.02816 30.82854 126.82783
#
# Poissons Ratio (x) = 0.08847 0.85363
# Poissons Ratio (y) = 0.07470 0.31631
# Poissons Ratio (z) = 0.17518 0.07689
#
# Static dielectric constant tensor:
#      x y z
#    x 1.860110 -0.009470 0.042560 
#    y -0.009470 1.902360 -0.050250 
#    z 0.042560 -0.050250 1.871470 
# 
# From -- ./inp_files/446251.got.cif
#   From: 2010.05.17/outbox.cif.g08.bks.cpg/sg2_224_cif.got.tgz:446251.got - 2010.06.03 11:33:40.
