data_PCOD9007207
_publ_section_title
;
Structure prediction by ZEFSAII (Michael W. Deem and Ramdas Pophale) SiO2 
 PCOD9007207
Probable space group: P -1
;
_chemical_formula_sum "Si O2"
_cell_formula_units_Z 12
_cell_length_a 6.744719
_cell_length_b 20.591843
_cell_length_c 8.923273
_cell_angle_alpha 25.840094
_cell_angle_beta 108.838540
_cell_angle_gamma 97.096769
_cell_volume 467.429080
_symmetry_space_group_name_H-M "P -1"
_symmetry_group_IT_number 2
_symmetry_cell_setting 'triclinic'
loop_
_space_group_symop_operation_xyz
x,y,z
-x,-y,-z
loop_
_atom_site_type_symbol
_atom_site_label
_atom_site_fract_x
_atom_site_fract_y
_atom_site_fract_z
Si Si1 0.610200 0.810500 0.380574
Si Si2 0.916326 0.335803 0.010359
Si Si3 0.153077 0.833718 0.178205
Si Si4 0.231614 0.070726 0.458430
Si Si5 0.700319 0.095596 0.506184
Si Si6 0.110718 0.379180 0.417546
O O1 0.399377 0.760445 0.472094
O O2 0.676915 0.759070 0.329265
O O3 0.849305 0.736831 0.681739
O O4 0.500000 0.000000 0.000000
O O5 0.014996 0.244100 0.068644
O O6 0.735461 0.262212 0.166660
O O7 0.824545 0.526213 0.630131
O O8 0.072714 0.688823 0.430979
O O9 0.197197 0.942946 0.830453
O O10 0.918791 0.967260 0.915413
O O11 0.452400 0.109995 0.459553
O O12 0.261173 0.989456 0.472229
O O13 0.000000 0.500000 0.000000
#
# Coordination Sequence:
#
# PCOD9007207 Si02
#       6
#     2   2   2   2   2   2
#     4  11  21  38  61  93 116 157 203 238 299 361
#     4  10  21  39  60  90 125 158 194 250 303 352
#     4  11  21  38  62  87 125 155 201 246 292 362
#     4  10  21  39  63  92 114 162 206 249 299 346
#     4  10  21  39  65  89 120 153 211 254 288 357
#     4  10  25  40  56  90 130 161 193 243 303 358
#
# _framework density 25.672342
#
# number of rings (size 3 to 8) (size 9 to 14) (size 15 to 20)
#    0.000    1.667    3.333    3.000    0.000    7.333 
#    0.000    3.333    0.000    8.000    0.000    0.000 
#    0.000    0.000    0.000    0.000    0.000    0.000 
#
# Total GULP energy -66982.164852 kJ/mol
# GULP energy per Si atom -5581.847071 kJ/mol
# Density = 2.561391 g / cm^3
# Si number density = 25.672342 Si / 1000 Ang^3
#
#
#
# Elastic Constant Matrix: (Units=GPa)
#
#
# Indices 1 2 3 4 5 6 
#
# 1 181.1361 59.3381 51.4687 -33.4799 -15.3337 31.4790
# 2 59.3381 123.2489 43.0944 -39.7009 -20.8970 12.0602
# 3 51.4687 43.0944 77.7069 -43.5737 -17.2864 -0.9038
# 4 -33.4799 -39.7009 -43.5737 57.7663 6.3606 -1.8747
# 5 -15.3337 -20.8970 -17.2864 6.3606 41.9712 -18.3194
# 6 31.4790 12.0602 -0.9038 -1.8747 -18.3194 63.4206
#
#
#
# Elastic Compliance Matrix: (Units=1/GPa)
#
#
# Indices 1 2 3 4 5 6 
#
# 1 0.008140 -0.002275 -0.004854 -0.000431 -0.001949 -0.004252
# 2 -0.002275 0.012096 -0.001122 0.005722 0.003911 0.000112
# 3 -0.004854 -0.001122 0.028455 0.017032 0.009552 0.006291
# 4 -0.000431 0.005722 0.017032 0.033297 0.005508 0.001944
# 5 -0.001949 0.003911 0.009552 0.005508 0.032484 0.009906
# 6 -0.004252 0.000112 0.006291 0.001944 0.009906 0.020866
#
#
# Mechanical properties :
#
#
# Convention : Reuss Voigt Hill
#
# Bulk Modulus (GPa) = 31.06659 76.65493 53.86076
# Shear Modulus (GPa) = 30.75602 47.84432 39.30017
#
# Velocity S-wave (km/s) = 3.46500 4.32169 3.91684
# Velocity P-wave (km/s) = 5.30432 7.40449 6.44058
#
# Compressibility (1/GPa) = 0.03218892
#
# Stress axis : x y z
#
# Youngs Moduli (GPa) = 122.85654 82.66926 35.14337
#
# Poissons Ratio (x) = 0.18804 0.17060
# Poissons Ratio (y) = 0.27944 0.03943
# Poissons Ratio (z) = 0.59640 0.09275
#
# Static dielectric constant tensor:
#      x y z
#    x 2.058880 -0.030280 0.041070 
#    y -0.030280 2.197860 0.044510 
#    z 0.041070 0.044510 2.092110 
# 
# From -- ./inp_files/229049.got.cif
#   From: 2010.05.17/outbox.cif.g08.bks.cpg/sg2_115_cif.got.tgz:229049.got - 2010.06.03 11:33:40.
