data_PCOD9007335
_publ_section_title
;
Structure prediction by ZEFSAII (Michael W. Deem and Ramdas Pophale) SiO2 
 PCOD9007335
Probable space group: P -1
;
_chemical_formula_sum "Si O2"
_cell_formula_units_Z 16
_cell_length_a 19.116328
_cell_length_b 24.246085
_cell_length_c 6.287398
_cell_angle_alpha 74.409435
_cell_angle_beta 117.816672
_cell_angle_gamma 160.339781
_cell_volume 710.325492
_symmetry_space_group_name_H-M "P -1"
_symmetry_group_IT_number 2
_symmetry_cell_setting 'triclinic'
loop_
_space_group_symop_operation_xyz
x,y,z
-x,-y,-z
loop_
_atom_site_type_symbol
_atom_site_label
_atom_site_fract_x
_atom_site_fract_y
_atom_site_fract_z
Si Si1 0.217261 0.817322 0.408038
Si Si2 0.973250 0.408885 0.324441
Si Si3 0.590143 0.240957 0.071661
Si Si4 0.994246 0.907677 0.021160
Si Si5 0.714409 0.428719 0.793812
Si Si6 0.879149 0.124795 0.900384
Si Si7 0.462245 0.574598 0.364261
Si Si8 0.783596 0.838192 0.172400
O O1 0.182175 0.754365 0.631227
O O2 0.500000 0.000000 0.500000
O O3 0.197326 0.871685 0.343917
O O4 0.965779 0.622636 0.102214
O O5 0.749335 0.304176 0.089246
O O6 0.190813 0.584740 0.621923
O O7 0.144675 0.506616 0.265822
O O8 0.521862 0.249947 0.829128
O O9 0.341231 0.040115 0.055630
O O10 0.721378 0.720808 0.676914
O O11 0.100310 0.917178 0.170725
O O12 0.900386 0.871590 0.143977
O O13 0.219921 0.104964 0.021708
O O14 0.563632 0.384073 0.583856
O O15 0.176651 0.343050 0.202665
O O16 0.518799 0.632849 0.138964
O O17 0.000000 0.000000 0.500000
#
# Coordination Sequence:
#
# PCOD9007335 Si02
#       8
#     2   2   2   2   2   2   2   2
#     4  10  21  41  60  85 126 159 196 259 308 359
#     4  10  21  40  64  85 120 165 206 256 310 365
#     4  10  21  39  61  88 124 156 209 264 302 359
#     4  10  21  39  66  89 122 164 206 247 304 366
#     4  10  22  38  64  88 115 166 209 247 310 367
#     4  11  22  39  62  93 126 165 203 253 313 368
#     4  10  22  39  58  90 129 160 199 253 305 367
#     4   9  20  40  65  87 120 162 204 254 303 356
#
# _framework density 22.524885000000001
#
# number of rings (size 3 to 8) (size 9 to 14) (size 15 to 20)
#    0.000    2.000    1.250    1.500    0.000    7.000 
#    0.000    6.250    0.000    0.000    0.000    0.000 
#    0.000    0.000    0.000    0.000    0.000    0.000 
#
# Total GULP energy -89486.271161 kJ/mol
# GULP energy per Si atom -5592.891948 kJ/mol
# Density = 2.247362 g / cm^3
# Si number density = 22.524885 Si / 1000 Ang^3
#
#
#
# Elastic Constant Matrix: (Units=GPa)
#
#
# Indices 1 2 3 4 5 6 
#
# 1 177.5279 38.3686 21.9561 -21.5388 9.9656 -10.4389
# 2 38.3686 144.6455 14.0635 -1.3916 1.8975 -7.0156
# 3 21.9561 14.0635 22.7912 5.8124 4.3703 -12.0573
# 4 -21.5388 -1.3916 5.8124 20.8758 8.1943 3.5908
# 5 9.9656 1.8975 4.3703 8.1943 25.4153 -6.8428
# 6 -10.4389 -7.0156 -12.0573 3.5908 -6.8428 30.5148
#
#
#
# Elastic Compliance Matrix: (Units=1/GPa)
#
#
# Indices 1 2 3 4 5 6 
#
# 1 0.010712 -0.001212 -0.017418 0.021248 -0.010196 -0.008283
# 2 -0.001212 0.007581 -0.003622 0.000061 0.000514 0.000005
# 3 -0.017418 -0.003622 0.097646 -0.061605 0.022012 0.043977
# 4 0.021248 0.000061 -0.061605 0.111327 -0.044440 -0.040125
# 5 -0.010196 0.000514 0.022012 -0.044440 0.060334 0.024087
# 6 -0.008283 0.000005 0.043977 -0.040125 0.024087 0.057438
#
#
# Mechanical properties :
#
#
# Convention : Reuss Voigt Hill
#
# Bulk Modulus (GPa) = 13.99839 54.86011 34.42925
# Shear Modulus (GPa) = 12.09614 33.39960 22.74787
#
# Velocity S-wave (km/s) = 2.31987 3.85487 3.18134
# Velocity P-wave (km/s) = 3.66112 6.64993 5.36775
#
# Compressibility (1/GPa) = 0.07143679
#
# Stress axis : x y z
#
# Youngs Moduli (GPa) = 93.35173 131.90669 10.24103
#
# Poissons Ratio (x) = 0.15982 0.17838
# Poissons Ratio (y) = 0.11310 0.03709
# Poissons Ratio (z) = 1.62598 0.47778
#
# Static dielectric constant tensor:
#      x y z
#    x 1.816530 -0.009830 0.019590 
#    y -0.009830 1.828810 0.000180 
#    z 0.019590 0.000180 1.852340 
# 
# From -- ./inp_files/89819.got.cif
#   From: 2010.05.17/outbox.cif.g08.bks.cpg/sg2_45_cif.got.tgz:89819.got - 2010.06.03 11:33:40.
