data_PCOD9007398
_publ_section_title
;
Structure prediction by ZEFSAII (Michael W. Deem and Ramdas Pophale) SiO2 
 PCOD9007398
Probable space group: P -1
;
_chemical_formula_sum "Si O2"
_cell_formula_units_Z 14
_cell_length_a 13.335515
_cell_length_b 14.521311
_cell_length_c 13.840118
_cell_angle_alpha 149.988016
_cell_angle_beta 150.809279
_cell_angle_gamma 38.942802
_cell_volume 651.188663
_symmetry_space_group_name_H-M "P -1"
_symmetry_group_IT_number 2
_symmetry_cell_setting 'triclinic'
loop_
_space_group_symop_operation_xyz
x,y,z
-x,-y,-z
loop_
_atom_site_type_symbol
_atom_site_label
_atom_site_fract_x
_atom_site_fract_y
_atom_site_fract_z
Si Si1 0.158978 0.816675 0.290192
Si Si2 0.718392 0.404768 0.133176
Si Si3 0.884418 0.777949 0.318993
Si Si4 0.985226 0.303865 0.425398
Si Si5 0.189102 0.452460 0.243537
Si Si6 0.579639 0.551592 0.760358
Si Si7 0.274331 0.955896 0.305991
O O1 0.310768 0.650777 0.308586
O O2 0.263680 0.888077 0.346127
O O3 0.120646 0.000405 0.491491
O O4 0.951908 0.712999 0.999409
O O5 0.881713 0.533044 0.345133
O O6 0.760878 0.363041 0.244507
O O7 0.500000 0.500000 0.000000
O O8 0.769249 0.212146 0.949481
O O9 0.970196 0.734363 0.459504
O O10 0.039023 0.637161 0.258214
O O11 0.663187 0.698670 0.039478
O O12 0.100289 0.125110 0.307223
O O13 0.341942 0.518480 0.514102
O O14 0.331969 0.389874 0.216061
O O15 0.500000 0.000000 0.500000
#
# Coordination Sequence:
#
# PCOD9007398 Si02
#       7
#     2   2   2   2   2   2   2
#     4  10  22  40  63  90 124 166 205 253 311 366
#     4  11  21  38  62  83 116 161 208 254 308 358
#     4  10  21  39  61  91 125 158 203 255 308 371
#     4  10  23  39  58  88 118 161 208 255 308 361
#     4  10  22  41  63  93 125 160 205 254 313 375
#     4  10  22  41  65  92 125 161 202 256 314 375
#     4  11  22  42  59  88 128 164 208 255 305 363
#
# _framework density 21.499147000000001
#
# number of rings (size 3 to 8) (size 9 to 14) (size 15 to 20)
#    0.000    1.714    1.429    3.857    0.000    5.714 
#    7.714    2.857    0.000    0.000    0.000    0.000 
#    0.000    0.000    0.000    0.000    0.000    0.000 
#
# Total GULP energy -78052.979533 kJ/mol
# GULP energy per Si atom -5575.212824 kJ/mol
# Density = 2.145021 g / cm^3
# Si number density = 21.499147 Si / 1000 Ang^3
#
#
#
# Elastic Constant Matrix: (Units=GPa)
#
#
# Indices 1 2 3 4 5 6 
#
# 1 63.1095 17.8796 22.2143 5.3438 4.6980 -1.3269
# 2 17.8796 60.6179 114.0938 -14.2456 20.4442 8.7157
# 3 22.2143 114.0938 113.8910 21.0499 -18.1427 -29.7070
# 4 5.3438 -14.2456 21.0499 45.4018 5.1404 3.9997
# 5 4.6980 20.4442 -18.1427 5.1404 28.5645 -5.6581
# 6 -1.3269 8.7157 -29.7070 3.9997 -5.6581 19.0791
#
#
#
# Elastic Compliance Matrix: (Units=1/GPa)
#
#
# Indices 1 2 3 4 5 6 
#
# 1 0.017217 -0.002021 -0.001441 -0.001726 -0.002065 -0.000374
# 2 -0.002021 -0.000282 0.006220 -0.004779 0.007925 0.013024
# 3 -0.001441 0.006220 -0.000825 0.003902 -0.006842 -0.007073
# 4 -0.001726 -0.004779 0.003902 0.017971 0.004052 0.005572
# 5 -0.002065 0.007925 -0.006842 0.004052 0.022924 -0.008468
# 6 -0.000374 0.013024 -0.007073 0.005572 -0.008468 0.031745
#
#
# Mechanical properties :
#
#
# Convention : Reuss Voigt Hill
#
# Bulk Modulus (GPa) = 46.24294 60.66600 53.45447
# Shear Modulus (GPa) = 55.28334 24.17113 39.72724
#
# Velocity S-wave (km/s) = 5.07642 3.35667 4.30333
# Velocity P-wave (km/s) = 7.47770 6.58043 7.04337
#
# Compressibility (1/GPa) = 0.02162492
#
# Stress axis : x y z
#
# Youngs Moduli (GPa) = 58.08118 -3545.38408 -1211.86488
#
# Poissons Ratio (x) = -7.16446 -1.74679
# Poissons Ratio (y) = 0.11737 7.53735
# Poissons Ratio (z) = 0.08372 22.05096
#
# Static dielectric constant tensor:
#      x y z
#    x 1.861700 0.002250 -0.025980 
#    y 0.002250 1.784230 -0.067650 
#    z -0.025980 -0.067650 1.819650 
# 
# From -- ./inp_files/533944.got.cif
#   From: 2010.05.17/outbox.cif.g08.bks.cpg/sg2_267_cif.got.tgz:533944.got - 2010.06.03 11:33:40.
