data_PCOD9007365
_publ_section_title
;
Structure prediction by ZEFSAII (Michael W. Deem and Ramdas Pophale) SiO2 
 PCOD9007365
Probable space group: P -1
;
_chemical_formula_sum "Si O2"
_cell_formula_units_Z 16
_cell_length_a 15.798714
_cell_length_b 5.955100
_cell_length_c 8.679619
_cell_angle_alpha 60.584268
_cell_angle_beta 66.806741
_cell_angle_gamma 62.274257
_cell_volume 615.010064
_symmetry_space_group_name_H-M "P -1"
_symmetry_group_IT_number 2
_symmetry_cell_setting 'triclinic'
loop_
_space_group_symop_operation_xyz
x,y,z
-x,-y,-z
loop_
_atom_site_type_symbol
_atom_site_label
_atom_site_fract_x
_atom_site_fract_y
_atom_site_fract_z
Si Si1 0.750370 0.204078 0.526384
Si Si2 0.570404 0.685654 0.059030
Si Si3 0.768244 0.709779 0.868179
Si Si4 0.929938 0.812816 0.930342
Si Si5 0.889622 0.342865 0.627701
Si Si6 0.142745 0.149120 0.705389
Si Si7 0.520385 0.732585 0.744372
Si Si8 0.651835 0.792162 0.369897
O O1 0.808337 0.293219 0.591294
O O2 0.670573 0.475595 0.430148
O O3 0.716006 0.974989 0.708916
O O4 0.823664 0.068038 0.381772
O O5 0.683100 0.629351 0.036616
O O6 0.576977 0.600451 0.901559
O O7 0.516974 0.491412 0.237109
O O8 0.500000 0.000000 0.000000
O O9 0.834860 0.786641 0.920940
O O10 0.837353 0.494595 0.769582
O O11 0.957984 0.039048 0.733342
O O12 0.907562 0.916668 0.086315
O O13 0.000000 0.500000 0.000000
O O14 0.919956 0.560339 0.428112
O O15 0.244805 0.169888 0.690788
O O16 0.592330 0.838060 0.557287
O O17 0.421492 0.987446 0.762018
#
# Coordination Sequence:
#
# PCOD9007365 Si02
#       8
#     2   2   2   2   2   2   2   2
#     4   9  18  39  67  94 127 179 223 268 340 396
#     4  11  23  37  62  92 132 178 220 270 329 394
#     4  10  22  42  69  95 135 181 220 279 342 394
#     4  11  26  45  71 103 133 173 227 282 343 413
#     4   9  21  42  67  95 135 173 218 279 334 407
#     4  10  22  40  68  98 130 178 222 271 347 404
#     4  10  23  38  57  94 131 171 228 271 321 393
#     4  10  21  39  61  89 131 172 222 279 320 393
#
# _framework density 26.015836
#
# number of rings (size 3 to 8) (size 9 to 14) (size 15 to 20)
#    0.000    2.000    0.000    3.000    3.500    6.000 
#    0.000    8.750    0.000    0.000    0.000    0.000 
#    0.000    0.000    0.000    0.000    0.000    0.000 
#
# Total GULP energy -89539.287972 kJ/mol
# GULP energy per Si atom -5596.205498 kJ/mol
# Density = 2.595662 g / cm^3
# Si number density = 26.015836 Si / 1000 Ang^3
#
#
#
# Elastic Constant Matrix: (Units=GPa)
#
#
# Indices 1 2 3 4 5 6 
#
# 1 96.5096 7.5529 43.2439 -6.0849 2.9885 -2.5900
# 2 7.5529 96.5359 39.4571 -27.9663 11.3878 -6.7052
# 3 43.2439 39.4571 118.1670 -7.2025 18.0946 -4.8117
# 4 -6.0849 -27.9663 -7.2025 53.8341 -0.7718 15.1019
# 5 2.9885 11.3878 18.0946 -0.7718 33.2370 -1.4730
# 6 -2.5900 -6.7052 -4.8117 15.1019 -1.4730 29.7415
#
#
#
# Elastic Compliance Matrix: (Units=1/GPa)
#
#
# Indices 1 2 3 4 5 6 
#
# 1 0.012635 0.001425 -0.005201 0.001528 0.001237 -0.000135
# 2 0.001425 0.014457 -0.004570 0.007366 -0.002476 -0.001219
# 3 -0.005201 -0.004570 0.012572 -0.001675 -0.004798 0.001164
# 4 0.001528 0.007366 -0.001675 0.025564 -0.001667 -0.011541
# 5 0.001237 -0.002476 -0.004798 -0.001667 0.033454 0.001276
# 6 -0.000135 -0.001219 0.001164 -0.011541 0.001276 0.039448
#
#
# Mechanical properties :
#
#
# Convention : Reuss Voigt Hill
#
# Bulk Modulus (GPa) = 43.53403 54.63557 49.08480
# Shear Modulus (GPa) = 30.77277 38.09308 34.43293
#
# Velocity S-wave (km/s) = 3.44299 3.83067 3.64199
# Velocity P-wave (km/s) = 5.70750 6.37275 6.04927
#
# Compressibility (1/GPa) = 0.02297054
#
# Stress axis : x y z
#
# Youngs Moduli (GPa) = 79.14372 69.17187 79.54107
#
# Poissons Ratio (x) = -0.09855 0.41373
# Poissons Ratio (y) = -0.11276 0.36351
# Poissons Ratio (z) = 0.41166 0.31612
#
# Static dielectric constant tensor:
#      x y z
#    x 2.047070 0.037140 0.013460 
#    y 0.037140 2.069670 -0.016320 
#    z 0.013460 -0.016320 2.031530 
# 
# From -- ./inp_files/323307.got.cif
#   From: 2010.05.17/outbox.cif.g08.bks.cpg/sg2_162_cif.got.tgz:323307.got - 2010.06.03 11:33:40.
