data_PCOD9007980
_publ_section_title
;
Structure prediction by ZEFSAII (Michael W. Deem and Ramdas Pophale) SiO2 
 PCOD9007980
Probable space group: P -1
;
_chemical_formula_sum "Si O2"
_cell_formula_units_Z 16
_cell_length_a 9.882444
_cell_length_b 9.143309
_cell_length_c 12.592731
_cell_angle_alpha 145.931433
_cell_angle_beta 100.485981
_cell_angle_gamma 90.702030
_cell_volume 598.690374
_symmetry_space_group_name_H-M "P -1"
_symmetry_group_IT_number 2
_symmetry_cell_setting 'triclinic'
loop_
_space_group_symop_operation_xyz
x,y,z
-x,-y,-z
loop_
_atom_site_type_symbol
_atom_site_label
_atom_site_fract_x
_atom_site_fract_y
_atom_site_fract_z
Si Si1 0.422907 0.253619 0.569485
Si Si2 0.829530 0.365527 0.515872
Si Si3 0.974365 0.065153 0.194120
Si Si4 0.720129 0.069800 0.015811
Si Si5 0.768086 0.618593 0.215664
Si Si6 0.565823 0.275650 0.303153
Si Si7 0.649460 0.358076 0.833904
Si Si8 0.052878 0.542594 0.175610
O O1 0.291252 0.197638 0.602462
O O2 0.400714 0.439710 0.583085
O O3 0.561812 0.424538 0.761294
O O4 0.429428 0.962682 0.355455
O O5 0.891740 0.146941 0.332039
O O6 0.659023 0.292110 0.431513
O O7 0.880312 0.395768 0.660894
O O8 0.899416 0.658024 0.644453
O O9 0.862597 0.015551 0.048894
O O10 0.015056 0.787228 0.046805
O O11 0.604927 0.853923 0.798641
O O12 0.757103 0.352530 0.127321
O O13 0.634146 0.098798 0.127677
O O14 0.931480 0.696963 0.245244
O O15 0.663871 0.533097 0.047893
O O16 0.813096 0.385761 0.841229
#
# Coordination Sequence:
#
# PCOD9007980 Si02
#       8
#     2   2   2   2   2   2   2   2
#     4  10  24  46  65  89 130 168 218 272 317 384
#     4  10  22  38  64  97 132 172 202 259 337 385
#     4  10  21  39  63  92 136 166 205 263 326 392
#     4   9  18  37  62  96 127 162 211 256 322 391
#     4  11  24  42  67  91 127 176 213 266 325 376
#     4   9  19  36  65  95 124 164 208 263 321 387
#     4  11  26  44  64  92 125 173 226 267 314 372
#     4  12  25  40  65 100 131 167 220 266 315 387
#
# _framework density 26.724997999999999
#
# number of rings (size 3 to 8) (size 9 to 14) (size 15 to 20)
#    0.000    1.750    1.250    1.875    3.500    4.500 
#    0.000    1.875    0.000    0.000    0.000    0.000 
#    0.000    0.000    0.000    0.000    0.000    0.000 
#
# Total GULP energy -89696.119157 kJ/mol
# GULP energy per Si atom -5606.007447 kJ/mol
# Density = 2.666417 g / cm^3
# Si number density = 26.724998 Si / 1000 Ang^3
#
#
#
# Elastic Constant Matrix: (Units=GPa)
#
#
# Indices 1 2 3 4 5 6 
#
# 1 115.2026 6.6198 22.1796 -0.6038 6.7221 -9.7592
# 2 6.6198 73.6538 37.1181 -9.6518 8.4432 -12.8079
# 3 22.1796 37.1181 112.6641 -16.8805 -15.2118 -10.3509
# 4 -0.6038 -9.6518 -16.8805 42.2696 -5.6260 5.3773
# 5 6.7221 8.4432 -15.2118 -5.6260 36.8379 -5.5932
# 6 -9.7592 -12.8079 -10.3509 5.3773 -5.5932 32.6308
#
#
#
# Elastic Compliance Matrix: (Units=1/GPa)
#
#
# Indices 1 2 3 4 5 6 
#
# 1 0.009462 0.000976 -0.002580 -0.001327 -0.002897 0.002117
# 2 0.000976 0.018371 -0.006714 0.000123 -0.006499 0.004239
# 3 -0.002580 -0.006714 0.013628 0.004815 0.008615 0.001599
# 4 -0.001327 0.000123 0.004815 0.026660 0.005941 -0.002196
# 5 -0.002897 -0.006499 0.008615 0.005941 0.034268 0.004210
# 6 0.002117 0.004239 0.001599 -0.002196 0.004210 0.034534
#
#
# Mechanical properties :
#
#
# Convention : Reuss Voigt Hill
#
# Bulk Modulus (GPa) = 40.28231 48.15060 44.21646
# Shear Modulus (GPa) = 30.89582 38.05453 34.47517
#
# Velocity S-wave (km/s) = 3.40378 3.77759 3.59555
# Velocity P-wave (km/s) = 5.52750 6.08959 5.81534
#
# Compressibility (1/GPa) = 0.02482479
#
# Stress axis : x y z
#
# Youngs Moduli (GPa) = 105.68160 54.43297 73.38091
#
# Poissons Ratio (x) = -0.05312 0.18931
# Poissons Ratio (y) = -0.10314 0.49270
# Poissons Ratio (z) = 0.27264 0.36548
#
# Static dielectric constant tensor:
#      x y z
#    x 2.134270 0.023980 -0.006330 
#    y 0.023980 2.019190 -0.013150 
#    z -0.006330 -0.013150 2.065800 
# 
# From -- ./inp_files/501278.got.cif
#   From: 2010.05.17/outbox.cif.g08.bks.cpg/sg2_251_cif.got.tgz:501278.got - 2010.06.03 11:33:40.
