data_PCOD9008048
_publ_section_title
;
Structure prediction by ZEFSAII (Michael W. Deem and Ramdas Pophale) SiO2 
 PCOD9008048
Probable space group: P -1
;
_chemical_formula_sum "Si O2"
_cell_formula_units_Z 12
_cell_length_a 7.350914
_cell_length_b 15.376481
_cell_length_c 5.278654
_cell_angle_alpha 87.921200
_cell_angle_beta 84.385502
_cell_angle_gamma 58.400462
_cell_volume 505.670537
_symmetry_space_group_name_H-M "P -1"
_symmetry_group_IT_number 2
_symmetry_cell_setting 'triclinic'
loop_
_space_group_symop_operation_xyz
x,y,z
-x,-y,-z
loop_
_atom_site_type_symbol
_atom_site_label
_atom_site_fract_x
_atom_site_fract_y
_atom_site_fract_z
Si Si1 0.398069 0.981170 0.266955
Si Si2 0.624967 0.767073 0.475646
Si Si3 0.394631 0.674340 0.812047
Si Si4 0.989355 0.561463 0.244046
Si Si5 0.973511 0.810826 0.642451
Si Si6 0.685136 0.369197 0.678727
O O1 0.467832 0.864558 0.313806
O O2 0.500000 0.000000 0.500000
O O3 0.147653 0.068624 0.308917
O O4 0.500000 0.000000 0.000000
O O5 0.499519 0.736001 0.688832
O O6 0.775264 0.671976 0.286462
O O7 0.786565 0.787433 0.616118
O O8 0.421158 0.599142 0.587456
O O9 0.135249 0.749425 0.854535
O O10 0.468077 0.623026 0.077435
O O11 0.000000 0.500000 0.500000
O O12 0.181343 0.582615 0.246401
O O13 0.000000 0.500000 0.000000
O O14 0.142274 0.752010 0.398622
#
# Coordination Sequence:
#
# PCOD9008048 Si02
#       6
#     2   2   2   2   2   2
#     4  10  22  36  62  96 121 168 207 246 302 369
#     4  10  23  42  66  92 127 163 213 254 305 376
#     4  10  21  39  63  95 126 165 196 255 310 363
#     4  11  24  42  68  90 118 168 210 255 320 363
#     4   8  21  39  64  85 135 159 203 243 311 354
#     4   9  21  40  62  88 132 154 202 257 305 361
#
# _framework density 23.730867
#
# number of rings (size 3 to 8) (size 9 to 14) (size 15 to 20)
#    1.000    1.333    0.000    1.000    7.000    6.000 
#    0.000    5.833    0.000    0.000    0.000    0.000 
#    0.000    0.000    0.000    0.000    0.000    0.000 
#
# Total GULP energy -66983.908552 kJ/mol
# GULP energy per Si atom -5581.992379 kJ/mol
# Density = 2.367685 g / cm^3
# Si number density = 23.730867 Si / 1000 Ang^3
#
#
#
# Elastic Constant Matrix: (Units=GPa)
#
#
# Indices 1 2 3 4 5 6 
#
# 1 85.3196 31.2808 17.4527 3.1804 -1.1011 5.1493
# 2 31.2808 140.5503 32.6409 20.6530 -15.7054 -22.9557
# 3 17.4527 32.6409 164.9834 10.2393 -2.1504 9.2368
# 4 3.1804 20.6530 10.2393 24.0299 10.6534 -11.4487
# 5 -1.1011 -15.7054 -2.1504 10.6534 24.5165 -2.3935
# 6 5.1493 -22.9557 9.2368 -11.4487 -2.3935 40.9184
#
#
#
# Elastic Compliance Matrix: (Units=1/GPa)
#
#
# Indices 1 2 3 4 5 6 
#
# 1 0.013421 -0.004004 -0.000565 0.001562 -0.003037 -0.003548
# 2 -0.004004 0.012777 -0.001326 -0.013941 0.014427 0.004915
# 3 -0.000565 -0.001326 0.006799 -0.003629 0.000989 -0.003165
# 4 0.001562 -0.013941 -0.003629 0.079875 -0.042652 0.012655
# 5 -0.003037 0.014427 0.000989 -0.042652 0.068547 0.000328
# 6 -0.003548 0.004915 -0.003165 0.012655 0.000328 0.031917
#
#
# Mechanical properties :
#
#
# Convention : Reuss Voigt Hill
#
# Bulk Modulus (GPa) = 47.15717 61.51133 54.33425
# Shear Modulus (GPa) = 21.53353 38.52489 30.02921
#
# Velocity S-wave (km/s) = 3.01559 4.03353 3.56112
# Velocity P-wave (km/s) = 5.66037 6.90428 6.31304
#
# Compressibility (1/GPa) = 0.02120568
#
# Stress axis : x y z
#
# Youngs Moduli (GPa) = 74.50985 78.26308 147.08648
#
# Poissons Ratio (x) = 0.31337 0.08317
# Poissons Ratio (y) = 0.29834 0.19508
# Poissons Ratio (z) = 0.04213 0.10380
#
# Static dielectric constant tensor:
#      x y z
#    x 1.872570 -0.065300 -0.010740 
#    y -0.065300 1.985510 -0.063880 
#    z -0.010740 -0.063880 1.868520 
# 
# From -- ./inp_files/23847.got.cif
#   From: 2010.05.17/outbox.cif.g08.bks.cpg/sg2_12_cif.got.tgz:23847.got - 2010.06.03 11:33:40.
