data_PCOD9008413
_publ_section_title
;
Structure prediction by ZEFSAII (Michael W. Deem and Ramdas Pophale) SiO2 
 PCOD9008413
Probable space group: P -1
;
_chemical_formula_sum "Si O2"
_cell_formula_units_Z 14
_cell_length_a 9.471809
_cell_length_b 8.408864
_cell_length_c 11.536950
_cell_angle_alpha 125.025970
_cell_angle_beta 52.219452
_cell_angle_gamma 104.270589
_cell_volume 586.825921
_symmetry_space_group_name_H-M "P -1"
_symmetry_group_IT_number 2
_symmetry_cell_setting 'triclinic'
loop_
_space_group_symop_operation_xyz
x,y,z
-x,-y,-z
loop_
_atom_site_type_symbol
_atom_site_label
_atom_site_fract_x
_atom_site_fract_y
_atom_site_fract_z
Si Si1 0.928860 0.711194 0.682423
Si Si2 0.031542 0.347047 0.746115
Si Si3 0.782844 0.176143 0.233617
Si Si4 0.463300 0.236348 0.099101
Si Si5 0.218598 0.927499 0.266426
Si Si6 0.607793 0.732412 0.590207
Si Si7 0.071753 0.236506 0.942604
O O1 0.732467 0.700577 0.833352
O O2 0.000000 0.500000 0.500000
O O3 0.079199 0.761926 0.715723
O O4 0.876478 0.897130 0.698525
O O5 0.212139 0.384601 0.605829
O O6 0.082244 0.249033 0.804680
O O7 0.930221 0.196283 0.663819
O O8 0.912984 0.553793 0.923621
O O9 0.575821 0.272996 0.387747
O O10 0.790938 0.943908 0.152568
O O11 0.873566 0.199027 0.071862
O O12 0.435198 0.322535 0.278999
O O13 0.642611 0.245877 0.940923
O O14 0.500000 0.000000 0.000000
O O15 0.337852 0.046486 0.338166
#
# Coordination Sequence:
#
# PCOD9008413 Si02
#       7
#     2   2   2   2   2   2   2
#     4  10  21  39  64  96 125 155 212 267 311 353
#     4  11  22  45  59  93 133 172 201 254 321 383
#     4  11  23  43  66  94 123 162 215 270 297 368
#     4   8  19  38  62  92 120 168 213 244 303 382
#     4  10  21  43  65  92 126 175 203 257 306 394
#     4  10  22  37  66  95 126 161 212 258 318 358
#     4  10  25  39  67  87 129 169 212 249 320 362
#
# _framework density 23.857161999999999
#
# number of rings (size 3 to 8) (size 9 to 14) (size 15 to 20)
#    0.000    2.286    1.429    1.286   14.000    1.143 
#    5.143    0.714    0.000    0.000    0.000    0.000 
#    0.000    0.000    0.000    0.000    0.000    0.000 
#
# Total GULP energy -78191.643529 kJ/mol
# GULP energy per Si atom -5585.117395 kJ/mol
# Density = 2.380286 g / cm^3
# Si number density = 23.857162 Si / 1000 Ang^3
#
#
#
# Elastic Constant Matrix: (Units=GPa)
#
#
# Indices 1 2 3 4 5 6 
#
# 1 144.4251 26.2449 52.7557 -2.7880 -15.2815 18.5381
# 2 26.2449 69.1666 18.5879 3.7112 -6.4787 7.6210
# 3 52.7557 18.5879 128.4827 1.7988 -8.3069 3.6196
# 4 -2.7880 3.7112 1.7988 36.6659 3.7664 3.5244
# 5 -15.2815 -6.4787 -8.3069 3.7664 40.4845 -2.5617
# 6 18.5381 7.6210 3.6196 3.5244 -2.5617 24.3551
#
#
#
# Elastic Compliance Matrix: (Units=1/GPa)
#
#
# Indices 1 2 3 4 5 6 
#
# 1 0.009535 -0.001924 -0.003349 0.001462 0.002079 -0.006151
# 2 -0.001924 0.016104 -0.001334 -0.001581 0.001535 -0.002986
# 3 -0.003349 -0.001334 0.009354 -0.000812 0.000628 0.001760
# 4 0.001462 -0.001581 -0.000812 0.028344 -0.002815 -0.004895
# 5 0.002079 0.001535 0.000628 -0.002815 0.026186 0.001006
# 6 -0.006151 -0.002986 0.001760 -0.004895 0.001006 0.047228
#
#
# Mechanical properties :
#
#
# Convention : Reuss Voigt Hill
#
# Bulk Modulus (GPa) = 45.91897 59.69458 52.80677
# Shear Modulus (GPa) = 31.80170 36.60016 34.20093
#
# Velocity S-wave (km/s) = 3.65499 3.92106 3.79036
# Velocity P-wave (km/s) = 6.09108 6.75097 6.42949
#
# Compressibility (1/GPa) = 0.02177749
#
# Stress axis : x y z
#
# Youngs Moduli (GPa) = 104.87970 62.09589 106.90711
#
# Poissons Ratio (x) = 0.11946 0.35808
# Poissons Ratio (y) = 0.20177 0.14265
# Poissons Ratio (z) = 0.35129 0.08286
#
# Static dielectric constant tensor:
#      x y z
#    x 1.924320 0.023650 0.023210 
#    y 0.023650 1.927070 -0.027710 
#    z 0.023210 -0.027710 2.009460 
# 
# From -- ./inp_files/233552.got.cif
#   From: 2010.05.17/outbox.cif.g08.bks.cpg/sg2_117_cif.got.tgz:233552.got - 2010.06.03 11:33:40.
