data_PCOD9008538
_publ_section_title
;
Structure prediction by ZEFSAII (Michael W. Deem and Ramdas Pophale) SiO2 
 PCOD9008538
Probable space group: P -1
;
_chemical_formula_sum "Si O2"
_cell_formula_units_Z 14
_cell_length_a 13.044091
_cell_length_b 7.968211
_cell_length_c 10.252110
_cell_angle_alpha 72.731994
_cell_angle_beta 130.186513
_cell_angle_gamma 72.058190
_cell_volume 566.460792
_symmetry_space_group_name_H-M "P -1"
_symmetry_group_IT_number 2
_symmetry_cell_setting 'triclinic'
loop_
_space_group_symop_operation_xyz
x,y,z
-x,-y,-z
loop_
_atom_site_type_symbol
_atom_site_label
_atom_site_fract_x
_atom_site_fract_y
_atom_site_fract_z
Si Si1 0.033049 0.608406 0.366325
Si Si2 0.280236 0.984031 0.848476
Si Si3 0.588581 0.880309 0.285561
Si Si4 0.061538 0.556542 0.908021
Si Si5 0.296700 0.976653 0.440877
Si Si6 0.370903 0.552045 0.147380
Si Si7 0.833757 0.045342 0.919431
O O1 0.251991 0.393069 0.576565
O O2 0.919063 0.736514 0.378093
O O3 0.959046 0.534751 0.218191
O O4 0.947235 0.859781 0.173312
O O5 0.383919 0.965890 0.811105
O O6 0.397085 0.965267 0.069109
O O7 0.301990 0.755231 0.936111
O O8 0.622635 0.916400 0.452425
O O9 0.255860 0.475802 0.083522
O O10 0.000000 0.500000 0.000000
O O11 0.907701 0.847294 0.708446
O O12 0.421673 0.697704 0.640560
O O13 0.260923 0.000670 0.250892
O O14 0.323533 0.690694 0.211974
O O15 0.000000 0.000000 0.000000
#
# Coordination Sequence:
#
# PCOD9008538 Si02
#       7
#     2   2   2   2   2   2   2
#     4  10  21  39  65  89 120 165 201 252 307 366
#     4  10  23  43  62  92 118 162 210 261 293 361
#     4  10  23  42  66  85 123 162 211 252 308 353
#     4  11  21  41  60  92 128 159 198 250 300 370
#     4  11  23  40  61  95 122 166 198 247 315 365
#     4  11  24  38  63  91 127 161 203 250 306 363
#     4  11  21  40  61  91 132 156 201 253 304 371
#
# _framework density 24.714862
#
# number of rings (size 3 to 8) (size 9 to 14) (size 15 to 20)
#    0.000    1.429    2.857    1.714    2.000    1.143 
#   10.286    2.857    0.000    0.000    0.000    0.000 
#    0.000    0.000    0.000    0.000    0.000    0.000 
#
# Total GULP energy -78106.778243 kJ/mol
# GULP energy per Si atom -5579.055589 kJ/mol
# Density = 2.465861 g / cm^3
# Si number density = 24.714862 Si / 1000 Ang^3
#
#
#
# Elastic Constant Matrix: (Units=GPa)
#
#
# Indices 1 2 3 4 5 6 
#
# 1 82.3762 11.5435 14.9511 -2.5735 1.8564 8.5835
# 2 11.5435 50.2503 22.7139 -22.4434 3.1617 -6.1484
# 3 14.9511 22.7139 98.1590 -28.0499 8.1652 -3.8894
# 4 -2.5735 -22.4434 -28.0499 60.7025 -14.9840 8.2718
# 5 1.8564 3.1617 8.1652 -14.9840 19.2630 -4.9913
# 6 8.5835 -6.1484 -3.8894 8.2718 -4.9913 23.3470
#
#
#
# Elastic Compliance Matrix: (Units=1/GPa)
#
#
# Indices 1 2 3 4 5 6 
#
# 1 0.013619 -0.003572 -0.001648 -0.001304 -0.002683 -0.006334
# 2 -0.003572 0.026476 -0.003337 0.008704 0.005704 0.005865
# 3 -0.001648 -0.003337 0.012507 0.004131 -0.001368 0.000055
# 4 -0.001304 0.008704 0.004131 0.025928 0.016548 -0.002189
# 5 -0.002683 0.005704 -0.001368 0.016548 0.067492 0.010827
# 6 -0.006334 0.005865 0.000055 -0.002189 0.010827 0.049804
#
#
# Mechanical properties :
#
#
# Convention : Reuss Voigt Hill
#
# Bulk Modulus (GPa) = 28.17972 36.57806 32.37889
# Shear Modulus (GPa) = 22.24491 32.76764 27.50628
#
# Velocity S-wave (km/s) = 3.00336 3.64514 3.33970
# Velocity P-wave (km/s) = 4.84289 5.70511 5.29159
#
# Compressibility (1/GPa) = 0.03548652
#
# Stress axis : x y z
#
# Youngs Moduli (GPa) = 73.42763 37.77056 79.95443
#
# Poissons Ratio (x) = 0.13492 0.13178
# Poissons Ratio (y) = 0.26230 0.26682
# Poissons Ratio (z) = 0.12103 0.12605
#
# Static dielectric constant tensor:
#      x y z
#    x 2.199340 -0.071230 -0.004350 
#    y -0.071230 1.992610 -0.048530 
#    z -0.004350 -0.048530 2.007380 
# 
# From -- ./inp_files/255664.got.cif
#   From: 2010.05.17/outbox.cif.g08.bks.cpg/sg2_128_cif.got.tgz:255664.got - 2010.06.03 11:33:40.
