data_PCOD9008684
_publ_section_title
;
Structure prediction by ZEFSAII (Michael W. Deem and Ramdas Pophale) SiO2 
 PCOD9008684
Probable space group: P -1
;
_chemical_formula_sum "Si O2"
_cell_formula_units_Z 16
_cell_length_a 5.019313
_cell_length_b 21.170509
_cell_length_c 23.771967
_cell_angle_alpha 162.606549
_cell_angle_beta 107.713461
_cell_angle_gamma 77.972189
_cell_volume 688.877229
_symmetry_space_group_name_H-M "P -1"
_symmetry_group_IT_number 2
_symmetry_cell_setting 'triclinic'
loop_
_space_group_symop_operation_xyz
x,y,z
-x,-y,-z
loop_
_atom_site_type_symbol
_atom_site_label
_atom_site_fract_x
_atom_site_fract_y
_atom_site_fract_z
Si Si1 0.895800 0.470037 0.874846
Si Si2 0.915564 0.042284 0.832021
Si Si3 0.807428 0.833079 0.926905
Si Si4 0.069363 0.944610 0.542976
Si Si5 0.688696 0.603325 0.510444
Si Si6 0.345598 0.136507 0.839661
Si Si7 0.627134 0.213884 0.751105
Si Si8 0.005935 0.740979 0.748830
O O1 0.951145 0.294103 0.685291
O O2 0.713499 0.344226 0.809636
O O3 0.720318 0.629965 0.974605
O O4 0.198790 0.625259 0.051992
O O5 0.738223 0.801057 0.638215
O O6 0.681115 0.152872 0.885436
O O7 0.152269 0.029718 0.790235
O O8 0.078004 0.169497 0.005315
O O9 0.563900 0.610575 0.705927
O O10 0.038486 0.836643 0.895272
O O11 0.764752 0.074377 0.117478
O O12 0.227371 0.992434 0.654128
O O13 0.288063 0.121159 0.665332
O O14 0.771323 0.011619 0.586183
O O15 0.958938 0.499686 0.442017
O O16 0.711206 0.700720 0.658014
#
# Coordination Sequence:
#
# PCOD9008684 Si02
#       8
#     2   2   2   2   2   2   2   2
#     4  10  23  43  71  97 137 177 211 280 343 383
#     4  11  27  45  63  89 134 176 229 272 307 389
#     4  10  21  39  66  95 125 166 212 272 336 397
#     4  11  23  43  69  98 135 173 219 276 338 397
#     4  10  21  39  65  94 128 167 207 276 335 389
#     4  11  26  47  62  95 136 180 234 272 309 395
#     4  10  23  40  69 110 132 159 223 279 337 408
#     4   9  20  38  63 103 125 154 213 273 341 400
#
# _framework density 23.226199000000001
#
# number of rings (size 3 to 8) (size 9 to 14) (size 15 to 20)
#    0.000    1.750    0.000    3.000    3.500    9.500 
#    4.500    2.500    0.000    0.000    0.000    0.000 
#    0.000    0.000    0.000    0.000    0.000    0.000 
#
# Total GULP energy -89426.781545 kJ/mol
# GULP energy per Si atom -5589.173847 kJ/mol
# Density = 2.317334 g / cm^3
# Si number density = 23.226199 Si / 1000 Ang^3
#
#
#
# Elastic Constant Matrix: (Units=GPa)
#
#
# Indices 1 2 3 4 5 6 
#
# 1 70.4609 13.9529 26.5884 -13.8342 -4.2027 4.4167
# 2 13.9529 106.9753 44.2066 -16.5182 -9.6662 4.4898
# 3 26.5884 44.2066 171.6317 -20.0252 -11.7088 -0.0157
# 4 -13.8342 -16.5182 -20.0252 21.5371 0.7755 -6.9747
# 5 -4.2027 -9.6662 -11.7088 0.7755 44.9446 -2.6488
# 6 4.4167 4.4898 -0.0157 -6.9747 -2.6488 28.7007
#
#
#
# Elastic Compliance Matrix: (Units=1/GPa)
#
#
# Indices 1 2 3 4 5 6 
#
# 1 0.016620 -0.000062 -0.001417 0.009204 0.001000 -0.000220
# 2 -0.000062 0.011395 -0.002011 0.006778 0.001806 0.000040
# 3 -0.001417 -0.002011 0.007216 0.004800 0.001340 0.001827
# 4 0.009204 0.006778 0.004800 0.066410 0.003246 0.013964
# 5 0.001000 0.001806 0.001340 0.003246 0.023171 0.002492
# 6 -0.000220 0.000040 0.001827 0.013964 0.002492 0.038494
#
#
# Mechanical properties :
#
#
# Convention : Reuss Voigt Hill
#
# Bulk Modulus (GPa) = 35.39704 57.61818 46.50761
# Shear Modulus (GPa) = 27.82381 36.65781 32.24081
#
# Velocity S-wave (km/s) = 3.46490 3.97709 3.72979
# Velocity P-wave (km/s) = 5.59290 6.77871 6.21415
#
# Compressibility (1/GPa) = 0.02825095
#
# Stress axis : x y z
#
# Youngs Moduli (GPa) = 60.17014 87.75526 138.58986
#
# Poissons Ratio (x) = 0.00540 0.19634
# Poissons Ratio (y) = 0.00370 0.27877
# Poissons Ratio (z) = 0.08524 0.17652
#
# Static dielectric constant tensor:
#      x y z
#    x 1.979820 0.017700 -0.069400 
#    y 0.017700 1.845940 -0.022090 
#    z -0.069400 -0.022090 2.007750 
# 
# From -- ./inp_files/605148.got.cif
#   From: 2010.05.17/outbox.cif.g08.bks.cpg/sg2_303_cif.got.tgz:605148.got - 2010.06.03 11:33:40.
