data_PCOD9008517
_publ_section_title
;
Structure prediction by ZEFSAII (Michael W. Deem and Ramdas Pophale) SiO2 
 PCOD9008517
Probable space group: P -1
;
_chemical_formula_sum "Si O2"
_cell_formula_units_Z 14
_cell_length_a 9.249656
_cell_length_b 7.949071
_cell_length_c 21.611403
_cell_angle_alpha 143.246577
_cell_angle_beta 41.004465
_cell_angle_gamma 138.248975
_cell_volume 581.981567
_symmetry_space_group_name_H-M "P -1"
_symmetry_group_IT_number 2
_symmetry_cell_setting 'triclinic'
loop_
_space_group_symop_operation_xyz
x,y,z
-x,-y,-z
loop_
_atom_site_type_symbol
_atom_site_label
_atom_site_fract_x
_atom_site_fract_y
_atom_site_fract_z
Si Si1 0.766203 0.556484 0.456913
Si Si2 0.122669 0.815307 0.519847
Si Si3 0.992660 0.618408 0.780946
Si Si4 0.354080 0.110211 0.651228
Si Si5 0.260664 0.071712 0.910665
Si Si6 0.997499 0.801501 0.122601
Si Si7 0.303124 0.711147 0.100547
O O1 0.500000 0.500000 0.500000
O O2 0.942554 0.570966 0.347808
O O3 0.922242 0.801951 0.529454
O O4 0.729994 0.237612 0.405561
O O5 0.364331 0.786577 0.407813
O O6 0.000000 0.500000 0.500000
O O7 0.230246 0.088233 0.616415
O O8 0.825622 0.419532 0.830665
O O9 0.239783 0.827363 0.794227
O O10 0.925901 0.893358 0.853363
O O11 0.254405 0.261692 0.781877
O O12 0.441114 0.055302 0.898507
O O13 0.334050 0.420930 0.971748
O O14 0.000000 0.000000 0.000000
O O15 0.165398 0.852123 0.142575
O O16 0.000000 0.500000 0.000000
#
# Coordination Sequence:
#
# PCOD9008517 Si02
#       7
#     2   2   2   2   2   2   2
#     4  10  22  38  61  95 124 164 211 263 325 380
#     4   9  19  40  64  87 124 163 212 267 320 377
#     4  10  22  40  63  92 132 163 215 267 315 385
#     4   9  21  40  64  90 129 167 211 270 318 384
#     4   9  19  40  60  86 125 167 210 256 311 377
#     4  11  22  40  66  99 128 170 219 260 325 388
#     4  10  21  39  65  86 127 173 207 264 316 369
#
# _framework density 24.055741999999999
#
# number of rings (size 3 to 8) (size 9 to 14) (size 15 to 20)
#    0.000    2.286    1.429    0.000    0.000    7.429 
#    2.571   16.429    0.000    0.000    0.000    0.000 
#    0.000    0.000    0.000    0.000    0.000    0.000 
#
# Total GULP energy -78022.599964 kJ/mol
# GULP energy per Si atom -5573.042855 kJ/mol
# Density = 2.400099 g / cm^3
# Si number density = 24.055742 Si / 1000 Ang^3
#
#
#
# Elastic Constant Matrix: (Units=GPa)
#
#
# Indices 1 2 3 4 5 6 
#
# 1 151.9342 59.8631 42.1702 -10.0181 -1.3769 10.6675
# 2 59.8631 96.7808 41.0085 -4.6558 -0.9974 4.4879
# 3 42.1702 41.0085 99.0998 -12.2112 1.3893 -5.0844
# 4 -10.0181 -4.6558 -12.2112 26.6140 -1.5813 -9.6275
# 5 -1.3769 -0.9974 1.3893 -1.5813 23.8055 -6.6496
# 6 10.6675 4.4879 -5.0844 -9.6275 -6.6496 29.2576
#
#
#
# Elastic Compliance Matrix: (Units=1/GPa)
#
#
# Indices 1 2 3 4 5 6 
#
# 1 0.009239 -0.004683 -0.002054 0.000666 -0.000295 -0.002855
# 2 -0.004683 0.015201 -0.004652 -0.002008 -0.000086 -0.002113
# 3 -0.002054 -0.004652 0.014118 0.007352 0.001196 0.006607
# 4 0.000666 -0.002008 0.007352 0.048211 0.008045 0.019036
# 5 -0.000295 -0.000086 0.001196 0.008045 0.046216 0.013480
# 6 -0.002855 -0.002113 0.006607 0.019036 0.013480 0.046020
#
#
# Mechanical properties :
#
#
# Convention : Reuss Voigt Hill
#
# Bulk Modulus (GPa) = 63.37175 70.43315 66.90245
# Shear Modulus (GPa) = 24.14962 29.58696 26.86829
#
# Velocity S-wave (km/s) = 3.17188 3.51085 3.34566
# Velocity P-wave (km/s) = 6.30994 6.76590 6.54189
#
# Compressibility (1/GPa) = 0.01577990
#
# Stress axis : x y z
#
# Youngs Moduli (GPa) = 108.24150 65.78548 70.83133
#
# Poissons Ratio (x) = 0.30806 0.14548
# Poissons Ratio (y) = 0.50688 0.32952
# Poissons Ratio (z) = 0.22231 0.30604
#
# Static dielectric constant tensor:
#      x y z
#    x 2.076990 0.019990 0.075730 
#    y 0.019990 1.950520 0.005230 
#    z 0.075730 0.005230 2.029040 
# 
# From -- ./inp_files/606487.got.cif
#   From: 2010.05.17/outbox.cif.g08.bks.cpg/sg2_304_cif.got.tgz:606487.got - 2010.06.03 11:33:40.
