data_PCOD9008010
_publ_section_title
;
Structure prediction by ZEFSAII (Michael W. Deem and Ramdas Pophale) SiO2 
 PCOD9008010
Probable space group: P -1
;
_chemical_formula_sum "Si O2"
_cell_formula_units_Z 16
_cell_length_a 14.167547
_cell_length_b 11.612540
_cell_length_c 19.335655
_cell_angle_alpha 151.151854
_cell_angle_beta 29.207623
_cell_angle_gamma 132.480523
_cell_volume 693.145283
_symmetry_space_group_name_H-M "P -1"
_symmetry_group_IT_number 2
_symmetry_cell_setting 'triclinic'
loop_
_space_group_symop_operation_xyz
x,y,z
-x,-y,-z
loop_
_atom_site_type_symbol
_atom_site_label
_atom_site_fract_x
_atom_site_fract_y
_atom_site_fract_z
Si Si1 0.918308 0.709964 0.222707
Si Si2 0.829338 0.193347 0.764611
Si Si3 0.127336 0.751091 0.489298
Si Si4 0.423119 0.162807 0.248120
Si Si5 0.222191 0.442924 0.392227
Si Si6 0.263588 0.516670 0.659319
Si Si7 0.835831 0.938730 0.956853
Si Si8 0.711125 0.541299 0.902950
O O1 0.777388 0.629910 0.325175
O O2 0.089254 0.750602 0.185005
O O3 0.825326 0.993962 0.398436
O O4 0.000000 0.500000 0.000000
O O5 0.758160 0.460120 0.908535
O O6 0.658388 0.069504 0.821060
O O7 0.000000 0.000000 0.500000
O O8 0.275899 0.537501 0.334443
O O9 0.145077 0.662525 0.351949
O O10 0.898864 0.746948 0.647998
O O11 0.393559 0.300416 0.264969
O O12 0.259896 0.371836 0.514525
O O13 0.654471 0.064734 0.081270
O O14 0.046280 0.708004 0.675582
O O15 0.500000 0.500000 0.500000
O O16 0.121163 0.818662 0.913023
O O17 0.726267 0.809269 0.013197
O O18 0.500000 0.500000 0.000000
#
# Coordination Sequence:
#
# PCOD9008010 Si02
#       8
#     2   2   2   2   2   2   2   2
#     4  12  24  41  70  99 137 178 225 287 352 405
#     4  12  20  40  70  99 123 174 235 276 331 410
#     4  10  21  39  63  93 135 168 216 284 335 396
#     4  11  20  40  69  96 130 176 227 279 327 409
#     4  10  21  40  64  97 131 174 222 275 345 398
#     4  10  23  40  64  95 136 182 221 276 347 401
#     4  10  22  39  61  98 134 170 220 277 337 402
#     4  11  21  38  67  98 127 167 229 285 327 395
#
# _framework density 23.083183999999999
#
# number of rings (size 3 to 8) (size 9 to 14) (size 15 to 20)
#    0.000    1.250    5.000    1.500    1.750    0.500 
#    2.250    9.375    0.000    3.750    0.000    0.000 
#    0.000    0.000    0.000    0.000    0.000    0.000 
#
# Total GULP energy -89359.902240 kJ/mol
# GULP energy per Si atom -5584.993890 kJ/mol
# Density = 2.303065 g / cm^3
# Si number density = 23.083184 Si / 1000 Ang^3
#
#
#
# Elastic Constant Matrix: (Units=GPa)
#
#
# Indices 1 2 3 4 5 6 
#
# 1 108.9115 33.6497 31.2836 13.9195 4.7159 -23.4318
# 2 33.6497 126.9198 28.3408 39.2366 13.0791 -10.6071
# 3 31.2836 28.3408 86.4990 22.6340 17.1542 0.2801
# 4 13.9195 39.2366 22.6340 30.0053 -4.9108 -2.6546
# 5 4.7159 13.0791 17.1542 -4.9108 40.8185 13.0877
# 6 -23.4318 -10.6071 0.2801 -2.6546 13.0877 44.3815
#
#
#
# Elastic Compliance Matrix: (Units=1/GPa)
#
#
# Indices 1 2 3 4 5 6 
#
# 1 0.012212 -0.001486 -0.003380 -0.000873 -0.001726 0.006570
# 2 -0.001486 0.017171 0.004170 -0.026401 -0.011937 0.005234
# 3 -0.003380 0.004170 0.018982 -0.020009 -0.011768 0.001366
# 4 -0.000873 -0.026401 -0.020009 0.087470 0.030864 -0.010514
# 5 -0.001726 -0.011937 -0.011768 0.030864 0.041717 -0.014146
# 6 0.006570 0.005234 0.001366 -0.010514 -0.014146 0.030786
#
#
# Mechanical properties :
#
#
# Convention : Reuss Voigt Hill
#
# Bulk Modulus (GPa) = 21.28891 56.54206 38.91548
# Shear Modulus (GPa) = 22.18402 38.31148 30.24775
#
# Velocity S-wave (km/s) = 3.10344 4.07838 3.62384
# Velocity P-wave (km/s) = 4.69941 6.83562 5.86558
#
# Compressibility (1/GPa) = 0.04697281
#
# Stress axis : x y z
#
# Youngs Moduli (GPa) = 81.88875 58.23792 52.68120
#
# Poissons Ratio (x) = 0.08653 0.17807
# Poissons Ratio (y) = 0.12168 -0.21968
# Poissons Ratio (z) = 0.27679 -0.24285
#
# Static dielectric constant tensor:
#      x y z
#    x 1.895780 0.111170 -0.214600 
#    y 0.111170 1.441920 0.514400 
#    z -0.214600 0.514400 1.417840 
# 
# From -- ./inp_files/598024.got.cif
#   From: 2010.05.17/outbox.cif.g08.bks.cpg/sg2_300_cif.got.tgz:598024.got - 2010.06.03 11:33:40.
