data_PCOD9008996
_publ_section_title
;
Structure prediction by ZEFSAII (Michael W. Deem and Ramdas Pophale) SiO2 
 PCOD9008996
Probable space group: P -1
;
_chemical_formula_sum "Si O2"
_cell_formula_units_Z 16
_cell_length_a 8.770480
_cell_length_b 16.424022
_cell_length_c 9.772534
_cell_angle_alpha 118.212783
_cell_angle_beta 62.097544
_cell_angle_gamma 68.858498
_cell_volume 728.541452
_symmetry_space_group_name_H-M "P -1"
_symmetry_group_IT_number 2
_symmetry_cell_setting 'triclinic'
loop_
_space_group_symop_operation_xyz
x,y,z
-x,-y,-z
loop_
_atom_site_type_symbol
_atom_site_label
_atom_site_fract_x
_atom_site_fract_y
_atom_site_fract_z
Si Si1 0.456081 0.647221 0.555451
Si Si2 0.296417 0.474472 0.125693
Si Si3 0.278661 0.145864 0.631696
Si Si4 0.621042 0.108811 0.269895
Si Si5 0.757816 0.308874 0.600913
Si Si6 0.254341 0.746835 0.023688
Si Si7 0.981911 0.571120 0.927665
Si Si8 0.042411 0.013886 0.226870
O O1 0.482962 0.746240 0.593860
O O2 0.267342 0.684233 0.546948
O O3 0.744343 0.495576 0.286541
O O4 0.658919 0.314914 0.215697
O O5 0.148274 0.629305 0.338974
O O6 0.116633 0.458437 0.171226
O O7 0.466436 0.417292 0.870543
O O8 0.510819 0.373151 0.071490
O O9 0.402099 0.125873 0.419829
O O10 0.008627 0.199929 0.781936
O O11 0.500000 0.000000 0.500000
O O12 0.217695 0.267054 0.829269
O O13 0.770240 0.024004 0.001890
O O14 0.827834 0.039407 0.252482
O O15 0.908810 0.156534 0.462158
O O16 0.191214 0.881809 0.154131
O O17 0.000000 0.500000 0.000000
#
# Coordination Sequence:
#
# PCOD9008996 Si02
#       8
#     2   2   2   2   2   2   2   2
#     4  10  21  43  73  93 126 182 222 260 323 397
#     4  11  25  40  62 102 131 171 218 281 320 383
#     4  12  24  39  65 107 129 166 219 277 321 391
#     4   9  17  35  65  94 129 169 228 254 314 392
#     4  10  21  39  66  96 131 175 221 253 330 396
#     4  11  25  41  67 103 137 163 218 281 331 371
#     4  12  23  44  70  90 129 178 224 261 324 400
#     4   9  18  38  64  93 130 178 210 267 322 389
#
# _framework density 21.961689
#
# number of rings (size 3 to 8) (size 9 to 14) (size 15 to 20)
#    0.000    1.500    3.750    2.250    1.750    3.000 
#    0.000    0.000    0.000    2.250    0.000    0.000 
#    0.000    0.000    0.000    0.000    0.000    0.000 
#
# Total GULP energy -89487.225968 kJ/mol
# GULP energy per Si atom -5592.951623 kJ/mol
# Density = 2.191170 g / cm^3
# Si number density = 21.961689 Si / 1000 Ang^3
#
#
#
# Elastic Constant Matrix: (Units=GPa)
#
#
# Indices 1 2 3 4 5 6 
#
# 1 51.8812 48.5875 30.7050 1.6990 6.0559 5.4058
# 2 48.5875 102.0257 42.9913 9.3767 -2.4718 7.7779
# 3 30.7050 42.9913 107.8801 6.9183 4.8698 14.9112
# 4 1.6990 9.3767 6.9183 43.9434 13.3217 3.0174
# 5 6.0559 -2.4718 4.8698 13.3217 32.2747 2.7575
# 6 5.4058 7.7779 14.9112 3.0174 2.7575 31.8826
#
#
#
# Elastic Compliance Matrix: (Units=1/GPa)
#
#
# Indices 1 2 3 4 5 6 
#
# 1 0.039516 -0.017959 -0.003987 0.006194 -0.010736 -0.000112
# 2 -0.017959 0.020310 -0.002880 -0.005464 0.007676 -0.000709
# 3 -0.003987 -0.002880 0.012207 -0.000657 -0.000684 -0.004209
# 4 0.006194 -0.005464 -0.000657 0.027747 -0.012856 -0.000924
# 5 -0.010736 0.007676 -0.000684 -0.012856 0.039158 -0.001903
# 6 -0.000112 -0.000709 -0.004209 -0.000924 -0.001903 0.033778
#
#
# Mechanical properties :
#
#
# Convention : Reuss Voigt Hill
#
# Bulk Modulus (GPa) = 44.68420 56.26164 50.47292
# Shear Modulus (GPa) = 21.75535 30.92035 26.33785
#
# Velocity S-wave (km/s) = 3.15080 3.75630 3.46680
# Velocity P-wave (km/s) = 5.79891 6.66984 6.24956
#
# Compressibility (1/GPa) = 0.02237927
#
# Stress axis : x y z
#
# Youngs Moduli (GPa) = 25.30650 49.23685 81.92049
#
# Poissons Ratio (x) = 0.88425 0.32664
# Poissons Ratio (y) = 0.45448 0.23595
# Poissons Ratio (z) = 0.10090 0.14181
#
# Static dielectric constant tensor:
#      x y z
#    x 1.801530 -0.005160 -0.000930 
#    y -0.005160 1.820120 0.028490 
#    z -0.000930 0.028490 1.835430 
# 
# From -- ./inp_files/281625.got.cif
#   From: 2010.05.17/outbox.cif.g08.bks.cpg/sg2_141_cif.got.tgz:281625.got - 2010.06.03 11:33:40.
