data_PCOD9008224
_publ_section_title
;
Structure prediction by ZEFSAII (Michael W. Deem and Ramdas Pophale) SiO2 
 PCOD9008224
Probable space group: P -1
;
_chemical_formula_sum "Si O2"
_cell_formula_units_Z 14
_cell_length_a 11.613488
_cell_length_b 10.915535
_cell_length_c 5.264882
_cell_angle_alpha 90.854445
_cell_angle_beta 111.881262
_cell_angle_gamma 106.667787
_cell_volume 587.715834
_symmetry_space_group_name_H-M "P -1"
_symmetry_group_IT_number 2
_symmetry_cell_setting 'triclinic'
loop_
_space_group_symop_operation_xyz
x,y,z
-x,-y,-z
loop_
_atom_site_type_symbol
_atom_site_label
_atom_site_fract_x
_atom_site_fract_y
_atom_site_fract_z
Si Si1 0.836388 0.709333 0.402628
Si Si2 0.595112 0.594274 0.881634
Si Si3 0.346459 0.999426 0.657440
Si Si4 0.534556 0.846351 0.742625
Si Si5 0.783014 0.487985 0.733453
Si Si6 0.024924 0.614338 0.314740
Si Si7 0.087129 0.027183 0.320725
O O1 0.786062 0.570995 0.488679
O O2 0.837795 0.819411 0.603602
O O3 0.981407 0.725103 0.420653
O O4 0.728559 0.696824 0.102117
O O5 0.525177 0.696340 0.728037
O O6 0.653676 0.498620 0.763849
O O7 0.500000 0.500000 0.000000
O O8 0.425512 0.096461 0.504307
O O9 0.198762 0.961436 0.439022
O O10 0.403789 0.880497 0.710274
O O11 0.368098 0.071345 0.951864
O O12 0.833000 0.368111 0.689033
O O13 0.909495 0.566364 0.009530
O O14 0.000000 0.500000 0.500000
O O15 0.000000 0.000000 0.500000
O O16 0.000000 0.000000 0.000000
#
# Coordination Sequence:
#
# PCOD9008224 Si02
#       7
#     2   2   2   2   2   2   2
#     4  10  21  39  64  90 133 174 221 282 349 415
#     4  11  23  38  65 101 134 178 229 283 350 420
#     4  10  21  43  70  99 131 184 231 287 350 406
#     4  10  21  41  73  95 136 182 232 285 348 409
#     4   9  18  35  62  88 126 171 218 267 332 415
#     4   8  16  33  60  88 116 172 211 262 329 402
#     4  12  26  41  69 103 136 174 231 291 354 418
#
# _framework density 23.821035999999999
#
# number of rings (size 3 to 8) (size 9 to 14) (size 15 to 20)
#    0.000    2.000    1.429    1.714    4.000    0.571 
#    0.000    8.571    6.286    0.000    0.000    0.000 
#    0.000    0.000    0.000    0.000    0.000    0.000 
#
# Total GULP energy -78070.585441 kJ/mol
# GULP energy per Si atom -5576.470389 kJ/mol
# Density = 2.376682 g / cm^3
# Si number density = 23.821036 Si / 1000 Ang^3
#
#
#
# Elastic Constant Matrix: (Units=GPa)
#
#
# Indices 1 2 3 4 5 6 
#
# 1 173.5751 56.5860 12.5667 -13.2835 10.2085 -46.8902
# 2 56.5860 79.4851 25.6488 -3.5884 21.1298 -24.0521
# 3 12.5667 25.6488 115.4506 4.3527 11.0895 -18.4295
# 4 -13.2835 -3.5884 4.3527 33.5707 -5.8883 6.9939
# 5 10.2085 21.1298 11.0895 -5.8883 35.6553 -12.2679
# 6 -46.8902 -24.0521 -18.4295 6.9939 -12.2679 33.5559
#
#
#
# Elastic Compliance Matrix: (Units=1/GPa)
#
#
# Indices 1 2 3 4 5 6 
#
# 1 0.010917 -0.005281 0.001694 0.001456 0.004438 0.013719
# 2 -0.005281 0.020363 -0.002554 -0.001770 -0.009066 0.002868
# 3 0.001694 -0.002554 0.010201 -0.002334 -0.000286 0.006521
# 4 0.001456 -0.001770 -0.002334 0.032473 0.004821 -0.005522
# 5 0.004438 -0.009066 -0.000286 0.004821 0.037213 0.012145
# 6 0.013719 0.002868 0.006521 -0.005522 0.012145 0.060199
#
#
# Mechanical properties :
#
#
# Convention : Reuss Voigt Hill
#
# Bulk Modulus (GPa) = 34.24820 62.01265 48.13042
# Shear Modulus (GPa) = 25.85588 38.80365 32.32976
#
# Velocity S-wave (km/s) = 3.29815 4.04042 3.68801
# Velocity P-wave (km/s) = 5.37701 6.91780 6.19549
#
# Compressibility (1/GPa) = 0.02919861
#
# Stress axis : x y z
#
# Youngs Moduli (GPa) = 91.60420 49.10978 98.02875
#
# Poissons Ratio (x) = 0.25934 -0.16603
# Poissons Ratio (y) = 0.48375 0.25033
# Poissons Ratio (z) = -0.15515 0.12541
#
# Static dielectric constant tensor:
#      x y z
#    x 2.017470 -0.042430 0.063570 
#    y -0.042430 1.919660 -0.021540 
#    z 0.063570 -0.021540 1.323360 
# 
# From -- ./inp_files/66951.got.cif
#   From: 2010.05.17/outbox.cif.g08.bks.cpg/sg2_34_cif.got.tgz:66951.got - 2010.06.03 11:33:40.
