data_PCOD9008972
_publ_section_title
;
Structure prediction by ZEFSAII (Michael W. Deem and Ramdas Pophale) SiO2 
 PCOD9008972
Probable space group: P -1
;
_chemical_formula_sum "Si O2"
_cell_formula_units_Z 16
_cell_length_a 8.502200
_cell_length_b 12.104252
_cell_length_c 29.225801
_cell_angle_alpha 32.293536
_cell_angle_beta 147.896182
_cell_angle_gamma 124.863704
_cell_volume 735.240827
_symmetry_space_group_name_H-M "P -1"
_symmetry_group_IT_number 2
_symmetry_cell_setting 'triclinic'
loop_
_space_group_symop_operation_xyz
x,y,z
-x,-y,-z
loop_
_atom_site_type_symbol
_atom_site_label
_atom_site_fract_x
_atom_site_fract_y
_atom_site_fract_z
Si Si1 0.372861 0.884673 0.071898
Si Si2 0.926979 0.895931 0.435722
Si Si3 0.199078 0.270427 0.160687
Si Si4 0.035417 0.035960 0.841240
Si Si5 0.323599 0.210057 0.315236
Si Si6 0.683185 0.551153 0.486059
Si Si7 0.808945 0.384042 0.800833
Si Si8 0.797484 0.227502 0.547155
O O1 0.325330 0.718365 0.155317
O O2 0.745006 0.853901 0.164628
O O3 0.238143 0.874386 0.991521
O O4 0.126438 0.157146 0.934555
O O5 0.900920 0.661467 0.521253
O O6 0.281708 0.864672 0.551784
O O7 0.914198 0.903906 0.374481
O O8 0.599022 0.119881 0.298095
O O9 0.189349 0.320583 0.193971
O O10 0.037168 0.105648 0.166195
O O11 0.000000 0.500000 0.000000
O O12 0.658019 0.231827 0.697743
O O13 0.110904 0.419102 0.226585
O O14 0.310562 0.967241 0.399684
O O15 0.500000 0.500000 0.500000
O O16 0.875707 0.335226 0.573360
O O17 0.505336 0.544306 0.634319
#
# Coordination Sequence:
#
# PCOD9008972 Si02
#       8
#     2   2   2   2   2   2   2   2
#     4  10  21  41  65  94 130 169 221 262 331 390
#     4  10  23  42  66  94 127 174 221 266 327 386
#     4  11  24  44  64  95 135 174 218 269 328 395
#     4  10  22  40  61  93 127 169 216 269 321 385
#     4  11  24  44  66  97 135 173 219 267 332 397
#     4  11  23  40  62  95 127 167 218 276 316 382
#     4  10  21  39  66  95 128 173 216 270 319 390
#     4  11  22  42  65  97 134 167 224 272 328 386
#
# _framework density 21.761579000000001
#
# number of rings (size 3 to 8) (size 9 to 14) (size 15 to 20)
#    0.000    1.500    1.250    4.500    3.500    2.000 
#    2.250    1.250    0.000    0.000    0.000    0.000 
#    0.000    0.000    0.000    0.000    0.000    0.000 
#
# Total GULP energy -89381.334833 kJ/mol
# GULP energy per Si atom -5586.333427 kJ/mol
# Density = 2.171205 g / cm^3
# Si number density = 21.761579 Si / 1000 Ang^3
#
#
#
# Elastic Constant Matrix: (Units=GPa)
#
#
# Indices 1 2 3 4 5 6 
#
# 1 53.1133 5.6655 -0.1776 6.3524 -16.9481 -1.5586
# 2 5.6655 59.2902 9.0764 -6.9492 0.4485 0.4250
# 3 -0.1776 9.0764 60.4731 -6.3172 -11.0681 5.1208
# 4 6.3524 -6.9492 -6.3172 26.4377 4.0113 -2.5376
# 5 -16.9481 0.4485 -11.0681 4.0113 33.5501 -0.1858
# 6 -1.5586 0.4250 5.1208 -2.5376 -0.1858 46.6882
#
#
#
# Elastic Compliance Matrix: (Units=1/GPa)
#
#
# Indices 1 2 3 4 5 6 
#
# 1 0.024889 -0.003861 0.002381 -0.008598 0.014439 0.000195
# 2 -0.003861 0.018371 -0.002904 0.005674 -0.003831 0.000316
# 3 0.002381 -0.002904 0.018636 0.001858 0.007157 -0.001809
# 4 -0.008598 0.005674 0.001858 0.043360 -0.008981 0.001778
# 5 0.014439 -0.003831 0.007157 -0.008981 0.040583 -0.000595
# 6 0.000195 0.000316 -0.001809 0.001778 -0.000595 0.021715
#
#
# Mechanical properties :
#
#
# Convention : Reuss Voigt Hill
#
# Bulk Modulus (GPa) = 18.82245 22.44504 20.63375
# Shear Modulus (GPa) = 25.76889 31.88934 28.82911
#
# Velocity S-wave (km/s) = 3.44488 3.83220 3.64369
# Velocity P-wave (km/s) = 4.94884 5.46969 5.21577
#
# Compressibility (1/GPa) = 0.05312805
#
# Stress axis : x y z
#
# Youngs Moduli (GPa) = 40.17844 54.43225 53.65862
#
# Poissons Ratio (x) = 0.21017 -0.12774
# Poissons Ratio (y) = 0.15513 0.15581
# Poissons Ratio (z) = -0.09565 0.15806
#
# Static dielectric constant tensor:
#      x y z
#    x 1.807460 0.016250 -0.033250 
#    y 0.016250 1.819160 -0.019830 
#    z -0.033250 -0.019830 1.855510 
# 
# From -- ./inp_files/622497.got.cif
#   From: 2010.05.17/outbox.cif.g08.bks.cpg/sg2_312_cif.got.tgz:622497.got - 2010.06.03 11:33:40.
