data_PCOD9008994
_publ_section_title
;
Structure prediction by ZEFSAII (Michael W. Deem and Ramdas Pophale) SiO2 
 PCOD9008994
Probable space group: P -1
;
_chemical_formula_sum "Si O2"
_cell_formula_units_Z 16
_cell_length_a 20.913807
_cell_length_b 9.416139
_cell_length_c 5.472835
_cell_angle_alpha 133.276913
_cell_angle_beta 118.278182
_cell_angle_gamma 63.710846
_cell_volume 679.182762
_symmetry_space_group_name_H-M "P -1"
_symmetry_group_IT_number 2
_symmetry_cell_setting 'triclinic'
loop_
_space_group_symop_operation_xyz
x,y,z
-x,-y,-z
loop_
_atom_site_type_symbol
_atom_site_label
_atom_site_fract_x
_atom_site_fract_y
_atom_site_fract_z
Si Si1 0.724701 0.487513 0.378591
Si Si2 0.844771 0.726039 0.741780
Si Si3 0.988975 0.782390 0.306293
Si Si4 0.575346 0.480244 0.859195
Si Si5 0.928602 0.334313 0.170074
Si Si6 0.681488 0.219436 0.365185
Si Si7 0.461403 0.815933 0.171686
Si Si8 0.804752 0.102763 0.768607
O O1 0.773449 0.654554 0.638862
O O2 0.724823 0.376774 0.504936
O O3 0.638786 0.551153 0.225694
O O4 0.762571 0.302864 0.060617
O O5 0.882658 0.546954 0.420157
O O6 0.825735 0.927000 0.790119
O O7 0.904868 0.756425 0.088989
O O8 0.020071 0.736982 0.582473
O O9 0.032918 0.654558 0.009955
O O10 0.000000 0.000000 0.500000
O O11 0.623858 0.356681 0.596028
O O12 0.537914 0.322908 0.754408
O O13 0.513941 0.669658 0.907214
O O14 0.875809 0.170878 0.861454
O O15 0.743234 0.059548 0.416874
O O16 0.625366 0.129112 0.985127
O O17 0.500000 0.000000 0.500000
#
# Coordination Sequence:
#
# PCOD9008994 Si02
#       8
#     2   2   2   2   2   2   2   2
#     4   9  22  43  63  98 133 177 223 283 330 416
#     4  11  24  45  71  98 137 182 230 283 351 418
#     4  12  25  48  73 103 141 184 235 300 355 417
#     4   9  20  41  63  93 132 170 219 273 334 396
#     4  11  26  48  71 103 141 182 239 295 356 421
#     4  10  21  42  69  93 136 175 221 276 338 404
#     4  10  21  39  66  96 131 170 218 275 335 401
#     4  10  23  43  66  97 134 179 227 280 349 410
#
# _framework density 23.557721000000001
#
# number of rings (size 3 to 8) (size 9 to 14) (size 15 to 20)
#    0.000    1.750    1.250    1.500    3.500    3.500 
#    6.750   12.500    0.000    0.000    0.000    0.000 
#    0.000    0.000    0.000    0.000    0.000    0.000 
#
# Total GULP energy -89462.969643 kJ/mol
# GULP energy per Si atom -5591.435603 kJ/mol
# Density = 2.350410 g / cm^3
# Si number density = 23.557721 Si / 1000 Ang^3
#
#
#
# Elastic Constant Matrix: (Units=GPa)
#
#
# Indices 1 2 3 4 5 6 
#
# 1 92.2017 26.3741 33.2222 0.3328 32.9190 5.4039
# 2 26.3741 91.9572 49.0816 -16.3749 36.9563 -23.2479
# 3 33.2222 49.0816 95.5900 8.2569 30.2064 -3.9765
# 4 0.3328 -16.3749 8.2569 41.3389 8.4004 7.9256
# 5 32.9190 36.9563 30.2064 8.4004 46.7406 -0.0619
# 6 5.4039 -23.2479 -3.9765 7.9256 -0.0619 26.9764
#
#
#
# Elastic Compliance Matrix: (Units=1/GPa)
#
#
# Indices 1 2 3 4 5 6 
#
# 1 0.015644 0.001270 -0.003213 0.003888 -0.010649 -0.003680
# 2 0.001270 0.035294 -0.011293 0.016686 -0.024470 0.023539
# 3 -0.003213 -0.011293 0.017439 -0.007347 0.001236 -0.004357
# 4 0.003888 0.016686 -0.007347 0.035403 -0.017543 0.002076
# 5 -0.010649 -0.024470 0.001236 -0.017543 0.050579 -0.013502
# 6 -0.003680 0.023539 -0.004357 0.002076 -0.013502 0.056809
#
#
# Mechanical properties :
#
#
# Convention : Reuss Voigt Hill
#
# Bulk Modulus (GPa) = 23.86327 55.23385 39.54856
# Shear Modulus (GPa) = 19.87220 34.41592 27.14406
#
# Velocity S-wave (km/s) = 2.90755 3.82634 3.39814
# Velocity P-wave (km/s) = 4.62855 6.55883 5.67634
#
# Compressibility (1/GPa) = 0.04190541
#
# Stress axis : x y z
#
# Youngs Moduli (GPa) = 63.92222 28.33334 57.34208
#
# Poissons Ratio (x) = -0.03598 0.18423
# Poissons Ratio (y) = -0.08118 0.64757
# Poissons Ratio (z) = 0.20537 0.31997
#
# Static dielectric constant tensor:
#      x y z
#    x 1.936320 -0.039590 -0.047890 
#    y -0.039590 1.884500 -0.063790 
#    z -0.047890 -0.063790 2.003400 
# 
# From -- ./inp_files/117559.got.cif
#   From: 2010.05.17/outbox.cif.g08.bks.cpg/sg2_59_cif.got.tgz:117559.got - 2010.06.03 11:33:40.
