data_PCOD9008303
_publ_section_title
;
Structure prediction by ZEFSAII (Michael W. Deem and Ramdas Pophale) SiO2 
 PCOD9008303
Probable space group: P -1
;
_chemical_formula_sum "Si O2"
_cell_formula_units_Z 11
_cell_length_a 7.082912
_cell_length_b 6.766776
_cell_length_c 8.597138
_cell_angle_alpha 98.356600
_cell_angle_beta 73.812567
_cell_angle_gamma 99.916788
_cell_volume 387.731422
_symmetry_space_group_name_H-M "P -1"
_symmetry_group_IT_number 2
_symmetry_cell_setting 'triclinic'
loop_
_space_group_symop_operation_xyz
x,y,z
-x,-y,-z
loop_
_atom_site_type_symbol
_atom_site_label
_atom_site_fract_x
_atom_site_fract_y
_atom_site_fract_z
Si Si1 0.232447 0.345535 0.609366
Si Si2 0.515349 0.765670 0.000258
Si Si3 0.937904 0.724121 0.034587
Si Si4 0.410398 0.826821 0.354946
Si Si5 0.299002 0.770506 0.760461
Si Si6 0.000000 0.000000 0.500000
O O1 0.214227 0.579370 0.653690
O O2 0.144413 0.220455 0.468660
O O3 0.455993 0.307254 0.591340
O O4 0.098783 0.228390 0.769084
O O5 0.384014 0.721108 0.179468
O O6 0.733745 0.728326 0.990596
O O7 0.426938 0.670923 0.851099
O O8 0.500000 0.000000 0.000000
O O9 0.117344 0.842692 0.907553
O O10 0.000000 0.500000 0.000000
O O11 0.564018 0.035657 0.317375
O O12 0.201279 0.889098 0.456668
#
# Coordination Sequence:
#
# PCOD9008303 Si02
#       6
#     2   2   2   2   2   1
#     4  10  23  40  60  86 120 156 198 247 294 352
#     4   9  19  35  60  93 122 149 188 244 306 362
#     4   9  19  35  60  93 122 149 188 244 306 362
#     4  10  23  40  60  86 120 156 198 247 294 352
#     4  10  21  39  64  93 119 152 196 244 306 368
#     4  12  24  42  58  80 118 164 206 246 290 338
#
# _framework density 28.370152999999998
#
# number of rings (size 3 to 8) (size 9 to 14) (size 15 to 20)
#    0.000    2.182    0.000    1.636    0.000   19.636 
#    0.000    1.818    0.000    0.000    0.000    0.000 
#    0.000    0.000    0.000    0.000    0.000    0.000 
#
# Total GULP energy -61368.986645 kJ/mol
# GULP energy per Si atom -5578.998786 kJ/mol
# Density = 2.830558 g / cm^3
# Si number density = 28.370153 Si / 1000 Ang^3
#
#
#
# Elastic Constant Matrix: (Units=GPa)
#
#
# Indices 1 2 3 4 5 6 
#
# 1 225.3195 39.4830 29.0896 -12.9935 -42.2082 -12.9518
# 2 39.4830 132.9445 28.3587 5.7116 -10.3228 -13.0516
# 3 29.0896 28.3587 48.6972 -10.7840 -30.9987 -1.3567
# 4 -12.9935 5.7116 -10.7840 52.4205 11.8740 -6.8145
# 5 -42.2082 -10.3228 -30.9987 11.8740 57.0315 0.2348
# 6 -12.9518 -13.0516 -1.3567 -6.8145 0.2348 43.1552
#
#
#
# Elastic Compliance Matrix: (Units=1/GPa)
#
#
# Indices 1 2 3 4 5 6 
#
# 1 0.005465 -0.001242 0.000000 0.000845 0.003638 0.001378
# 2 -0.001242 0.009394 -0.006651 -0.001888 -0.002448 0.001975
# 3 0.000000 -0.006651 0.036707 0.004189 0.017877 -0.000293
# 4 0.000845 -0.001888 0.004189 0.021188 -0.001864 0.003170
# 5 0.003638 -0.002448 0.017877 -0.001864 0.029887 0.000457
# 6 0.001378 0.001975 -0.000293 0.003170 0.000457 0.024672
#
#
# Mechanical properties :
#
#
# Convention : Reuss Voigt Hill
#
# Bulk Modulus (GPa) = 27.94698 66.75821 47.35259
# Shear Modulus (GPa) = 32.25275 51.19010 41.72142
#
# Velocity S-wave (km/s) = 3.37539 4.25239 3.83901
# Velocity P-wave (km/s) = 5.00632 6.90599 6.03141
#
# Compressibility (1/GPa) = 0.03578204
#
# Stress axis : x y z
#
# Youngs Moduli (GPa) = 182.97478 106.44853 27.24241
#
# Poissons Ratio (x) = 0.13216 0.00000
# Poissons Ratio (y) = 0.22717 0.18118
# Poissons Ratio (z) = 0.00002 0.70796
#
# Static dielectric constant tensor:
#      x y z
#    x 2.166440 0.032930 0.184450 
#    y 0.032930 2.267270 -0.030670 
#    z 0.184450 -0.030670 2.601070 
# 
# From -- ./inp_files/63978.got.cif
#   From: 2010.05.17/outbox.cif.g08.bks.cpg/sg2_32_cif.got.tgz:63978.got - 2010.06.03 11:33:40.
