data_PCOD9008460
_publ_section_title
;
Structure prediction by ZEFSAII (Michael W. Deem and Ramdas Pophale) SiO2 
 PCOD9008460
Probable space group: P -1
;
_chemical_formula_sum "Si O2"
_cell_formula_units_Z 15
_cell_length_a 11.918649
_cell_length_b 13.806342
_cell_length_c 6.723098
_cell_angle_alpha 85.081128
_cell_angle_beta 122.587666
_cell_angle_gamma 51.656104
_cell_volume 564.538658
_symmetry_space_group_name_H-M "P -1"
_symmetry_group_IT_number 2
_symmetry_cell_setting 'triclinic'
loop_
_space_group_symop_operation_xyz
x,y,z
-x,-y,-z
loop_
_atom_site_type_symbol
_atom_site_label
_atom_site_fract_x
_atom_site_fract_y
_atom_site_fract_z
Si Si1 0.416034 0.863170 0.188661
Si Si2 0.000000 0.500000 0.000000
Si Si3 0.856104 0.459645 0.226152
Si Si4 0.118852 0.056661 0.208191
Si Si5 0.341461 0.618666 0.094751
Si Si6 0.726834 0.515760 0.542741
Si Si7 0.316219 0.114836 0.636400
Si Si8 0.757359 0.152226 0.323733
O O1 0.544075 0.695722 0.421270
O O2 0.595929 0.841547 0.402914
O O3 0.189335 0.018044 0.053124
O O4 0.370246 0.858517 0.919280
O O5 0.057886 0.579721 0.115148
O O6 0.897843 0.529779 0.118886
O O7 0.700924 0.469132 0.973831
O O8 0.771284 0.521198 0.357087
O O9 0.090736 0.271498 0.500275
O O10 0.262222 0.057342 0.452094
O O11 0.867317 0.221127 0.002270
O O12 0.213396 0.900328 0.414538
O O13 0.318118 0.699420 0.856691
O O14 0.591440 0.495079 0.421471
O O15 0.500000 0.000000 0.000000
O O16 0.000000 0.000000 0.500000
#
# Coordination Sequence:
#
# PCOD9008460 Si02
#       8
#     2   1   2   2   2   2   2   2
#     4  11  22  39  64 101 134 177 227 271 344 400
#     4  12  26  44  72  98 136 184 230 282 334 410
#     4  11  25  49  69 102 138 179 236 279 338 408
#     4  10  21  39  64  98 142 171 225 282 331 412
#     4   9  22  44  68  99 136 179 229 282 339 406
#     4  11  25  45  71  97 137 181 230 282 336 408
#     4  11  22  42  69  99 138 179 221 284 344 401
#     4   9  19  37  61  92 129 175 215 269 338 390
#
# _framework density 26.570368999999999
#
# number of rings (size 3 to 8) (size 9 to 14) (size 15 to 20)
#    0.000    1.600    2.667    1.200    0.000    8.533 
#    4.800    4.000    0.000    0.000    0.000    0.000 
#    0.000    0.000    0.000    0.000    0.000    0.000 
#
# Total GULP energy -83612.907974 kJ/mol
# GULP energy per Si atom -5574.193865 kJ/mol
# Density = 2.650989 g / cm^3
# Si number density = 26.570369 Si / 1000 Ang^3
#
#
#
# Elastic Constant Matrix: (Units=GPa)
#
#
# Indices 1 2 3 4 5 6 
#
# 1 178.2599 40.5379 40.3958 21.8442 28.8327 5.2223
# 2 40.5379 67.4117 16.8513 8.3070 3.4724 -19.5494
# 3 40.3958 16.8513 103.6059 2.2920 27.0109 8.1090
# 4 21.8442 8.3070 2.2920 27.4625 -0.9865 2.8265
# 5 28.8327 3.4724 27.0109 -0.9865 38.9561 13.2357
# 6 5.2223 -19.5494 8.1090 2.8265 13.2357 55.1124
#
#
#
# Elastic Compliance Matrix: (Units=1/GPa)
#
#
# Indices 1 2 3 4 5 6 
#
# 1 0.008223 -0.003903 -0.001131 -0.005386 -0.004906 -0.000543
# 2 -0.003903 0.020653 -0.002338 -0.003810 -0.000245 0.008294
# 3 -0.001131 -0.002338 0.012427 0.000392 -0.007282 -0.000822
# 4 -0.005386 -0.003810 0.000392 0.042542 0.006727 -0.004696
# 5 -0.004906 -0.000245 -0.007282 0.006727 0.037203 -0.007830
# 6 -0.000543 0.008294 -0.000822 -0.004696 -0.007830 0.023381
#
#
# Mechanical properties :
#
#
# Convention : Reuss Voigt Hill
#
# Bulk Modulus (GPa) = 37.65128 60.53860 49.09494
# Shear Modulus (GPa) = 29.75703 41.07237 35.41470
#
# Velocity S-wave (km/s) = 3.35017 3.93593 3.65480
# Velocity P-wave (km/s) = 5.40056 6.59462 6.02723
#
# Compressibility (1/GPa) = 0.02655952
#
# Stress axis : x y z
#
# Youngs Moduli (GPa) = 121.60789 48.41799 80.46810
#
# Poissons Ratio (x) = 0.18899 0.09097
# Poissons Ratio (y) = 0.47468 0.18816
# Poissons Ratio (z) = 0.13748 0.11322
#
# Static dielectric constant tensor:
#      x y z
#    x 2.208710 0.051130 0.086700 
#    y 0.051130 2.041900 0.103430 
#    z 0.086700 0.103430 2.342650 
# 
# From -- ./inp_files/77966.got.cif
#   From: 2010.05.17/outbox.cif.g08.bks.cpg/sg2_39_cif.got.tgz:77966.got - 2010.06.03 11:33:40.
