data_PCOD9008641
_publ_section_title
;
Structure prediction by ZEFSAII (Michael W. Deem and Ramdas Pophale) SiO2 
 PCOD9008641
Probable space group: P -1
;
_chemical_formula_sum "Si O2"
_cell_formula_units_Z 14
_cell_length_a 9.232610
_cell_length_b 13.179732
_cell_length_c 8.129947
_cell_angle_alpha 126.115410
_cell_angle_beta 100.783554
_cell_angle_gamma 118.276871
_cell_volume 531.526635
_symmetry_space_group_name_H-M "P -1"
_symmetry_group_IT_number 2
_symmetry_cell_setting 'triclinic'
loop_
_space_group_symop_operation_xyz
x,y,z
-x,-y,-z
loop_
_atom_site_type_symbol
_atom_site_label
_atom_site_fract_x
_atom_site_fract_y
_atom_site_fract_z
Si Si1 0.592136 0.924727 0.520801
Si Si2 0.733602 0.132023 0.086837
Si Si3 0.386986 0.317288 0.133124
Si Si4 0.453503 0.660379 0.489212
Si Si5 0.851868 0.601815 0.333271
Si Si6 0.978369 0.813904 0.260910
Si Si7 0.990595 0.427476 0.168935
O O1 0.465386 0.721547 0.363441
O O2 0.500000 0.000000 0.500000
O O3 0.768484 0.993719 0.491979
O O4 0.686508 0.008542 0.805926
O O5 0.946141 0.239941 0.348294
O O6 0.818884 0.301421 0.157624
O O7 0.500000 0.000000 0.000000
O O8 0.408348 0.482841 0.309722
O O9 0.377777 0.233809 0.221268
O O10 0.615896 0.433013 0.201712
O O11 0.152693 0.167910 0.855131
O O12 0.235687 0.591071 0.440966
O O13 0.852538 0.711180 0.303401
O O14 0.927895 0.522963 0.179830
O O15 0.006813 0.696424 0.058836
#
# Coordination Sequence:
#
# PCOD9008641 Si02
#       7
#     2   2   2   2   2   2   2
#     4  11  24  43  67  95 131 172 216 273 331 384
#     4  11  23  36  60  98 129 161 213 276 328 373
#     4  10  23  40  67  97 130 173 220 262 323 392
#     4  10  21  43  68  92 131 173 218 263 326 395
#     4  12  22  41  67  95 133 168 226 274 312 383
#     4  10  23  42  62  97 131 173 217 264 328 389
#     4  10  21  39  65  93 123 175 222 267 323 375
#
# _framework density 26.339224999999999
#
# number of rings (size 3 to 8) (size 9 to 14) (size 15 to 20)
#    0.000    1.429    1.429    3.857    4.000    4.000 
#    0.000    0.714    0.000    0.000    0.000    0.000 
#    0.000    0.000    0.000    0.000    0.000    0.000 
#
# Total GULP energy -78035.679948 kJ/mol
# GULP energy per Si atom -5573.977139 kJ/mol
# Density = 2.627928 g / cm^3
# Si number density = 26.339225 Si / 1000 Ang^3
#
#
#
# Elastic Constant Matrix: (Units=GPa)
#
#
# Indices 1 2 3 4 5 6 
#
# 1 127.9690 35.4533 22.2837 -10.5104 23.3412 -16.5056
# 2 35.4533 175.4308 8.5406 -22.9537 26.3023 -21.6307
# 3 22.2837 8.5406 40.8416 -12.7743 18.3658 -12.7810
# 4 -10.5104 -22.9537 -12.7743 24.1649 -1.4775 8.8596
# 5 23.3412 26.3023 18.3658 -1.4775 52.0141 -3.3861
# 6 -16.5056 -21.6307 -12.7810 8.8596 -3.3861 41.3482
#
#
#
# Elastic Compliance Matrix: (Units=1/GPa)
#
#
# Indices 1 2 3 4 5 6 
#
# 1 0.009380 -0.001057 -0.002976 0.000643 -0.002480 0.001931
# 2 -0.001057 0.007788 0.004415 0.007910 -0.004606 0.002945
# 3 -0.002976 0.004415 0.040439 0.020451 -0.014068 0.008088
# 4 0.000643 0.007910 0.020451 0.060500 -0.009991 -0.003065
# 5 -0.002480 -0.004606 -0.014068 -0.009991 0.027131 -0.003386
# 6 0.001931 0.002945 0.008088 -0.003065 -0.003386 0.029375
#
#
# Mechanical properties :
#
#
# Convention : Reuss Voigt Hill
#
# Bulk Modulus (GPa) = 17.13174 52.97737 35.05456
# Shear Modulus (GPa) = 25.86583 42.03636 33.95110
#
# Velocity S-wave (km/s) = 3.13713 3.99928 3.59415
# Velocity P-wave (km/s) = 4.43176 6.44072 5.52826
#
# Compressibility (1/GPa) = 0.05837120
#
# Stress axis : x y z
#
# Youngs Moduli (GPa) = 106.61505 128.40986 24.72837
#
# Poissons Ratio (x) = 0.13568 0.07359
# Poissons Ratio (y) = 0.11265 -0.10918
# Poissons Ratio (z) = 0.31730 -0.56694
#
# Static dielectric constant tensor:
#      x y z
#    x 2.009290 0.006460 -0.031290 
#    y 0.006460 2.205860 0.201230 
#    z -0.031290 0.201230 2.507020 
# 
# From -- ./inp_files/190294.got.cif
#   From: 2010.05.17/outbox.cif.g08.bks.cpg/sg2_96_cif.got.tgz:190294.got - 2010.06.03 11:33:40.
