data_PCOD9008683
_publ_section_title
;
Structure prediction by ZEFSAII (Michael W. Deem and Ramdas Pophale) SiO2 
 PCOD9008683
Probable space group: P -1
;
_chemical_formula_sum "Si O2"
_cell_formula_units_Z 14
_cell_length_a 11.929561
_cell_length_b 15.813987
_cell_length_c 10.883125
_cell_angle_alpha 45.177041
_cell_angle_beta 37.302451
_cell_angle_gamma 27.598265
_cell_volume 576.423370
_symmetry_space_group_name_H-M "P -1"
_symmetry_group_IT_number 2
_symmetry_cell_setting 'triclinic'
loop_
_space_group_symop_operation_xyz
x,y,z
-x,-y,-z
loop_
_atom_site_type_symbol
_atom_site_label
_atom_site_fract_x
_atom_site_fract_y
_atom_site_fract_z
Si Si1 0.199609 0.375794 0.125901
Si Si2 0.302328 0.976286 0.829114
Si Si3 0.020327 0.872874 0.279592
Si Si4 0.649334 0.171290 0.473795
Si Si5 0.060701 0.340480 0.733192
Si Si6 0.407265 0.405845 0.673433
Si Si7 0.622228 0.499228 0.770716
O O1 0.379890 0.187764 0.231815
O O2 0.134141 0.512551 0.139530
O O3 0.908150 0.458817 0.248263
O O4 0.370100 0.354636 0.887408
O O5 0.251576 0.013414 0.689765
O O6 0.130566 0.166374 0.845623
O O7 0.172329 0.914220 0.047760
O O8 0.235016 0.660767 0.285674
O O9 0.908900 0.963109 0.417894
O O10 0.364012 0.246025 0.600350
O O11 0.614147 0.229354 0.584600
O O12 0.619949 0.306316 0.281433
O O13 0.888532 0.443172 0.650882
O O14 0.500000 0.500000 0.500000
O O15 0.500000 0.500000 0.000000
#
# Coordination Sequence:
#
# PCOD9008683 Si02
#       7
#     2   2   2   2   2   2   2
#     4  10  22  46  68  90 131 170 219 271 323 378
#     4  10  21  39  65  94 127 170 202 258 330 388
#     4  10  22  37  62 100 130 160 212 256 314 403
#     4  11  23  40  60  93 129 164 216 266 321 379
#     4  10  22  38  64  94 128 163 205 266 325 390
#     4  10  25  43  68  94 122 176 228 272 317 377
#     4  11  22  37  65  95 126 173 204 255 329 391
#
# _framework density 24.287701999999999
#
# number of rings (size 3 to 8) (size 9 to 14) (size 15 to 20)
#    0.000    1.714    0.000    4.714    6.000    5.714 
#    0.000    8.571    0.000    0.000    0.000    0.000 
#    0.000    0.000    0.000    0.000    0.000    0.000 
#
# Total GULP energy -78323.239198 kJ/mol
# GULP energy per Si atom -5594.517086 kJ/mol
# Density = 2.423242 g / cm^3
# Si number density = 24.287702 Si / 1000 Ang^3
#
#
#
# Elastic Constant Matrix: (Units=GPa)
#
#
# Indices 1 2 3 4 5 6 
#
# 1 131.1840 61.3970 34.8858 7.6942 2.6016 17.9987
# 2 61.3970 124.6294 38.9505 14.9278 16.7022 29.6036
# 3 34.8858 38.9505 88.4256 12.4036 13.2496 31.5932
# 4 7.6942 14.9278 12.4036 36.9614 10.0175 7.8244
# 5 2.6016 16.7022 13.2496 10.0175 36.1921 5.6420
# 6 17.9987 29.6036 31.5932 7.8244 5.6420 55.0840
#
#
#
# Elastic Compliance Matrix: (Units=1/GPa)
#
#
# Indices 1 2 3 4 5 6 
#
# 1 0.010410 -0.004732 -0.002475 -0.000127 0.002324 0.000341
# 2 -0.004732 0.012397 -0.001486 -0.001727 -0.003793 -0.003630
# 3 -0.002475 -0.001486 0.016259 -0.001902 -0.003456 -0.007094
# 4 -0.000127 -0.001727 -0.001902 0.030574 -0.006711 -0.001595
# 5 0.002324 -0.003793 -0.003456 -0.006711 0.032194 0.000917
# 6 0.000341 -0.003630 -0.007094 -0.001595 0.000917 0.024195
#
#
# Mechanical properties :
#
#
# Convention : Reuss Voigt Hill
#
# Bulk Modulus (GPa) = 46.12576 68.30061 57.21318
# Shear Modulus (GPa) = 33.19121 39.58121 36.38621
#
# Velocity S-wave (km/s) = 3.70075 4.04131 3.87477
# Velocity P-wave (km/s) = 6.10683 7.06815 6.60500
#
# Compressibility (1/GPa) = 0.02167986
#
# Stress axis : x y z
#
# Youngs Moduli (GPa) = 96.05788 80.66499 61.50362
#
# Poissons Ratio (x) = 0.38173 0.15221
# Poissons Ratio (y) = 0.45457 0.09141
# Poissons Ratio (z) = 0.23772 0.11989
#
# Static dielectric constant tensor:
#      x y z
#    x 1.964370 -0.036510 -0.052010 
#    y -0.036510 1.924000 -0.014410 
#    z -0.052010 -0.014410 2.024050 
# 
# From -- ./inp_files/269722.got.cif
#   From: 2010.05.17/outbox.cif.g08.bks.cpg/sg2_135_cif.got.tgz:269722.got - 2010.06.03 11:33:40.
