data_PCOD9008056
_publ_section_title
;
Structure prediction by ZEFSAII (Michael W. Deem and Ramdas Pophale) SiO2 
 PCOD9008056
Probable space group: P -1
;
_chemical_formula_sum "Si O2"
_cell_formula_units_Z 16
_cell_length_a 14.144935
_cell_length_b 6.418506
_cell_length_c 9.189637
_cell_angle_alpha 101.070952
_cell_angle_beta 91.391513
_cell_angle_gamma 116.126967
_cell_volume 729.499943
_symmetry_space_group_name_H-M "P -1"
_symmetry_group_IT_number 2
_symmetry_cell_setting 'triclinic'
loop_
_space_group_symop_operation_xyz
x,y,z
-x,-y,-z
loop_
_atom_site_type_symbol
_atom_site_label
_atom_site_fract_x
_atom_site_fract_y
_atom_site_fract_z
Si Si1 0.316911 0.210817 0.642703
Si Si2 0.528368 0.186059 0.721089
Si Si3 0.780854 0.168562 0.633858
Si Si4 0.098936 0.451022 0.534708
Si Si5 0.450216 0.672046 0.579496
Si Si6 0.907235 0.935226 0.739709
Si Si7 0.261177 0.480388 0.122941
Si Si8 0.858837 0.745159 0.199879
O O1 0.411915 0.176004 0.715915
O O2 0.355710 0.489714 0.650409
O O3 0.207118 0.126924 0.713500
O O4 0.298160 0.086875 0.467282
O O5 0.575323 0.248378 0.566016
O O6 0.611159 0.406799 0.848613
O O7 0.512606 0.916843 0.704487
O O8 0.806499 0.330798 0.513191
O O9 0.751597 0.301069 0.776178
O O10 0.877107 0.130898 0.697889
O O11 0.084738 0.218451 0.414929
O O12 0.119489 0.407410 0.694736
O O13 0.000000 0.500000 0.500000
O O14 0.500000 0.500000 0.500000
O O15 0.811599 0.753705 0.814356
O O16 0.025234 0.065635 0.827371
O O17 0.213228 0.416421 0.953299
#
# Coordination Sequence:
#
# PCOD9008056 Si02
#       8
#     2   2   2   2   2   2   2   2
#     4  11  23  39  70  98 129 174 229 272 321 388
#     4  10  21  39  63  95 133 175 223 266 324 395
#     4  11  22  41  69  97 128 177 222 273 327 396
#     4  11  22  41  70  94 131 171 225 279 324 390
#     4   9  18  36  65  94 123 169 227 274 311 379
#     4  11  23  46  69  95 132 179 223 268 333 405
#     4  11  26  43  65  99 140 177 216 272 337 396
#     4  12  25  44  65 104 139 169 218 280 341 392
#
# _framework density 21.932832000000001
#
# number of rings (size 3 to 8) (size 9 to 14) (size 15 to 20)
#    0.000    1.250    2.500    4.500    3.500    2.000 
#    4.500    0.625    0.000    0.000    0.000    0.000 
#    0.000    0.000    0.000    0.000    0.000    0.000 
#
# Total GULP energy -89271.941091 kJ/mol
# GULP energy per Si atom -5579.496318 kJ/mol
# Density = 2.188291 g / cm^3
# Si number density = 21.932832 Si / 1000 Ang^3
#
#
#
# Elastic Constant Matrix: (Units=GPa)
#
#
# Indices 1 2 3 4 5 6 
#
# 1 127.6466 25.7952 21.0009 4.9000 18.6434 -2.0009
# 2 25.7952 66.3038 15.3587 13.4928 1.5522 2.3012
# 3 21.0009 15.3587 107.8047 10.1284 24.1615 -2.0985
# 4 4.9000 13.4928 10.1284 24.4668 8.6054 7.9172
# 5 18.6434 1.5522 24.1615 8.6054 27.9800 10.8459
# 6 -2.0009 2.3012 -2.0985 7.9172 10.8459 33.1601
#
#
#
# Elastic Compliance Matrix: (Units=1/GPa)
#
#
# Indices 1 2 3 4 5 6 
#
# 1 0.009859 -0.004309 0.000498 0.002204 -0.008695 0.003243
# 2 -0.004309 0.019533 -0.002811 -0.011073 0.008349 -0.001880
# 3 0.000498 -0.002811 0.012686 -0.001029 -0.012949 0.005509
# 4 0.002204 -0.011073 -0.001029 0.054250 -0.013689 -0.007639
# 5 -0.008695 0.008349 -0.012949 -0.013689 0.064064 -0.019609
# 6 0.003243 -0.001880 0.005509 -0.007639 -0.019609 0.039069
#
#
# Mechanical properties :
#
#
# Convention : Reuss Voigt Hill
#
# Bulk Modulus (GPa) = 34.68048 47.34052 41.01050
# Shear Modulus (GPa) = 22.49072 33.09472 27.79272
#
# Velocity S-wave (km/s) = 3.20572 3.88869 3.56360
# Velocity P-wave (km/s) = 5.43586 6.46480 5.97253
#
# Compressibility (1/GPa) = 0.02883466
#
# Stress axis : x y z
#
# Youngs Moduli (GPa) = 101.42915 51.19624 78.82946
#
# Poissons Ratio (x) = 0.22058 -0.03927
# Poissons Ratio (y) = 0.43702 0.22158
# Poissons Ratio (z) = -0.05052 0.14391
#
# Static dielectric constant tensor:
#      x y z
#    x 1.935590 0.058530 0.024830 
#    y 0.058530 1.881230 -0.003370 
#    z 0.024830 -0.003370 1.774140 
# 
# From -- ./inp_files/289049.got.cif
#   From: 2010.05.17/outbox.cif.g08.bks.cpg/sg2_145_cif.got.tgz:289049.got - 2010.06.03 11:33:40.
