data_PCOD9008255
_publ_section_title
;
Structure prediction by ZEFSAII (Michael W. Deem and Ramdas Pophale) SiO2 
 PCOD9008255
Probable space group: P -1
;
_chemical_formula_sum "Si O2"
_cell_formula_units_Z 16
_cell_length_a 9.348990
_cell_length_b 22.139052
_cell_length_c 9.973067
_cell_angle_alpha 27.733323
_cell_angle_beta 56.001465
_cell_angle_gamma 58.163993
_cell_volume 793.539827
_symmetry_space_group_name_H-M "P -1"
_symmetry_group_IT_number 2
_symmetry_cell_setting 'triclinic'
loop_
_space_group_symop_operation_xyz
x,y,z
-x,-y,-z
loop_
_atom_site_type_symbol
_atom_site_label
_atom_site_fract_x
_atom_site_fract_y
_atom_site_fract_z
Si Si1 0.376016 0.387677 0.326196
Si Si2 0.367676 0.418201 0.805771
Si Si3 0.762306 0.684360 0.181049
Si Si4 0.829013 0.480121 0.044997
Si Si5 0.399837 0.841078 0.748414
Si Si6 0.917747 0.143257 0.300505
Si Si7 0.711631 0.210382 0.537720
Si Si8 0.563050 0.097871 0.092382
O O1 0.290994 0.396308 0.501846
O O2 0.514035 0.260752 0.497970
O O3 0.500000 0.500000 0.000000
O O4 0.221737 0.409575 0.256489
O O5 0.500000 0.500000 0.500000
O O6 0.227349 0.391126 0.818106
O O7 0.312095 0.500620 0.802112
O O8 0.461748 0.282280 0.072258
O O9 0.600698 0.793986 0.036578
O O10 0.933850 0.757339 0.969514
O O11 0.810273 0.338615 0.270397
O O12 0.000000 0.500000 0.000000
O O13 0.229274 0.810612 0.819855
O O14 0.354716 0.888286 0.830911
O O15 0.487148 0.958423 0.399626
O O16 0.819539 0.139743 0.501123
O O17 0.000000 0.000000 0.500000
O O18 0.687318 0.127394 0.847297
#
# Coordination Sequence:
#
# PCOD9008255 Si02
#       8
#     2   2   2   2   2   2   2   2
#     4   9  19  39  62  89 120 164 206 248 307 376
#     4  11  22  40  67  91 120 167 209 247 310 378
#     4  10  21  39  64  91 128 162 204 262 312 369
#     4  11  22  39  60  92 126 157 202 263 311 365
#     4  10  21  39  67  92 125 163 215 256 308 379
#     4  12  24  41  60  95 131 163 205 263 322 367
#     4  10  22  41  64  86 127 166 210 258 308 379
#     4   9  19  41  65  87 120 169 213 255 306 369
#
# _framework density 20.162818000000001
#
# number of rings (size 3 to 8) (size 9 to 14) (size 15 to 20)
#    0.000    1.750    1.250    4.500    0.000    3.500 
#    2.250    4.375    0.000    0.000    0.000    0.000 
#    0.000    0.000    0.000    0.000    0.000    0.000 
#
# Total GULP energy -89326.713305 kJ/mol
# GULP energy per Si atom -5582.919582 kJ/mol
# Density = 2.011693 g / cm^3
# Si number density = 20.162818 Si / 1000 Ang^3
#
#
#
# Elastic Constant Matrix: (Units=GPa)
#
#
# Indices 1 2 3 4 5 6 
#
# 1 120.3194 15.7457 18.4072 12.4810 -4.9926 22.5173
# 2 15.7457 101.8050 19.7837 16.1511 6.1902 12.4952
# 3 18.4072 19.7837 85.2415 20.5010 3.5188 7.5868
# 4 12.4810 16.1511 20.5010 27.7081 4.8946 -2.8637
# 5 -4.9926 6.1902 3.5188 4.8946 21.6827 -1.4133
# 6 22.5173 12.4952 7.5868 -2.8637 -1.4133 17.9376
#
#
#
# Elastic Compliance Matrix: (Units=1/GPa)
#
#
# Indices 1 2 3 4 5 6 
#
# 1 0.012577 0.001486 0.000741 -0.009567 0.003312 -0.018403
# 2 0.001486 0.012641 0.000095 -0.009018 -0.002049 -0.012312
# 3 0.000741 0.000095 0.015493 -0.012827 -0.000101 -0.009605
# 4 -0.009567 -0.009018 -0.012827 0.060105 -0.008989 0.032605
# 5 0.003312 -0.002049 -0.000101 -0.008989 0.049498 -0.000222
# 6 -0.018403 -0.012312 -0.009605 0.032605 -0.000222 0.096678
#
#
# Mechanical properties :
#
#
# Convention : Reuss Voigt Hill
#
# Bulk Modulus (GPa) = 22.04808 46.13767 34.09287
# Shear Modulus (GPa) = 19.41990 30.36097 24.89044
#
# Velocity S-wave (km/s) = 3.10684 3.88466 3.51732
# Velocity P-wave (km/s) = 4.88146 6.56148 5.78281
#
# Compressibility (1/GPa) = 0.04535543
#
# Stress axis : x y z
#
# Youngs Moduli (GPa) = 79.50829 79.10813 64.54327
#
# Poissons Ratio (x) = -0.11754 -0.04785
# Poissons Ratio (y) = -0.11814 -0.00611
# Poissons Ratio (z) = -0.05895 -0.00749
#
# Static dielectric constant tensor:
#      x y z
#    x 1.767080 0.002110 0.012030 
#    y 0.002110 1.748190 0.002830 
#    z 0.012030 0.002830 1.701710 
# 
# From -- ./inp_files/178213.got.cif
#   From: 2010.05.17/outbox.cif.g08.bks.cpg/sg2_90_cif.got.tgz:178213.got - 2010.06.03 11:33:40.
