data_PCOD9008172
_publ_section_title
;
Structure prediction by ZEFSAII (Michael W. Deem and Ramdas Pophale) SiO2 
 PCOD9008172
Probable space group: P -1
;
_chemical_formula_sum "Si O2"
_cell_formula_units_Z 16
_cell_length_a 11.129312
_cell_length_b 15.084777
_cell_length_c 14.338913
_cell_angle_alpha 40.300794
_cell_angle_beta 39.770462
_cell_angle_gamma 32.149102
_cell_volume 773.909017
_symmetry_space_group_name_H-M "P -1"
_symmetry_group_IT_number 2
_symmetry_cell_setting 'triclinic'
loop_
_space_group_symop_operation_xyz
x,y,z
-x,-y,-z
loop_
_atom_site_type_symbol
_atom_site_label
_atom_site_fract_x
_atom_site_fract_y
_atom_site_fract_z
Si Si1 0.280954 0.847264 0.358162
Si Si2 0.385198 0.382948 0.915623
Si Si3 0.088175 0.797543 0.330261
Si Si4 0.894657 0.583365 0.597956
Si Si5 0.687109 0.791075 0.057623
Si Si6 0.670776 0.198100 0.245274
Si Si7 0.166727 0.764443 0.683413
Si Si8 0.848342 0.407120 0.936382
O O1 0.147178 0.819316 0.382256
O O2 0.548859 0.746102 0.242171
O O3 0.279971 0.776180 0.514416
O O4 0.115108 0.061208 0.292153
O O5 0.668032 0.283200 0.808716
O O6 0.304212 0.284033 0.988502
O O7 0.237132 0.574071 0.801345
O O8 0.321499 0.421755 0.032064
O O9 0.013889 0.674053 0.477099
O O10 0.867826 0.992515 0.268202
O O11 0.602702 0.726956 0.658059
O O12 0.000000 0.500000 0.500000
O O13 0.935899 0.446687 0.760972
O O14 0.925539 0.724779 0.023492
O O15 0.500000 0.000000 0.000000
O O16 0.717459 0.219314 0.307757
O O17 0.722375 0.318079 0.064553
#
# Coordination Sequence:
#
# PCOD9008172 Si02
#       8
#     2   2   2   2   2   2   2   2
#     4   9  20  35  61  91 128 159 204 257 327 374
#     4  10  21  39  64  88 130 163 207 255 320 386
#     4  10  22  41  65  92 124 168 212 266 316 374
#     4  12  26  43  66  94 124 165 225 270 308 369
#     4  11  22  37  59  95 134 165 207 253 321 387
#     4  10  22  45  63  87 133 167 212 263 318 376
#     4   9  18  36  62  90 122 165 203 256 318 370
#     4  11  24  41  65  93 125 171 214 257 323 377
#
# _framework density 20.674264000000001
#
# number of rings (size 3 to 8) (size 9 to 14) (size 15 to 20)
#    0.000    1.750    0.000    5.625    5.250    1.000 
#    4.500    5.000    0.000    0.000    0.000    0.000 
#    0.000    0.000    0.000    0.000    0.000    0.000 
#
# Total GULP energy -89343.785463 kJ/mol
# GULP energy per Si atom -5583.986591 kJ/mol
# Density = 2.062721 g / cm^3
# Si number density = 20.674264 Si / 1000 Ang^3
#
#
#
# Elastic Constant Matrix: (Units=GPa)
#
#
# Indices 1 2 3 4 5 6 
#
# 1 41.0250 27.5800 39.9245 5.9173 -10.2589 -6.3957
# 2 27.5800 91.0342 40.0684 3.2109 -1.4653 3.3713
# 3 39.9245 40.0684 104.6547 9.1269 8.4170 7.8540
# 4 5.9173 3.2109 9.1269 29.7933 -3.9238 -7.6732
# 5 -10.2589 -1.4653 8.4170 -3.9238 39.8056 4.8468
# 6 -6.3957 3.3713 7.8540 -7.6732 4.8468 36.2955
#
#
#
# Elastic Compliance Matrix: (Units=1/GPa)
#
#
# Indices 1 2 3 4 5 6 
#
# 1 0.056284 -0.008135 -0.020891 0.001780 0.017183 0.013276
# 2 -0.008135 0.014492 -0.002222 0.000066 -0.000822 -0.002175
# 3 -0.020891 -0.002222 0.020129 -0.004968 -0.009281 -0.007641
# 4 0.001780 0.000066 -0.004968 0.037529 0.004144 0.008763
# 5 0.017183 -0.000822 -0.009281 0.004144 0.031677 0.001759
# 6 0.013276 -0.002175 -0.007641 0.008763 0.001759 0.033364
#
#
# Mechanical properties :
#
#
# Convention : Reuss Voigt Hill
#
# Bulk Modulus (GPa) = 35.19804 50.20664 42.70234
# Shear Modulus (GPa) = 18.83665 29.78828 24.31247
#
# Velocity S-wave (km/s) = 3.02174 3.79996 3.43297
# Velocity P-wave (km/s) = 5.40709 6.60229 6.03435
#
# Compressibility (1/GPa) = 0.02841068
#
# Stress axis : x y z
#
# Youngs Moduli (GPa) = 17.76694 69.00217 49.68070
#
# Poissons Ratio (x) = 0.56133 1.03786
# Poissons Ratio (y) = 0.14453 0.11037
# Poissons Ratio (z) = 0.37116 0.15329
#
# Static dielectric constant tensor:
#      x y z
#    x 1.718560 -0.016960 -0.011830 
#    y -0.016960 1.770260 0.010160 
#    z -0.011830 0.010160 1.771070 
# 
# From -- ./inp_files/521450.got.cif
#   From: 2010.05.17/outbox.cif.g08.bks.cpg/sg2_261_cif.got.tgz:521450.got - 2010.06.03 11:33:40.
