data_PCOD9008998
_publ_section_title
;
Structure prediction by ZEFSAII (Michael W. Deem and Ramdas Pophale) SiO2 
 PCOD9008998
Probable space group: P -1
;
_chemical_formula_sum "Si O2"
_cell_formula_units_Z 14
_cell_length_a 6.909276
_cell_length_b 16.503596
_cell_length_c 15.908257
_cell_angle_alpha 152.292295
_cell_angle_beta 40.097867
_cell_angle_gamma 130.254434
_cell_volume 540.323658
_symmetry_space_group_name_H-M "P -1"
_symmetry_group_IT_number 2
_symmetry_cell_setting 'triclinic'
loop_
_space_group_symop_operation_xyz
x,y,z
-x,-y,-z
loop_
_atom_site_type_symbol
_atom_site_label
_atom_site_fract_x
_atom_site_fract_y
_atom_site_fract_z
Si Si1 0.760205 0.950477 0.937213
Si Si2 0.705887 0.768260 0.149304
Si Si3 0.439819 0.226599 0.392653
Si Si4 0.798954 0.362513 0.720869
Si Si5 0.302422 0.265104 0.069276
Si Si6 0.750970 0.350100 0.551438
Si Si7 0.097826 0.919158 0.302809
O O1 0.706662 0.823505 0.917163
O O2 0.044787 0.834905 0.697202
O O3 0.500000 0.000000 0.000000
O O4 0.732931 0.142650 0.167293
O O5 0.346497 0.767142 0.286443
O O6 0.869808 0.875155 0.263072
O O7 0.796951 0.558710 0.934543
O O8 0.777250 0.811557 0.067758
O O9 0.531127 0.356501 0.551634
O O10 0.138228 0.312132 0.527537
O O11 0.307952 0.063775 0.331959
O O12 0.596728 0.348812 0.692256
O O13 0.128476 0.459345 0.312728
O O14 0.667686 0.256908 0.927148
O O15 0.000000 0.000000 0.500000
#
# Coordination Sequence:
#
# PCOD9008998 Si02
#       7
#     2   2   2   2   2   2   2
#     4  11  23  45  67  96 134 171 227 281 335 394
#     4  10  22  41  65  97 137 176 220 270 335 396
#     4  11  23  38  64  94 130 174 219 272 332 389
#     4  10  21  39  66  96 132 177 219 271 327 398
#     4  10  24  43  67  98 132 176 222 277 330 401
#     4  11  22  43  68  95 134 175 223 271 333 400
#     4  11  23  40  63 100 141 173 220 272 332 400
#
# _framework density 25.910395000000001
#
# number of rings (size 3 to 8) (size 9 to 14) (size 15 to 20)
#    0.000    1.429    1.429    3.429    0.000    4.571 
#    5.143    6.429    0.000    0.000    0.000    0.000 
#    0.000    0.000    0.000    0.000    0.000    0.000 
#
# Total GULP energy -77964.929458 kJ/mol
# GULP energy per Si atom -5568.923533 kJ/mol
# Density = 2.585142 g / cm^3
# Si number density = 25.910395 Si / 1000 Ang^3
#
#
#
# Elastic Constant Matrix: (Units=GPa)
#
#
# Indices 1 2 3 4 5 6 
#
# 1 136.9273 34.4243 46.5375 -6.4461 37.5839 -21.0981
# 2 34.4243 84.5002 38.9772 -1.5012 24.8242 -22.9122
# 3 46.5375 38.9772 158.8251 11.3355 22.0861 1.1069
# 4 -6.4461 -1.5012 11.3355 25.2637 1.4617 -0.1625
# 5 37.5839 24.8242 22.0861 1.4617 57.5054 1.7940
# 6 -21.0981 -22.9122 1.1069 -0.1625 1.7940 32.0000
#
#
#
# Elastic Compliance Matrix: (Units=1/GPa)
#
#
# Indices 1 2 3 4 5 6 
#
# 1 0.011762 0.001545 -0.003201 0.005026 -0.007547 0.009421
# 2 0.001545 0.020392 -0.004678 0.004309 -0.008634 0.016287
# 3 -0.003201 -0.004678 0.008630 -0.005069 0.001108 -0.005846
# 4 0.005026 0.004309 -0.005069 0.043703 -0.004529 0.007050
# 5 -0.007547 -0.008634 0.001108 -0.004529 0.026135 -0.012684
# 6 0.009421 0.016287 -0.005846 0.007050 -0.012684 0.050072
#
#
# Mechanical properties :
#
#
# Convention : Reuss Voigt Hill
#
# Bulk Modulus (GPa) = 35.56344 68.90339 52.23341
# Shear Modulus (GPa) = 27.36245 40.30804 33.83525
#
# Velocity S-wave (km/s) = 3.25320 3.94848 3.61758
# Velocity P-wave (km/s) = 5.27887 6.88752 6.13614
#
# Compressibility (1/GPa) = 0.02811877
#
# Stress axis : x y z
#
# Youngs Moduli (GPa) = 85.01880 49.03983 115.86886
#
# Poissons Ratio (x) = -0.07579 0.37085
# Poissons Ratio (y) = -0.13140 0.54198
# Poissons Ratio (z) = 0.27211 0.22939
#
# Static dielectric constant tensor:
#      x y z
#    x 2.110820 0.030920 -0.102080 
#    y 0.030920 2.105710 -0.029200 
#    z -0.102080 -0.029200 2.176640 
# 
# From -- ./inp_files/372971.got.cif
#   From: 2010.05.17/outbox.cif.g08.bks.cpg/sg2_187_cif.got.tgz:372971.got - 2010.06.03 11:33:40.
