data_PCOD9008132
_publ_section_title
;
Structure prediction by ZEFSAII (Michael W. Deem and Ramdas Pophale) SiO2 
 PCOD9008132
Probable space group: P -1
;
_chemical_formula_sum "Si O2"
_cell_formula_units_Z 16
_cell_length_a 9.405143
_cell_length_b 10.786568
_cell_length_c 16.706260
_cell_angle_alpha 46.438300
_cell_angle_beta 125.665075
_cell_angle_gamma 91.605173
_cell_volume 770.872022
_symmetry_space_group_name_H-M "P -1"
_symmetry_group_IT_number 2
_symmetry_cell_setting 'triclinic'
loop_
_space_group_symop_operation_xyz
x,y,z
-x,-y,-z
loop_
_atom_site_type_symbol
_atom_site_label
_atom_site_fract_x
_atom_site_fract_y
_atom_site_fract_z
Si Si1 0.615396 0.175611 0.811156
Si Si2 0.034576 0.678942 0.951413
Si Si3 0.292962 0.528821 0.958191
Si Si4 0.313674 0.681044 0.515766
Si Si5 0.471439 0.928868 0.437337
Si Si6 0.984909 0.007767 0.396759
Si Si7 0.027244 0.957024 0.145103
Si Si8 0.556623 0.036309 0.249542
O O1 0.428135 0.425625 0.667954
O O2 0.497025 0.086488 0.771248
O O3 0.767807 0.169978 0.794227
O O4 0.800802 0.011363 0.012331
O O5 0.260056 0.580077 0.018819
O O6 0.796400 0.895210 0.744324
O O7 0.044107 0.795998 0.979251
O O8 0.000000 0.500000 0.000000
O O9 0.073864 0.759386 0.748855
O O10 0.500000 0.500000 0.000000
O O11 0.341976 0.299731 0.062371
O O12 0.509271 0.702410 0.554371
O O13 0.126492 0.815029 0.322977
O O14 0.194552 0.808382 0.503345
O O15 0.583085 0.950737 0.387626
O O16 0.500000 0.000000 0.500000
O O17 0.772750 0.014348 0.305073
O O18 0.000000 0.000000 0.500000
#
# Coordination Sequence:
#
# PCOD9008132 Si02
#       8
#     2   2   2   2   2   2   2   2
#     4  11  23  42  66  96 132 178 218 262 324 389
#     4  11  19  36  62  92 123 155 211 269 317 377
#     4  10  21  39  64  84 128 164 202 268 324 374
#     4  11  23  44  67  93 136 172 214 272 323 390
#     4  11  22  36  61  97 124 160 215 270 325 377
#     4  11  24  44  66  96 130 166 215 271 344 386
#     4  10  22  40  63  97 128 171 218 265 324 386
#     4  11  23  42  62  95 133 167 221 268 317 398
#
# _framework density 20.755714999999999
#
# number of rings (size 3 to 8) (size 9 to 14) (size 15 to 20)
#    0.000    1.250    6.250    1.125    1.750    2.500 
#    2.250    0.625    0.000    0.000    0.000    0.000 
#    0.000    0.000    0.000    0.000    0.000    0.000 
#
# Total GULP energy -89125.052322 kJ/mol
# GULP energy per Si atom -5570.315770 kJ/mol
# Density = 2.070847 g / cm^3
# Si number density = 20.755715 Si / 1000 Ang^3
#
#
#
# Elastic Constant Matrix: (Units=GPa)
#
#
# Indices 1 2 3 4 5 6 
#
# 1 57.6729 10.1560 2.0227 -10.1379 -0.2247 -8.6839
# 2 10.1560 110.6034 39.3974 -14.5501 -4.8607 1.1309
# 3 2.0227 39.3974 55.3303 -9.0444 -1.3640 3.3216
# 4 -10.1379 -14.5501 -9.0444 46.1397 -1.1739 7.8579
# 5 -0.2247 -4.8607 -1.3640 -1.1739 18.7491 -0.8983
# 6 -8.6839 1.1309 3.3216 7.8579 -0.8983 40.2813
#
#
#
# Elastic Compliance Matrix: (Units=1/GPa)
#
#
# Indices 1 2 3 4 5 6 
#
# 1 0.018663 -0.001597 0.000776 0.003178 0.000227 0.003389
# 2 -0.001597 0.012612 -0.008492 0.002090 0.002747 -0.000345
# 3 0.000776 -0.008492 0.024651 0.002684 -0.000334 -0.002158
# 4 0.003178 0.002090 0.002684 0.024342 0.002093 -0.004297
# 5 0.000227 0.002747 -0.000334 0.002093 0.054196 0.000800
# 6 0.003389 -0.000345 -0.002158 -0.004297 0.000800 0.026600
#
#
# Mechanical properties :
#
#
# Convention : Reuss Voigt Hill
#
# Bulk Modulus (GPa) = 26.80829 36.30651 31.55740
# Shear Modulus (GPa) = 26.02506 32.50271 29.26389
#
# Velocity S-wave (km/s) = 3.54485 3.96152 3.75896
# Velocity P-wave (km/s) = 5.44966 6.20122 5.83755
#
# Compressibility (1/GPa) = 0.03730189
#
# Stress axis : x y z
#
# Youngs Moduli (GPa) = 53.58199 79.28963 40.56558
#
# Poissons Ratio (x) = 0.12661 -0.03149
# Poissons Ratio (y) = 0.08556 0.34447
# Poissons Ratio (z) = -0.04160 0.67331
#
# Static dielectric constant tensor:
#      x y z
#    x 1.824140 0.044290 -0.048430 
#    y 0.044290 1.847110 0.012480 
#    z -0.048430 0.012480 1.808860 
# 
# From -- ./inp_files/494522.got.cif
#   From: 2010.05.17/outbox.cif.g08.bks.cpg/sg2_248_cif.got.tgz:494522.got - 2010.06.03 11:33:40.
