data_PCOD9008350
_publ_section_title
;
Structure prediction by ZEFSAII (Michael W. Deem and Ramdas Pophale) SiO2 
 PCOD9008350
Probable space group: P -1
;
_chemical_formula_sum "Si O2"
_cell_formula_units_Z 16
_cell_length_a 9.555913
_cell_length_b 12.510446
_cell_length_c 18.830274
_cell_angle_alpha 27.357241
_cell_angle_beta 60.653752
_cell_angle_gamma 48.139093
_cell_volume 735.009341
_symmetry_space_group_name_H-M "P -1"
_symmetry_group_IT_number 2
_symmetry_cell_setting 'triclinic'
loop_
_space_group_symop_operation_xyz
x,y,z
-x,-y,-z
loop_
_atom_site_type_symbol
_atom_site_label
_atom_site_fract_x
_atom_site_fract_y
_atom_site_fract_z
Si Si1 0.137446 0.662523 0.589322
Si Si2 0.471298 0.744685 0.914845
Si Si3 0.512050 0.315623 0.890074
Si Si4 0.953079 0.214507 0.617820
Si Si5 0.766663 0.795714 0.056267
Si Si6 0.300743 0.232413 0.562231
Si Si7 0.304181 0.895888 0.518506
Si Si8 0.916248 0.417809 0.006007
O O1 0.160785 0.681970 0.489185
O O2 0.235580 0.357650 0.781726
O O3 0.232012 0.800572 0.525967
O O4 0.902841 0.834948 0.560295
O O5 0.328722 0.046741 0.734465
O O6 0.500000 0.500000 0.000000
O O7 0.423941 0.726701 0.019118
O O8 0.688907 0.666071 0.911067
O O9 0.369472 0.217662 0.961249
O O10 0.392966 0.643340 0.703678
O O11 0.691348 0.110457 0.913139
O O12 0.804783 0.442038 0.579116
O O13 0.141347 0.227658 0.558394
O O14 0.036342 0.890072 0.805771
O O15 0.978703 0.619008 0.072515
O O16 0.513787 0.094089 0.555490
O O17 0.000000 0.500000 0.000000
#
# Coordination Sequence:
#
# PCOD9008350 Si02
#       8
#     2   2   2   2   2   2   2   2
#     4  10  22  39  64  94 124 158 216 268 314 374
#     4  12  24  43  65  95 132 171 215 266 323 386
#     4  10  21  40  63  92 128 163 210 266 320 382
#     4  11  25  44  63  93 133 173 213 266 319 387
#     4  10  21  39  64  94 124 164 211 267 324 374
#     4  11  25  44  63  92 135 175 212 256 326 395
#     4  10  22  39  65  91 123 164 211 265 319 379
#     4  12  24  42  70  96 127 169 221 271 322 377
#
# _framework density 21.768432000000001
#
# number of rings (size 3 to 8) (size 9 to 14) (size 15 to 20)
#    0.000    1.250    2.500    3.000    5.250    1.000 
#    2.250    0.625    0.000    0.000    0.000    0.000 
#    0.000    0.000    0.000    0.000    0.000    0.000 
#
# Total GULP energy -89393.328032 kJ/mol
# GULP energy per Si atom -5587.083002 kJ/mol
# Density = 2.171889 g / cm^3
# Si number density = 21.768432 Si / 1000 Ang^3
#
#
#
# Elastic Constant Matrix: (Units=GPa)
#
#
# Indices 1 2 3 4 5 6 
#
# 1 -3.4519 -123.2016 9.4717 -17.2062 18.1985 84.1604
# 2 -123.2016 -240.1476 18.1356 -47.7514 10.8221 159.8062
# 3 9.4717 18.1356 79.2025 -2.4639 12.7910 13.5911
# 4 -17.2062 -47.7514 -2.4639 26.2387 3.7472 33.8269
# 5 18.1985 10.8221 12.7910 3.7472 26.6089 -3.5385
# 6 84.1604 159.8062 13.5911 33.8269 -3.5385 -49.0950
#
#
#
# Elastic Compliance Matrix: (Units=1/GPa)
#
#
# Indices 1 2 3 4 5 6 
#
# 1 0.019139 -0.009959 0.001534 -0.003184 -0.009421 -0.000698
# 2 -0.009959 0.011337 -0.005173 -0.005545 0.007336 0.014051
# 3 0.001534 -0.005173 0.016226 0.003203 -0.008117 -0.006926
# 4 -0.003184 -0.005545 0.003203 0.029378 -0.001546 -0.002268
# 5 -0.009421 0.007336 -0.008117 -0.001546 0.045314 0.001152
# 6 -0.000698 0.014051 -0.006926 -0.002268 0.001152 0.020606
#
#
# Mechanical properties :
#
#
# Convention : Reuss Voigt Hill
#
# Bulk Modulus (GPa) = 51.26747 -39.50950 5.87898
# Shear Modulus (GPa) = 28.45773 -3.83632 12.31070
#
# Velocity S-wave (km/s) = 3.61957 -1.32897 2.38067
# Velocity P-wave (km/s) = 6.40865 4.53257 3.20364
#
# Compressibility (1/GPa) = 0.01950555
#
# Stress axis : x y z
#
# Youngs Moduli (GPa) = 52.24944 88.20330 61.62897
#
# Poissons Ratio (x) = 0.87840 -0.09452
# Poissons Ratio (y) = 0.52034 0.31883
# Poissons Ratio (z) = -0.08014 0.45631
#
# Static dielectric constant tensor:
#      x y z
#    x 1.647900 0.061040 -0.049340 
#    y 0.061040 1.801110 0.040910 
#    z -0.049340 0.040910 1.790340 
# 
# From -- ./inp_files/402715.got.cif
#   From: 2010.05.17/outbox.cif.g08.bks.cpg/sg2_202_cif.got.tgz:402715.got - 2010.06.03 11:33:40.
