data_PCOD9009987
_publ_section_title
;
Structure prediction by ZEFSAII (Michael W. Deem and Ramdas Pophale) SiO2 
 PCOD9009987
Probable space group: P -1
;
_chemical_formula_sum "Si O2"
_cell_formula_units_Z 16
_cell_length_a 11.779703
_cell_length_b 5.928830
_cell_length_c 15.270298
_cell_angle_alpha 132.589309
_cell_angle_beta 76.894420
_cell_angle_gamma 91.217594
_cell_volume 751.604829
_symmetry_space_group_name_H-M "P -1"
_symmetry_group_IT_number 2
_symmetry_cell_setting 'triclinic'
loop_
_space_group_symop_operation_xyz
x,y,z
-x,-y,-z
loop_
_atom_site_type_symbol
_atom_site_label
_atom_site_fract_x
_atom_site_fract_y
_atom_site_fract_z
Si Si1 0.137141 0.372464 0.924715
Si Si2 0.807362 0.159661 0.346067
Si Si3 0.686795 0.410214 0.173677
Si Si4 0.533610 0.244849 0.808119
Si Si5 0.656368 0.725416 0.002664
Si Si6 0.260888 0.115415 0.414596
Si Si7 0.362077 0.081391 0.565011
Si Si8 0.986807 0.871166 0.569412
O O1 0.191545 0.525296 0.872285
O O2 0.227371 0.418711 0.999002
O O3 0.158681 0.008754 0.796519
O O4 0.000000 0.500000 0.000000
O O5 0.786965 0.528908 0.456429
O O6 0.915457 0.021079 0.357408
O O7 0.687082 0.069913 0.381466
O O8 0.569328 0.610748 0.202304
O O9 0.673391 0.548108 0.310479
O O10 0.680721 0.058718 0.058891
O O11 0.460099 0.197047 0.894601
O O12 0.620565 0.940735 0.678148
O O13 0.618753 0.494174 0.877511
O O14 0.297927 0.960636 0.461071
O O15 0.152230 0.001362 0.356206
O O16 0.500000 0.000000 0.500000
O O17 0.000000 0.500000 0.500000
O O18 0.000000 0.000000 0.500000
#
# Coordination Sequence:
#
# PCOD9009987 Si02
#       8
#     2   2   2   2   2   2   2   2
#     4  10  23  42  62  86 121 164 214 255 311 378
#     4  10  23  40  60  90 126 161 207 270 316 387
#     4  10  21  40  61  89 119 158 204 261 314 379
#     4  10  22  38  61  89 121 158 203 261 314 386
#     4  10  22  41  60  85 122 159 206 261 310 375
#     4  11  22  37  62  91 121 164 207 257 332 382
#     4  11  21  35  58  90 124 157 199 254 316 391
#     4  10  21  41  64  91 131 170 214 269 328 389
#
# _framework density 21.287782
#
# number of rings (size 3 to 8) (size 9 to 14) (size 15 to 20)
#    0.000    1.750    2.500    1.125    3.500    1.000 
#    0.000    2.500    0.000    0.000    0.000    0.000 
#    0.000    0.000    0.000    0.000    0.000    0.000 
#
# Total GULP energy -89089.153636 kJ/mol
# GULP energy per Si atom -5568.072102 kJ/mol
# Density = 2.123933 g / cm^3
# Si number density = 21.287782 Si / 1000 Ang^3
#
#
#
# Elastic Constant Matrix: (Units=GPa)
#
#
# Indices 1 2 3 4 5 6 
#
# 1 139.6330 14.9546 46.7582 -7.2058 -16.5875 5.4838
# 2 14.9546 39.4300 9.6899 6.7492 -8.9830 5.3075
# 3 46.7582 9.6899 83.9505 2.7408 -18.7115 2.2666
# 4 -7.2058 6.7492 2.7408 17.9951 1.4586 6.8877
# 5 -16.5875 -8.9830 -18.7115 1.4586 50.0262 -3.1548
# 6 5.4838 5.3075 2.2666 6.8877 -3.1548 24.4293
#
#
#
# Elastic Compliance Matrix: (Units=1/GPa)
#
#
# Indices 1 2 3 4 5 6 
#
# 1 0.009731 -0.003144 -0.005125 0.006953 0.000357 -0.002940
# 2 -0.003144 0.029956 -0.000264 -0.012137 0.004480 -0.001777
# 3 -0.005125 -0.000264 0.015924 -0.005449 0.004485 0.001846
# 4 0.006953 -0.012137 -0.005449 0.071531 -0.005212 -0.019259
# 5 0.000357 0.004480 0.004485 -0.005212 0.022928 0.002961
# 6 -0.002940 -0.001777 0.001846 -0.019259 0.002961 0.047622
#
#
# Mechanical properties :
#
#
# Convention : Reuss Voigt Hill
#
# Bulk Modulus (GPa) = 25.94343 45.09100 35.51722
# Shear Modulus (GPa) = 21.96760 31.26418 26.61589
#
# Velocity S-wave (km/s) = 3.21586 3.83645 3.53978
# Velocity P-wave (km/s) = 5.09926 6.39156 5.78163
#
# Compressibility (1/GPa) = 0.03854540
#
# Stress axis : x y z
#
# Youngs Moduli (GPa) = 102.76100 33.38230 62.79639
#
# Poissons Ratio (x) = 0.10497 0.32185
# Poissons Ratio (y) = 0.32312 0.01655
# Poissons Ratio (z) = 0.52667 0.00880
#
# Static dielectric constant tensor:
#      x y z
#    x 1.788180 -0.010580 0.063770 
#    y -0.010580 1.880350 0.033700 
#    z 0.063770 0.033700 1.823010 
# 
# From -- ./inp_files/70593.got.cif
#   From: 2010.05.17/outbox.cif.g08.bks.cpg/sg2_36_cif.got.tgz:70593.got - 2010.06.03 11:33:40.
