data_PCOD9009994
_publ_section_title
;
Structure prediction by ZEFSAII (Michael W. Deem and Ramdas Pophale) SiO2 
 PCOD9009994
Probable space group: P -1
;
_chemical_formula_sum "Si O2"
_cell_formula_units_Z 14
_cell_length_a 12.295562
_cell_length_b 5.164292
_cell_length_c 12.750515
_cell_angle_alpha 56.263688
_cell_angle_beta 73.645759
_cell_angle_gamma 67.328762
_cell_volume 618.857503
_symmetry_space_group_name_H-M "P -1"
_symmetry_group_IT_number 2
_symmetry_cell_setting 'triclinic'
loop_
_space_group_symop_operation_xyz
x,y,z
-x,-y,-z
loop_
_atom_site_type_symbol
_atom_site_label
_atom_site_fract_x
_atom_site_fract_y
_atom_site_fract_z
Si Si1 0.341598 0.925365 0.474639
Si Si2 0.532398 0.613033 0.852970
Si Si3 0.551551 0.479913 0.656323
Si Si4 0.791244 0.319075 0.898508
Si Si5 0.057982 0.275051 0.134732
Si Si6 0.825020 0.168949 0.304701
Si Si7 0.285225 0.077532 0.805344
O O1 0.432493 0.666449 0.584728
O O2 0.370488 0.786075 0.382350
O O3 0.212203 0.940299 0.548345
O O4 0.377437 0.253110 0.406321
O O5 0.525441 0.392871 0.802190
O O6 0.670464 0.573029 0.837494
O O7 0.427612 0.943453 0.785739
O O8 0.500000 0.500000 0.000000
O O9 0.888938 0.498338 0.857734
O O10 0.839988 0.030745 0.867625
O O11 0.759448 0.148549 0.050188
O O12 0.959684 0.144721 0.248190
O O13 0.000000 0.500000 0.000000
O O14 0.773147 0.969548 0.278435
O O15 0.759850 0.555213 0.226018
#
# Coordination Sequence:
#
# PCOD9009994 Si02
#       7
#     2   2   2   2   2   2   2
#     4  10  22  37  62  91 121 161 209 254 310 354
#     4  10  24  41  65  94 134 163 200 251 322 388
#     4  10  21  40  61  89 126 161 201 255 308 374
#     4  11  23  40  57  91 124 170 202 243 319 378
#     4  12  22  39  62  85 126 167 210 261 301 358
#     4  12  22  36  63  90 124 154 209 261 306 354
#     4  11  21  36  59  92 126 158 192 255 316 368
#
# _framework density 22.622332
#
# number of rings (size 3 to 8) (size 9 to 14) (size 15 to 20)
#    0.000    1.143    4.286    2.143    4.000    2.286 
#    0.000    6.429    0.000    5.143    0.000    0.000 
#    0.000    0.000    0.000    0.000    0.000    0.000 
#
# Total GULP energy -78311.955791 kJ/mol
# GULP energy per Si atom -5593.711128 kJ/mol
# Density = 2.257084 g / cm^3
# Si number density = 22.622332 Si / 1000 Ang^3
#
#
#
# Elastic Constant Matrix: (Units=GPa)
#
#
# Indices 1 2 3 4 5 6 
#
# 1 54.5666 10.2043 14.5116 1.4541 -11.5514 -4.2591
# 2 10.2043 79.8000 31.8249 14.2199 -9.1163 5.8176
# 3 14.5116 31.8249 106.1934 30.1814 -7.9096 3.0631
# 4 1.4541 14.2199 30.1814 35.8857 -2.6174 -1.4961
# 5 -11.5514 -9.1163 -7.9096 -2.6174 33.0898 12.2596
# 6 -4.2591 5.8176 3.0631 -1.4961 12.2596 36.1623
#
#
#
# Elastic Compliance Matrix: (Units=1/GPa)
#
#
# Indices 1 2 3 4 5 6 
#
# 1 0.020575 -0.001382 -0.002669 0.002436 0.006010 0.000935
# 2 -0.001382 0.015267 -0.003020 -0.003312 0.004193 -0.003922
# 3 -0.002669 -0.003020 0.013758 -0.010242 0.001418 -0.001898
# 4 0.002436 -0.003312 -0.010242 0.037780 -0.000830 0.003532
# 5 0.006010 0.004193 0.001418 -0.000830 0.038646 -0.013223
# 6 0.000935 -0.003922 -0.001898 0.003532 -0.013223 0.033184
#
#
# Mechanical properties :
#
#
# Convention : Reuss Voigt Hill
#
# Bulk Modulus (GPa) = 28.20277 39.29351 33.74814
# Shear Modulus (GPa) = 27.00189 33.29550 30.14870
#
# Velocity S-wave (km/s) = 3.45859 3.84056 3.65457
# Velocity P-wave (km/s) = 5.33320 6.08881 5.72349
#
# Compressibility (1/GPa) = 0.03545751
#
# Stress axis : x y z
#
# Youngs Moduli (GPa) = 48.60293 65.49885 72.68610
#
# Poissons Ratio (x) = 0.09053 0.19401
# Poissons Ratio (y) = 0.06718 0.21951
# Poissons Ratio (z) = 0.12973 0.19781
#
# Static dielectric constant tensor:
#      x y z
#    x 1.832980 -0.006900 -0.025710 
#    y -0.006900 1.820050 -0.002440 
#    z -0.025710 -0.002440 1.905020 
# 
# From -- ./inp_files/409807.got.cif
#   From: 2010.05.17/outbox.cif.g08.bks.cpg/sg2_205_cif.got.tgz:409807.got - 2010.06.03 11:33:40.
