data_PCOD9009523
_publ_section_title
;
Structure prediction by ZEFSAII (Michael W. Deem and Ramdas Pophale) SiO2 
 PCOD9009523
Probable space group: P -1
;
_chemical_formula_sum "Si O2"
_cell_formula_units_Z 12
_cell_length_a 9.619494
_cell_length_b 9.136579
_cell_length_c 12.719018
_cell_angle_alpha 126.601691
_cell_angle_beta 140.280121
_cell_angle_gamma 49.297932
_cell_volume 531.124116
_symmetry_space_group_name_H-M "P -1"
_symmetry_group_IT_number 2
_symmetry_cell_setting 'triclinic'
loop_
_space_group_symop_operation_xyz
x,y,z
-x,-y,-z
loop_
_atom_site_type_symbol
_atom_site_label
_atom_site_fract_x
_atom_site_fract_y
_atom_site_fract_z
Si Si1 0.540839 0.124316 0.745582
Si Si2 0.011189 0.813720 0.355829
Si Si3 0.488146 0.890367 0.054491
Si Si4 0.289674 0.904878 0.388751
Si Si5 0.254246 0.573146 0.762866
Si Si6 0.210458 0.449858 0.450491
O O1 0.611551 0.007857 0.846515
O O2 0.726134 0.070982 0.735182
O O3 0.449700 0.358302 0.812945
O O4 0.323323 0.084668 0.546991
O O5 0.762842 0.792880 0.201256
O O6 0.086042 0.855152 0.301856
O O7 0.191097 0.611351 0.420875
O O8 0.000000 0.000000 0.500000
O O9 0.357739 0.741653 0.899170
O O10 0.500000 0.000000 0.000000
O O11 0.540375 0.729719 0.483849
O O12 0.197181 0.554537 0.599721
O O13 0.018025 0.609174 0.707228
#
# Coordination Sequence:
#
# PCOD9009523 Si02
#       6
#     2   2   2   2   2   2
#     4  10  21  42  66  91 131 174 210 264 316 383
#     4  12  22  41  67  95 131 170 218 265 321 386
#     4  12  25  40  68  98 130 171 220 268 314 384
#     4  10  22  40  68  99 127 166 220 266 324 381
#     4  10  21  41  68  95 127 171 219 260 324 382
#     4  10  21  39  69  96 128 171 214 267 318 388
#
# _framework density 22.593589999999999
#
# number of rings (size 3 to 8) (size 9 to 14) (size 15 to 20)
#    0.000    1.333    3.333    2.000    0.000    4.000 
#    0.000    6.667    0.000    0.000    0.000    0.000 
#    0.000    0.000    0.000    0.000    0.000    0.000 
#
# Total GULP energy -67031.847354 kJ/mol
# GULP energy per Si atom -5585.987279 kJ/mol
# Density = 2.254217 g / cm^3
# Si number density = 22.593590 Si / 1000 Ang^3
#
#
#
# Elastic Constant Matrix: (Units=GPa)
#
#
# Indices 1 2 3 4 5 6 
#
# 1 163.1814 28.4312 46.0808 12.6795 -11.7098 39.2033
# 2 28.4312 90.1409 25.6795 1.9920 -7.3725 8.3695
# 3 46.0808 25.6795 81.3886 17.7908 4.2824 13.1625
# 4 12.6795 1.9920 17.7908 28.5414 17.0693 0.9017
# 5 -11.7098 -7.3725 4.2824 17.0693 48.1345 -9.6251
# 6 39.2033 8.3695 13.1625 0.9017 -9.6251 39.1137
#
#
#
# Elastic Compliance Matrix: (Units=1/GPa)
#
#
# Indices 1 2 3 4 5 6 
#
# 1 0.009425 -0.001132 -0.003189 -0.003062 0.001974 -0.007575
# 2 -0.001132 0.012595 -0.003621 0.000878 0.001675 0.000050
# 3 -0.003189 -0.003621 0.017525 -0.009225 0.000041 -0.001704
# 4 -0.003062 0.000878 -0.009225 0.053221 -0.018628 0.000175
# 5 0.001974 0.001675 0.000041 -0.018628 0.029165 0.005255
# 6 -0.007575 0.000050 -0.001704 0.000175 0.005255 0.035011
#
#
# Mechanical properties :
#
#
# Convention : Reuss Voigt Hill
#
# Bulk Modulus (GPa) = 42.26308 59.45490 50.85899
# Shear Modulus (GPa) = 27.66816 38.79255 33.23035
#
# Velocity S-wave (km/s) = 3.50323 4.14813 3.83924
# Velocity P-wave (km/s) = 5.92536 7.02244 6.49710
#
# Compressibility (1/GPa) = 0.02366131
#
# Stress axis : x y z
#
# Youngs Moduli (GPa) = 106.09711 79.39459 57.06261
#
# Poissons Ratio (x) = 0.08987 0.18196
# Poissons Ratio (y) = 0.12009 0.20664
# Poissons Ratio (z) = 0.33832 0.28751
#
# Static dielectric constant tensor:
#      x y z
#    x 1.864750 0.013920 -0.031710 
#    y 0.013920 1.885470 -0.029440 
#    z -0.031710 -0.029440 1.856220 
# 
# From -- ./inp_files/155014.got.cif
#   From: 2010.05.17/outbox.cif.g08.bks.cpg/sg2_78_cif.got.tgz:155014.got - 2010.06.03 11:33:40.
