data_PCOD9009452
_publ_section_title
;
Structure prediction by ZEFSAII (Michael W. Deem and Ramdas Pophale) SiO2 
 PCOD9009452
Probable space group: P -1
;
_chemical_formula_sum "Si O2"
_cell_formula_units_Z 16
_cell_length_a 9.355280
_cell_length_b 15.521147
_cell_length_c 11.888274
_cell_angle_alpha 40.187038
_cell_angle_beta 49.495586
_cell_angle_gamma 44.559046
_cell_volume 760.188925
_symmetry_space_group_name_H-M "P -1"
_symmetry_group_IT_number 2
_symmetry_cell_setting 'triclinic'
loop_
_space_group_symop_operation_xyz
x,y,z
-x,-y,-z
loop_
_atom_site_type_symbol
_atom_site_label
_atom_site_fract_x
_atom_site_fract_y
_atom_site_fract_z
Si Si1 0.944438 0.102037 0.034789
Si Si2 0.767966 0.658194 0.088124
Si Si3 0.514510 0.609334 0.724019
Si Si4 0.448625 0.291624 0.632468
Si Si5 0.237831 0.437786 0.068507
Si Si6 0.721364 0.971418 0.862584
Si Si7 0.027424 0.605771 0.288857
Si Si8 0.530986 0.148171 0.330554
O O1 0.731452 0.118454 0.182385
O O2 0.923542 0.257804 0.842857
O O3 0.113493 0.049015 0.102969
O O4 0.000000 0.000000 0.000000
O O5 0.743477 0.608596 0.026082
O O6 0.782523 0.816477 0.920377
O O7 0.584423 0.665951 0.259912
O O8 0.997451 0.534761 0.130686
O O9 0.528484 0.611973 0.578081
O O10 0.744015 0.508798 0.760076
O O11 0.446280 0.775686 0.640551
O O12 0.361920 0.539273 0.910229
O O13 0.645356 0.129210 0.680898
O O14 0.211541 0.306894 0.722376
O O15 0.338068 0.281066 0.236410
O O16 0.500000 0.000000 0.000000
O O17 0.000000 0.500000 0.500000
O O18 0.500000 0.000000 0.500000
#
# Coordination Sequence:
#
# PCOD9009452 Si02
#       8
#     2   2   2   2   2   2   2   2
#     4  12  26  44  69 104 138 181 237 282 346 412
#     4  10  22  41  70  96 133 177 230 267 356 398
#     4  11  24  44  69  99 136 177 232 285 345 396
#     4  10  22  40  71  95 135 177 225 271 340 408
#     4  11  24  44  69  98 133 180 221 293 332 421
#     4  10  21  39  69  98 136 177 220 285 336 410
#     4  10  21  39  69 100 129 179 222 287 332 413
#     4  12  29  44  68  99 142 184 233 285 348 406
#
# _framework density 21.047398000000001
#
# number of rings (size 3 to 8) (size 9 to 14) (size 15 to 20)
#    0.000    1.250    3.750    1.875    8.750    0.500 
#    4.500    1.250    0.000    0.000    0.000    0.000 
#    0.000    0.000    0.000    0.000    0.000    0.000 
#
# Total GULP energy -89114.462642 kJ/mol
# GULP energy per Si atom -5569.653915 kJ/mol
# Density = 2.099949 g / cm^3
# Si number density = 21.047398 Si / 1000 Ang^3
#
#
#
# Elastic Constant Matrix: (Units=GPa)
#
#
# Indices 1 2 3 4 5 6 
#
# 1 61.6017 43.0848 30.7201 -22.2438 1.4946 -0.7318
# 2 43.0848 147.2599 54.9822 -15.4062 -5.8685 2.7790
# 3 30.7201 54.9822 127.9244 -17.7072 -1.2912 5.2822
# 4 -22.2438 -15.4062 -17.7072 36.7317 0.1651 6.7589
# 5 1.4946 -5.8685 -1.2912 0.1651 30.8305 -9.2536
# 6 -0.7318 2.7790 5.2822 6.7589 -9.2536 28.8800
#
#
#
# Elastic Compliance Matrix: (Units=1/GPa)
#
#
# Indices 1 2 3 4 5 6 
#
# 1 0.025760 -0.005546 -0.001961 0.012798 -0.003198 -0.002475
# 2 -0.005546 0.009464 -0.002843 -0.000828 0.002052 0.000320
# 3 -0.001961 -0.002843 0.010011 0.002919 -0.000807 -0.002549
# 4 0.012798 -0.000828 0.002919 0.037942 -0.003942 -0.010273
# 5 -0.003198 0.002052 -0.000807 -0.003942 0.036739 0.012564
# 6 -0.002475 0.000320 -0.002549 -0.010273 0.012564 0.041429
#
#
# Mechanical properties :
#
#
# Convention : Reuss Voigt Hill
#
# Bulk Modulus (GPa) = 40.75885 66.04001 53.39943
# Shear Modulus (GPa) = 26.28496 33.15504 29.72000
#
# Velocity S-wave (km/s) = 3.53774 3.97326 3.76180
# Velocity P-wave (km/s) = 6.00789 7.24527 6.65540
#
# Compressibility (1/GPa) = 0.02453455
#
# Stress axis : x y z
#
# Youngs Moduli (GPa) = 38.82042 105.66351 99.89048
#
# Poissons Ratio (x) = 0.58606 0.19586
# Poissons Ratio (y) = 0.21532 0.28397
# Poissons Ratio (z) = 0.07612 0.30038
#
# Static dielectric constant tensor:
#      x y z
#    x 1.870920 0.061020 0.068340 
#    y 0.061020 1.842310 -0.012240 
#    z 0.068340 -0.012240 1.752360 
# 
# From -- ./inp_files/398350.got.cif
#   From: 2010.05.17/outbox.cif.g08.bks.cpg/sg2_200_cif.got.tgz:398350.got - 2010.06.03 11:33:40.
