data_PCOD9009609
_publ_section_title
;
Structure prediction by ZEFSAII (Michael W. Deem and Ramdas Pophale) SiO2 
 PCOD9009609
Probable space group: P -1
;
_chemical_formula_sum "Si O2"
_cell_formula_units_Z 14
_cell_length_a 19.748510
_cell_length_b 6.632387
_cell_length_c 11.168942
_cell_angle_alpha 65.507427
_cell_angle_beta 152.759680
_cell_angle_gamma 118.659794
_cell_volume 587.312832
_symmetry_space_group_name_H-M "P -1"
_symmetry_group_IT_number 2
_symmetry_cell_setting 'triclinic'
loop_
_space_group_symop_operation_xyz
x,y,z
-x,-y,-z
loop_
_atom_site_type_symbol
_atom_site_label
_atom_site_fract_x
_atom_site_fract_y
_atom_site_fract_z
Si Si1 0.798481 0.791638 0.483936
Si Si2 0.633421 0.411485 0.165335
Si Si3 0.233756 0.465137 0.922543
Si Si4 0.668513 0.962869 0.440817
Si Si5 0.374772 0.081880 0.355058
Si Si6 0.913782 0.230774 0.933428
Si Si7 0.913455 0.160585 0.395617
O O1 0.779572 0.565076 0.431912
O O2 0.681209 0.769531 0.414626
O O3 0.792999 0.992371 0.335310
O O4 0.961236 0.872597 0.783384
O O5 0.676640 0.459690 0.082134
O O6 0.608292 0.150582 0.229486
O O7 0.500000 0.500000 0.000000
O O8 0.188402 0.682195 0.860182
O O9 0.060901 0.314616 0.658468
O O10 0.319466 0.298300 0.165873
O O11 0.837240 0.104954 0.722840
O O12 0.580136 0.870654 0.445821
O O13 0.500000 0.000000 0.500000
O O14 0.233554 0.850465 0.193902
O O15 0.000000 0.500000 0.000000
O O16 0.000000 0.000000 0.500000
#
# Coordination Sequence:
#
# PCOD9009609 Si02
#       7
#     2   2   2   2   2   2   2
#     4  12  21  43  67  99 133 177 236 288 348 406
#     4  12  25  41  69  98 138 183 229 287 348 423
#     4  11  23  41  68  99 139 175 232 286 350 416
#     4  10  23  42  67  99 136 176 232 287 341 423
#     4  10  22  43  69 101 143 187 230 289 354 418
#     4  10  21  39  70  99 131 182 230 287 346 411
#     4  11  22  40  65 101 131 174 223 293 350 407
#
# _framework density 23.837381000000001
#
# number of rings (size 3 to 8) (size 9 to 14) (size 15 to 20)
#    0.857    0.286    5.714    1.286    0.000    0.571 
#    2.571    0.000    0.000    5.143    0.000    0.000 
#    0.000    0.000    0.000    0.000    0.000    0.000 
#
# Total GULP energy -78042.671290 kJ/mol
# GULP energy per Si atom -5574.476521 kJ/mol
# Density = 2.378313 g / cm^3
# Si number density = 23.837381 Si / 1000 Ang^3
#
#
#
# Elastic Constant Matrix: (Units=GPa)
#
#
# Indices 1 2 3 4 5 6 
#
# 1 168.7103 54.6963 37.6547 -19.1385 4.8716 -3.4070
# 2 54.6963 92.0336 44.3891 -23.6037 -5.3057 -3.8050
# 3 37.6547 44.3891 66.7152 -10.6597 1.0676 3.0297
# 4 -19.1385 -23.6037 -10.6597 34.4670 1.9260 -5.8644
# 5 4.8716 -5.3057 1.0676 1.9260 38.4035 -3.9493
# 6 -3.4070 -3.8050 3.0297 -5.8644 -3.9493 33.8327
#
#
#
# Elastic Compliance Matrix: (Units=1/GPa)
#
#
# Indices 1 2 3 4 5 6 
#
# 1 0.007646 -0.003268 -0.001892 0.001617 -0.001379 0.000691
# 2 -0.003268 0.020990 -0.010835 0.009880 0.003649 0.005140
# 3 -0.001892 -0.010835 0.023188 -0.001867 -0.002226 -0.004069
# 4 0.001617 0.009880 -0.001867 0.037444 0.000151 0.007949
# 5 -0.001379 0.003649 -0.002226 0.000151 0.027150 0.003666
# 6 0.000691 0.005140 -0.004069 0.007949 0.003666 0.032375
#
#
# Mechanical properties :
#
#
# Convention : Reuss Voigt Hill
#
# Bulk Modulus (GPa) = 50.41593 66.77101 58.59347
# Shear Modulus (GPa) = 26.68171 34.05525 30.36848
#
# Velocity S-wave (km/s) = 3.34926 3.78385 3.57317
# Velocity P-wave (km/s) = 6.01270 6.86745 6.45424
#
# Compressibility (1/GPa) = 0.01983500
#
# Stress axis : x y z
#
# Youngs Moduli (GPa) = 130.78179 47.64179 43.12539
#
# Poissons Ratio (x) = 0.15567 0.08161
# Poissons Ratio (y) = 0.42734 0.46725
# Poissons Ratio (z) = 0.24750 0.51618
#
# Static dielectric constant tensor:
#      x y z
#    x 1.950870 -0.006140 0.028990 
#    y -0.006140 2.054740 -0.023680 
#    z 0.028990 -0.023680 2.011310 
# 
# From -- ./inp_files/468071.got.cif
#   From: 2010.05.17/outbox.cif.g08.bks.cpg/sg2_235_cif.got.tgz:468071.got - 2010.06.03 11:33:40.
