data_PCOD9009502
_publ_section_title
;
Structure prediction by ZEFSAII (Michael W. Deem and Ramdas Pophale) SiO2 
 PCOD9009502
Probable space group: P -1
;
_chemical_formula_sum "Si O2"
_cell_formula_units_Z 14
_cell_length_a 16.296411
_cell_length_b 5.256157
_cell_length_c 8.266418
_cell_angle_alpha 119.376093
_cell_angle_beta 78.191008
_cell_angle_gamma 90.890476
_cell_volume 600.972709
_symmetry_space_group_name_H-M "P -1"
_symmetry_group_IT_number 2
_symmetry_cell_setting 'triclinic'
loop_
_space_group_symop_operation_xyz
x,y,z
-x,-y,-z
loop_
_atom_site_type_symbol
_atom_site_label
_atom_site_fract_x
_atom_site_fract_y
_atom_site_fract_z
Si Si1 0.575847 0.176766 0.967396
Si Si2 0.320141 0.878631 0.622983
Si Si3 0.305678 0.226471 0.398925
Si Si4 0.973954 0.767014 0.811348
Si Si5 0.158272 0.676864 0.566096
Si Si6 0.082769 0.847759 0.327675
Si Si7 0.538506 0.792653 0.274558
O O1 0.539228 0.256136 0.826362
O O2 0.660030 0.974046 0.826252
O O3 0.581105 0.459592 0.164893
O O4 0.500000 0.000000 0.000000
O O5 0.350635 0.532514 0.478030
O O6 0.220632 0.871132 0.701910
O O7 0.319473 0.062020 0.512857
O O8 0.383612 0.030601 0.760052
O O9 0.210002 0.361043 0.457847
O O10 0.063527 0.664159 0.657425
O O11 0.937259 0.483073 0.810737
O O12 0.912197 0.950201 0.767496
O O13 0.000000 0.000000 0.000000
O O14 0.153443 0.794456 0.420857
O O15 0.000000 0.000000 0.500000
O O16 0.500000 0.000000 0.500000
#
# Coordination Sequence:
#
# PCOD9009502 Si02
#       7
#     2   2   2   2   2   2   2
#     4  11  25  40  70  96 128 174 235 273 326 406
#     4  10  23  40  68  90 132 175 216 271 343 380
#     4  10  23  41  66  94 130 172 218 274 330 393
#     4  11  23  40  66  99 131 168 220 268 326 387
#     4   9  23  39  71  89 134 168 225 259 337 387
#     4  10  21  39  69  92 122 176 219 260 318 399
#     4  11  23  42  67  95 132 175 226 277 329 392
#
# _framework density 23.295565
#
# number of rings (size 3 to 8) (size 9 to 14) (size 15 to 20)
#    0.857    0.857    1.429    3.000   10.000    1.143 
#    0.000    4.286    0.000    0.000    0.000    0.000 
#    0.000    0.000    0.000    0.000    0.000    0.000 
#
# Total GULP energy -78010.070511 kJ/mol
# GULP energy per Si atom -5572.147894 kJ/mol
# Density = 2.324254 g / cm^3
# Si number density = 23.295565 Si / 1000 Ang^3
#
#
#
# Elastic Constant Matrix: (Units=GPa)
#
#
# Indices 1 2 3 4 5 6 
#
# 1 89.2904 13.9587 9.1926 13.0907 11.3951 -1.6617
# 2 13.9587 124.6542 37.1539 30.8953 -10.7709 -3.9169
# 3 9.1926 37.1539 95.5820 32.0073 7.7370 -6.2407
# 4 13.0907 30.8953 32.0073 37.4814 7.2097 10.9302
# 5 11.3951 -10.7709 7.7370 7.2097 31.7325 11.7168
# 6 -1.6617 -3.9169 -6.2407 10.9302 11.7168 37.9513
#
#
#
# Elastic Compliance Matrix: (Units=1/GPa)
#
#
# Indices 1 2 3 4 5 6 
#
# 1 0.012712 -0.001010 0.001539 -0.004974 -0.005578 0.003860
# 2 -0.001010 0.011556 -0.001609 -0.009489 0.006205 0.001701
# 3 0.001539 -0.001609 0.017040 -0.015331 -0.004965 0.008652
# 4 -0.004974 -0.009489 -0.015331 0.055418 -0.003410 -0.018626
# 5 -0.005578 0.006205 -0.004965 -0.003410 0.042213 -0.012470
# 6 0.003860 0.001701 0.008652 -0.018626 -0.012470 0.037331
#
#
# Mechanical properties :
#
#
# Convention : Reuss Voigt Hill
#
# Bulk Modulus (GPa) = 25.54310 47.79301 36.66806
# Shear Modulus (GPa) = 26.11257 38.04780 32.08019
#
# Velocity S-wave (km/s) = 3.35165 4.04575 3.71495
# Velocity P-wave (km/s) = 5.09575 6.51034 5.84599
#
# Compressibility (1/GPa) = 0.03914951
#
# Stress axis : x y z
#
# Youngs Moduli (GPa) = 78.66685 86.53405 58.68506
#
# Poissons Ratio (x) = 0.08741 -0.09034
# Poissons Ratio (y) = 0.07946 0.09440
# Poissons Ratio (z) = -0.12110 0.13920
#
# Static dielectric constant tensor:
#      x y z
#    x 1.986470 -0.016920 0.030870 
#    y -0.016920 1.993750 -0.048130 
#    z 0.030870 -0.048130 1.950000 
# 
# From -- ./inp_files/323099.got.cif
#   From: 2010.05.17/outbox.cif.g08.bks.cpg/sg2_162_cif.got.tgz:323099.got - 2010.06.03 11:33:40.
