data_PCOD9009430
_publ_section_title
;
Structure prediction by ZEFSAII (Michael W. Deem and Ramdas Pophale) SiO2 
 PCOD9009430
Probable space group: P -1
;
_chemical_formula_sum "Si O2"
_cell_formula_units_Z 14
_cell_length_a 14.588768
_cell_length_b 7.645425
_cell_length_c 8.883129
_cell_angle_alpha 88.776735
_cell_angle_beta 133.613920
_cell_angle_gamma 114.735191
_cell_volume 595.281036
_symmetry_space_group_name_H-M "P -1"
_symmetry_group_IT_number 2
_symmetry_cell_setting 'triclinic'
loop_
_space_group_symop_operation_xyz
x,y,z
-x,-y,-z
loop_
_atom_site_type_symbol
_atom_site_label
_atom_site_fract_x
_atom_site_fract_y
_atom_site_fract_z
Si Si1 0.366639 0.818683 0.158614
Si Si2 0.691840 0.903314 0.453902
Si Si3 0.288232 0.464978 0.616407
Si Si4 0.986647 0.826865 0.105211
Si Si5 0.577608 0.886945 0.019755
Si Si6 0.820772 0.410155 0.777244
Si Si7 0.101733 0.413773 0.682366
O O1 0.530330 0.851552 0.328278
O O2 0.302431 0.775256 0.253646
O O3 0.371071 0.015329 0.088076
O O4 0.244457 0.620681 0.920991
O O5 0.699756 0.699677 0.465695
O O6 0.835375 0.099079 0.697494
O O7 0.702147 0.944421 0.284620
O O8 0.451742 0.640691 0.867384
O O9 0.235442 0.588905 0.452612
O O10 0.165068 0.358122 0.611457
O O11 0.959284 0.769857 0.255843
O O12 0.842151 0.616086 0.878206
O O13 0.000000 0.000000 0.000000
O O14 0.500000 0.000000 0.000000
O O15 0.000000 0.500000 0.000000
O O16 0.000000 0.500000 0.500000
#
# Coordination Sequence:
#
# PCOD9009430 Si02
#       7
#     2   2   2   2   2   2   2
#     4  10  23  44  67  99 129 185 219 273 352 395
#     4  11  23  42  70  95 137 171 226 282 336 403
#     4  12  23  42  68 103 130 171 231 284 325 403
#     4  11  24  48  65  99 141 181 217 280 349 401
#     4  10  21  39  68  98 129 170 224 279 333 389
#     4  11  26  45  68  96 139 174 228 276 338 413
#     4  11  23  42  74  95 137 185 227 273 344 405
#
# _framework density 23.518305000000002
#
# number of rings (size 3 to 8) (size 9 to 14) (size 15 to 20)
#    0.000    1.143    4.286    3.000    6.000    1.714 
#    2.571    0.000    0.000    0.000    0.000    0.000 
#    0.000    0.000    0.000    0.000    0.000    0.000 
#
# Total GULP energy -77999.732269 kJ/mol
# GULP energy per Si atom -5571.409448 kJ/mol
# Density = 2.346478 g / cm^3
# Si number density = 23.518305 Si / 1000 Ang^3
#
#
#
# Elastic Constant Matrix: (Units=GPa)
#
#
# Indices 1 2 3 4 5 6 
#
# 1 105.2831 40.5099 30.9304 -16.5809 1.3842 39.7309
# 2 40.5099 95.6776 22.6910 -34.4524 5.8284 39.7117
# 3 30.9304 22.6910 135.8816 -14.6163 8.4607 14.8061
# 4 -16.5809 -34.4524 -14.6163 55.0494 3.4137 -13.6693
# 5 1.3842 5.8284 8.4607 3.4137 24.8716 -2.5958
# 6 39.7309 39.7117 14.8061 -13.6693 -2.5958 45.9087
#
#
#
# Elastic Compliance Matrix: (Units=1/GPa)
#
#
# Indices 1 2 3 4 5 6 
#
# 1 0.014754 -0.000731 -0.001832 0.000752 -0.001319 -0.011396
# 2 -0.000731 0.020964 -0.000186 0.009598 -0.007693 -0.015018
# 3 -0.001832 -0.000186 0.008222 0.001545 -0.002927 -0.000611
# 4 0.000752 0.009598 0.001545 0.024590 -0.006452 -0.002495
# 5 -0.001319 -0.007693 -0.002927 -0.006452 0.044941 0.009361
# 6 -0.011396 -0.015018 -0.000611 -0.002495 0.009361 0.044619
#
#
# Mechanical properties :
#
#
# Convention : Reuss Voigt Hill
#
# Bulk Modulus (GPa) = 26.01336 58.34497 42.17916
# Shear Modulus (GPa) = 28.34423 41.34668 34.84545
#
# Velocity S-wave (km/s) = 3.47536 4.19748 3.85337
# Velocity P-wave (km/s) = 5.21432 6.95370 6.14585
#
# Compressibility (1/GPa) = 0.03844179
#
# Stress axis : x y z
#
# Youngs Moduli (GPa) = 67.77843 47.70099 121.61930
#
# Poissons Ratio (x) = 0.03489 0.22275
# Poissons Ratio (y) = 0.04957 0.02267
# Poissons Ratio (z) = 0.12414 0.00889
#
# Static dielectric constant tensor:
#      x y z
#    x 1.966030 -0.091080 -0.002890 
#    y -0.091080 2.102220 -0.059250 
#    z -0.002890 -0.059250 1.885580 
# 
# From -- ./inp_files/177502.got.cif
#   From: 2010.05.17/outbox.cif.g08.bks.cpg/sg2_89_cif.got.tgz:177502.got - 2010.06.03 11:33:40.
