data_PCOD9009542
_publ_section_title
;
Structure prediction by ZEFSAII (Michael W. Deem and Ramdas Pophale) SiO2 
 PCOD9009542
Probable space group: P -1
;
_chemical_formula_sum "Si O2"
_cell_formula_units_Z 16
_cell_length_a 7.085642
_cell_length_b 11.259804
_cell_length_c 9.851988
_cell_angle_alpha 111.405105
_cell_angle_beta 103.248182
_cell_angle_gamma 64.503957
_cell_volume 658.102982
_symmetry_space_group_name_H-M "P -1"
_symmetry_group_IT_number 2
_symmetry_cell_setting 'triclinic'
loop_
_space_group_symop_operation_xyz
x,y,z
-x,-y,-z
loop_
_atom_site_type_symbol
_atom_site_label
_atom_site_fract_x
_atom_site_fract_y
_atom_site_fract_z
Si Si1 0.594828 0.168659 0.822225
Si Si2 0.598817 0.032982 0.227358
Si Si3 0.140991 0.365573 0.766507
Si Si4 0.493660 0.347882 0.267648
Si Si5 0.789572 0.362826 0.524380
Si Si6 0.237475 0.907101 0.465684
Si Si7 0.871046 0.654028 0.935184
Si Si8 0.983407 0.882889 0.041653
O O1 0.389003 0.287023 0.777055
O O2 0.719200 0.082246 0.678681
O O3 0.772373 0.213453 0.933707
O O4 0.523538 0.068140 0.863509
O O5 0.517265 0.192742 0.241269
O O6 0.624283 0.036098 0.394381
O O7 0.829888 0.960943 0.171233
O O8 0.024798 0.330287 0.604794
O O9 0.049409 0.529206 0.837549
O O10 0.074653 0.330268 0.891721
O O11 0.719924 0.349335 0.351739
O O12 0.339122 0.478450 0.384809
O O13 0.348645 0.369329 0.117220
O O14 0.723629 0.250997 0.549881
O O15 0.000000 0.000000 0.500000
O O16 0.869477 0.790498 0.921014
O O17 0.000000 0.000000 0.000000
#
# Coordination Sequence:
#
# PCOD9009542 Si02
#       8
#     2   2   2   2   2   2   2   2
#     4  12  24  41  69  97 133 180 217 278 344 384
#     4  11  23  42  64  95 134 173 228 271 325 403
#     4  10  21  39  69  98 132 174 217 280 333 393
#     4   9  20  38  69  89 128 181 209 271 335 379
#     4   9  19  40  66  95 128 168 222 271 327 395
#     4  11  21  40  67  96 131 168 221 281 332 390
#     4  10  21  42  65  96 137 172 222 275 328 397
#     4  12  26  41  63  98 136 178 225 273 324 405
#
# _framework density 24.312303
#
# number of rings (size 3 to 8) (size 9 to 14) (size 15 to 20)
#    0.000    1.500    2.500    2.625    1.750    1.500 
#    2.250    0.000    0.000    4.500    0.000    0.000 
#    0.000    0.000    0.000    0.000    0.000    0.000 
#
# Total GULP energy -89153.033100 kJ/mol
# GULP energy per Si atom -5572.064569 kJ/mol
# Density = 2.425697 g / cm^3
# Si number density = 24.312303 Si / 1000 Ang^3
#
#
#
# Elastic Constant Matrix: (Units=GPa)
#
#
# Indices 1 2 3 4 5 6 
#
# 1 115.3065 33.5423 39.9938 4.9589 16.5705 -24.1309
# 2 33.5423 104.5555 28.7866 13.5935 10.6135 -14.5112
# 3 39.9938 28.7866 75.4400 4.9484 36.1655 -13.8296
# 4 4.9589 13.5935 4.9484 24.2662 -4.2424 11.6592
# 5 16.5705 10.6135 36.1655 -4.2424 40.9990 -15.7751
# 6 -24.1309 -14.5112 -13.8296 11.6592 -15.7751 29.1715
#
#
#
# Elastic Compliance Matrix: (Units=1/GPa)
#
#
# Indices 1 2 3 4 5 6 
#
# 1 0.013306 -0.000320 -0.006299 -0.006710 0.004576 0.013018
# 2 -0.000320 0.013318 -0.003512 -0.011345 0.002724 0.010703
# 3 -0.006299 -0.003512 0.029184 -0.004851 -0.024494 -0.004429
# 4 -0.006710 -0.011345 -0.004851 0.069652 0.001555 -0.040492
# 5 0.004576 0.002724 -0.024494 0.001555 0.051614 0.020817
# 6 0.013018 0.010703 -0.004429 -0.040492 0.020817 0.075714
#
#
# Mechanical properties :
#
#
# Convention : Reuss Voigt Hill
#
# Bulk Modulus (GPa) = 28.13261 55.54972 41.84117
# Shear Modulus (GPa) = 17.55024 31.75262 24.65143
#
# Velocity S-wave (km/s) = 2.68967 3.61783 3.18771
# Velocity P-wave (km/s) = 4.60893 6.35213 5.54941
#
# Compressibility (1/GPa) = 0.03554594
#
# Stress axis : x y z
#
# Youngs Moduli (GPa) = 75.15645 75.08804 34.26583
#
# Poissons Ratio (x) = 0.02400 0.21584
# Poissons Ratio (y) = 0.02403 0.12034
# Poissons Ratio (z) = 0.47341 0.26369
#
# Static dielectric constant tensor:
#      x y z
#    x 1.933770 -0.022680 0.055680 
#    y -0.022680 1.987880 -0.055760 
#    z 0.055680 -0.055760 2.011860 
# 
# From -- ./inp_files/365081.got.cif
#   From: 2010.05.17/outbox.cif.g08.bks.cpg/sg2_183_cif.got.tgz:365081.got - 2010.06.03 11:33:40.
