data_PCOD9009269
_publ_section_title
;
Structure prediction by ZEFSAII (Michael W. Deem and Ramdas Pophale) SiO2 
 PCOD9009269
Probable space group: P -1
;
_chemical_formula_sum "Si O2"
_cell_formula_units_Z 14
_cell_length_a 9.440065
_cell_length_b 10.728843
_cell_length_c 19.978796
_cell_angle_alpha 38.798053
_cell_angle_beta 36.983055
_cell_angle_gamma 66.681893
_cell_volume 609.315001
_symmetry_space_group_name_H-M "P -1"
_symmetry_group_IT_number 2
_symmetry_cell_setting 'triclinic'
loop_
_space_group_symop_operation_xyz
x,y,z
-x,-y,-z
loop_
_atom_site_type_symbol
_atom_site_label
_atom_site_fract_x
_atom_site_fract_y
_atom_site_fract_z
Si Si1 0.837667 0.634377 0.328894
Si Si2 0.282609 0.727838 0.892561
Si Si3 0.381163 0.063316 0.083360
Si Si4 0.161502 0.009551 0.734393
Si Si5 0.131289 0.621554 0.693780
Si Si6 0.285249 0.824737 0.358554
Si Si7 0.225642 0.343690 0.294211
O O1 0.500000 0.500000 0.500000
O O2 0.944601 0.899522 0.202776
O O3 0.948092 0.605607 0.229376
O O4 0.821970 0.454113 0.467000
O O5 0.534360 0.703281 0.785975
O O6 0.130295 0.770865 0.872159
O O7 0.454452 0.974852 0.772658
O O8 0.038979 0.489706 0.126960
O O9 0.375389 0.914762 0.211532
O O10 0.598770 0.360865 0.885252
O O11 0.060247 0.009528 0.227113
O O12 0.500000 0.000000 0.000000
O O13 0.513802 0.200273 0.507498
O O14 0.987274 0.727042 0.660470
O O15 0.997669 0.802916 0.499007
#
# Coordination Sequence:
#
# PCOD9009269 Si02
#       7
#     2   2   2   2   2   2   2
#     4   9  18  39  62  96 126 162 222 268 313 384
#     4  12  23  40  74 100 128 180 222 271 330 382
#     4  12  28  46  67  98 136 176 217 272 342 394
#     4  11  25  42  63 100 140 167 221 279 326 389
#     4  10  21  39  67  99 129 169 227 272 312 395
#     4  11  23  42  72  95 130 180 213 278 331 378
#     4  11  24  43  70 101 131 170 235 266 319 411
#
# _framework density 22.97662
#
# number of rings (size 3 to 8) (size 9 to 14) (size 15 to 20)
#    0.000    1.143    5.714    2.571    0.000    6.857 
#    0.000    1.429    0.000    0.000    0.000    0.000 
#    0.000    0.000    0.000    0.000    0.000    0.000 
#
# Total GULP energy -78088.279397 kJ/mol
# GULP energy per Si atom -5577.734243 kJ/mol
# Density = 2.292432 g / cm^3
# Si number density = 22.976620 Si / 1000 Ang^3
#
#
#
# Elastic Constant Matrix: (Units=GPa)
#
#
# Indices 1 2 3 4 5 6 
#
# 1 85.2777 37.7222 35.6930 12.8635 0.1497 -32.7005
# 2 37.7222 109.2608 43.1534 4.0316 12.6915 -27.0743
# 3 35.6930 43.1534 91.9039 14.2451 17.5505 1.2871
# 4 12.8635 4.0316 14.2451 32.6010 5.5240 -5.5331
# 5 0.1497 12.6915 17.5505 5.5240 35.0412 7.0473
# 6 -32.7005 -27.0743 1.2871 -5.5331 7.0473 28.5858
#
#
#
# Elastic Compliance Matrix: (Units=1/GPa)
#
#
# Indices 1 2 3 4 5 6 
#
# 1 0.032935 0.006904 -0.016166 0.001775 -0.004137 0.046305
# 2 0.006904 0.019690 -0.011762 0.006572 -0.008424 0.030425
# 3 -0.016166 -0.011762 0.024444 -0.008315 -0.000103 -0.032318
# 4 0.001775 0.006572 -0.008315 0.037089 -0.007627 0.017688
# 5 -0.004137 -0.008424 -0.000103 -0.007627 0.037576 -0.023447
# 6 0.046305 0.030425 -0.032318 0.017688 -0.023447 0.127428
#
#
# Mechanical properties :
#
#
# Convention : Reuss Voigt Hill
#
# Bulk Modulus (GPa) = 28.55675 57.73107 43.14391
# Shear Modulus (GPa) = 15.02025 30.57052 22.79539
#
# Velocity S-wave (km/s) = 2.55957 3.65157 3.15320
# Velocity P-wave (km/s) = 4.60334 6.55432 5.66348
#
# Compressibility (1/GPa) = 0.03501799
#
# Stress axis : x y z
#
# Youngs Moduli (GPa) = 30.36307 50.78779 40.91058
#
# Poissons Ratio (x) = -0.35062 0.66137
# Poissons Ratio (y) = -0.20961 0.48121
# Poissons Ratio (z) = 0.49085 0.59739
#
# Static dielectric constant tensor:
#      x y z
#    x 1.947990 0.050680 -0.077730 
#    y 0.050680 1.914300 -0.050060 
#    z -0.077730 -0.050060 1.849880 
# 
# From -- ./inp_files/589337.got.cif
#   From: 2010.05.17/outbox.cif.g08.bks.cpg/sg2_295_cif.got.tgz:589337.got - 2010.06.03 11:33:40.
