data_PCOD9009647
_publ_section_title
;
Structure prediction by ZEFSAII (Michael W. Deem and Ramdas Pophale) SiO2 
 PCOD9009647
Probable space group: P -1
;
_chemical_formula_sum "Si O2"
_cell_formula_units_Z 14
_cell_length_a 8.522411
_cell_length_b 13.644987
_cell_length_c 10.334049
_cell_angle_alpha 148.040316
_cell_angle_beta 98.605775
_cell_angle_gamma 91.042674
_cell_volume 604.267272
_symmetry_space_group_name_H-M "P -1"
_symmetry_group_IT_number 2
_symmetry_cell_setting 'triclinic'
loop_
_space_group_symop_operation_xyz
x,y,z
-x,-y,-z
loop_
_atom_site_type_symbol
_atom_site_label
_atom_site_fract_x
_atom_site_fract_y
_atom_site_fract_z
Si Si1 0.961627 0.754489 0.352651
Si Si2 0.202434 0.665998 0.098604
Si Si3 0.918730 0.786469 0.851234
Si Si4 0.771252 0.006246 0.702695
Si Si5 0.478067 0.635531 0.270512
Si Si6 0.635771 0.458572 0.567991
Si Si7 0.836364 0.161687 0.274100
O O1 0.857061 0.905390 0.491055
O O2 0.031907 0.699122 0.166020
O O3 0.105023 0.825564 0.555691
O O4 0.843625 0.560735 0.185231
O O5 0.328181 0.708708 0.279922
O O6 0.277989 0.812468 0.158523
O O7 0.807103 0.614730 0.727987
O O8 0.000209 0.729798 0.668277
O O9 0.811786 0.937995 0.982996
O O10 0.081795 0.902909 0.079198
O O11 0.625594 0.827132 0.531144
O O12 0.424627 0.525261 0.274747
O O13 0.500000 0.500000 0.000000
O O14 0.500000 0.500000 0.500000
O O15 0.687688 0.257079 0.339110
#
# Coordination Sequence:
#
# PCOD9009647 Si02
#       7
#     2   2   2   2   2   2   2
#     4  10  21  39  71  99 135 172 230 286 334 412
#     4  11  22  41  68  97 136 180 225 279 348 400
#     4  10  25  45  75 100 134 183 241 283 348 416
#     4  11  24  42  70  99 136 180 227 278 351 407
#     4  12  27  47  66 105 148 178 231 289 343 415
#     4  12  28  47  72 102 144 189 231 288 354 409
#     4  10  22  46  71 101 136 181 238 286 338 425
#
# _framework density 23.168552999999999
#
# number of rings (size 3 to 8) (size 9 to 14) (size 15 to 20)
#    0.000    1.143    2.857    2.143    8.000    4.000 
#    2.571    0.000    0.000    0.000    0.000    0.000 
#    0.000    0.000    0.000    0.000    0.000    0.000 
#
# Total GULP energy -78129.499390 kJ/mol
# GULP energy per Si atom -5580.678528 kJ/mol
# Density = 2.311582 g / cm^3
# Si number density = 23.168553 Si / 1000 Ang^3
#
#
#
# Elastic Constant Matrix: (Units=GPa)
#
#
# Indices 1 2 3 4 5 6 
#
# 1 67.4348 19.1646 21.5730 -3.4272 -10.8576 -5.0807
# 2 19.1646 104.8793 24.2928 11.7561 -10.3870 4.6314
# 3 21.5730 24.2928 63.1246 8.6533 1.0221 1.4830
# 4 -3.4272 11.7561 8.6533 34.7550 -0.3774 1.0753
# 5 -10.8576 -10.3870 1.0221 -0.3774 30.7844 1.3892
# 6 -5.0807 4.6314 1.4830 1.0753 1.3892 47.3266
#
#
#
# Elastic Compliance Matrix: (Units=1/GPa)
#
#
# Indices 1 2 3 4 5 6 
#
# 1 0.018771 -0.001891 -0.006397 0.004084 0.006149 0.002127
# 2 -0.001891 0.011385 -0.003330 -0.003134 0.003302 -0.001239
# 3 -0.006397 -0.003330 0.020011 -0.004507 -0.004065 -0.000766
# 4 0.004084 -0.003134 -0.004507 0.031363 0.000911 0.000147
# 5 0.006149 0.003302 -0.004065 0.000911 0.035941 -0.000611
# 6 0.002127 -0.001239 -0.000766 0.000147 -0.000611 0.021518
#
#
# Mechanical properties :
#
#
# Convention : Reuss Voigt Hill
#
# Bulk Modulus (GPa) = 37.13144 40.61107 38.87126
# Shear Modulus (GPa) = 29.20561 33.93375 31.56968
#
# Velocity S-wave (km/s) = 3.55430 3.83122 3.69536
# Velocity P-wave (km/s) = 5.73634 6.09406 5.91790
#
# Compressibility (1/GPa) = 0.02693136
#
# Stress axis : x y z
#
# Youngs Moduli (GPa) = 53.27433 87.83754 49.97300
#
# Poissons Ratio (x) = 0.16612 0.31966
# Poissons Ratio (y) = 0.10075 0.16639
# Poissons Ratio (z) = 0.34077 0.29247
#
# Static dielectric constant tensor:
#      x y z
#    x 1.949340 0.023920 -0.027060 
#    y 0.023920 1.894590 0.010610 
#    z -0.027060 0.010610 1.874450 
# 
# From -- ./inp_files/400094.got.cif
#   From: 2010.05.17/outbox.cif.g08.bks.cpg/sg2_201_cif.got.tgz:400094.got - 2010.06.03 11:33:40.
