data_PCOD9009818
_publ_section_title
;
Structure prediction by ZEFSAII (Michael W. Deem and Ramdas Pophale) SiO2 
 PCOD9009818
Probable space group: P -1
;
_chemical_formula_sum "Si O2"
_cell_formula_units_Z 16
_cell_length_a 18.850708
_cell_length_b 6.138746
_cell_length_c 22.117991
_cell_angle_alpha 64.783229
_cell_angle_beta 18.055417
_cell_angle_gamma 61.200846
_cell_volume 690.327467
_symmetry_space_group_name_H-M "P -1"
_symmetry_group_IT_number 2
_symmetry_cell_setting 'triclinic'
loop_
_space_group_symop_operation_xyz
x,y,z
-x,-y,-z
loop_
_atom_site_type_symbol
_atom_site_label
_atom_site_fract_x
_atom_site_fract_y
_atom_site_fract_z
Si Si1 0.231655 0.052821 0.687316
Si Si2 0.190917 0.645244 0.844894
Si Si3 0.099923 0.541214 0.658028
Si Si4 0.555252 0.258202 0.253911
Si Si5 0.620495 0.212925 0.521067
Si Si6 0.384988 0.793916 0.044454
Si Si7 0.770542 0.100578 0.715417
Si Si8 0.630872 0.416088 0.041045
O O1 0.109182 0.926780 0.852286
O O2 0.239375 0.887625 0.640935
O O3 0.500000 0.000000 0.500000
O O4 0.142944 0.334994 0.702353
O O5 0.281532 0.653749 0.839027
O O6 0.431578 0.482235 0.636277
O O7 0.000000 0.500000 0.000000
O O8 0.284734 0.422226 0.469210
O O9 0.190232 0.766882 0.584006
O O10 0.829256 0.569406 0.857084
O O11 0.633976 0.295863 0.118405
O O12 0.532722 0.979553 0.316076
O O13 0.196068 0.895904 0.239247
O O14 0.500000 0.500000 0.000000
O O15 0.311976 0.788535 0.034444
O O16 0.591544 0.931593 0.867597
O O17 0.624991 0.384390 0.783121
O O18 0.000000 0.000000 0.500000
#
# Coordination Sequence:
#
# PCOD9009818 Si02
#       8
#     2   2   2   2   2   2   2   2
#     4  11  20  39  60  84 118 173 228 275 333 385
#     4  11  24  36  58  91 122 170 228 285 325 391
#     4  10  24  41  60  91 130 173 222 273 333 391
#     4  10  24  42  57  95 132 169 227 272 336 387
#     4  10  21  40  60  80 123 175 222 273 337 383
#     4   9  22  44  69 103 135 169 215 258 323 398
#     4  10  23  45  74 104 133 172 215 258 324 401
#     4  11  25  42  68  99 138 172 214 273 328 399
#
# _framework density 23.177406999999999
#
# number of rings (size 3 to 8) (size 9 to 14) (size 15 to 20)
#    0.000    1.750    3.750    0.375    3.500   10.500 
#    0.000    1.250    0.000    0.000    0.000    0.000 
#    0.000    0.000    0.000    0.000    0.000    0.000 
#
# Total GULP energy -89429.350744 kJ/mol
# GULP energy per Si atom -5589.334421 kJ/mol
# Density = 2.312465 g / cm^3
# Si number density = 23.177407 Si / 1000 Ang^3
#
#
#
# Elastic Constant Matrix: (Units=GPa)
#
#
# Indices 1 2 3 4 5 6 
#
# 1 144.1508 32.7663 56.6981 -9.4959 22.8142 21.2987
# 2 32.7663 64.4011 21.2331 0.7508 5.0019 13.4737
# 3 56.6981 21.2331 135.2349 9.4581 12.6300 17.6381
# 4 -9.4959 0.7508 9.4581 38.1647 -0.7957 -1.2611
# 5 22.8142 5.0019 12.6300 -0.7957 37.2867 -1.5554
# 6 21.2987 13.4737 17.6381 -1.2611 -1.5554 34.0496
#
#
#
# Elastic Compliance Matrix: (Units=1/GPa)
#
#
# Indices 1 2 3 4 5 6 
#
# 1 0.010451 -0.003138 -0.003156 0.003215 -0.004993 -0.003770
# 2 -0.003138 0.018490 -0.000809 -0.001120 -0.000519 -0.005000
# 3 -0.003156 -0.000809 0.009575 -0.003265 -0.001392 -0.002850
# 4 0.003215 -0.001120 -0.003265 0.027870 -0.000068 0.001153
# 5 -0.004993 -0.000519 -0.001392 -0.000068 0.030641 0.005447
# 6 -0.003770 -0.005000 -0.002850 0.001153 0.005447 0.035474
#
#
# Mechanical properties :
#
#
# Convention : Reuss Voigt Hill
#
# Bulk Modulus (GPa) = 41.13274 62.79798 51.96536
# Shear Modulus (GPa) = 32.29788 37.43949 34.86868
#
# Velocity S-wave (km/s) = 3.73702 4.02349 3.88290
# Velocity P-wave (km/s) = 6.03373 6.98126 6.52472
#
# Compressibility (1/GPa) = 0.02431153
#
# Stress axis : x y z
#
# Youngs Moduli (GPa) = 95.68752 54.08262 104.44123
#
# Poissons Ratio (x) = 0.16969 0.32959
# Poissons Ratio (y) = 0.30024 0.08446
# Poissons Ratio (z) = 0.30197 0.04373
#
# Static dielectric constant tensor:
#      x y z
#    x 1.925630 -0.038810 -0.022910 
#    y -0.038810 1.891660 0.037760 
#    z -0.022910 0.037760 1.903180 
# 
# From -- ./inp_files/598987.got.cif
#   From: 2010.05.17/outbox.cif.g08.bks.cpg/sg2_300_cif.got.tgz:598987.got - 2010.06.03 11:33:40.
