data_PCOD9009928
_publ_section_title
;
Structure prediction by ZEFSAII (Michael W. Deem and Ramdas Pophale) SiO2 
 PCOD9009928
Probable space group: P -1
;
_chemical_formula_sum "Si O2"
_cell_formula_units_Z 14
_cell_length_a 18.492065
_cell_length_b 9.087166
_cell_length_c 18.046054
_cell_angle_alpha 39.755461
_cell_angle_beta 19.061079
_cell_angle_gamma 40.702232
_cell_volume 626.093042
_symmetry_space_group_name_H-M "P -1"
_symmetry_group_IT_number 2
_symmetry_cell_setting 'triclinic'
loop_
_space_group_symop_operation_xyz
x,y,z
-x,-y,-z
loop_
_atom_site_type_symbol
_atom_site_label
_atom_site_fract_x
_atom_site_fract_y
_atom_site_fract_z
Si Si1 0.817699 0.469530 0.882250
Si Si2 0.881501 0.651950 0.487037
Si Si3 0.567270 0.254940 0.342972
Si Si4 0.444257 0.940674 0.277181
Si Si5 0.558228 0.338792 0.932874
Si Si6 0.863734 0.356871 0.383476
Si Si7 0.180794 0.465026 0.903806
O O1 0.948365 0.297578 0.760690
O O2 0.984796 0.619024 0.701982
O O3 0.695654 0.333326 0.115277
O O4 0.647020 0.640618 0.931723
O O5 0.737463 0.462167 0.668959
O O6 0.000000 0.500000 0.500000
O O7 0.715033 0.879171 0.586243
O O8 0.331626 0.422215 0.513830
O O9 0.721697 0.312946 0.240743
O O10 0.500000 0.000000 0.500000
O O11 0.275742 0.850581 0.416742
O O12 0.598748 0.726953 0.250146
O O13 0.608018 0.084814 0.017186
O O14 0.500000 0.500000 0.000000
O O15 0.036927 0.368935 0.144792
O O16 0.000000 0.500000 0.000000
#
# Coordination Sequence:
#
# PCOD9009928 Si02
#       7
#     2   2   2   2   2   2   2
#     4  11  22  43  72  99 144 182 230 290 353 420
#     4  11  22  42  67 105 144 182 229 285 349 417
#     4  10  24  50  71 103 137 185 250 296 350 428
#     4  10  23  42  71 101 145 179 234 287 346 430
#     4  10  21  40  61 106 141 173 231 276 338 424
#     4  10  24  47  66  99 138 186 234 290 357 421
#     4  10  24  48  72 103 138 185 243 300 358 413
#
# _framework density 22.360892
#
# number of rings (size 3 to 8) (size 9 to 14) (size 15 to 20)
#    0.000    1.714    2.857    0.857    2.000    5.143 
#   23.143    7.143    0.000    0.000    0.000    0.000 
#    0.000    0.000    0.000    0.000    0.000    0.000 
#
# Total GULP energy -78108.861944 kJ/mol
# GULP energy per Si atom -5579.204425 kJ/mol
# Density = 2.231000 g / cm^3
# Si number density = 22.360892 Si / 1000 Ang^3
#
#
#
# Elastic Constant Matrix: (Units=GPa)
#
#
# Indices 1 2 3 4 5 6 
#
# 1 149.8756 44.7798 31.5566 11.8222 -31.1436 -7.6084
# 2 44.7798 99.1090 50.6001 -1.4437 -4.9030 9.2540
# 3 31.5566 50.6001 67.3188 12.5469 -12.4120 5.9610
# 4 11.8222 -1.4437 12.5469 42.3177 11.3494 -5.1467
# 5 -31.1436 -4.9030 -12.4120 11.3494 52.1336 6.5553
# 6 -7.6084 9.2540 5.9610 -5.1467 6.5553 13.3274
#
#
#
# Elastic Compliance Matrix: (Units=1/GPa)
#
#
# Indices 1 2 3 4 5 6 
#
# 1 0.009768 -0.004858 0.000549 -0.004119 0.005875 0.004223
# 2 -0.004858 0.020123 -0.014863 0.007406 -0.005596 -0.004485
# 3 0.000549 -0.014863 0.032171 -0.015263 0.011859 -0.015482
# 4 -0.004119 0.007406 -0.015263 0.036440 -0.016007 0.021278
# 5 0.005875 -0.005596 0.011859 -0.016007 0.030919 -0.019454
# 6 0.004223 -0.004485 -0.015482 0.021278 -0.019454 0.105269
#
#
# Mechanical properties :
#
#
# Convention : Reuss Voigt Hill
#
# Bulk Modulus (GPa) = 42.16001 63.35294 52.75647
# Shear Modulus (GPa) = 17.79744 34.18020 25.98882
#
# Velocity S-wave (km/s) = 2.82426 3.91394 3.41287
# Velocity P-wave (km/s) = 5.43420 6.98704 6.25896
#
# Compressibility (1/GPa) = 0.02371916
#
# Stress axis : x y z
#
# Youngs Moduli (GPa) = 102.37520 49.69450 31.08367
#
# Poissons Ratio (x) = 0.24139 -0.01708
# Poissons Ratio (y) = 0.49729 0.46201
# Poissons Ratio (z) = -0.05624 0.73862
#
# Static dielectric constant tensor:
#      x y z
#    x 1.870940 0.033300 -0.034240 
#    y 0.033300 1.842930 0.019600 
#    z -0.034240 0.019600 1.958840 
# 
# From -- ./inp_files/575496.got.cif
#   From: 2010.05.17/outbox.cif.g08.bks.cpg/sg2_288_cif.got.tgz:575496.got - 2010.06.03 11:33:40.
