data_PCOD9009059
_publ_section_title
;
Structure prediction by ZEFSAII (Michael W. Deem and Ramdas Pophale) SiO2 
 PCOD9009059
Probable space group: P -1
;
_chemical_formula_sum "Si O2"
_cell_formula_units_Z 16
_cell_length_a 8.949619
_cell_length_b 18.564576
_cell_length_c 11.456715
_cell_angle_alpha 37.673822
_cell_angle_beta 39.759066
_cell_angle_gamma 42.949148
_cell_volume 705.916975
_symmetry_space_group_name_H-M "P -1"
_symmetry_group_IT_number 2
_symmetry_cell_setting 'triclinic'
loop_
_space_group_symop_operation_xyz
x,y,z
-x,-y,-z
loop_
_atom_site_type_symbol
_atom_site_label
_atom_site_fract_x
_atom_site_fract_y
_atom_site_fract_z
Si Si1 0.873705 0.164502 0.488194
Si Si2 0.284850 0.999256 0.850222
Si Si3 0.252690 0.088510 0.148130
Si Si4 0.540744 0.243315 0.065990
Si Si5 0.310928 0.435797 0.748664
Si Si6 0.956923 0.723663 0.320563
Si Si7 0.685805 0.703977 0.306048
Si Si8 0.051875 0.318984 0.363051
O O1 0.600164 0.263221 0.530222
O O2 0.051771 0.159215 0.276913
O O3 0.998040 0.204741 0.475461
O O4 0.825661 0.031614 0.685921
O O5 0.473067 0.944939 0.915412
O O6 0.246490 0.144751 0.692286
O O7 0.423191 0.901479 0.793854
O O8 0.000000 0.000000 0.000000
O O9 0.258883 0.169937 0.926925
O O10 0.425687 0.328405 0.912298
O O11 0.807855 0.254926 0.909108
O O12 0.341824 0.294371 0.218893
O O13 0.500000 0.500000 0.500000
O O14 0.241218 0.373887 0.755161
O O15 0.092180 0.552429 0.777419
O O16 0.840303 0.651043 0.395269
O O17 0.041029 0.666223 0.468669
#
# Coordination Sequence:
#
# PCOD9009059 Si02
#       8
#     2   2   2   2   2   2   2   2
#     4  11  23  39  69  96 133 170 219 275 321 391
#     4  10  21  39  66  99 135 169 213 262 337 400
#     4  11  23  42  65 102 132 170 226 266 329 396
#     4  11  23  46  67  97 133 174 221 273 328 387
#     4  12  23  44  74  95 124 176 234 273 319 385
#     4  11  26  41  64 101 135 176 214 264 337 401
#     4  12  24  43  68  93 135 177 213 280 326 382
#     4  12  25  44  68  99 133 175 225 269 324 393
#
# _framework density 22.665555000000001
#
# number of rings (size 3 to 8) (size 9 to 14) (size 15 to 20)
#    0.000    0.750    6.250    0.750    1.750    3.000 
#    0.000    0.625    0.000    0.000    0.000    0.000 
#    0.000    0.000    0.000    0.000    0.000    0.000 
#
# Total GULP energy -89265.227281 kJ/mol
# GULP energy per Si atom -5579.076705 kJ/mol
# Density = 2.261397 g / cm^3
# Si number density = 22.665555 Si / 1000 Ang^3
#
#
#
# Elastic Constant Matrix: (Units=GPa)
#
#
# Indices 1 2 3 4 5 6 
#
# 1 97.3684 9.5002 26.0186 6.1426 -5.4231 2.8090
# 2 9.5002 68.7379 21.0207 4.1806 -12.4340 -19.5483
# 3 26.0186 21.0207 68.9188 18.5091 -6.3052 -1.4494
# 4 6.1426 4.1806 18.5091 35.3700 -5.8033 -3.4212
# 5 -5.4231 -12.4340 -6.3052 -5.8033 20.6917 0.0810
# 6 2.8090 -19.5483 -1.4494 -3.4212 0.0810 29.7476
#
#
#
# Elastic Compliance Matrix: (Units=1/GPa)
#
#
# Indices 1 2 3 4 5 6 
#
# 1 0.011550 -0.000509 -0.004190 0.000347 0.001548 -0.001594
# 2 -0.000509 0.023035 -0.006505 0.004368 0.012892 0.015336
# 3 -0.004190 -0.006505 0.020504 -0.009869 -0.001511 -0.004011
# 4 0.000347 0.004368 -0.009869 0.035036 0.009510 0.006361
# 5 0.001548 0.012892 -0.001511 0.009510 0.058652 0.009186
# 6 -0.001594 0.015336 -0.004011 0.006361 0.009186 0.044356
#
#
# Mechanical properties :
#
#
# Convention : Reuss Voigt Hill
#
# Bulk Modulus (GPa) = 30.59958 38.67824 34.63891
# Shear Modulus (GPa) = 22.08146 29.06089 25.57117
#
# Velocity S-wave (km/s) = 3.12465 3.58461 3.36251
# Velocity P-wave (km/s) = 5.15245 5.85102 5.51281
#
# Compressibility (1/GPa) = 0.03268018
#
# Stress axis : x y z
#
# Youngs Moduli (GPa) = 86.58043 43.41152 48.77203
#
# Poissons Ratio (x) = 0.02211 0.20436
# Poissons Ratio (y) = 0.04410 0.31726
# Poissons Ratio (z) = 0.36278 0.28239
#
# Static dielectric constant tensor:
#      x y z
#    x 1.869360 0.015220 0.008240 
#    y 0.015220 1.921650 -0.008880 
#    z 0.008240 -0.008880 1.861770 
# 
# From -- ./inp_files/273937.got.cif
#   From: 2010.05.17/outbox.cif.g08.bks.cpg/sg2_137_cif.got.tgz:273937.got - 2010.06.03 11:33:40.
