data_PCOD9009506
_publ_section_title
;
Structure prediction by ZEFSAII (Michael W. Deem and Ramdas Pophale) SiO2 
 PCOD9009506
Probable space group: P -1
;
_chemical_formula_sum "Si O2"
_cell_formula_units_Z 12
_cell_length_a 11.954412
_cell_length_b 18.257309
_cell_length_c 10.639098
_cell_angle_alpha 28.472114
_cell_angle_beta 34.032538
_cell_angle_gamma 32.475214
_cell_volume 558.884935
_symmetry_space_group_name_H-M "P -1"
_symmetry_group_IT_number 2
_symmetry_cell_setting 'triclinic'
loop_
_space_group_symop_operation_xyz
x,y,z
-x,-y,-z
loop_
_atom_site_type_symbol
_atom_site_label
_atom_site_fract_x
_atom_site_fract_y
_atom_site_fract_z
Si Si1 0.205396 0.934725 0.309808
Si Si2 0.621614 0.795578 0.715037
Si Si3 0.007311 0.423465 0.472471
Si Si4 0.811453 0.157289 0.013749
Si Si5 0.700644 0.782280 0.124278
Si Si6 0.860139 0.882581 0.569662
O O1 0.447298 0.809085 0.325279
O O2 0.111012 0.850946 0.418316
O O3 0.000000 0.000000 0.500000
O O4 0.244037 0.104680 0.992816
O O5 0.409297 0.760253 0.989573
O O6 0.807528 0.770137 0.684516
O O7 0.748579 0.685858 0.643508
O O8 0.500000 0.000000 0.500000
O O9 0.872187 0.588127 0.264758
O O10 0.000000 0.500000 0.500000
O O11 0.894058 0.295577 0.765767
O O12 0.767631 0.071261 0.310271
O O13 0.000000 0.000000 0.000000
O O14 0.737522 0.860380 0.840815
#
# Coordination Sequence:
#
# PCOD9009506 Si02
#       6
#     2   2   2   2   2   2
#     4   9  20  40  65  96 138 183 222 265 350 408
#     4  10  23  43  68  97 134 179 229 270 342 405
#     4  12  26  44  69 103 138 172 229 290 336 398
#     4  11  23  43  69  98 133 183 228 268 341 412
#     4  10  23  39  65 102 137 173 226 287 337 394
#     4  10  21  39  69  92 131 178 226 270 335 406
#
# _framework density 21.471325
#
# number of rings (size 3 to 8) (size 9 to 14) (size 15 to 20)
#    0.000    1.667    3.333    1.000    2.333   12.000 
#    0.000    1.667    0.000    0.000    0.000    0.000 
#    0.000    0.000    0.000    0.000    0.000    0.000 
#
# Total GULP energy -66851.189039 kJ/mol
# GULP energy per Si atom -5570.932420 kJ/mol
# Density = 2.142246 g / cm^3
# Si number density = 21.471325 Si / 1000 Ang^3
#
#
#
# Elastic Constant Matrix: (Units=GPa)
#
#
# Indices 1 2 3 4 5 6 
#
# 1 106.0746 49.9526 54.4805 14.6848 -38.8343 8.0549
# 2 49.9526 146.9182 48.5863 6.7053 -13.3323 1.9755
# 3 54.4805 48.5863 98.1924 6.5685 -21.3278 -3.3463
# 4 14.6848 6.7053 6.5685 33.3154 -9.4612 -8.4411
# 5 -38.8343 -13.3323 -21.3278 -9.4612 59.0250 0.0933
# 6 8.0549 1.9755 -3.3463 -8.4411 0.0933 34.1296
#
#
#
# Elastic Compliance Matrix: (Units=1/GPa)
#
#
# Indices 1 2 3 4 5 6 
#
# 1 0.018628 -0.002960 -0.006934 -0.005511 0.008209 -0.006290
# 2 -0.002960 0.008678 -0.002872 -0.000210 -0.001058 -0.000135
# 3 -0.006934 -0.002872 0.015618 0.001705 0.000700 0.003754
# 4 -0.005511 -0.000210 0.001705 0.035491 0.002616 0.010251
# 5 0.008209 -0.001058 0.000700 0.002616 0.022778 -0.001223
# 6 -0.006290 -0.000135 0.003754 0.010251 -0.001223 0.033699
#
#
# Mechanical properties :
#
#
# Convention : Reuss Voigt Hill
#
# Bulk Modulus (GPa) = 57.49407 73.02489 65.25948
# Shear Modulus (GPa) = 30.08025 38.50503 34.29264
#
# Velocity S-wave (km/s) = 3.74699 4.23936 4.00075
# Velocity P-wave (km/s) = 6.74946 7.61887 7.19730
#
# Compressibility (1/GPa) = 0.01739310
#
# Stress axis : x y z
#
# Youngs Moduli (GPa) = 53.68227 115.23380 64.02712
#
# Poissons Ratio (x) = 0.34104 0.44396
# Poissons Ratio (y) = 0.15888 0.18390
# Poissons Ratio (z) = 0.37223 0.33098
#
# Static dielectric constant tensor:
#      x y z
#    x 1.953930 -0.003430 -0.019990 
#    y -0.003430 1.755920 0.018300 
#    z -0.019990 0.018300 1.812150 
# 
# From -- ./inp_files/436297.got.cif
#   From: 2010.05.17/outbox.cif.g08.bks.cpg/sg2_219_cif.got.tgz:436297.got - 2010.06.03 11:33:40.
