data_PCOD9009906
_publ_section_title
;
Structure prediction by ZEFSAII (Michael W. Deem and Ramdas Pophale) SiO2 
 PCOD9009906
Probable space group: P -1
;
_chemical_formula_sum "Si O2"
_cell_formula_units_Z 14
_cell_length_a 18.054486
_cell_length_b 5.137223
_cell_length_c 9.629214
_cell_angle_alpha 114.271503
_cell_angle_beta 57.805863
_cell_angle_gamma 86.112148
_cell_volume 639.597744
_symmetry_space_group_name_H-M "P -1"
_symmetry_group_IT_number 2
_symmetry_cell_setting 'triclinic'
loop_
_space_group_symop_operation_xyz
x,y,z
-x,-y,-z
loop_
_atom_site_type_symbol
_atom_site_label
_atom_site_fract_x
_atom_site_fract_y
_atom_site_fract_z
Si Si1 0.750284 0.937797 0.602613
Si Si2 0.395455 0.135046 0.466603
Si Si3 0.156638 0.768622 0.642501
Si Si4 0.946730 0.266487 0.505570
Si Si5 0.258511 0.239650 0.130764
Si Si6 0.704122 0.144035 0.270104
Si Si7 0.537077 0.777263 0.046877
O O1 0.656581 0.909318 0.631041
O O2 0.824969 0.588804 0.429754
O O3 0.745515 0.971371 0.779371
O O4 0.775986 0.160923 0.523594
O O5 0.360530 0.497001 0.607248
O O6 0.354853 0.986647 0.595740
O O7 0.501161 0.951121 0.269072
O O8 0.060956 0.875264 0.670515
O O9 0.195800 0.879811 0.764265
O O10 0.841043 0.474685 0.707936
O O11 0.000000 0.500000 0.500000
O O12 0.000000 0.000000 0.500000
O O13 0.349915 0.328066 0.083364
O O14 0.273902 0.044760 0.933781
O O15 0.500000 0.500000 0.000000
O O16 0.500000 0.000000 0.000000
#
# Coordination Sequence:
#
# PCOD9009906 Si02
#       7
#     2   2   2   2   2   2   2
#     4   9  18  34  63  87 121 167 216 252 307 376
#     4  10  21  40  60  93 135 178 214 253 324 392
#     4   9  19  38  62  91 123 168 204 265 327 383
#     4  11  24  42  68  97 124 168 228 277 328 387
#     4  11  25  43  68 101 134 171 223 285 321 389
#     4  10  23  40  65  96 138 175 210 261 341 396
#     4  12  26  40  68 102 133 174 232 270 311 390
#
# _framework density 21.888756999999998
#
# number of rings (size 3 to 8) (size 9 to 14) (size 15 to 20)
#    0.000    1.714    1.429    2.571    8.000    6.857 
#    0.000    1.429    0.000    0.000    0.000    0.000 
#    0.000    0.000    0.000    0.000    0.000    0.000 
#
# Total GULP energy -78081.639576 kJ/mol
# GULP energy per Si atom -5577.259970 kJ/mol
# Density = 2.183894 g / cm^3
# Si number density = 21.888757 Si / 1000 Ang^3
#
#
#
# Elastic Constant Matrix: (Units=GPa)
#
#
# Indices 1 2 3 4 5 6 
#
# 1 135.8095 39.4626 43.2172 7.1385 1.1510 8.6889
# 2 39.4626 113.3999 33.5885 18.7653 -1.7122 14.0464
# 3 43.2172 33.5885 86.0672 6.8428 18.2381 8.6495
# 4 7.1385 18.7653 6.8428 18.6726 -4.3233 -5.4057
# 5 1.1510 -1.7122 18.2381 -4.3233 39.8603 5.2299
# 6 8.6889 14.0464 8.6495 -5.4057 5.2299 26.6563
#
#
#
# Elastic Compliance Matrix: (Units=1/GPa)
#
#
# Indices 1 2 3 4 5 6 
#
# 1 0.009286 -0.001813 -0.004202 -0.000102 0.001705 -0.001063
# 2 -0.001813 0.013783 -0.002740 -0.014410 0.001516 -0.009003
# 3 -0.004202 -0.002740 0.017039 -0.004322 -0.007996 -0.002023
# 4 -0.000102 -0.014410 -0.004322 0.078031 0.006737 0.023531
# 5 0.001705 0.001516 -0.007996 0.006737 0.029921 -0.003264
# 6 -0.001063 -0.009003 -0.002023 0.023531 -0.003264 0.048674
#
#
# Mechanical properties :
#
#
# Convention : Reuss Voigt Hill
#
# Bulk Modulus (GPa) = 44.24746 63.09036 53.66891
# Shear Modulus (GPa) = 22.54529 31.63840 27.09184
#
# Velocity S-wave (km/s) = 3.21283 3.80599 3.52192
# Velocity P-wave (km/s) = 5.83281 6.94261 6.41177
#
# Compressibility (1/GPa) = 0.02260017
#
# Stress axis : x y z
#
# Youngs Moduli (GPa) = 107.68944 72.55193 58.68845
#
# Poissons Ratio (x) = 0.13151 0.24659
# Poissons Ratio (y) = 0.19520 0.16079
# Poissons Ratio (z) = 0.45248 0.19877
#
# Static dielectric constant tensor:
#      x y z
#    x 1.909090 -0.020270 -0.032150 
#    y -0.020270 1.835030 0.053650 
#    z -0.032150 0.053650 1.828340 
# 
# From -- ./inp_files/43065.got.cif
#   From: 2010.05.17/outbox.cif.g08.bks.cpg/sg2_22_cif.got.tgz:43065.got - 2010.06.03 11:33:40.
