data_PCOD9009278
_publ_section_title
;
Structure prediction by ZEFSAII (Michael W. Deem and Ramdas Pophale) SiO2 
 PCOD9009278
Probable space group: P -1
;
_chemical_formula_sum "Si O2"
_cell_formula_units_Z 12
_cell_length_a 8.721424
_cell_length_b 7.933548
_cell_length_c 7.376861
_cell_angle_alpha 95.558737
_cell_angle_beta 72.881938
_cell_angle_gamma 71.659873
_cell_volume 452.815742
_symmetry_space_group_name_H-M "P -1"
_symmetry_group_IT_number 2
_symmetry_cell_setting 'triclinic'
loop_
_space_group_symop_operation_xyz
x,y,z
-x,-y,-z
loop_
_atom_site_type_symbol
_atom_site_label
_atom_site_fract_x
_atom_site_fract_y
_atom_site_fract_z
Si Si1 0.828563 0.139857 0.845565
Si Si2 0.191642 0.493807 0.955645
Si Si3 0.806668 0.592236 0.659069
Si Si4 0.793489 0.985262 0.218487
Si Si5 0.565466 0.992704 0.768724
Si Si6 0.696332 0.394018 0.423293
O O1 0.755374 0.336480 0.983489
O O2 0.698696 0.100750 0.744635
O O3 0.842805 0.993437 0.988784
O O4 0.029268 0.121419 0.745301
O O5 0.233500 0.373907 0.109686
O O6 0.240683 0.487989 0.728373
O O7 0.000000 0.500000 0.000000
O O8 0.686029 0.788557 0.646161
O O9 0.749582 0.426047 0.607923
O O10 0.000000 0.500000 0.500000
O O11 0.616454 0.942560 0.272970
O O12 0.746757 0.188434 0.328761
O O13 0.500000 0.000000 0.000000
O O14 0.500000 0.500000 0.500000
#
# Coordination Sequence:
#
# PCOD9009278 Si02
#       6
#     2   2   2   2   2   2
#     4   9  20  38  64  95 131 179 226 275 347 414
#     4  11  25  43  70 102 135 184 230 284 352 416
#     4  12  24  43  74  98 136 184 232 285 341 417
#     4   9  18  37  66  93 132 181 219 281 345 406
#     4  10  21  39  67  99 135 183 227 281 353 408
#     4  11  22  43  66 102 138 173 232 286 342 409
#
# _framework density 26.500845000000002
#
# number of rings (size 3 to 8) (size 9 to 14) (size 15 to 20)
#    0.000    1.667    3.333    1.000    7.000    0.667 
#    0.000    3.333    0.000    4.000    0.000    0.000 
#    0.000    0.000    0.000    0.000    0.000    0.000 
#
# Total GULP energy -66806.935148 kJ/mol
# GULP energy per Si atom -5567.244596 kJ/mol
# Density = 2.644053 g / cm^3
# Si number density = 26.500845 Si / 1000 Ang^3
#
#
#
# Elastic Constant Matrix: (Units=GPa)
#
#
# Indices 1 2 3 4 5 6 
#
# 1 175.9213 31.4877 11.8849 -3.8052 -1.2050 33.8763
# 2 31.4877 78.6038 21.4556 14.5901 12.9842 24.2508
# 3 11.8849 21.4556 105.8788 -8.3958 -2.3940 0.9952
# 4 -3.8052 14.5901 -8.3958 47.7025 5.8105 5.2647
# 5 -1.2050 12.9842 -2.3940 5.8105 42.5812 5.5604
# 6 33.8763 24.2508 0.9952 5.2647 5.5604 38.9963
#
#
#
# Elastic Compliance Matrix: (Units=1/GPa)
#
#
# Indices 1 2 3 4 5 6 
#
# 1 0.007086 -0.001497 -0.000299 0.001444 0.001172 -0.005579
# 2 -0.001497 0.018851 -0.004065 -0.005098 -0.004143 -0.009039
# 3 -0.000299 -0.004065 0.010525 0.002708 0.001194 0.001983
# 4 0.001444 -0.005098 0.002708 0.023397 -0.001298 -0.001126
# 5 0.001172 -0.004143 0.001194 -0.001298 0.025273 -0.001900
# 6 -0.005579 -0.009039 0.001983 -0.001126 -0.001900 0.036484
#
#
# Mechanical properties :
#
#
# Convention : Reuss Voigt Hill
#
# Bulk Modulus (GPa) = 40.41996 54.45115 47.43555
# Shear Modulus (GPa) = 35.31463 45.56106 40.43784
#
# Velocity S-wave (km/s) = 3.65442 4.15086 3.91052
# Velocity P-wave (km/s) = 5.75255 6.60033 6.19097
#
# Compressibility (1/GPa) = 0.02474025
#
# Stress axis : x y z
#
# Youngs Moduli (GPa) = 141.12126 53.04781 95.01130
#
# Poissons Ratio (x) = 0.07944 0.02837
# Poissons Ratio (y) = 0.21132 0.38621
# Poissons Ratio (z) = 0.04213 0.21563
#
# Static dielectric constant tensor:
#      x y z
#    x 2.082010 -0.065210 0.075280 
#    y -0.065210 2.037530 0.047110 
#    z 0.075280 0.047110 2.368020 
# 
# From -- ./inp_files/155770.got.cif
#   From: 2010.05.17/outbox.cif.g08.bks.cpg/sg2_78_cif.got.tgz:155770.got - 2010.06.03 11:33:40.
