data_PCOD9009872
_publ_section_title
;
Structure prediction by ZEFSAII (Michael W. Deem and Ramdas Pophale) SiO2 
 PCOD9009872
Probable space group: P -1
;
_chemical_formula_sum "Si O2"
_cell_formula_units_Z 14
_cell_length_a 5.310281
_cell_length_b 25.476542
_cell_length_c 5.838930
_cell_angle_alpha 126.146008
_cell_angle_beta 74.578815
_cell_angle_gamma 107.802403
_cell_volume 603.567472
_symmetry_space_group_name_H-M "P -1"
_symmetry_group_IT_number 2
_symmetry_cell_setting 'triclinic'
loop_
_space_group_symop_operation_xyz
x,y,z
-x,-y,-z
loop_
_atom_site_type_symbol
_atom_site_label
_atom_site_fract_x
_atom_site_fract_y
_atom_site_fract_z
Si Si1 0.696651 0.036169 0.227570
Si Si2 0.668191 0.381771 0.721575
Si Si3 0.295146 0.202031 0.860653
Si Si4 0.218134 0.059521 0.707229
Si Si5 0.859221 0.696037 0.532013
Si Si6 0.870555 0.183949 0.515356
Si Si7 0.286371 0.544827 0.600392
O O1 0.513317 0.057816 0.532253
O O2 0.835644 0.106325 0.274562
O O3 0.804833 0.971920 0.119491
O O4 0.500000 0.000000 0.000000
O O5 0.368377 0.337373 0.677916
O O6 0.651027 0.419829 0.576158
O O7 0.929291 0.347743 0.549394
O O8 0.716148 0.414817 0.051785
O O9 0.190768 0.134417 0.857882
O O10 0.590365 0.197498 0.704985
O O11 0.095825 0.197088 0.686156
O O12 0.301307 0.273083 0.155285
O O13 0.000000 0.000000 0.500000
O O14 0.039882 0.762993 0.564931
O O15 0.500000 0.500000 0.500000
O O16 0.000000 0.500000 0.500000
#
# Coordination Sequence:
#
# PCOD9009872 Si02
#       7
#     2   2   2   2   2   2   2
#     4  10  23  38  63  89 127 170 243 312 394 455
#     4  12  28  48  83 120 158 212 249 305 365 448
#     4  11  25  44  69  93 145 184 249 316 384 451
#     4  10  21  40  60  90 121 176 236 316 387 454
#     4  12  28  45  73 107 151 199 256 300 373 453
#     4  11  25  44  66  99 137 192 243 318 379 459
#     4  12  26  52  84 123 164 199 251 305 363 429
#
# _framework density 23.195418
#
# number of rings (size 3 to 8) (size 9 to 14) (size 15 to 20)
#    0.000    0.857    1.429    4.286    8.000    4.000 
#    0.000    0.000    0.000    0.000    0.000    0.000 
#    0.000    0.000    0.000    0.000    0.000    0.000 
#
# Total GULP energy -77999.333276 kJ/mol
# GULP energy per Si atom -5571.380948 kJ/mol
# Density = 2.314262 g / cm^3
# Si number density = 23.195418 Si / 1000 Ang^3
#
#
#
# Elastic Constant Matrix: (Units=GPa)
#
#
# Indices 1 2 3 4 5 6 
#
# 1 169.4723 25.3910 53.5496 15.0939 -4.6741 -20.9035
# 2 25.3910 105.0231 30.4101 -7.0644 -8.6304 -7.0037
# 3 53.5496 30.4101 113.4057 14.5057 2.7472 -19.9417
# 4 15.0939 -7.0644 14.5057 29.6396 -0.2858 2.2857
# 5 -4.6741 -8.6304 2.7472 -0.2858 60.2285 1.9481
# 6 -20.9035 -7.0037 -19.9417 2.2857 1.9481 55.1032
#
#
#
# Elastic Compliance Matrix: (Units=1/GPa)
#
#
# Indices 1 2 3 4 5 6 
#
# 1 0.007353 -0.001093 -0.002490 -0.002925 0.000454 0.001855
# 2 -0.001093 0.011151 -0.003207 0.004832 0.001696 -0.000418
# 3 -0.002490 -0.003207 0.012210 -0.005744 -0.001345 0.003353
# 4 -0.002925 0.004832 -0.005744 0.039529 0.001053 -0.004251
# 5 0.000454 0.001696 -0.001345 0.001053 0.016972 -0.000743
# 6 0.001855 -0.000418 0.003353 -0.004251 -0.000743 0.020214
#
#
# Mechanical properties :
#
#
# Convention : Reuss Voigt Hill
#
# Bulk Modulus (GPa) = 58.35786 67.40027 62.87907
# Shear Modulus (GPa) = 39.45724 47.56432 43.51078
#
# Velocity S-wave (km/s) = 4.12889 4.53326 4.33579
# Velocity P-wave (km/s) = 6.92417 7.51806 7.22722
#
# Compressibility (1/GPa) = 0.01713565
#
# Stress axis : x y z
#
# Youngs Moduli (GPa) = 136.00168 89.67835 81.89797
#
# Poissons Ratio (x) = 0.09798 0.20390
# Poissons Ratio (y) = 0.14859 0.26265
# Poissons Ratio (z) = 0.33861 0.28760
#
# Static dielectric constant tensor:
#      x y z
#    x 1.805350 0.060230 -0.025640 
#    y 0.060230 1.930250 -0.044910 
#    z -0.025640 -0.044910 1.930610 
# 
# From -- ./inp_files/13789.got.cif
#   From: 2010.05.17/outbox.cif.g08.bks.cpg/sg2_7_cif.got.tgz:13789.got - 2010.06.03 11:33:40.
