data_PCOD9009597
_publ_section_title
;
Structure prediction by ZEFSAII (Michael W. Deem and Ramdas Pophale) SiO2 
 PCOD9009597
Probable space group: P -1
;
_chemical_formula_sum "Si O2"
_cell_formula_units_Z 14
_cell_length_a 15.393457
_cell_length_b 11.472645
_cell_length_c 21.132885
_cell_angle_alpha 20.492384
_cell_angle_beta 150.612934
_cell_angle_gamma 147.984257
_cell_volume 630.116473
_symmetry_space_group_name_H-M "P -1"
_symmetry_group_IT_number 2
_symmetry_cell_setting 'triclinic'
loop_
_space_group_symop_operation_xyz
x,y,z
-x,-y,-z
loop_
_atom_site_type_symbol
_atom_site_label
_atom_site_fract_x
_atom_site_fract_y
_atom_site_fract_z
Si Si1 0.298677 0.768716 0.697535
Si Si2 0.105184 0.420767 0.986989
Si Si3 0.912521 0.721645 0.282561
Si Si4 0.317956 0.380117 0.024256
Si Si5 0.231093 0.685295 0.259271
Si Si6 0.445713 0.527661 0.367213
Si Si7 0.325939 0.877671 0.994226
O O1 0.141992 0.527306 0.684147
O O2 0.478118 0.648851 0.846541
O O3 0.331466 0.160154 0.500641
O O4 0.274379 0.683901 0.799165
O O5 0.164687 0.699274 0.936874
O O6 0.950828 0.476044 0.810439
O O7 0.274802 0.409812 0.054855
O O8 0.033543 0.066003 0.157328
O O9 0.000000 0.500000 0.500000
O O10 0.747078 0.842167 0.152845
O O11 0.208084 0.026763 0.106268
O O12 0.375425 0.773958 0.248097
O O13 0.344733 0.487584 0.479519
O O14 0.388571 0.620558 0.214923
O O15 0.500000 0.000000 0.000000
#
# Coordination Sequence:
#
# PCOD9009597 Si02
#       7
#     2   2   2   2   2   2   2
#     4  10  21  40  69  95 134 174 220 268 333 408
#     4  12  24  42  72  97 138 172 222 284 331 391
#     4  12  26  43  69 100 136 174 227 278 335 392
#     4  10  21  41  66  99 133 177 216 271 337 395
#     4  10  21  39  70  96 134 173 217 276 328 394
#     4  10  22  43  69  98 134 179 217 271 341 396
#     4  12  27  48  69  94 138 184 226 271 339 407
#
# _framework density 22.218115000000001
#
# number of rings (size 3 to 8) (size 9 to 14) (size 15 to 20)
#    0.000    1.143    2.857    2.571    2.000    5.714 
#    0.000    6.429    0.000    0.000    0.000    0.000 
#    0.000    0.000    0.000    0.000    0.000    0.000 
#
# Total GULP energy -78232.827358 kJ/mol
# GULP energy per Si atom -5588.059097 kJ/mol
# Density = 2.216755 g / cm^3
# Si number density = 22.218115 Si / 1000 Ang^3
#
#
#
# Elastic Constant Matrix: (Units=GPa)
#
#
# Indices 1 2 3 4 5 6 
#
# 1 90.5350 -7.9158 28.3127 -16.8764 -15.6682 4.3690
# 2 -7.9158 79.5738 12.9152 2.2633 -0.0214 -18.5330
# 3 28.3127 12.9152 93.5747 -0.7271 -3.7614 1.9430
# 4 -16.8764 2.2633 -0.7271 29.2225 -5.9090 1.2703
# 5 -15.6682 -0.0214 -3.7614 -5.9090 16.3600 1.0877
# 6 4.3690 -18.5330 1.9430 1.2703 1.0877 38.3775
#
#
#
# Elastic Compliance Matrix: (Units=1/GPa)
#
#
# Indices 1 2 3 4 5 6 
#
# 1 0.020203 0.001843 -0.005216 0.016398 0.024233 -0.002375
# 2 0.001843 0.014858 -0.002736 -0.000350 0.000557 0.007100
# 3 -0.005216 -0.002736 0.012516 -0.003076 -0.003155 -0.001170
# 4 0.016398 -0.000350 -0.003076 0.050628 0.033583 -0.004508
# 5 0.024233 0.000557 -0.003155 0.033583 0.096148 -0.006167
# 6 -0.002375 0.007100 -0.001170 -0.004508 -0.006167 0.030139
#
#
# Mechanical properties :
#
#
# Convention : Reuss Voigt Hill
#
# Bulk Modulus (GPa) = 28.28156 36.70084 32.49120
# Shear Modulus (GPa) = 20.12101 32.15009 26.13555
#
# Velocity S-wave (km/s) = 3.01261 3.80810 3.43347
# Velocity P-wave (km/s) = 4.98575 5.99081 5.51124
#
# Compressibility (1/GPa) = 0.03535873
#
# Stress axis : x y z
#
# Youngs Moduli (GPa) = 49.49753 67.30355 79.89670
#
# Poissons Ratio (x) = -0.12406 0.41677
# Poissons Ratio (y) = -0.09124 0.21861
# Poissons Ratio (z) = 0.25820 0.18415
#
# Static dielectric constant tensor:
#      x y z
#    x 1.803630 -0.010830 0.028460 
#    y -0.010830 1.894330 0.024680 
#    z 0.028460 0.024680 1.843310 
# 
# From -- ./inp_files/209121.got.cif
#   From: 2010.05.17/outbox.cif.g08.bks.cpg/sg2_105_cif.got.tgz:209121.got - 2010.06.03 11:33:40.
