data_PCOD9009501
_publ_section_title
;
Structure prediction by ZEFSAII (Michael W. Deem and Ramdas Pophale) SiO2 
 PCOD9009501
Probable space group: P -1
;
_chemical_formula_sum "Si O2"
_cell_formula_units_Z 16
_cell_length_a 15.795872
_cell_length_b 11.682714
_cell_length_c 7.866692
_cell_angle_alpha 76.141690
_cell_angle_beta 63.238569
_cell_angle_gamma 35.433667
_cell_volume 728.395229
_symmetry_space_group_name_H-M "P -1"
_symmetry_group_IT_number 2
_symmetry_cell_setting 'triclinic'
loop_
_space_group_symop_operation_xyz
x,y,z
-x,-y,-z
loop_
_atom_site_type_symbol
_atom_site_label
_atom_site_fract_x
_atom_site_fract_y
_atom_site_fract_z
Si Si1 0.665974 0.399463 0.935384
Si Si2 0.636801 0.073378 0.411648
Si Si3 0.299753 0.401743 0.379569
Si Si4 0.984888 0.331361 0.200122
Si Si5 0.428947 0.044360 0.233519
Si Si6 0.004221 0.052239 0.167824
Si Si7 0.323825 0.694122 0.669223
Si Si8 0.774775 0.765233 0.131589
O O1 0.672588 0.520803 0.804567
O O2 0.500000 0.500000 0.000000
O O3 0.672691 0.391029 0.136433
O O4 0.831493 0.162204 0.817869
O O5 0.456159 0.252126 0.420880
O O6 0.692865 0.151382 0.325870
O O7 0.625065 0.029279 0.626702
O O8 0.766285 0.860869 0.267157
O O9 0.125604 0.587084 0.566350
O O10 0.304560 0.271882 0.324246
O O11 0.005131 0.191774 0.125793
O O12 0.880170 0.539971 0.128768
O O13 0.160831 0.219284 0.088413
O O14 0.591169 0.907222 0.242989
O O15 0.500000 0.000000 0.000000
O O16 0.828872 0.188855 0.350234
O O17 0.000000 0.000000 0.000000
O O18 0.500000 0.500000 0.500000
#
# Coordination Sequence:
#
# PCOD9009501 Si02
#       8
#     2   2   2   2   2   2   2   2
#     4  11  24  43  65  95 131 176 224 276 325 407
#     4  11  20  44  67  93 132 174 227 265 331 410
#     4  11  22  42  67  94 130 172 227 273 330 403
#     4  11  21  40  68  93 127 173 223 270 330 402
#     4  11  24  40  64  98 130 172 218 281 330 393
#     4  10  24  42  62  98 135 174 219 276 339 394
#     4  11  24  42  69  98 135 184 217 274 346 395
#     4  10  21  39  69  92 121 175 223 269 334 392
#
# _framework density 21.966097999999999
#
# number of rings (size 3 to 8) (size 9 to 14) (size 15 to 20)
#    0.000    1.250    3.750    3.000    3.500    1.500 
#    2.250    0.625    0.000    0.000    0.000    0.000 
#    0.000    0.000    0.000    0.000    0.000    0.000 
#
# Total GULP energy -89234.883566 kJ/mol
# GULP energy per Si atom -5577.180223 kJ/mol
# Density = 2.191610 g / cm^3
# Si number density = 21.966098 Si / 1000 Ang^3
#
#
#
# Elastic Constant Matrix: (Units=GPa)
#
#
# Indices 1 2 3 4 5 6 
#
# 1 31.6863 29.0946 9.6754 -8.9449 -14.0551 8.8839
# 2 29.0946 115.0903 39.8625 -1.7490 -4.6680 14.3193
# 3 9.6754 39.8625 137.1649 -23.3281 -18.7185 4.0122
# 4 -8.9449 -1.7490 -23.3281 44.1575 0.8628 -14.8424
# 5 -14.0551 -4.6680 -18.7185 0.8628 32.5019 6.9376
# 6 8.8839 14.3193 4.0122 -14.8424 6.9376 38.8435
#
#
#
# Elastic Compliance Matrix: (Units=1/GPa)
#
#
# Indices 1 2 3 4 5 6 
#
# 1 0.064127 -0.015726 0.006606 0.011657 0.031247 -0.010678
# 2 -0.015726 0.014257 -0.004909 -0.005790 -0.006974 -0.002119
# 3 0.006606 -0.004909 0.010448 0.006621 0.007922 0.000335
# 4 0.011657 -0.005790 0.006621 0.031511 0.005069 0.009920
# 5 0.031247 -0.006974 0.007922 0.005069 0.050364 -0.012452
# 6 -0.010678 -0.002119 0.000335 0.009920 -0.012452 0.034948
#
#
# Mechanical properties :
#
#
# Convention : Reuss Voigt Hill
#
# Bulk Modulus (GPa) = 16.45407 49.02295 32.73851
# Shear Modulus (GPa) = 19.68723 36.78782 28.23753
#
# Velocity S-wave (km/s) = 2.99700 4.09682 3.58928
# Velocity P-wave (km/s) = 4.41395 6.68914 5.66690
#
# Compressibility (1/GPa) = 0.06077522
#
# Stress axis : x y z
#
# Youngs Moduli (GPa) = 15.59405 70.13967 95.70816
#
# Poissons Ratio (x) = 1.10303 -0.63224
# Poissons Ratio (y) = 0.24523 0.46979
# Poissons Ratio (z) = -0.10301 0.34428
#
# Static dielectric constant tensor:
#      x y z
#    x 1.904960 -0.052820 0.032570 
#    y -0.052820 1.843150 0.044170 
#    z 0.032570 0.044170 1.890660 
# 
# From -- ./inp_files/333022.got.cif
#   From: 2010.05.17/outbox.cif.g08.bks.cpg/sg2_167_cif.got.tgz:333022.got - 2010.06.03 11:33:40.
