data_PCOD9009328
_publ_section_title
;
Structure prediction by ZEFSAII (Michael W. Deem and Ramdas Pophale) SiO2 
 PCOD9009328
Probable space group: P -1
;
_chemical_formula_sum "Si O2"
_cell_formula_units_Z 14
_cell_length_a 7.403857
_cell_length_b 12.130153
_cell_length_c 12.661334
_cell_angle_alpha 144.455750
_cell_angle_beta 110.826110
_cell_angle_gamma 84.935977
_cell_volume 574.012601
_symmetry_space_group_name_H-M "P -1"
_symmetry_group_IT_number 2
_symmetry_cell_setting 'triclinic'
loop_
_space_group_symop_operation_xyz
x,y,z
-x,-y,-z
loop_
_atom_site_type_symbol
_atom_site_label
_atom_site_fract_x
_atom_site_fract_y
_atom_site_fract_z
Si Si1 0.821029 0.336576 0.902584
Si Si2 0.759691 0.974299 0.458087
Si Si3 0.365892 0.457860 0.809210
Si Si4 0.997427 0.093671 0.906303
Si Si5 0.358902 0.138380 0.881778
Si Si6 0.836508 0.704268 0.691878
Si Si7 0.268595 0.648555 0.744396
O O1 0.734338 0.155427 0.659642
O O2 0.689293 0.448041 0.022336
O O3 0.000000 0.500000 0.000000
O O4 0.899711 0.233504 0.934463
O O5 0.673746 0.772521 0.354656
O O6 0.642059 0.951749 0.304129
O O7 0.000000 0.000000 0.500000
O O8 0.222069 0.488246 0.708195
O O9 0.588504 0.618392 0.939975
O O10 0.157089 0.230473 0.134707
O O11 0.136351 0.032186 0.803344
O O12 0.831683 0.894053 0.770085
O O13 0.540872 0.159579 0.019576
O O14 0.071460 0.707001 0.726681
O O15 0.693313 0.481145 0.446375
#
# Coordination Sequence:
#
# PCOD9009328 Si02
#       7
#     2   2   2   2   2   2   2
#     4  12  23  39  68  96 123 165 215 254 307 385
#     4  12  22  38  69  92 124 173 204 255 317 370
#     4  10  22  43  59  92 134 157 208 261 310 370
#     4  11  21  39  64  94 120 165 213 255 308 376
#     4  10  23  38  61  92 132 160 203 264 315 367
#     4  10  21  39  68  85 120 167 214 255 306 375
#     4   9  21  40  61  89 119 167 202 265 312 357
#
# _framework density 24.389709
#
# number of rings (size 3 to 8) (size 9 to 14) (size 15 to 20)
#    0.857    0.571    4.286    1.286    0.000    1.714 
#    0.000    0.000    9.429    0.000    0.000    0.000 
#    0.000    0.000    0.000    0.000    0.000    0.000 
#
# Total GULP energy -78212.988361 kJ/mol
# GULP energy per Si atom -5586.642026 kJ/mol
# Density = 2.433420 g / cm^3
# Si number density = 24.389709 Si / 1000 Ang^3
#
#
#
# Elastic Constant Matrix: (Units=GPa)
#
#
# Indices 1 2 3 4 5 6 
#
# 1 57.5444 11.3546 9.4307 6.2823 -7.4193 -6.0204
# 2 11.3546 102.1183 22.3950 -2.4735 -2.1142 -6.9774
# 3 9.4307 22.3950 129.8243 -5.8619 -20.1004 -2.3586
# 4 6.2823 -2.4735 -5.8619 34.5958 0.6976 -2.6971
# 5 -7.4193 -2.1142 -20.1004 0.6976 37.4029 -7.1886
# 6 -6.0204 -6.9774 -2.3586 -2.6971 -7.1886 27.4726
#
#
#
# Elastic Compliance Matrix: (Units=1/GPa)
#
#
# Indices 1 2 3 4 5 6 
#
# 1 0.019211 -0.001710 -0.000494 -0.003429 0.004386 0.004545
# 2 -0.001710 0.010511 -0.001640 0.000959 -0.000224 0.002190
# 3 -0.000494 -0.001640 0.008874 0.001507 0.004869 0.001659
# 4 -0.003429 0.000959 0.001507 0.030052 0.000124 0.002604
# 5 0.004386 -0.000224 0.004869 0.000124 0.032077 0.009728
# 6 0.004545 0.002190 0.001659 0.002604 0.009728 0.040895
#
#
# Mechanical properties :
#
#
# Convention : Reuss Voigt Hill
#
# Bulk Modulus (GPa) = 32.35408 41.76085 37.05746
# Shear Modulus (GPa) = 31.32618 36.31471 33.82044
#
# Velocity S-wave (km/s) = 3.58774 3.86286 3.72784
# Velocity P-wave (km/s) = 5.51877 6.08729 5.80999
#
# Compressibility (1/GPa) = 0.03090801
#
# Stress axis : x y z
#
# Youngs Moduli (GPa) = 52.05226 95.14189 112.69429
#
# Poissons Ratio (x) = 0.16265 0.05565
# Poissons Ratio (y) = 0.08899 0.18487
# Poissons Ratio (z) = 0.02570 0.15608
#
# Static dielectric constant tensor:
#      x y z
#    x 1.971710 -0.043080 0.058840 
#    y -0.043080 1.936580 -0.043440 
#    z 0.058840 -0.043440 1.996810 
# 
# From -- ./inp_files/391708.got.cif
#   From: 2010.05.17/outbox.cif.g08.bks.cpg/sg2_196_cif.got.tgz:391708.got - 2010.06.03 11:33:40.
