data_PCOD9009129
_publ_section_title
;
Structure prediction by ZEFSAII (Michael W. Deem and Ramdas Pophale) SiO2 
 PCOD9009129
Probable space group: P -1
;
_chemical_formula_sum "Si O2"
_cell_formula_units_Z 16
_cell_length_a 19.345043
_cell_length_b 7.119672
_cell_length_c 11.837823
_cell_angle_alpha 88.671673
_cell_angle_beta 156.734290
_cell_angle_gamma 82.024697
_cell_volume 588.591420
_symmetry_space_group_name_H-M "P -1"
_symmetry_group_IT_number 2
_symmetry_cell_setting 'triclinic'
loop_
_space_group_symop_operation_xyz
x,y,z
-x,-y,-z
loop_
_atom_site_type_symbol
_atom_site_label
_atom_site_fract_x
_atom_site_fract_y
_atom_site_fract_z
Si Si1 0.777168 0.456593 0.882686
Si Si2 0.218194 0.467129 0.355134
Si Si3 0.218740 0.194773 0.807223
Si Si4 0.790476 0.719640 0.442430
Si Si5 0.755137 0.395941 0.087341
Si Si6 0.722075 0.907603 0.860350
Si Si7 0.699545 0.346743 0.249053
Si Si8 0.053522 0.906788 0.207160
O O1 0.693182 0.383478 0.865030
O O2 0.998717 0.294615 0.207636
O O3 0.691191 0.513187 0.627860
O O4 0.786285 0.666942 0.934474
O O5 0.299779 0.278408 0.568723
O O6 0.180262 0.671833 0.362283
O O7 0.000000 0.500000 0.000000
O O8 0.303570 0.142011 0.809216
O O9 0.294155 0.364887 0.961757
O O10 0.988531 0.289870 0.440793
O O11 0.248421 0.054472 0.964374
O O12 0.817971 0.493756 0.434555
O O13 0.685362 0.315340 0.093896
O O14 0.500000 0.000000 0.500000
O O15 0.850783 0.966964 0.964755
O O16 0.800808 0.127765 0.467009
O O17 0.500000 0.500000 0.000000
O O18 0.000000 0.000000 0.000000
#
# Coordination Sequence:
#
# PCOD9009129 Si02
#       8
#     2   2   2   2   2   2   2   2
#     4   9  15  29  54  80  93 127 183 225 249 306
#     4   9  15  31  56  79 100 139 179 213 259 324
#     4   8  13  25  44  68  95 118 164 219 253 284
#     4   8  14  26  49  76  93 118 169 229 249 281
#     4   8  13  24  47  71  91 116 173 224 245 280
#     4  11  19  30  50  76 109 141 173 218 273 320
#     4  10  17  29  49  72 104 143 177 212 261 324
#     4  11  22  35  50  83 117 138 168 227 285 316
#
# _framework density 27.183541000000002
#
# number of rings (size 3 to 8) (size 9 to 14) (size 15 to 20)
#    0.000    2.750    5.000    1.500    0.000    3.000 
#    0.000    0.000    0.000    8.250   16.250    0.000 
#    0.000    0.000    0.000    0.000    0.000    0.000 
#
# Total GULP energy -89140.595043 kJ/mol
# GULP energy per Si atom -5571.287190 kJ/mol
# Density = 2.712167 g / cm^3
# Si number density = 27.183541 Si / 1000 Ang^3
#
#
#
# Elastic Constant Matrix: (Units=GPa)
#
#
# Indices 1 2 3 4 5 6 
#
# 1 326.8201 19.6038 98.3178 -10.6326 -70.0087 35.2663
# 2 19.6038 46.1224 10.2921 -7.6166 -7.3103 1.4474
# 3 98.3178 10.2921 120.7478 -20.3663 -4.1223 19.0153
# 4 -10.6326 -7.6166 -20.3663 24.6141 5.0150 -14.5881
# 5 -70.0087 -7.3103 -4.1223 5.0150 61.8444 1.1985
# 6 35.2663 1.4474 19.0153 -14.5881 1.1985 34.1516
#
#
#
# Elastic Compliance Matrix: (Units=1/GPa)
#
#
# Indices 1 2 3 4 5 6 
#
# 1 0.007336 -0.001671 -0.005699 -0.008787 0.008602 -0.008387
# 2 -0.001671 0.023790 0.000213 0.009581 0.000067 0.004689
# 3 -0.005699 0.000213 0.014282 0.012950 -0.006595 0.003687
# 4 -0.008787 0.009581 0.012950 0.073158 -0.014527 0.033217
# 5 0.008602 0.000067 -0.006595 -0.014527 0.026894 -0.012363
# 6 -0.008387 0.004689 0.003687 0.033217 -0.012363 0.050313
#
#
# Mechanical properties :
#
#
# Convention : Reuss Voigt Hill
#
# Bulk Modulus (GPa) = 32.15992 83.34643 57.75317
# Shear Modulus (GPa) = 22.68065 48.48711 35.58388
#
# Velocity S-wave (km/s) = 2.89165 4.22796 3.62197
# Velocity P-wave (km/s) = 4.79637 7.38657 6.22762
#
# Compressibility (1/GPa) = 0.03109461
#
# Stress axis : x y z
#
# Youngs Moduli (GPa) = 136.30931 42.03468 70.01714
#
# Poissons Ratio (x) = 0.07024 0.39900
# Poissons Ratio (y) = 0.22776 -0.01489
# Poissons Ratio (z) = 0.77677 -0.00894
#
# Static dielectric constant tensor:
#      x y z
#    x 2.327950 0.007620 -0.125730 
#    y 0.007620 2.251150 0.010010 
#    z -0.125730 0.010010 2.170750 
# 
# From -- ./inp_files/463733.got.cif
#   From: 2010.05.17/outbox.cif.g08.bks.cpg/sg2_232_cif.got.tgz:463733.got - 2010.06.03 11:33:40.
