data_PCOD9009780
_publ_section_title
;
Structure prediction by ZEFSAII (Michael W. Deem and Ramdas Pophale) SiO2 
 PCOD9009780
Probable space group: P -1
;
_chemical_formula_sum "Si O2"
_cell_formula_units_Z 16
_cell_length_a 6.925992
_cell_length_b 20.417967
_cell_length_c 20.261400
_cell_angle_alpha 158.937761
_cell_angle_beta 102.436007
_cell_angle_gamma 66.140895
_cell_volume 819.195585
_symmetry_space_group_name_H-M "P -1"
_symmetry_group_IT_number 2
_symmetry_cell_setting 'triclinic'
loop_
_space_group_symop_operation_xyz
x,y,z
-x,-y,-z
loop_
_atom_site_type_symbol
_atom_site_label
_atom_site_fract_x
_atom_site_fract_y
_atom_site_fract_z
Si Si1 0.766850 0.851707 0.448959
Si Si2 0.784226 0.886022 0.920259
Si Si3 0.501973 0.744213 0.962078
Si Si4 0.988512 0.880434 0.791069
Si Si5 0.063086 0.521156 0.358984
Si Si6 0.470588 0.698596 0.227275
Si Si7 0.689873 0.330928 0.667192
Si Si8 0.456575 0.111925 0.394632
O O1 0.708750 0.693922 0.257813
O O2 0.602131 0.935166 0.581135
O O3 0.044441 0.725537 0.370987
O O4 0.695640 0.063839 0.598886
O O5 0.906138 0.823561 0.798407
O O6 0.906302 0.670845 0.773330
O O7 0.500000 0.000000 0.000000
O O8 0.825848 0.061966 0.120605
O O9 0.251874 0.897379 0.048079
O O10 0.536983 0.911134 0.162528
O O11 0.722969 0.596466 0.789270
O O12 0.502216 0.578621 0.858008
O O13 0.085585 0.686760 0.562652
O O14 0.798810 0.671809 0.447508
O O15 0.362078 0.693627 0.284347
O O16 0.500000 0.500000 0.000000
O O17 0.651792 0.167561 0.468980
#
# Coordination Sequence:
#
# PCOD9009780 Si02
#       8
#     2   2   2   2   2   2   2   2
#     4  10  21  40  59  87 122 153 202 247 291 355
#     4  11  22  42  63  89 120 159 201 243 302 353
#     4  11  22  41  62  90 120 159 201 241 302 357
#     4  10  24  42  62  89 123 155 199 251 292 356
#     4  11  22  42  63  88 123 158 197 248 298 352
#     4  10  22  38  60  87 120 159 198 245 297 350
#     4  11  22  39  62  88 120 161 197 245 302 348
#     4  10  23  41  60  88 124 155 198 251 293 354
#
# _framework density 19.531355000000001
#
# number of rings (size 3 to 8) (size 9 to 14) (size 15 to 20)
#    0.000    1.500    2.500    2.250    0.000    3.000 
#    4.500    0.000    0.000    0.000    0.000    0.000 
#    0.000    0.000    0.000    0.000    0.000    0.000 
#
# Total GULP energy -89403.226858 kJ/mol
# GULP energy per Si atom -5587.701679 kJ/mol
# Density = 1.948690 g / cm^3
# Si number density = 19.531355 Si / 1000 Ang^3
#
#
#
# Elastic Constant Matrix: (Units=GPa)
#
#
# Indices 1 2 3 4 5 6 
#
# 1 99.0061 37.0354 55.2562 -15.8581 16.3161 -9.1831
# 2 37.0354 109.6309 40.0015 1.1190 10.1270 15.3953
# 3 55.2562 40.0015 93.7763 -23.1747 11.7135 8.6582
# 4 -15.8581 1.1190 -23.1747 35.4237 1.1534 25.9548
# 5 16.3161 10.1270 11.7135 1.1534 16.9870 -8.9162
# 6 -9.1831 15.3953 8.6582 25.9548 -8.9162 13.6681
#
#
#
# Elastic Compliance Matrix: (Units=1/GPa)
#
#
# Indices 1 2 3 4 5 6 
#
# 1 0.016974 -0.002181 -0.005739 0.006125 -0.012749 -0.002452
# 2 -0.002181 0.011589 -0.005625 -0.006730 0.000727 0.002298
# 3 -0.005739 -0.005625 0.011485 -0.008093 0.010712 0.017560
# 4 0.006125 -0.006730 -0.008093 -0.003145 0.024159 0.038553
# 5 -0.012749 0.000727 0.010712 0.024159 0.044230 -0.033194
# 6 -0.002452 0.002298 0.017560 0.038553 -0.033194 -0.037062
#
#
# Mechanical properties :
#
#
# Convention : Reuss Voigt Hill
#
# Bulk Modulus (GPa) = 77.16254 62.99993 70.08124
# Shear Modulus (GPa) = 66.24285 24.55711 45.39998
#
# Velocity S-wave (km/s) = 5.83008 3.54971 4.82650
# Velocity P-wave (km/s) = 9.21480 7.00903 8.18654
#
# Compressibility (1/GPa) = 0.01295966
#
# Stress axis : x y z
#
# Youngs Moduli (GPa) = 58.91535 86.28669 87.06879
#
# Poissons Ratio (x) = 0.18815 0.49966
# Poissons Ratio (y) = 0.12847 0.48975
# Poissons Ratio (z) = 0.33810 0.48535
#
# Static dielectric constant tensor:
#      x y z
#    x 1.667810 -0.006260 0.010670 
#    y -0.006260 1.696510 0.003030 
#    z 0.010670 0.003030 1.652080 
# 
# From -- ./inp_files/10992.got.cif
#   From: 2010.05.17/outbox.cif.g08.bks.cpg/sg2_6_cif.got.tgz:10992.got - 2010.06.03 11:33:40.
