data_PCOD9009715
_publ_section_title
;
Structure prediction by ZEFSAII (Michael W. Deem and Ramdas Pophale) SiO2 
 PCOD9009715
Probable space group: P -1
;
_chemical_formula_sum "Si O2"
_cell_formula_units_Z 12
_cell_length_a 5.349694
_cell_length_b 17.223635
_cell_length_c 6.717614
_cell_angle_alpha 122.253350
_cell_angle_beta 70.061733
_cell_angle_gamma 113.826787
_cell_volume 472.510969
_symmetry_space_group_name_H-M "P -1"
_symmetry_group_IT_number 2
_symmetry_cell_setting 'triclinic'
loop_
_space_group_symop_operation_xyz
x,y,z
-x,-y,-z
loop_
_atom_site_type_symbol
_atom_site_label
_atom_site_fract_x
_atom_site_fract_y
_atom_site_fract_z
Si Si1 0.472672 0.727367 0.642678
Si Si2 0.930370 0.242979 0.488493
Si Si3 0.729780 0.569497 0.222267
Si Si4 0.806234 0.115897 0.718009
Si Si5 0.095992 0.566727 0.755707
Si Si6 0.172396 0.050833 0.832048
O O1 0.339177 0.789307 0.618132
O O2 0.787271 0.777848 0.692896
O O3 0.250885 0.674225 0.792776
O O4 0.525784 0.635582 0.384593
O O5 0.887247 0.205482 0.671814
O O6 0.008159 0.357603 0.636223
O O7 0.687625 0.473415 0.227953
O O8 0.833788 0.558952 0.959101
O O9 0.494725 0.099442 0.857558
O O10 0.015005 0.114580 0.837739
O O11 0.815851 0.031463 0.445061
O O12 0.000000 0.500000 0.500000
O O13 0.000000 0.000000 0.000000
#
# Coordination Sequence:
#
# PCOD9009715 Si02
#       6
#     2   2   2   2   2   2
#     4  10  21  40  57  84 120 152 203 239 298 347
#     4  10  21  42  56  88 124 154 187 251 296 340
#     4   9  23  37  59  85 115 152 205 242 297 340
#     4  10  21  40  63  87 129 148 192 248 282 346
#     4  11  19  41  60  83 113 162 200 252 286 350
#     4  10  21  40  65  93 113 161 196 228 291 357
#
# _framework density 25.396239999999999
#
# number of rings (size 3 to 8) (size 9 to 14) (size 15 to 20)
#    1.000    1.000    1.667    2.000    0.000    0.667 
#   12.000    0.000    0.000    0.000    0.000    0.000 
#    0.000    0.000    0.000    0.000    0.000    0.000 
#
# Total GULP energy -67093.946760 kJ/mol
# GULP energy per Si atom -5591.162230 kJ/mol
# Density = 2.533844 g / cm^3
# Si number density = 25.396240 Si / 1000 Ang^3
#
#
#
# Elastic Constant Matrix: (Units=GPa)
#
#
# Indices 1 2 3 4 5 6 
#
# 1 166.7025 36.6751 65.9598 -25.1644 14.8564 -28.6668
# 2 36.6751 68.6811 21.0092 -38.8519 3.7492 -13.2351
# 3 65.9598 21.0092 143.9722 -18.3592 -11.9225 -15.0924
# 4 -25.1644 -38.8519 -18.3592 53.0698 -1.3565 3.5007
# 5 14.8564 3.7492 -11.9225 -1.3565 42.7897 -2.8911
# 6 -28.6668 -13.2351 -15.0924 3.5007 -2.8911 40.5923
#
#
#
# Elastic Compliance Matrix: (Units=1/GPa)
#
#
# Indices 1 2 3 4 5 6 
#
# 1 0.009075 -0.002125 -0.003581 0.001149 -0.003654 0.004025
# 2 -0.002125 0.027407 -0.000109 0.018623 -0.000716 0.005738
# 3 -0.003581 -0.000109 0.009220 0.001445 0.003937 0.001019
# 4 0.001149 0.018623 0.001445 0.033215 -0.000269 0.004537
# 5 -0.003654 -0.000716 0.003937 -0.000269 0.025824 0.000512
# 6 0.004025 0.005738 0.001019 0.004537 0.000512 0.029372
#
#
# Mechanical properties :
#
#
# Convention : Reuss Voigt Hill
#
# Bulk Modulus (GPa) = 29.35059 69.62710 49.48885
# Shear Modulus (GPa) = 31.82660 44.33781 38.08221
#
# Velocity S-wave (km/s) = 3.54390 4.18286 3.87657
# Velocity P-wave (km/s) = 5.32238 7.12771 6.29015
#
# Compressibility (1/GPa) = 0.03407086
#
# Stress axis : x y z
#
# Youngs Moduli (GPa) = 110.19822 36.48647 108.46522
#
# Poissons Ratio (x) = 0.07753 0.38846
# Poissons Ratio (y) = 0.23416 0.01182
# Poissons Ratio (z) = 0.39467 0.00398
#
# Static dielectric constant tensor:
#      x y z
#    x 2.084900 0.043760 0.048090 
#    y 0.043760 2.015970 0.078620 
#    z 0.048090 0.078620 2.031300 
# 
# From -- ./inp_files/7852.got.cif
#   From: 2010.05.17/outbox.cif.g08.bks.cpg/sg2_4_cif.got.tgz:7852.got - 2010.06.03 11:33:40.
