data_PCOD9009209
_publ_section_title
;
Structure prediction by ZEFSAII (Michael W. Deem and Ramdas Pophale) SiO2 
 PCOD9009209
Probable space group: P -1
;
_chemical_formula_sum "Si O2"
_cell_formula_units_Z 16
_cell_length_a 10.843870
_cell_length_b 12.422034
_cell_length_c 14.339861
_cell_angle_alpha 45.465370
_cell_angle_beta 66.189001
_cell_angle_gamma 32.446173
_cell_volume 643.151848
_symmetry_space_group_name_H-M "P -1"
_symmetry_group_IT_number 2
_symmetry_cell_setting 'triclinic'
loop_
_space_group_symop_operation_xyz
x,y,z
-x,-y,-z
loop_
_atom_site_type_symbol
_atom_site_label
_atom_site_fract_x
_atom_site_fract_y
_atom_site_fract_z
Si Si1 0.973586 0.283190 0.087243
Si Si2 0.282543 0.073157 0.379577
Si Si3 0.977663 0.524541 0.334561
Si Si4 0.863955 0.261314 0.322139
Si Si5 0.625948 0.454014 0.717233
Si Si6 0.620497 0.520517 0.891413
Si Si7 0.060284 0.201524 0.653910
Si Si8 0.590700 0.924815 0.860791
O O1 0.959430 0.169033 0.241184
O O2 0.250667 0.103215 0.112569
O O3 0.866755 0.343433 0.982484
O O4 0.760772 0.609149 0.995737
O O5 0.409010 0.012021 0.283771
O O6 0.230074 0.259346 0.353504
O O7 0.992515 0.287891 0.309829
O O8 0.449838 0.772544 0.551497
O O9 0.995960 0.634196 0.341090
O O10 0.966818 0.376026 0.483676
O O11 0.712126 0.809649 0.184928
O O12 0.555460 0.517174 0.263624
O O13 0.000000 0.000000 0.500000
O O14 0.689124 0.402612 0.838352
O O15 0.887302 0.221074 0.717655
O O16 0.369782 0.873932 0.750156
O O17 0.500000 0.500000 0.000000
#
# Coordination Sequence:
#
# PCOD9009209 Si02
#       8
#     2   2   2   2   2   2   2   2
#     4  10  21  41  63  91 126 170 207 258 324 365
#     4  10  21  39  67  96 122 169 211 258 327 367
#     4  11  22  40  64  98 131 160 213 271 312 378
#     4   9  20  41  64  89 125 164 214 265 300 373
#     4  11  22  41  65  92 129 168 214 258 314 379
#     4  12  24  43  64  88 136 174 209 257 317 384
#     4  11  25  39  63  98 131 164 214 263 314 382
#     4  10  21  41  66  90 130 164 210 269 313 373
#
# _framework density 24.877483000000002
#
# number of rings (size 3 to 8) (size 9 to 14) (size 15 to 20)
#    0.000    1.500    5.000    0.000    1.750    1.000 
#    2.250    7.500    0.000    0.000    0.000    0.000 
#    0.000    0.000    0.000    0.000    0.000    0.000 
#
# Total GULP energy -89595.951953 kJ/mol
# GULP energy per Si atom -5599.746997 kJ/mol
# Density = 2.482086 g / cm^3
# Si number density = 24.877483 Si / 1000 Ang^3
#
#
#
# Elastic Constant Matrix: (Units=GPa)
#
#
# Indices 1 2 3 4 5 6 
#
# 1 66.3673 44.2440 24.5516 -3.4557 20.7787 -15.0081
# 2 44.2440 64.5558 21.1446 0.0228 6.1225 -6.3812
# 3 24.5516 21.1446 111.5005 10.6281 15.4036 1.3489
# 4 -3.4557 0.0228 10.6281 35.7055 -6.6838 -4.2795
# 5 20.7787 6.1225 15.4036 -6.6838 39.0426 -6.2033
# 6 -15.0081 -6.3812 1.3489 -4.2795 -6.2033 42.0733
#
#
#
# Elastic Compliance Matrix: (Units=1/GPa)
#
#
# Indices 1 2 3 4 5 6 
#
# 1 0.037367 -0.022719 -0.002409 0.002793 -0.013587 0.008242
# 2 -0.022719 0.030699 -0.001774 -0.000566 0.007508 -0.002342
# 3 -0.002409 -0.001774 0.010828 -0.004481 -0.003877 -0.002503
# 4 0.002793 -0.000566 -0.004481 0.031471 0.006588 0.005226
# 5 -0.013587 0.007508 -0.003877 0.006588 0.034673 0.002199
# 6 0.008242 -0.002342 -0.002503 0.005226 0.002199 0.027289
#
#
# Mechanical properties :
#
#
# Convention : Reuss Voigt Hill
#
# Bulk Modulus (GPa) = 39.85446 46.92266 43.38856
# Shear Modulus (GPa) = 21.32246 33.52983 27.42615
#
# Velocity S-wave (km/s) = 2.93080 3.67522 3.32392
# Velocity P-wave (km/s) = 5.24479 6.07553 5.67538
#
# Compressibility (1/GPa) = 0.02509129
#
# Stress axis : x y z
#
# Youngs Moduli (GPa) = 26.76136 32.57452 92.35050
#
# Poissons Ratio (x) = 0.74006 0.22243
# Poissons Ratio (y) = 0.60799 0.16384
# Poissons Ratio (z) = 0.06446 0.05779
#
# Static dielectric constant tensor:
#      x y z
#    x 1.984040 -0.013760 -0.022840 
#    y -0.013760 1.949510 -0.013850 
#    z -0.022840 -0.013850 1.958990 
# 
# From -- ./inp_files/113402.got.cif
#   From: 2010.05.17/outbox.cif.g08.bks.cpg/sg2_57_cif.got.tgz:113402.got - 2010.06.03 11:33:40.
