data_PCOD9009427
_publ_section_title
;
Structure prediction by ZEFSAII (Michael W. Deem and Ramdas Pophale) SiO2 
 PCOD9009427
Probable space group: P -1
;
_chemical_formula_sum "Si O2"
_cell_formula_units_Z 14
_cell_length_a 20.584950
_cell_length_b 9.311215
_cell_length_c 7.494891
_cell_angle_alpha 125.720591
_cell_angle_beta 142.948749
_cell_angle_gamma 41.825880
_cell_volume 577.006426
_symmetry_space_group_name_H-M "P -1"
_symmetry_group_IT_number 2
_symmetry_cell_setting 'triclinic'
loop_
_space_group_symop_operation_xyz
x,y,z
-x,-y,-z
loop_
_atom_site_type_symbol
_atom_site_label
_atom_site_fract_x
_atom_site_fract_y
_atom_site_fract_z
Si Si1 0.935689 0.688580 0.853909
Si Si2 0.056944 0.604837 0.579917
Si Si3 0.775148 0.035699 0.277540
Si Si4 0.186216 0.641727 0.192764
Si Si5 0.562563 0.120260 0.142220
Si Si6 0.300749 0.933488 0.250424
Si Si7 0.393573 0.215887 0.530869
O O1 0.862925 0.598748 0.521925
O O2 0.843680 0.934014 0.888244
O O3 0.000000 0.500000 0.000000
O O4 0.057792 0.669932 0.014696
O O5 0.000000 0.500000 0.500000
O O6 0.153233 0.652089 0.919877
O O7 0.918908 0.826632 0.384370
O O8 0.798762 0.183294 0.558948
O O9 0.689755 0.991707 0.193549
O O10 0.697979 0.149980 0.005731
O O11 0.311458 0.410183 0.356347
O O12 0.601558 0.193271 0.460301
O O13 0.454841 0.274368 0.868217
O O14 0.500000 0.000000 0.000000
O O15 0.309406 0.135653 0.370618
O O16 0.500000 0.000000 0.500000
#
# Coordination Sequence:
#
# PCOD9009427 Si02
#       7
#     2   2   2   2   2   2   2
#     4  11  20  40  66  97 128 168 230 264 324 402
#     4  10  21  39  68  98 128 176 219 265 328 410
#     4  12  23  44  66 101 143 166 213 285 349 386
#     4  11  25  40  66 102 135 176 211 283 345 387
#     4  10  24  41  68  94 124 181 232 264 315 400
#     4  11  22  42  70  96 129 175 226 275 323 401
#     4  11  22  42  67  92 124 181 235 265 312 394
#
# _framework density 24.263161
#
# number of rings (size 3 to 8) (size 9 to 14) (size 15 to 20)
#    0.000    1.143    4.286    3.000    2.000    1.143 
#    2.571    0.714    0.000    0.000    0.000    0.000 
#    0.000    0.000    0.000    0.000    0.000    0.000 
#
# Total GULP energy -77939.967350 kJ/mol
# GULP energy per Si atom -5567.140525 kJ/mol
# Density = 2.420794 g / cm^3
# Si number density = 24.263161 Si / 1000 Ang^3
#
#
#
# Elastic Constant Matrix: (Units=GPa)
#
#
# Indices 1 2 3 4 5 6 
#
# 1 64.1173 27.7597 39.7100 7.4610 -11.2533 -20.6510
# 2 27.7597 57.2788 24.6081 4.8044 12.7315 -5.2115
# 3 39.7100 24.6081 181.4382 6.5878 -29.4017 4.6191
# 4 7.4610 4.8044 6.5878 35.6855 -3.8792 -3.8410
# 5 -11.2533 12.7315 -29.4017 -3.8792 30.3472 -2.0244
# 6 -20.6510 -5.2115 4.6191 -3.8410 -2.0244 19.4164
#
#
#
# Elastic Compliance Matrix: (Units=1/GPa)
#
#
# Indices 1 2 3 4 5 6 
#
# 1 0.049764 -0.023892 -0.004526 0.002145 0.027762 0.050912
# 2 -0.023892 0.035815 -0.003743 -0.004349 -0.029323 -0.018825
# 3 -0.004526 -0.003743 0.008418 -0.000038 0.007573 -0.007039
# 4 0.002145 -0.004349 -0.000038 0.029749 0.006902 0.007728
# 5 0.027762 -0.029323 0.007573 0.006902 0.065640 0.028064
# 6 0.050912 -0.018825 -0.007039 0.007728 0.028064 0.106728
#
#
# Mechanical properties :
#
#
# Convention : Reuss Voigt Hill
#
# Bulk Modulus (GPa) = 33.69883 54.10999 43.90441
# Shear Modulus (GPa) = 13.50155 31.14027 22.32091
#
# Velocity S-wave (km/s) = 2.36151 3.58640 3.03636
# Velocity P-wave (km/s) = 4.62111 6.28485 5.51607
#
# Compressibility (1/GPa) = 0.02967462
#
# Stress axis : x y z
#
# Youngs Moduli (GPa) = 20.09474 27.92100 118.79863
#
# Poissons Ratio (x) = 0.66708 0.53773
# Poissons Ratio (y) = 0.48010 0.44468
# Poissons Ratio (z) = 0.09096 0.10451
#
# Static dielectric constant tensor:
#      x y z
#    x 2.245000 -0.210900 -0.164270 
#    y -0.210900 2.014620 0.053050 
#    z -0.164270 0.053050 2.187300 
# 
# From -- ./inp_files/357005.got.cif
#   From: 2010.05.17/outbox.cif.g08.bks.cpg/sg2_179_cif.got.tgz:357005.got - 2010.06.03 11:33:40.
