data_PCOD9009477
_publ_section_title
;
Structure prediction by ZEFSAII (Michael W. Deem and Ramdas Pophale) SiO2 
 PCOD9009477
Probable space group: P -1
;
_chemical_formula_sum "Si O2"
_cell_formula_units_Z 14
_cell_length_a 15.366384
_cell_length_b 21.986366
_cell_length_c 9.048843
_cell_angle_alpha 151.277072
_cell_angle_beta 35.640936
_cell_angle_gamma 154.111030
_cell_volume 637.372844
_symmetry_space_group_name_H-M "P -1"
_symmetry_group_IT_number 2
_symmetry_cell_setting 'triclinic'
loop_
_space_group_symop_operation_xyz
x,y,z
-x,-y,-z
loop_
_atom_site_type_symbol
_atom_site_label
_atom_site_fract_x
_atom_site_fract_y
_atom_site_fract_z
Si Si1 0.819163 0.155725 0.660969
Si Si2 0.617137 0.194102 0.577202
Si Si3 0.593978 0.431932 0.647575
Si Si4 0.978253 0.966346 0.782214
Si Si5 0.485328 0.357073 0.296597
Si Si6 0.983052 0.250666 0.320969
Si Si7 0.626213 0.201908 0.249457
O O1 0.967006 0.260562 0.542347
O O2 0.890990 0.085670 0.524048
O O3 0.606762 0.991128 0.531315
O O4 0.790390 0.262116 0.027241
O O5 0.771835 0.179924 0.398670
O O6 0.689432 0.267787 0.468882
O O7 0.595772 0.306216 0.947400
O O8 0.557100 0.410310 0.478093
O O9 0.510923 0.257737 0.465075
O O10 0.834531 0.574515 0.634816
O O11 0.500000 0.500000 0.000000
O O12 0.748464 0.809707 0.732386
O O13 0.027605 0.126075 0.975998
O O14 0.000000 0.000000 0.000000
O O15 0.500000 0.500000 0.500000
O O16 0.500000 0.000000 0.000000
#
# Coordination Sequence:
#
# PCOD9009477 Si02
#       7
#     2   2   2   2   2   2   2
#     4  10  21  42  72 101 143 177 231 289 351 416
#     4  11  23  42  72  99 141 181 234 285 349 414
#     4  12  29  47  68 104 148 182 235 299 353 413
#     4  10  21  39  69 103 134 180 232 285 343 416
#     4  12  24  41  74 103 141 188 234 286 354 415
#     4  11  24  42  73  99 137 183 240 285 349 421
#     4  10  25  42  69  99 144 187 227 286 355 407
#
# _framework density 21.965167000000001
#
# number of rings (size 3 to 8) (size 9 to 14) (size 15 to 20)
#    0.000    1.143    2.857    3.857    8.000    5.143 
#    0.000    1.429    0.000    0.000    0.000    0.000 
#    0.000    0.000    0.000    0.000    0.000    0.000 
#
# Total GULP energy -78224.994600 kJ/mol
# GULP energy per Si atom -5587.499614 kJ/mol
# Density = 2.191517 g / cm^3
# Si number density = 21.965167 Si / 1000 Ang^3
#
#
#
# Elastic Constant Matrix: (Units=GPa)
#
#
# Indices 1 2 3 4 5 6 
#
# 1 119.3411 7.6463 56.5720 -5.9035 -19.6412 -9.0074
# 2 7.6463 66.4478 21.2013 -1.7216 -6.8484 0.6807
# 3 56.5720 21.2013 158.9523 -18.9600 -13.8482 -11.1933
# 4 -5.9035 -1.7216 -18.9600 34.6935 -8.7962 -4.2448
# 5 -19.6412 -6.8484 -13.8482 -8.7962 45.3414 -3.5503
# 6 -9.0074 0.6807 -11.1933 -4.2448 -3.5503 41.3603
#
#
#
# Elastic Compliance Matrix: (Units=1/GPa)
#
#
# Indices 1 2 3 4 5 6 
#
# 1 0.010784 0.000224 -0.003201 0.001392 0.004152 0.001978
# 2 0.000224 0.015882 -0.002071 0.000085 0.001832 -0.000607
# 3 -0.003201 -0.002071 0.008635 0.004884 0.002070 0.002353
# 4 0.001392 0.000085 0.004884 0.034835 0.009335 0.006000
# 5 0.004152 0.001832 0.002070 0.009335 0.026942 0.004705
# 6 0.001978 -0.000607 0.002353 0.006000 0.004705 0.026275
#
#
# Mechanical properties :
#
#
# Convention : Reuss Voigt Hill
#
# Bulk Modulus (GPa) = 39.67453 57.28672 48.48062
# Shear Modulus (GPa) = 35.24840 41.56715 38.40777
#
# Velocity S-wave (km/s) = 4.01027 4.35491 4.18613
# Velocity P-wave (km/s) = 6.28846 7.17107 6.74422
#
# Compressibility (1/GPa) = 0.02520509
#
# Stress axis : x y z
#
# Youngs Moduli (GPa) = 92.73119 62.96554 115.80379
#
# Poissons Ratio (x) = -0.01411 0.37067
# Poissons Ratio (y) = -0.02078 0.23985
# Poissons Ratio (z) = 0.29682 0.13041
#
# Static dielectric constant tensor:
#      x y z
#    x 1.751420 0.000780 -0.001010 
#    y 0.000780 1.857870 0.002480 
#    z -0.001010 0.002480 1.827750 
# 
# From -- ./inp_files/319141.got.cif
#   From: 2010.05.17/outbox.cif.g08.bks.cpg/sg2_160_cif.got.tgz:319141.got - 2010.06.03 11:33:40.
