data_PCOD9009896
_publ_section_title
;
Structure prediction by ZEFSAII (Michael W. Deem and Ramdas Pophale) SiO2 
 PCOD9009896
Probable space group: P -1
;
_chemical_formula_sum "Si O2"
_cell_formula_units_Z 12
_cell_length_a 21.348023
_cell_length_b 5.367326
_cell_length_c 5.506531
_cell_angle_alpha 78.088011
_cell_angle_beta 101.340396
_cell_angle_gamma 132.677023
_cell_volume 452.462575
_symmetry_space_group_name_H-M "P -1"
_symmetry_group_IT_number 2
_symmetry_cell_setting 'triclinic'
loop_
_space_group_symop_operation_xyz
x,y,z
-x,-y,-z
loop_
_atom_site_type_symbol
_atom_site_label
_atom_site_fract_x
_atom_site_fract_y
_atom_site_fract_z
Si Si1 0.553109 0.410001 0.674570
Si Si2 0.603532 0.388959 0.220959
Si Si3 0.880673 0.072796 0.865712
Si Si4 0.231582 0.739937 0.112894
Si Si5 0.263984 0.692282 0.647006
Si Si6 0.071200 0.974231 0.589349
O O1 0.500000 0.500000 0.500000
O O2 0.617740 0.512305 0.485236
O O3 0.485414 0.001639 0.739951
O O4 0.588636 0.535103 0.949946
O O5 0.676980 0.383745 0.209275
O O6 0.820720 0.661781 0.885757
O O7 0.923872 0.191860 0.610309
O O8 0.826987 0.182679 0.858373
O O9 0.938439 0.176631 0.124638
O O10 0.292859 0.845876 0.366792
O O11 0.263829 0.884307 0.835654
O O12 0.165597 0.351428 0.600346
O O13 0.000000 0.000000 0.500000
#
# Coordination Sequence:
#
# PCOD9009896 Si02
#       6
#     2   2   2   2   2   2
#     4  10  21  40  63  94 122 166 204 256 329 380
#     4  10  21  40  63  88 133 157 210 264 309 395
#     4  10  21  40  61  88 121 168 213 264 321 374
#     4  10  21  40  62  88 130 159 214 265 315 382
#     4  10  21  40  60  92 123 168 209 261 320 375
#     4  10  21  40  63  90 127 167 213 264 316 376
#
# _framework density 26.521528
#
# number of rings (size 3 to 8) (size 9 to 14) (size 15 to 20)
#    0.000    2.000    0.000    3.000    0.000    0.000 
#   18.000   20.000    0.000    0.000    0.000    0.000 
#    0.000    0.000    0.000    0.000    0.000    0.000 
#
# Total GULP energy -67171.795940 kJ/mol
# GULP energy per Si atom -5597.649662 kJ/mol
# Density = 2.646116 g / cm^3
# Si number density = 26.521528 Si / 1000 Ang^3
#
#
#
# Elastic Constant Matrix: (Units=GPa)
#
#
# Indices 1 2 3 4 5 6 
#
# 1 163.0198 14.9545 69.1986 2.3935 -19.0741 -28.3286
# 2 14.9545 101.2227 56.7446 4.7263 -23.4783 1.7885
# 3 69.1986 56.7446 276.8589 4.9341 -21.2360 -9.9154
# 4 2.3935 4.7263 4.9341 61.4300 -1.7953 -6.4008
# 5 -19.0741 -23.4783 -21.2360 -1.7953 54.2982 -2.7377
# 6 -28.3286 1.7885 -9.9154 -6.4008 -2.7377 50.0213
#
#
#
# Elastic Compliance Matrix: (Units=1/GPa)
#
#
# Indices 1 2 3 4 5 6 
#
# 1 0.007847 0.000257 -0.001680 0.000326 0.002437 0.004277
# 2 0.000257 0.012158 -0.002225 -0.000698 0.004425 -0.000577
# 3 -0.001680 -0.002225 0.004506 -0.000117 0.000207 0.000018
# 4 0.000326 -0.000698 -0.000117 0.016585 0.000433 0.002332
# 5 0.002437 0.004425 0.000207 0.000433 0.021407 0.002490
# 6 0.004277 -0.000577 0.000018 0.002332 0.002490 0.022873
#
#
# Mechanical properties :
#
#
# Convention : Reuss Voigt Hill
#
# Bulk Modulus (GPa) = 58.08626 91.43298 74.75962
# Shear Modulus (GPa) = 50.80782 59.83016 55.31899
#
# Velocity S-wave (km/s) = 4.38164 4.75479 4.57203
# Velocity P-wave (km/s) = 6.89547 8.04325 7.49138
#
# Compressibility (1/GPa) = 0.01721577
#
# Stress axis : x y z
#
# Youngs Moduli (GPa) = 127.43250 82.25322 221.90604
#
# Poissons Ratio (x) = -0.02112 0.37273
# Poissons Ratio (y) = -0.03272 0.49370
# Poissons Ratio (z) = 0.21405 0.18300
#
# Static dielectric constant tensor:
#      x y z
#    x 2.033720 0.037650 -0.104060 
#    y 0.037650 2.368570 -0.086490 
#    z -0.104060 -0.086490 2.118070 
# 
# From -- ./inp_files/4927.got.cif
#   From: 2010.05.17/outbox.cif.g08.bks.cpg/sg2_3_cif.got.tgz:4927.got - 2010.06.03 11:33:40.
