data_PCOD9009711
_publ_section_title
;
Structure prediction by ZEFSAII (Michael W. Deem and Ramdas Pophale) SiO2 
 PCOD9009711
Probable space group: P -1
;
_chemical_formula_sum "Si O2"
_cell_formula_units_Z 16
_cell_length_a 22.093180
_cell_length_b 21.428120
_cell_length_c 10.595169
_cell_angle_alpha 144.760161
_cell_angle_beta 142.387613
_cell_angle_gamma 14.094384
_cell_volume 704.791745
_symmetry_space_group_name_H-M "P -1"
_symmetry_group_IT_number 2
_symmetry_cell_setting 'triclinic'
loop_
_space_group_symop_operation_xyz
x,y,z
-x,-y,-z
loop_
_atom_site_type_symbol
_atom_site_label
_atom_site_fract_x
_atom_site_fract_y
_atom_site_fract_z
Si Si1 0.000024 0.167222 0.966868
Si Si2 0.500003 0.991966 0.637174
Si Si3 0.000033 0.629626 0.204126
Si Si4 0.500024 0.402785 0.600724
Si Si5 0.499964 0.814098 0.856976
Si Si6 0.500023 0.601826 0.762708
Si Si7 0.000000 0.639686 0.511426
Si Si8 0.000026 0.952707 0.783867
O O1 0.753617 0.415219 0.883498
O O2 0.246448 0.922396 0.883524
O O3 0.000032 0.051106 0.845719
O O4 0.000004 0.260260 0.225620
O O5 0.749625 0.679812 0.577309
O O6 0.500000 0.000000 0.500000
O O7 0.250378 0.179060 0.577314
O O8 0.500010 0.109754 0.896006
O O9 0.250591 0.409054 0.178397
O O10 0.000009 0.672219 0.418255
O O11 0.749521 0.910137 0.178389
O O12 0.000000 0.500000 0.000000
O O13 0.500009 0.316126 0.343822
O O14 0.500032 0.528315 0.770195
O O15 0.249372 0.636860 0.650363
O O16 0.750687 0.135540 0.650342
O O17 0.500000 0.500000 0.500000
O O18 0.000000 0.000000 0.000000
#
# Coordination Sequence:
#
# PCOD9009711 Si02
#       8
#     2   2   2   2   2   2   2   2
#     4  10  23  38  63  95 122 162 211 254 307 376
#     4  12  26  46  66  93 133 169 214 271 323 381
#     4  12  23  43  67  92 132 173 211 272 315 383
#     4  10  23  37  60  91 122 160 208 251 302 373
#     4  12  24  41  65  98 129 171 218 260 327 383
#     4  10  21  43  64  89 126 167 213 262 306 362
#     4  12  25  43  67  98 130 170 217 261 327 386
#     4  10  21  40  56  88 128 159 195 247 308 365
#
# _framework density 22.701741999999999
#
# number of rings (size 3 to 8) (size 9 to 14) (size 15 to 20)
#    0.000    1.000    2.500    3.750    3.500    2.000 
#    0.000    0.000    0.000    0.000    0.000    0.000 
#    0.000    0.000    0.000    0.000    0.000    0.000 
#
# Total GULP energy -89458.831177 kJ/mol
# GULP energy per Si atom -5591.176949 kJ/mol
# Density = 2.265007 g / cm^3
# Si number density = 22.701742 Si / 1000 Ang^3
#
#
#
# Elastic Constant Matrix: (Units=GPa)
#
#
# Indices 1 2 3 4 5 6 
#
# 1 48.2216 38.0737 6.5888 -2.5234 -7.7616 -7.0149
# 2 38.0737 230.2524 76.7327 -9.5419 -13.4571 -21.7775
# 3 6.5888 76.7327 189.3443 -0.2681 -20.4350 -11.0442
# 4 -2.5234 -9.5419 -0.2681 40.7552 1.8927 -3.1008
# 5 -7.7616 -13.4571 -20.4350 1.8927 54.2596 3.7402
# 6 -7.0149 -21.7775 -11.0442 -3.1008 3.7402 29.5475
#
#
#
# Elastic Compliance Matrix: (Units=1/GPa)
#
#
# Indices 1 2 3 4 5 6 
#
# 1 0.024666 -0.004011 0.001247 0.000703 0.002766 0.003089
# 2 -0.004011 0.006044 -0.002155 0.001376 -0.000131 0.002858
# 3 0.001247 -0.002155 0.006373 -0.000418 0.002004 0.000792
# 4 0.000703 0.001376 -0.000418 0.025227 -0.000856 0.003781
# 5 0.002766 -0.000131 0.002004 -0.000856 0.019665 -0.001270
# 6 0.003089 0.002858 0.000792 0.003781 -0.001270 0.037537
#
#
# Mechanical properties :
#
#
# Convention : Reuss Voigt Hill
#
# Bulk Modulus (GPa) = 36.70554 78.95652 57.83103
# Shear Modulus (GPa) = 36.11841 48.00733 42.06287
#
# Velocity S-wave (km/s) = 3.99306 4.60357 4.30914
# Velocity P-wave (km/s) = 6.12071 7.94435 7.09139
#
# Compressibility (1/GPa) = 0.02724385
#
# Stress axis : x y z
#
# Youngs Moduli (GPa) = 40.54222 165.44501 156.90216
#
# Poissons Ratio (x) = 0.66364 -0.19564
# Poissons Ratio (y) = 0.16262 0.33819
# Poissons Ratio (z) = -0.05055 0.35661
#
# Static dielectric constant tensor:
#      x y z
#    x 1.891960 0.006960 0.019520 
#    y 0.006960 1.855040 -0.000230 
#    z 0.019520 -0.000230 1.817840 
# 
# From -- ./inp_files/477215.got.cif
#   From: 2010.05.17/outbox.cif.g08.bks.cpg/sg2_239_cif.got.tgz:477215.got - 2010.06.03 11:33:40.
