data_PCOD9009372
_publ_section_title
;
Structure prediction by ZEFSAII (Michael W. Deem and Ramdas Pophale) SiO2 
 PCOD9009372
Probable space group: P -1
;
_chemical_formula_sum "Si O2"
_cell_formula_units_Z 16
_cell_length_a 14.272345
_cell_length_b 14.795328
_cell_length_c 14.046281
_cell_angle_alpha 139.380383
_cell_angle_beta 31.070282
_cell_angle_gamma 147.749241
_cell_volume 810.356190
_symmetry_space_group_name_H-M "P -1"
_symmetry_group_IT_number 2
_symmetry_cell_setting 'triclinic'
loop_
_space_group_symop_operation_xyz
x,y,z
-x,-y,-z
loop_
_atom_site_type_symbol
_atom_site_label
_atom_site_fract_x
_atom_site_fract_y
_atom_site_fract_z
Si Si1 0.951543 0.032433 0.222065
Si Si2 0.720498 0.042015 0.022276
Si Si3 0.062021 0.185034 0.564669
Si Si4 0.637735 0.406499 0.904513
Si Si5 0.269347 0.257014 0.953099
Si Si6 0.463566 0.304575 0.173842
Si Si7 0.073401 0.390245 0.895530
Si Si8 0.748481 0.148999 0.646043
O O1 0.865174 0.106346 0.431087
O O2 0.752308 0.861795 0.207541
O O3 0.103915 0.984400 0.102555
O O4 0.089800 0.154565 0.110829
O O5 0.867742 0.233198 0.007948
O O6 0.591209 0.885910 0.932510
O O7 0.517859 0.996503 0.230677
O O8 0.273530 0.281553 0.387376
O O9 0.115501 0.295866 0.700951
O O10 0.862139 0.162251 0.658438
O O11 0.000000 0.000000 0.500000
O O12 0.504614 0.343281 0.870690
O O13 0.766123 0.320841 0.744597
O O14 0.770319 0.608032 0.946481
O O15 0.462021 0.342133 0.093321
O O16 0.702823 0.468051 0.129664
O O17 0.000000 0.500000 0.000000
#
# Coordination Sequence:
#
# PCOD9009372 Si02
#       8
#     2   2   2   2   2   2   2   2
#     4  11  21  42  67  96 129 179 214 270 332 389
#     4  11  23  46  68  95 141 176 215 281 339 383
#     4  12  24  43  70  97 130 181 225 271 332 396
#     4  10  21  41  64  95 130 177 209 274 335 377
#     4  10  21  39  68  94 134 167 220 271 322 399
#     4  11  22  44  67  89 137 173 215 274 333 391
#     4  12  26  41  66 100 128 174 229 275 327 396
#     4  11  23  41  72  94 133 178 219 265 339 392
#
# _framework density 19.744403999999999
#
# number of rings (size 3 to 8) (size 9 to 14) (size 15 to 20)
#    0.000    1.000    5.000    2.625    1.750    2.000 
#    4.500    0.000    5.500    0.000    0.000    0.000 
#    0.000    0.000    0.000    0.000    0.000    0.000 
#
# Total GULP energy -89272.714662 kJ/mol
# GULP energy per Si atom -5579.544666 kJ/mol
# Density = 1.969946 g / cm^3
# Si number density = 19.744404 Si / 1000 Ang^3
#
#
#
# Elastic Constant Matrix: (Units=GPa)
#
#
# Indices 1 2 3 4 5 6 
#
# 1 73.3938 32.1934 7.2407 18.2846 -7.4576 -8.4855
# 2 32.1934 117.2476 6.3509 15.9512 -7.0029 -21.2091
# 3 7.2407 6.3509 42.5225 -8.5525 -4.6187 -10.1022
# 4 18.2846 15.9512 -8.5525 17.3254 -1.7165 2.3640
# 5 -7.4576 -7.0029 -4.6187 -1.7165 27.5131 11.5205
# 6 -8.4855 -21.2091 -10.1022 2.3640 11.5205 43.0917
#
#
#
# Elastic Compliance Matrix: (Units=1/GPa)
#
#
# Indices 1 2 3 4 5 6 
#
# 1 0.022011 -0.001484 -0.007939 -0.026016 0.001470 0.002777
# 2 -0.001484 0.011562 -0.002473 -0.011169 -0.000952 0.005686
# 3 -0.007939 -0.002473 0.031387 0.026149 0.003156 0.002299
# 4 -0.026016 -0.011169 0.026149 0.110696 0.006558 -0.012316
# 5 0.001470 -0.000952 0.003156 0.006558 0.042066 -0.011046
# 6 0.002777 0.005686 0.002299 -0.012316 -0.011046 0.030719
#
#
# Mechanical properties :
#
#
# Convention : Reuss Voigt Hill
#
# Bulk Modulus (GPa) = 24.29217 36.08154 30.18686
# Shear Modulus (GPa) = 17.48516 30.07796 23.78156
#
# Velocity S-wave (km/s) = 2.97909 3.90727 3.47431
# Velocity P-wave (km/s) = 4.91562 6.21849 5.60504
#
# Compressibility (1/GPa) = 0.04116552
#
# Stress axis : x y z
#
# Youngs Moduli (GPa) = 45.43161 86.49311 31.86082
#
# Poissons Ratio (x) = 0.12837 0.25296
# Poissons Ratio (y) = 0.06743 0.07880
# Poissons Ratio (z) = 0.36070 0.21391
#
# Static dielectric constant tensor:
#      x y z
#    x 1.749530 0.055240 0.020340 
#    y 0.055240 1.758640 0.007700 
#    z 0.020340 0.007700 1.687890 
# 
# From -- ./inp_files/533809.got.cif
#   From: 2010.05.17/outbox.cif.g08.bks.cpg/sg2_267_cif.got.tgz:533809.got - 2010.06.03 11:33:40.
