data_PCOD9010685
_publ_section_title
;
Structure prediction by ZEFSAII (Michael W. Deem and Ramdas Pophale) SiO2 
 PCOD9010685
Probable space group: P -1
;
_chemical_formula_sum "Si O2"
_cell_formula_units_Z 16
_cell_length_a 7.274342
_cell_length_b 8.754460
_cell_length_c 18.843614
_cell_angle_alpha 117.728246
_cell_angle_beta 52.233274
_cell_angle_gamma 130.542932
_cell_volume 716.357679
_symmetry_space_group_name_H-M "P -1"
_symmetry_group_IT_number 2
_symmetry_cell_setting 'triclinic'
loop_
_space_group_symop_operation_xyz
x,y,z
-x,-y,-z
loop_
_atom_site_type_symbol
_atom_site_label
_atom_site_fract_x
_atom_site_fract_y
_atom_site_fract_z
Si Si1 0.455353 0.443892 0.345877
Si Si2 0.613419 0.490566 0.776402
Si Si3 0.823269 0.961860 0.269785
Si Si4 0.628793 0.928699 0.622281
Si Si5 0.636525 0.034228 0.871652
Si Si6 0.091456 0.693534 0.267022
Si Si7 0.696769 0.322419 0.046284
Si Si8 0.624487 0.859534 0.448256
O O1 0.309720 0.398971 0.294358
O O2 0.382712 0.245159 0.363444
O O3 0.425406 0.617633 0.430146
O O4 0.783507 0.566331 0.284809
O O5 0.842205 0.470602 0.756597
O O6 0.485264 0.580302 0.877986
O O7 0.385032 0.261371 0.760078
O O8 0.663658 0.079436 0.314990
O O9 0.825486 0.939081 0.349907
O O10 0.115000 0.006332 0.182705
O O11 0.705542 0.893743 0.518265
O O12 0.844428 0.151844 0.649645
O O13 0.705295 0.156962 0.809174
O O14 0.362968 0.816781 0.899534
O O15 0.624956 0.176344 0.964867
O O16 0.000000 0.500000 0.000000
O O17 0.500000 0.000000 0.500000
#
# Coordination Sequence:
#
# PCOD9010685 Si02
#       8
#     2   2   2   2   2   2   2   2
#     4  11  21  41  62  91 130 160 208 260 300 363
#     4  10  21  40  64  88 125 161 205 259 304 365
#     4   9  18  39  62  86 126 164 203 255 304 363
#     4  10  22  36  63  92 123 169 207 249 312 359
#     4  11  22  39  63  91 121 165 201 252 314 363
#     4  11  23  40  64  93 122 167 209 249 312 366
#     4  11  22  39  66  90 124 158 203 257 311 369
#     4   9  18  37  64  89 127 166 202 258 304 353
#
# _framework density 22.335213
#
# number of rings (size 3 to 8) (size 9 to 14) (size 15 to 20)
#    0.000    1.750    3.750    1.875    1.750    1.000 
#    0.000    0.625    0.000    6.750    0.000    0.000 
#    0.000    0.000    0.000    0.000    0.000    0.000 
#
# Total GULP energy -89292.788222 kJ/mol
# GULP energy per Si atom -5580.799264 kJ/mol
# Density = 2.228438 g / cm^3
# Si number density = 22.335213 Si / 1000 Ang^3
#
#
#
# Elastic Constant Matrix: (Units=GPa)
#
#
# Indices 1 2 3 4 5 6 
#
# 1 100.4766 27.3970 28.4807 3.2661 -9.1184 -35.6046
# 2 27.3970 112.8083 34.1483 3.6969 -13.3560 -22.1125
# 3 28.4807 34.1483 129.8736 27.5837 -6.1906 -18.6907
# 4 3.2661 3.6969 27.5837 45.2204 -7.6151 -3.4904
# 5 -9.1184 -13.3560 -6.1906 -7.6151 19.4197 9.7392
# 6 -35.6046 -22.1125 -18.6907 -3.4904 9.7392 33.4492
#
#
#
# Elastic Compliance Matrix: (Units=1/GPa)
#
#
# Indices 1 2 3 4 5 6 
#
# 1 0.016207 -0.000455 -0.001242 0.000713 -0.001182 0.016676
# 2 -0.000455 0.011064 -0.002330 0.001756 0.005243 0.004185
# 3 -0.001242 -0.002330 0.010199 -0.006192 -0.002882 0.003029
# 4 0.000713 0.001756 -0.006192 0.027450 0.011322 -0.001973
# 5 -0.001182 0.005243 -0.002882 0.011322 0.066950 -0.017715
# 6 0.016676 0.004185 0.003029 -0.001973 -0.017715 0.057057
#
#
# Mechanical properties :
#
#
# Convention : Reuss Voigt Hill
#
# Bulk Modulus (GPa) = 33.99586 58.13450 46.06518
# Shear Modulus (GPa) = 24.17947 36.49334 30.33641
#
# Velocity S-wave (km/s) = 3.29382 4.04653 3.68942
# Velocity P-wave (km/s) = 5.45155 6.92223 6.23043
#
# Compressibility (1/GPa) = 0.02941534
#
# Stress axis : x y z
#
# Youngs Moduli (GPa) = 61.70026 90.38469 98.05254
#
# Poissons Ratio (x) = 0.04110 0.12183
# Poissons Ratio (y) = 0.02806 0.22847
# Poissons Ratio (z) = 0.07666 0.21060
#
# Static dielectric constant tensor:
#      x y z
#    x 1.908310 -0.026330 -0.082710 
#    y -0.026330 1.873550 0.024510 
#    z -0.082710 0.024510 1.937700 
# 
# From -- ./inp_files/586817.got.cif
#   From: 2010.05.17/outbox.cif.g08.bks.cpg/sg2_294_cif.got.tgz:586817.got - 2010.06.03 11:33:40.
