data_PCOD9010196
_publ_section_title
;
Structure prediction by ZEFSAII (Michael W. Deem and Ramdas Pophale) SiO2 
 PCOD9010196
Probable space group: P -1
;
_chemical_formula_sum "Si O2"
_cell_formula_units_Z 16
_cell_length_a 16.923389
_cell_length_b 15.951186
_cell_length_c 12.791342
_cell_angle_alpha 124.392289
_cell_angle_beta 27.014863
_cell_angle_gamma 142.965686
_cell_volume 798.188485
_symmetry_space_group_name_H-M "P -1"
_symmetry_group_IT_number 2
_symmetry_cell_setting 'triclinic'
loop_
_space_group_symop_operation_xyz
x,y,z
-x,-y,-z
loop_
_atom_site_type_symbol
_atom_site_label
_atom_site_fract_x
_atom_site_fract_y
_atom_site_fract_z
Si Si1 0.751379 0.971179 0.270666
Si Si2 0.613804 0.363316 0.618299
Si Si3 0.243083 0.443622 0.806399
Si Si4 0.237491 0.658684 0.997888
Si Si5 0.313266 0.855901 0.869919
Si Si6 0.098001 0.436215 0.387702
Si Si7 0.557258 0.112450 0.921898
Si Si8 0.198553 0.340246 0.004896
O O1 0.526596 0.812133 0.349220
O O2 0.579748 0.925716 0.545676
O O3 0.915096 0.148584 0.173522
O O4 0.000000 0.000000 0.000000
O O5 0.640480 0.416271 0.741739
O O6 0.436783 0.364240 0.761282
O O7 0.929290 0.500931 0.299481
O O8 0.500000 0.500000 0.500000
O O9 0.295641 0.583854 0.813766
O O10 0.259875 0.443213 0.910805
O O11 0.949012 0.265526 0.984788
O O12 0.226271 0.743455 0.988359
O O13 0.459587 0.792363 0.921321
O O14 0.381706 0.994324 0.944358
O O15 0.163409 0.389737 0.184885
O O16 0.000000 0.500000 0.500000
O O17 0.866635 0.272345 0.618249
O O18 0.500000 0.000000 0.000000
#
# Coordination Sequence:
#
# PCOD9010196 Si02
#       8
#     2   2   2   2   2   2   2   2
#     4  10  22  36  61  91 122 156 205 249 311 361
#     4  10  21  40  62  91 119 164 204 258 307 363
#     4  12  26  39  61  93 125 163 207 258 308 372
#     4  10  21  40  66  86 120 162 210 252 310 368
#     4  11  21  40  66  87 122 165 206 254 315 364
#     4  11  22  38  64  92 126 163 208 253 311 371
#     4   9  20  39  62  92 118 162 207 251 305 375
#     4  11  23  40  59  91 129 156 211 253 307 375
#
# _framework density 20.045390999999999
#
# number of rings (size 3 to 8) (size 9 to 14) (size 15 to 20)
#    0.000    1.500    2.500    3.000    3.500    1.500 
#    0.000    0.625    0.000    0.000    0.000    0.000 
#    0.000    0.000    0.000    0.000    0.000    0.000 
#
# Total GULP energy -89103.911292 kJ/mol
# GULP energy per Si atom -5568.994456 kJ/mol
# Density = 1.999977 g / cm^3
# Si number density = 20.045391 Si / 1000 Ang^3
#
#
#
# Elastic Constant Matrix: (Units=GPa)
#
#
# Indices 1 2 3 4 5 6 
#
# 1 60.4532 18.0378 6.8836 -6.1792 1.0192 20.0272
# 2 18.0378 128.6576 25.4496 -6.8469 -9.2645 23.6177
# 3 6.8836 25.4496 71.7444 7.4586 2.2034 4.4156
# 4 -6.1792 -6.8469 7.4586 22.6034 -0.0434 3.7843
# 5 1.0192 -9.2645 2.2034 -0.0434 26.2471 0.5756
# 6 20.0272 23.6177 4.4156 3.7843 0.5756 30.6929
#
#
#
# Elastic Compliance Matrix: (Units=1/GPa)
#
#
# Indices 1 2 3 4 5 6 
#
# 1 0.023138 0.000865 -0.002565 0.010222 0.000004 -0.016654
# 2 0.000865 0.010808 -0.004155 0.006423 0.004342 -0.009157
# 3 -0.002565 -0.004155 0.016354 -0.007956 -0.002831 0.003552
# 4 0.010222 0.006423 -0.007956 0.054499 0.003006 -0.017243
# 5 0.000004 0.004342 -0.002831 0.003006 0.039963 -0.004056
# 6 -0.016654 -0.009157 0.003552 -0.017243 -0.004056 0.052185
#
#
# Mechanical properties :
#
#
# Convention : Reuss Voigt Hill
#
# Bulk Modulus (GPa) = 25.91247 40.17747 33.04497
# Shear Modulus (GPa) = 22.57141 29.94098 26.25619
#
# Velocity S-wave (km/s) = 3.35925 3.86898 3.62309
# Velocity P-wave (km/s) = 5.29161 6.32815 5.83295
#
# Compressibility (1/GPa) = 0.03859145
#
# Stress axis : x y z
#
# Youngs Moduli (GPa) = 43.21949 92.51989 61.14855
#
# Poissons Ratio (x) = -0.08002 0.15682
# Poissons Ratio (y) = -0.03738 0.25404
# Poissons Ratio (z) = 0.11084 0.38438
#
# Static dielectric constant tensor:
#      x y z
#    x 1.666280 0.124990 0.073180 
#    y 0.124990 1.493380 -0.210630 
#    z 0.073180 -0.210630 1.474350 
# 
# From -- ./inp_files/455778.got.cif
#   From: 2010.05.17/outbox.cif.g08.bks.cpg/sg2_228_cif.got.tgz:455778.got - 2010.06.03 11:33:40.
