data_PCOD9010716
_publ_section_title
;
Structure prediction by ZEFSAII (Michael W. Deem and Ramdas Pophale) SiO2 
 PCOD9010716
Probable space group: P -1
;
_chemical_formula_sum "Si O2"
_cell_formula_units_Z 16
_cell_length_a 12.084106
_cell_length_b 15.391388
_cell_length_c 14.348493
_cell_angle_alpha 37.567986
_cell_angle_beta 31.926342
_cell_angle_gamma 27.306441
_cell_volume 639.228662
_symmetry_space_group_name_H-M "P -1"
_symmetry_group_IT_number 2
_symmetry_cell_setting 'triclinic'
loop_
_space_group_symop_operation_xyz
x,y,z
-x,-y,-z
loop_
_atom_site_type_symbol
_atom_site_label
_atom_site_fract_x
_atom_site_fract_y
_atom_site_fract_z
Si Si1 0.484779 0.199067 0.060725
Si Si2 0.657741 0.797010 0.512893
Si Si3 0.404823 0.302590 0.548949
Si Si4 0.448487 0.606099 0.291117
Si Si5 0.028278 0.150454 0.883370
Si Si6 0.620326 0.155690 0.715743
Si Si7 0.115173 0.255019 0.112401
Si Si8 0.765751 0.513184 0.835068
O O1 0.244949 0.236124 0.137065
O O2 0.381673 0.354650 0.081473
O O3 0.685527 0.991507 0.140312
O O4 0.656024 0.220333 0.848852
O O5 0.510211 0.794933 0.529706
O O6 0.926885 0.757760 0.310554
O O7 0.707804 0.649696 0.676001
O O8 0.500000 0.000000 0.500000
O O9 0.359309 0.492710 0.419397
O O10 0.604959 0.175237 0.599876
O O11 0.099522 0.380932 0.725792
O O12 0.344000 0.705381 0.382251
O O13 0.791107 0.447171 0.175061
O O14 0.766983 0.340791 0.962571
O O15 0.000000 0.000000 0.000000
O O16 0.841103 0.933160 0.774077
O O17 0.322608 0.235328 0.905401
#
# Coordination Sequence:
#
# PCOD9010716 Si02
#       8
#     2   2   2   2   2   2   2   2
#     4  11  23  40  67  94 130 174 216 261 331 383
#     4  11  24  46  65  97 130 174 217 269 328 396
#     4  11  23  41  65  92 132 170 214 265 334 373
#     4  11  24  39  62 100 130 166 218 271 312 390
#     4  11  25  42  68  97 129 170 226 272 320 384
#     4  10  21  40  64  89 128 168 217 260 320 390
#     4  10  21  41  65  93 129 168 217 265 318 389
#     4  11  24  44  69  89 134 176 214 265 331 390
#
# _framework density 25.030166999999999
#
# number of rings (size 3 to 8) (size 9 to 14) (size 15 to 20)
#    0.000    1.250    1.250    6.375    3.500    4.000 
#    2.250    0.000    0.000    0.000    0.000    0.000 
#    0.000    0.000    0.000    0.000    0.000    0.000 
#
# Total GULP energy -89521.953674 kJ/mol
# GULP energy per Si atom -5595.122105 kJ/mol
# Density = 2.497320 g / cm^3
# Si number density = 25.030167 Si / 1000 Ang^3
#
#
#
# Elastic Constant Matrix: (Units=GPa)
#
#
# Indices 1 2 3 4 5 6 
#
# 1 129.4967 46.1026 35.5730 -14.0972 16.2045 45.4732
# 2 46.1026 141.0980 12.5415 -27.0343 -7.2539 42.7030
# 3 35.5730 12.5415 70.6458 -29.2992 -0.2752 12.6494
# 4 -14.0972 -27.0343 -29.2992 40.2725 9.5236 -11.3687
# 5 16.2045 -7.2539 -0.2752 9.5236 29.2299 -9.5343
# 6 45.4732 42.7030 12.6494 -11.3687 -9.5343 45.5548
#
#
#
# Elastic Compliance Matrix: (Units=1/GPa)
#
#
# Indices 1 2 3 4 5 6 
#
# 1 0.018749 -0.000189 -0.005483 0.000790 -0.017425 -0.020465
# 2 -0.000189 0.011129 0.002938 0.007425 -0.002713 -0.009774
# 3 -0.005483 0.002938 0.023726 0.017782 -0.001735 0.000205
# 4 0.000790 0.007425 0.017782 0.045227 -0.014618 -0.004459
# 5 -0.017425 -0.002713 -0.001735 -0.014618 0.057329 0.028769
# 6 -0.020465 -0.009774 0.000205 -0.004459 0.028769 0.056393
#
#
# Mechanical properties :
#
#
# Convention : Reuss Voigt Hill
#
# Bulk Modulus (GPa) = 20.77450 58.85277 39.81364
# Shear Modulus (GPa) = 21.36151 39.47967 30.42059
#
# Velocity S-wave (km/s) = 2.92452 3.97581 3.48998
# Velocity P-wave (km/s) = 4.44090 6.68131 5.67281
#
# Compressibility (1/GPa) = 0.04813593
#
# Stress axis : x y z
#
# Youngs Moduli (GPa) = 53.33725 89.85371 42.14826
#
# Poissons Ratio (x) = 0.01702 0.23109
# Poissons Ratio (y) = 0.01010 -0.12385
# Poissons Ratio (z) = 0.29244 -0.26403
#
# Static dielectric constant tensor:
#      x y z
#    x 2.122900 0.058410 -0.080360 
#    y 0.058410 1.961450 0.018570 
#    z -0.080360 0.018570 2.022000 
# 
# From -- ./inp_files/521455.got.cif
#   From: 2010.05.17/outbox.cif.g08.bks.cpg/sg2_261_cif.got.tgz:521455.got - 2010.06.03 11:33:40.
