data_PCOD9010863
_publ_section_title
;
Structure prediction by ZEFSAII (Michael W. Deem and Ramdas Pophale) SiO2 
 PCOD9010863
Probable space group: P -1
;
_chemical_formula_sum "Si O2"
_cell_formula_units_Z 14
_cell_length_a 21.846534
_cell_length_b 5.490178
_cell_length_c 20.370821
_cell_angle_alpha 77.123731
_cell_angle_beta 12.970040
_cell_angle_gamma 80.664264
_cell_volume 517.460454
_symmetry_space_group_name_H-M "P -1"
_symmetry_group_IT_number 2
_symmetry_cell_setting 'triclinic'
loop_
_space_group_symop_operation_xyz
x,y,z
-x,-y,-z
loop_
_atom_site_type_symbol
_atom_site_label
_atom_site_fract_x
_atom_site_fract_y
_atom_site_fract_z
Si Si1 0.696746 0.341010 0.096336
Si Si2 0.109760 0.424250 0.545750
Si Si3 0.688463 0.981948 0.241965
Si Si4 0.379895 0.791744 0.394884
Si Si5 0.860930 0.304795 0.215611
Si Si6 0.447817 0.873522 0.920783
Si Si7 0.151341 0.770648 0.361884
O O1 0.565977 0.584610 0.214783
O O2 0.716548 0.232900 0.154325
O O3 0.510301 0.079508 0.271973
O O4 0.985126 0.409731 0.749812
O O5 0.405511 0.352215 0.238356
O O6 0.136709 0.673006 0.457459
O O7 0.870241 0.199634 0.771699
O O8 0.474356 0.745783 0.442688
O O9 0.500000 0.000000 0.500000
O O10 0.990504 0.928045 0.939270
O O11 0.128364 0.680037 0.716651
O O12 0.378027 0.877100 0.315545
O O13 0.000000 0.500000 0.000000
O O14 0.426636 0.865986 0.022245
O O15 0.000000 0.500000 0.500000
O O16 0.000000 0.000000 0.500000
#
# Coordination Sequence:
#
# PCOD9010863 Si02
#       7
#     2   2   2   2   2   2   2
#     4  10  22  42  65  94 128 168 212 262 317 378
#     4  10  21  41  64  94 128 168 212 262 316 377
#     4  11  23  41  64  95 128 168 212 263 318 379
#     4  10  22  42  65  94 128 168 212 262 317 378
#     4  11  23  41  64  95 128 168 212 263 318 379
#     4  10  21  41  64  94 128 168 212 262 316 377
#     4  10  21  40  64  94 128 168 212 262 316 376
#
# _framework density 27.055208
#
# number of rings (size 3 to 8) (size 9 to 14) (size 15 to 20)
#    0.000    1.714    0.000    3.857    0.000    2.286 
#    0.000   40.000    0.000    0.000    0.000    0.000 
#    0.000    0.000    0.000    0.000    0.000    0.000 
#
# Total GULP energy -78281.866964 kJ/mol
# GULP energy per Si atom -5591.561926 kJ/mol
# Density = 2.699363 g / cm^3
# Si number density = 27.055208 Si / 1000 Ang^3
#
#
#
# Elastic Constant Matrix: (Units=GPa)
#
#
# Indices 1 2 3 4 5 6 
#
# 1 150.3395 53.1511 57.1745 -9.5527 68.7704 -42.1761
# 2 53.1511 173.1178 49.7761 2.7225 20.7352 -39.9839
# 3 57.1745 49.7761 132.7886 -4.5856 50.8501 -8.0384
# 4 -9.5527 2.7225 -4.5856 82.5787 -1.1252 2.5696
# 5 68.7704 20.7352 50.8501 -1.1252 80.0866 -22.1437
# 6 -42.1761 -39.9839 -8.0384 2.5696 -22.1437 59.0352
#
#
#
# Elastic Compliance Matrix: (Units=1/GPa)
#
#
# Indices 1 2 3 4 5 6 
#
# 1 0.013096 -0.001457 -0.001477 0.001212 -0.008557 0.004905
# 2 -0.001457 0.007933 -0.003013 -0.000716 0.002447 0.004871
# 3 -0.001477 -0.003013 0.011505 0.000603 -0.006336 -0.003932
# 4 0.001212 -0.000716 0.000603 0.012307 -0.001211 -0.000527
# 5 -0.008557 0.002447 -0.006336 -0.001211 0.024267 0.003837
# 6 0.004905 0.004871 -0.003932 -0.000527 0.003837 0.024669
#
#
# Mechanical properties :
#
#
# Convention : Reuss Voigt Hill
#
# Bulk Modulus (GPa) = 48.45083 86.27214 67.36149
# Shear Modulus (GPa) = 44.42357 64.08305 54.25331
#
# Velocity S-wave (km/s) = 4.05651 4.87211 4.48289
# Velocity P-wave (km/s) = 6.31564 7.97537 7.19354
#
# Compressibility (1/GPa) = 0.02063948
#
# Stress axis : x y z
#
# Youngs Moduli (GPa) = 76.35959 126.04907 86.91762
#
# Poissons Ratio (x) = 0.18369 0.12835
# Poissons Ratio (y) = 0.11128 0.26192
# Poissons Ratio (z) = 0.11276 0.37985
#
# Static dielectric constant tensor:
#      x y z
#    x 2.515660 0.238050 -0.080800 
#    y 0.238050 2.112890 -0.105460 
#    z -0.080800 -0.105460 2.047360 
# 
# From -- ./inp_files/9399.got.cif
#   From: 2010.05.17/outbox.cif.g08.bks.cpg/sg2_5_cif.got.tgz:9399.got - 2010.06.03 11:33:40.
