data_PCOD9010367
_publ_section_title
;
Structure prediction by ZEFSAII (Michael W. Deem and Ramdas Pophale) SiO2 
 PCOD9010367
Probable space group: P -1
;
_chemical_formula_sum "Si O2"
_cell_formula_units_Z 12
_cell_length_a 9.396882
_cell_length_b 8.242472
_cell_length_c 11.771224
_cell_angle_alpha 75.525997
_cell_angle_beta 137.692646
_cell_angle_gamma 92.679761
_cell_volume 580.719174
_symmetry_space_group_name_H-M "P -1"
_symmetry_group_IT_number 2
_symmetry_cell_setting 'triclinic'
loop_
_space_group_symop_operation_xyz
x,y,z
-x,-y,-z
loop_
_atom_site_type_symbol
_atom_site_label
_atom_site_fract_x
_atom_site_fract_y
_atom_site_fract_z
Si Si1 0.662524 0.847263 0.352709
Si Si2 0.301638 0.916667 0.856304
Si Si3 0.602270 0.585131 0.171677
Si Si4 0.914938 0.795594 0.744343
Si Si5 0.216226 0.440119 0.949847
Si Si6 0.790271 0.919278 0.887365
O O1 0.667067 0.685037 0.300445
O O2 0.784240 0.800546 0.549959
O O3 0.759466 0.987871 0.314521
O O4 0.416215 0.942243 0.216767
O O5 0.091168 0.915532 0.807496
O O6 0.423978 0.720155 0.969345
O O7 0.500000 0.000000 0.000000
O O8 0.786139 0.535744 0.193690
O O9 0.454992 0.450452 0.138119
O O10 0.769598 0.861791 0.754983
O O11 0.046868 0.600275 0.874380
O O12 0.177638 0.253674 0.989087
O O13 0.000000 0.000000 0.000000
#
# Coordination Sequence:
#
# PCOD9010367 Si02
#       6
#     2   2   2   2   2   2
#     4  11  22  39  62  91 126 154 203 260 304 347
#     4   9  17  36  62  87 114 160 206 239 283 363
#     4   9  19  38  67  87 115 162 211 244 294 361
#     4  11  24  38  59  96 126 156 195 260 314 349
#     4  10  21  40  63  88 117 163 210 244 293 374
#     4  12  24  41  64  88 120 168 207 242 301 376
#
# _framework density 20.664031999999999
#
# number of rings (size 3 to 8) (size 9 to 14) (size 15 to 20)
#    0.000    1.667    1.667    4.500    2.333    0.667 
#    0.000    5.000    0.000    0.000    0.000    0.000 
#    0.000    0.000    0.000    0.000    0.000    0.000 
#
# Total GULP energy -66898.363903 kJ/mol
# GULP energy per Si atom -5574.863659 kJ/mol
# Density = 2.061700 g / cm^3
# Si number density = 20.664032 Si / 1000 Ang^3
#
#
#
# Elastic Constant Matrix: (Units=GPa)
#
#
# Indices 1 2 3 4 5 6 
#
# 1 92.7178 33.1514 17.3561 13.8466 -5.0800 -8.2946
# 2 33.1514 90.5294 21.1047 19.8918 -1.4362 16.7130
# 3 17.3561 21.1047 68.5704 18.6767 -16.2753 4.4166
# 4 13.8466 19.8918 18.6767 20.3992 -5.5049 -7.9772
# 5 -5.0800 -1.4362 -16.2753 -5.5049 30.0698 10.4607
# 6 -8.2946 16.7130 4.4166 -7.9772 10.4607 42.7075
#
#
#
# Elastic Compliance Matrix: (Units=1/GPa)
#
#
# Indices 1 2 3 4 5 6 
#
# 1 0.013573 -0.005403 -0.002361 -0.000018 -0.001074 0.005255
# 2 -0.005403 0.020227 0.003132 -0.023891 0.002360 -0.014329
# 3 -0.002361 0.003132 0.025059 -0.025706 0.012862 -0.012228
# 4 -0.000018 -0.023891 -0.025706 0.107133 -0.007195 0.033778
# 5 -0.001074 0.002360 0.012862 -0.007195 0.043896 -0.014558
# 6 0.005255 -0.014329 -0.012228 0.033778 -0.014558 0.041183
#
#
# Mechanical properties :
#
#
# Convention : Reuss Voigt Hill
#
# Bulk Modulus (GPa) = 20.16326 43.89358 32.02842
# Shear Modulus (GPa) = 18.05926 30.64897 24.35411
#
# Velocity S-wave (km/s) = 2.95947 3.85542 3.43676
# Velocity P-wave (km/s) = 4.63214 6.41145 5.59300
#
# Compressibility (1/GPa) = 0.04959515
#
# Stress axis : x y z
#
# Youngs Moduli (GPa) = 73.67448 49.43922 39.90589
#
# Poissons Ratio (x) = 0.26713 0.09422
# Poissons Ratio (y) = 0.39808 -0.12500
# Poissons Ratio (z) = 0.17396 -0.15487
#
# Static dielectric constant tensor:
#      x y z
#    x 1.807430 0.017040 -0.003950 
#    y 0.017040 1.814370 0.027350 
#    z -0.003950 0.027350 1.750390 
# 
# From -- ./inp_files/151692.got.cif
#   From: 2010.05.17/outbox.cif.g08.bks.cpg/sg2_76_cif.got.tgz:151692.got - 2010.06.03 11:33:40.
