data_PCOD9010334
_publ_section_title
;
Structure prediction by ZEFSAII (Michael W. Deem and Ramdas Pophale) SiO2 
 PCOD9010334
Probable space group: P -1
;
_chemical_formula_sum "Si O2"
_cell_formula_units_Z 14
_cell_length_a 24.008340
_cell_length_b 9.522130
_cell_length_c 14.251635
_cell_angle_alpha 31.221255
_cell_angle_beta 150.920623
_cell_angle_gamma 129.535634
_cell_volume 737.119455
_symmetry_space_group_name_H-M "P -1"
_symmetry_group_IT_number 2
_symmetry_cell_setting 'triclinic'
loop_
_space_group_symop_operation_xyz
x,y,z
-x,-y,-z
loop_
_atom_site_type_symbol
_atom_site_label
_atom_site_fract_x
_atom_site_fract_y
_atom_site_fract_z
Si Si1 0.272988 0.844041 0.909104
Si Si2 0.976769 0.715392 0.661318
Si Si3 0.530397 0.683864 0.271082
Si Si4 0.649216 0.272454 0.360941
Si Si5 0.621128 0.076520 0.636143
Si Si6 0.765408 0.731877 0.223491
Si Si7 0.252564 0.323807 0.269980
O O1 0.301976 0.972457 0.976956
O O2 0.398849 0.732876 0.097678
O O3 0.240551 0.561955 0.034384
O O4 0.140206 0.137895 0.520187
O O5 0.912464 0.625815 0.529812
O O6 0.112746 0.451149 0.037909
O O7 0.000000 0.000000 0.500000
O O8 0.574812 0.407212 0.423713
O O9 0.644281 0.640450 0.533243
O O10 0.500000 0.000000 0.000000
O O11 0.666989 0.106353 0.582399
O O12 0.721988 0.480535 0.335620
O O13 0.695414 0.012262 0.499378
O O14 0.500000 0.500000 0.000000
O O15 0.500000 0.000000 0.500000
O O16 0.724108 0.840412 0.994689
#
# Coordination Sequence:
#
# PCOD9010334 Si02
#       7
#     2   2   2   2   2   2   2
#     4   9  19  38  63  86 115 158 205 250 307 358
#     4   8  18  39  66  88 115 165 209 249 305 375
#     4  12  23  36  61  94 121 156 210 260 300 365
#     4  12  24  38  59  96 129 159 205 257 309 366
#     4  12  23  37  60  91 129 163 199 257 317 359
#     4  10  21  40  63  85 128 160 204 255 309 359
#     4  11  21  40  65  86 120 165 207 246 313 369
#
# _framework density 18.992851000000002
#
# number of rings (size 3 to 8) (size 9 to 14) (size 15 to 20)
#    0.857    0.571    2.857    3.857    0.000    0.571 
#    0.000    1.429    6.286    0.000    0.000    0.000 
#    0.000    0.000    0.000    0.000    0.000    0.000 
#
# Total GULP energy -77955.072710 kJ/mol
# GULP energy per Si atom -5568.219479 kJ/mol
# Density = 1.894962 g / cm^3
# Si number density = 18.992851 Si / 1000 Ang^3
#
#
#
# Elastic Constant Matrix: (Units=GPa)
#
#
# Indices 1 2 3 4 5 6 
#
# 1 -77.9030 117.7225 44.8267 87.3998 -109.5333 -56.5242
# 2 117.7225 26.1417 3.3734 -92.4118 102.9666 81.6693
# 3 44.8267 3.3734 83.8417 -24.1569 53.0544 31.7951
# 4 87.3998 -92.4118 -24.1569 -25.2988 87.6668 58.2216
# 5 -109.5333 102.9666 53.0544 87.6668 -68.1316 -70.7888
# 6 -56.5242 81.6693 31.7951 58.2216 -70.7888 -16.4722
#
#
#
# Elastic Compliance Matrix: (Units=1/GPa)
#
#
# Indices 1 2 3 4 5 6 
#
# 1 0.030187 0.002443 0.000847 0.007762 -0.008845 -0.024396
# 2 0.002443 0.008291 -0.004840 -0.000186 0.005488 -0.000860
# 3 0.000847 -0.004840 0.012814 -0.003678 -0.003558 0.000123
# 4 0.007762 -0.000186 -0.003678 0.018622 0.006939 0.001347
# 5 -0.008845 0.005488 -0.003558 0.006939 0.018515 -0.004353
# 6 -0.024396 -0.000860 0.000123 0.001347 -0.004353 0.042448
#
#
# Mechanical properties :
#
#
# Convention : Reuss Voigt Hill
#
# Bulk Modulus (GPa) = 20.75068 40.43620 30.59344
# Shear Modulus (GPa) = 33.32430 -30.90333 1.21048
#
# Velocity S-wave (km/s) = 4.19330 -4.03811 0.79920
# Velocity P-wave (km/s) = 5.86467 0.63669 4.12243
#
# Compressibility (1/GPa) = 0.04819120
#
# Stress axis : x y z
#
# Youngs Moduli (GPa) = 33.12738 120.61715 78.03777
#
# Poissons Ratio (x) = -0.29463 -0.06609
# Poissons Ratio (y) = -0.08092 0.37769
# Poissons Ratio (z) = -0.02806 0.58376
#
# Static dielectric constant tensor:
#      x y z
#    x 1.693980 0.004660 0.007860 
#    y 0.004660 1.649030 0.005910 
#    z 0.007860 0.005910 1.305680 
# 
# From -- ./inp_files/542634.got.cif
#   From: 2010.05.17/outbox.cif.g08.bks.cpg/sg2_272_cif.got.tgz:542634.got - 2010.06.03 11:33:40.
