data_PCOD9010413
_publ_section_title
;
Structure prediction by ZEFSAII (Michael W. Deem and Ramdas Pophale) SiO2 
 PCOD9010413
Probable space group: P -1
;
_chemical_formula_sum "Si O2"
_cell_formula_units_Z 16
_cell_length_a 8.023900
_cell_length_b 6.197353
_cell_length_c 17.991098
_cell_angle_alpha 113.369941
_cell_angle_beta 58.644365
_cell_angle_gamma 119.745063
_cell_volume 651.646409
_symmetry_space_group_name_H-M "P -1"
_symmetry_group_IT_number 2
_symmetry_cell_setting 'triclinic'
loop_
_space_group_symop_operation_xyz
x,y,z
-x,-y,-z
loop_
_atom_site_type_symbol
_atom_site_label
_atom_site_fract_x
_atom_site_fract_y
_atom_site_fract_z
Si Si1 0.513022 0.879991 0.105983
Si Si2 0.148841 0.194791 0.749809
Si Si3 0.802168 0.630854 0.923355
Si Si4 0.196564 0.448691 0.623769
Si Si5 0.458130 0.820108 0.287466
Si Si6 0.834328 0.678333 0.748033
Si Si7 0.832524 0.393520 0.088579
Si Si8 0.398300 0.102618 0.468700
O O1 0.301278 0.677008 0.091462
O O2 0.474022 0.882392 0.204411
O O3 0.612452 0.168112 0.093295
O O4 0.678439 0.750662 0.023141
O O5 0.218288 0.404449 0.699561
O O6 0.315290 0.067632 0.711416
O O7 0.163696 0.349598 0.842006
O O8 0.937431 0.970831 0.742755
O O9 0.786490 0.685659 0.847850
O O10 0.045894 0.726615 0.899614
O O11 0.211129 0.192123 0.550528
O O12 0.404477 0.659174 0.572765
O O13 0.999174 0.537052 0.676188
O O14 0.370866 0.514117 0.270146
O O15 0.326600 0.919902 0.388772
O O16 0.000000 0.500000 0.000000
O O17 0.500000 0.000000 0.500000
#
# Coordination Sequence:
#
# PCOD9010413 Si02
#       8
#     2   2   2   2   2   2   2   2
#     4  10  22  40  62  93 130 171 218 260 320 381
#     4  12  23  42  64  95 135 163 213 276 315 379
#     4  10  21  40  63  89 134 174 206 270 317 370
#     4  11  22  42  70  92 127 172 205 264 333 374
#     4  11  23  42  68  92 127 174 213 265 323 386
#     4  11  23  43  65  96 131 171 217 259 323 384
#     4  12  23  35  62  96 126 174 221 258 318 383
#     4  11  22  43  71  95 129 169 211 269 331 377
#
# _framework density 24.553194999999999
#
# number of rings (size 3 to 8) (size 9 to 14) (size 15 to 20)
#    0.000    1.000    3.750    3.375    0.000    2.000 
#    2.250    2.500    0.000    0.000    0.000    0.000 
#    0.000    0.000    0.000    0.000    0.000    0.000 
#
# Total GULP energy -89350.681116 kJ/mol
# GULP energy per Si atom -5584.417570 kJ/mol
# Density = 2.449731 g / cm^3
# Si number density = 24.553195 Si / 1000 Ang^3
#
#
#
# Elastic Constant Matrix: (Units=GPa)
#
#
# Indices 1 2 3 4 5 6 
#
# 1 52.6830 14.6398 10.3465 6.0194 -13.3271 6.1371
# 2 14.6398 127.2580 52.6460 1.4655 7.2301 13.7538
# 3 10.3465 52.6460 147.5767 19.4091 -9.2174 -5.0412
# 4 6.0194 1.4655 19.4091 49.7464 -12.7171 -4.2329
# 5 -13.3271 7.2301 -9.2174 -12.7171 25.8477 7.8511
# 6 6.1371 13.7538 -5.0412 -4.2329 7.8511 30.3920
#
#
#
# Elastic Compliance Matrix: (Units=1/GPa)
#
#
# Indices 1 2 3 4 5 6 
#
# 1 0.024741 -0.002924 -0.000021 0.000584 0.016219 -0.007785
# 2 -0.002924 0.010490 -0.003965 0.000078 -0.004730 -0.003582
# 3 -0.000021 -0.003965 0.008744 -0.002513 0.002278 0.002310
# 4 0.000584 0.000078 -0.002513 0.023851 0.011158 -0.000131
# 5 0.016219 -0.004730 0.002278 0.011158 0.059068 -0.014462
# 6 -0.007785 -0.003582 0.002310 -0.000131 -0.014462 0.040197
#
#
# Mechanical properties :
#
#
# Convention : Reuss Voigt Hill
#
# Bulk Modulus (GPa) = 33.16350 53.64250 43.40300
# Shear Modulus (GPa) = 26.18307 37.85626 32.01966
#
# Velocity S-wave (km/s) = 3.26909 3.93084 3.61514
# Velocity P-wave (km/s) = 5.27119 6.51897 5.92800
#
# Compressibility (1/GPa) = 0.03015363
#
# Stress axis : x y z
#
# Youngs Moduli (GPa) = 40.41844 95.33165 114.36630
#
# Poissons Ratio (x) = 0.27879 0.00242
# Poissons Ratio (y) = 0.11820 0.45347
# Poissons Ratio (z) = 0.00085 0.37799
#
# Static dielectric constant tensor:
#      x y z
#    x 2.023480 -0.038160 -0.025400 
#    y -0.038160 1.999540 0.045130 
#    z -0.025400 0.045130 2.013670 
# 
# From -- ./inp_files/52678.got.cif
#   From: 2010.05.17/outbox.cif.g08.bks.cpg/sg2_27_cif.got.tgz:52678.got - 2010.06.03 11:33:40.
