data_PCOD9010910
_publ_section_title
;
Structure prediction by ZEFSAII (Michael W. Deem and Ramdas Pophale) SiO2 
 PCOD9010910
Probable space group: P -1
;
_chemical_formula_sum "Si O2"
_cell_formula_units_Z 14
_cell_length_a 14.254152
_cell_length_b 9.496497
_cell_length_c 5.628439
_cell_angle_alpha 77.073571
_cell_angle_beta 111.170248
_cell_angle_gamma 123.306399
_cell_volume 593.458918
_symmetry_space_group_name_H-M "P -1"
_symmetry_group_IT_number 2
_symmetry_cell_setting 'triclinic'
loop_
_space_group_symop_operation_xyz
x,y,z
-x,-y,-z
loop_
_atom_site_type_symbol
_atom_site_label
_atom_site_fract_x
_atom_site_fract_y
_atom_site_fract_z
Si Si1 0.023595 0.770477 0.174765
Si Si2 0.794555 0.453233 0.189420
Si Si3 0.753224 0.211216 0.855092
Si Si4 0.135325 0.138930 0.293871
Si Si5 0.612644 0.115097 0.354369
Si Si6 0.596447 0.874629 0.091911
Si Si7 0.728819 0.714756 0.136984
O O1 0.130852 0.759380 0.177363
O O2 0.927992 0.602117 0.286259
O O3 0.070057 0.936857 0.314043
O O4 0.954361 0.799928 0.884924
O O5 0.739819 0.277504 0.341533
O O6 0.717971 0.536143 0.152344
O O7 0.782268 0.384528 0.937599
O O8 0.627836 0.141160 0.635554
O O9 0.712310 0.044366 0.039143
O O10 0.194590 0.208885 0.577857
O O11 0.216597 0.193586 0.104240
O O12 0.520414 0.144238 0.120352
O O13 0.600307 0.937901 0.340066
O O14 0.615013 0.724238 0.095232
#
# Coordination Sequence:
#
# PCOD9010910 Si02
#       7
#     2   2   2   2   2   2   2
#     4  10  21  40  64  95 132 172 211 267 322 389
#     4  10  25  39  59  97 132 167 211 265 331 389
#     4  11  21  43  62  96 125 172 212 266 326 389
#     4  10  23  41  66 101 130 170 222 267 318 392
#     4  10  23  42  65  92 129 165 222 269 324 385
#     4  10  22  42  68  92 120 172 223 273 316 382
#     4  11  23  45  68  98 131 171 221 270 325 385
#
# _framework density 23.590513000000001
#
# number of rings (size 3 to 8) (size 9 to 14) (size 15 to 20)
#    0.000    1.714    1.429    1.714    4.000    6.286 
#   10.286    0.714    0.000    0.000    0.000    0.000 
#    0.000    0.000    0.000    0.000    0.000    0.000 
#
# Total GULP energy -78021.887028 kJ/mol
# GULP energy per Si atom -5572.991931 kJ/mol
# Density = 2.353682 g / cm^3
# Si number density = 23.590513 Si / 1000 Ang^3
#
#
#
# Elastic Constant Matrix: (Units=GPa)
#
#
# Indices 1 2 3 4 5 6 
#
# 1 104.0203 9.9794 59.5995 23.7983 -12.2294 -30.0649
# 2 9.9794 56.3763 36.2695 30.4848 -22.3574 -15.7616
# 3 59.5995 36.2695 66.0816 3.0211 10.7065 -17.0493
# 4 23.7983 30.4848 3.0211 11.6307 3.1802 -13.5916
# 5 -12.2294 -22.3574 10.7065 3.1802 17.2457 -3.5379
# 6 -30.0649 -15.7616 -17.0493 -13.5916 -3.5379 46.4802
#
#
#
# Elastic Compliance Matrix: (Units=1/GPa)
#
#
# Indices 1 2 3 4 5 6 
#
# 1 0.009050 -0.009056 -0.001343 0.014170 -0.005874 0.005986
# 2 -0.009056 0.002525 0.008200 0.014287 -0.010591 0.001378
# 3 -0.001343 0.008200 0.011783 -0.023942 0.006726 -0.000255
# 4 0.014170 0.014287 -0.023942 0.037050 0.040530 0.019147
# 5 -0.005874 -0.010591 0.006726 0.040530 0.030336 0.009237
# 6 0.005986 0.001378 -0.000255 0.019147 0.009237 0.032063
#
#
# Mechanical properties :
#
#
# Convention : Reuss Voigt Hill
#
# Bulk Modulus (GPa) = 52.74492 48.68610 50.71551
# Shear Modulus (GPa) = 37.44664 23.11330 30.27997
#
# Velocity S-wave (km/s) = 3.98849 3.13352 3.58658
# Velocity P-wave (km/s) = 6.60438 5.81161 6.22063
#
# Compressibility (1/GPa) = 0.01895917
#
# Stress axis : x y z
#
# Youngs Moduli (GPa) = 110.50238 395.98707 84.87149
#
# Poissons Ratio (x) = 3.58604 0.11398
# Poissons Ratio (y) = 1.00070 -0.69593
# Poissons Ratio (z) = 0.14841 -3.24703
#
# Static dielectric constant tensor:
#      x y z
#    x 2.000740 0.064310 -0.127840 
#    y 0.064310 1.893460 -0.062200 
#    z -0.127840 -0.062200 2.120200 
# 
# From -- ./inp_files/45962.got.cif
#   From: 2010.05.17/outbox.cif.g08.bks.cpg/sg2_23_cif.got.tgz:45962.got - 2010.06.03 11:33:40.
