data_PCOD9010733
_publ_section_title
;
Structure prediction by ZEFSAII (Michael W. Deem and Ramdas Pophale) SiO2 
 PCOD9010733
Probable space group: P -1
;
_chemical_formula_sum "Si O2"
_cell_formula_units_Z 16
_cell_length_a 25.493600
_cell_length_b 19.001075
_cell_length_c 8.372297
_cell_angle_alpha 137.546239
_cell_angle_beta 31.727958
_cell_angle_gamma 158.710858
_cell_volume 741.913121
_symmetry_space_group_name_H-M "P -1"
_symmetry_group_IT_number 2
_symmetry_cell_setting 'triclinic'
loop_
_space_group_symop_operation_xyz
x,y,z
-x,-y,-z
loop_
_atom_site_type_symbol
_atom_site_label
_atom_site_fract_x
_atom_site_fract_y
_atom_site_fract_z
Si Si1 0.370643 0.439759 0.101728
Si Si2 0.038176 0.484383 0.696566
Si Si3 0.126655 0.353169 0.107588
Si Si4 0.526829 0.118699 0.748534
Si Si5 0.342581 0.828061 0.989175
Si Si6 0.624598 0.371450 0.378097
Si Si7 0.240228 0.117234 0.772728
Si Si8 0.490669 0.329255 0.174150
O O1 0.293007 0.471855 0.446388
O O2 0.500000 0.500000 0.000000
O O3 0.224355 0.221419 0.051317
O O4 0.505693 0.600677 0.877478
O O5 0.045217 0.364935 0.464481
O O6 0.257437 0.706945 0.454515
O O7 0.000000 0.500000 0.000000
O O8 0.889084 0.388581 0.787143
O O9 0.226157 0.498737 0.940120
O O10 0.310168 0.463709 0.902188
O O11 0.956006 0.123835 0.113380
O O12 0.500000 0.000000 0.500000
O O13 0.371293 0.951209 0.002668
O O14 0.505573 0.218155 0.914763
O O15 0.402205 0.762573 0.689532
O O16 0.500000 0.000000 0.000000
O O17 0.418123 0.223126 0.589136
O O18 0.316729 0.189671 0.513730
#
# Coordination Sequence:
#
# PCOD9010733 Si02
#       8
#     2   2   2   2   2   2   2   2
#     4  10  22  41  65  90 124 161 205 265 322 369
#     4  11  23  38  60  91 129 166 218 261 306 378
#     4  10  22  40  63  90 126 165 209 257 312 376
#     4  11  22  38  62  92 128 172 209 257 312 383
#     4  12  23  39  65  94 130 172 213 256 318 378
#     4  10  23  41  61  92 132 164 203 263 317 370
#     4  10  21  41  66  90 121 165 214 258 313 380
#     4  10  21  40  64  90 124 162 208 259 313 371
#
# _framework density 21.565867000000001
#
# number of rings (size 3 to 8) (size 9 to 14) (size 15 to 20)
#    0.000    1.500    1.250    4.875    1.750    4.000 
#    0.000    2.500    0.000    0.000    0.000    0.000 
#    0.000    0.000    0.000    0.000    0.000    0.000 
#
# Total GULP energy -89147.599380 kJ/mol
# GULP energy per Si atom -5571.724961 kJ/mol
# Density = 2.151678 g / cm^3
# Si number density = 21.565867 Si / 1000 Ang^3
#
#
#
# Elastic Constant Matrix: (Units=GPa)
#
#
# Indices 1 2 3 4 5 6 
#
# 1 66.5465 24.8040 -1.4398 -5.0576 -3.5827 -6.8408
# 2 24.8040 172.7913 44.9447 19.3416 -4.5891 3.2203
# 3 -1.4398 44.9447 57.8206 12.9100 6.9946 6.0595
# 4 -5.0576 19.3416 12.9100 40.8809 -1.5596 0.9623
# 5 -3.5827 -4.5891 6.9946 -1.5596 20.5096 6.4715
# 6 -6.8408 3.2203 6.0595 0.9623 6.4715 28.5287
#
#
#
# Elastic Compliance Matrix: (Units=1/GPa)
#
#
# Indices 1 2 3 4 5 6 
#
# 1 0.016952 -0.003305 0.001845 0.003013 0.000622 0.003804
# 2 -0.003305 0.008273 -0.006354 -0.002151 0.003633 -0.001128
# 3 0.001845 -0.006354 0.024684 -0.004874 -0.009319 -0.001805
# 4 0.003013 -0.002151 -0.004874 0.027528 0.003729 0.000226
# 5 0.000622 0.003633 -0.009319 0.003729 0.056697 -0.011269
# 6 0.003804 -0.001128 -0.001805 0.000226 -0.011269 0.039024
#
#
# Mechanical properties :
#
#
# Convention : Reuss Voigt Hill
#
# Bulk Modulus (GPa) = 29.17040 48.19736 38.68388
# Shear Modulus (GPa) = 24.97344 33.24046 29.10695
#
# Velocity S-wave (km/s) = 3.40664 3.93026 3.67778
# Velocity P-wave (km/s) = 5.38787 6.55693 6.00094
#
# Compressibility (1/GPa) = 0.03428133
#
# Stress axis : x y z
#
# Youngs Moduli (GPa) = 58.98926 120.87923 40.51155
#
# Poissons Ratio (x) = 0.39949 -0.07473
# Poissons Ratio (y) = 0.19495 0.25740
# Poissons Ratio (z) = -0.10881 0.76803
#
# Static dielectric constant tensor:
#      x y z
#    x 1.854600 0.017020 0.028040 
#    y 0.017020 1.793650 0.029220 
#    z 0.028040 0.029220 1.849580 
# 
# From -- ./inp_files/357740.got.cif
#   From: 2010.05.17/outbox.cif.g08.bks.cpg/sg2_179_cif.got.tgz:357740.got - 2010.06.03 11:33:40.
