data_PCOD9010895
_publ_section_title
;
Structure prediction by ZEFSAII (Michael W. Deem and Ramdas Pophale) SiO2 
 PCOD9010895
Probable space group: P -1
;
_chemical_formula_sum "Si O2"
_cell_formula_units_Z 16
_cell_length_a 5.167981
_cell_length_b 22.286324
_cell_length_c 8.166059
_cell_angle_alpha 61.914287
_cell_angle_beta 85.290584
_cell_angle_gamma 57.686034
_cell_volume 682.894927
_symmetry_space_group_name_H-M "P -1"
_symmetry_group_IT_number 2
_symmetry_cell_setting 'triclinic'
loop_
_space_group_symop_operation_xyz
x,y,z
-x,-y,-z
loop_
_atom_site_type_symbol
_atom_site_label
_atom_site_fract_x
_atom_site_fract_y
_atom_site_fract_z
Si Si1 0.690683 0.334324 0.135377
Si Si2 0.340667 0.504478 0.775525
Si Si3 0.441710 0.409260 0.575577
Si Si4 0.798436 0.065574 0.286812
Si Si5 0.316739 0.069130 0.058269
Si Si6 0.145285 0.246526 0.760188
Si Si7 0.394798 0.249598 0.091638
Si Si8 0.718038 0.664459 0.580156
O O1 0.558857 0.296322 0.065965
O O2 0.587951 0.316762 0.335607
O O3 0.054625 0.293379 0.136560
O O4 0.510520 0.431895 0.990775
O O5 0.291489 0.459787 0.682964
O O6 0.538539 0.534075 0.635399
O O7 0.025398 0.587336 0.748737
O O8 0.261791 0.374304 0.547702
O O9 0.794821 0.329310 0.689327
O O10 0.552893 0.055117 0.212483
O O11 0.608254 0.156112 0.260354
O O12 0.037519 0.064335 0.147934
O O13 0.000000 0.000000 0.500000
O O14 0.172351 0.161289 0.878584
O O15 0.500000 0.000000 0.000000
O O16 0.271541 0.258585 0.566715
O O17 0.342012 0.243902 0.909680
#
# Coordination Sequence:
#
# PCOD9010895 Si02
#       8
#     2   2   2   2   2   2   2   2
#     4  12  26  42  67 100 139 180 229 292 345 399
#     4  10  22  39  63  95 130 186 233 283 340 412
#     4  10  21  40  64  95 127 183 235 276 339 408
#     4  11  25  49  75 107 143 185 233 285 350 435
#     4  11  25  46  76 111 142 183 229 293 358 413
#     4  10  23  43  68  95 136 181 232 275 333 428
#     4  11  25  46  70  97 133 189 230 270 344 422
#     4  11  25  39  64  99 138 177 232 294 348 389
#
# _framework density 23.429667999999999
#
# number of rings (size 3 to 8) (size 9 to 14) (size 15 to 20)
#    0.000    1.250    1.250    3.750    8.750    1.500 
#    2.250    0.000    0.000    0.000    0.000    0.000 
#    0.000    0.000    0.000    0.000    0.000    0.000 
#
# Total GULP energy -89581.016017 kJ/mol
# GULP energy per Si atom -5598.813501 kJ/mol
# Density = 2.337634 g / cm^3
# Si number density = 23.429668 Si / 1000 Ang^3
#
#
#
# Elastic Constant Matrix: (Units=GPa)
#
#
# Indices 1 2 3 4 5 6 
#
# 1 72.7461 20.9326 5.8026 -4.1664 9.2756 -9.3524
# 2 20.9326 88.6835 35.9529 -10.3128 -9.4711 -3.6315
# 3 5.8026 35.9529 126.7638 -28.7858 -5.4210 -18.0615
# 4 -4.1664 -10.3128 -28.7858 39.4784 -9.3969 -0.2887
# 5 9.2756 -9.4711 -5.4210 -9.3969 26.1076 5.7698
# 6 -9.3524 -3.6315 -18.0615 -0.2887 5.7698 43.3964
#
#
#
# Elastic Compliance Matrix: (Units=1/GPa)
#
#
# Indices 1 2 3 4 5 6 
#
# 1 0.016904 -0.005211 0.000702 -0.001229 -0.009235 0.004719
# 2 -0.005211 0.014964 -0.003346 0.002835 0.008119 -0.002324
# 3 0.000702 -0.003346 0.011416 0.008253 0.002930 0.004288
# 4 -0.001229 0.002835 0.008253 0.035703 0.015685 0.001559
# 5 -0.009235 0.008119 0.002930 0.015685 0.052318 -0.006943
# 6 0.004719 -0.002324 0.004288 0.001559 -0.006943 0.026584
#
#
# Mechanical properties :
#
#
# Convention : Reuss Voigt Hill
#
# Bulk Modulus (GPa) = 36.26379 45.95219 41.10799
# Shear Modulus (GPa) = 27.35415 36.83018 32.09217
#
# Velocity S-wave (km/s) = 3.42058 3.96908 3.70499
# Velocity P-wave (km/s) = 5.57779 6.37653 5.99049
#
# Compressibility (1/GPa) = 0.02757571
#
# Stress axis : x y z
#
# Youngs Moduli (GPa) = 59.15909 66.82745 87.59853
#
# Poissons Ratio (x) = 0.34821 -0.06154
# Poissons Ratio (y) = 0.30825 0.29307
# Poissons Ratio (z) = -0.04156 0.22358
#
# Static dielectric constant tensor:
#      x y z
#    x 1.933210 0.035560 0.033880 
#    y 0.035560 1.873750 0.017890 
#    z 0.033880 0.017890 1.934000 
# 
# From -- ./inp_files/135196.got.cif
#   From: 2010.05.17/outbox.cif.g08.bks.cpg/sg2_68_cif.got.tgz:135196.got - 2010.06.03 11:33:40.
