data_PCOD9010348
_publ_section_title
;
Structure prediction by ZEFSAII (Michael W. Deem and Ramdas Pophale) SiO2 
 PCOD9010348
Probable space group: P -1
;
_chemical_formula_sum "Si O2"
_cell_formula_units_Z 14
_cell_length_a 12.393029
_cell_length_b 11.854985
_cell_length_c 9.641244
_cell_angle_alpha 67.962146
_cell_angle_beta 123.212878
_cell_angle_gamma 142.472392
_cell_volume 717.005428
_symmetry_space_group_name_H-M "P -1"
_symmetry_group_IT_number 2
_symmetry_cell_setting 'triclinic'
loop_
_space_group_symop_operation_xyz
x,y,z
-x,-y,-z
loop_
_atom_site_type_symbol
_atom_site_label
_atom_site_fract_x
_atom_site_fract_y
_atom_site_fract_z
Si Si1 0.995983 0.326116 0.682745
Si Si2 0.107188 0.674916 0.091732
Si Si3 0.313712 0.160262 0.665009
Si Si4 0.589475 0.956215 0.992172
Si Si5 0.336757 0.754479 0.631603
Si Si6 0.631368 0.341864 0.575408
Si Si7 0.088398 0.246436 0.529541
O O1 0.996424 0.335421 0.844849
O O2 0.778889 0.211358 0.526724
O O3 0.156392 0.541643 0.653408
O O4 0.059924 0.256740 0.667940
O O5 0.277466 0.711862 0.261887
O O6 0.190434 0.842788 0.980012
O O7 0.000000 0.500000 0.000000
O O8 0.465383 0.275253 0.590557
O O9 0.226290 0.228657 0.609897
O O10 0.417213 0.170863 0.864868
O O11 0.127901 0.941394 0.594518
O O12 0.475322 0.871903 0.805529
O O13 0.500000 0.000000 0.000000
O O14 0.443273 0.759903 0.578897
O O15 0.805995 0.563042 0.559415
#
# Coordination Sequence:
#
# PCOD9010348 Si02
#       7
#     2   2   2   2   2   2   2
#     4   9  19  37  59  84 118 156 193 243 300 348
#     4  11  22  35  61  90 120 153 192 251 307 346
#     4  11  23  39  63  88 118 161 201 244 292 352
#     4  12  22  36  57  91 120 146 197 252 294 349
#     4   9  20  36  60  88 114 150 196 246 299 352
#     4  10  21  40  63  87 115 158 201 241 298 354
#     4  10  22  41  62  84 121 159 204 240 289 361
#
# _framework density 19.525652999999998
#
# number of rings (size 3 to 8) (size 9 to 14) (size 15 to 20)
#    0.000    1.714    1.429    3.857    2.000    1.143 
#    0.000    3.571    3.143    0.000    0.000    0.000 
#    0.000    0.000    0.000    0.000    0.000    0.000 
#
# Total GULP energy -78100.049064 kJ/mol
# GULP energy per Si atom -5578.574933 kJ/mol
# Density = 1.948121 g / cm^3
# Si number density = 19.525653 Si / 1000 Ang^3
#
#
#
# Elastic Constant Matrix: (Units=GPa)
#
#
# Indices 1 2 3 4 5 6 
#
# 1 132.0949 23.7326 29.7927 -2.0497 -41.4314 9.5509
# 2 23.7326 68.4137 17.1408 0.3097 -17.8029 1.5919
# 3 29.7927 17.1408 78.1384 11.0502 -33.3948 -0.2475
# 4 -2.0497 0.3097 11.0502 31.7933 -1.6832 -8.3285
# 5 -41.4314 -17.8029 -33.3948 -1.6832 36.4450 -2.9861
# 6 9.5509 1.5919 -0.2475 -8.3285 -2.9861 24.9164
#
#
#
# Elastic Compliance Matrix: (Units=1/GPa)
#
#
# Indices 1 2 3 4 5 6 
#
# 1 0.012185 -0.000731 0.001893 0.000213 0.015016 -0.002734
# 2 -0.000731 0.016798 -0.000482 0.000367 0.006963 0.000159
# 3 0.001893 -0.000482 0.022684 -0.006566 0.022400 0.000020
# 4 0.000213 0.000367 -0.006566 0.036663 -0.002940 0.011732
# 5 0.015016 0.006963 0.022400 -0.002940 0.068402 0.001237
# 6 -0.002734 0.000159 0.000020 0.011732 0.001237 0.045242
#
#
# Mechanical properties :
#
#
# Convention : Reuss Voigt Hill
#
# Bulk Modulus (GPa) = 18.85818 46.66437 32.76128
# Shear Modulus (GPa) = 22.90533 32.49632 27.70082
#
# Velocity S-wave (km/s) = 3.42875 4.08399 3.77063
# Velocity P-wave (km/s) = 5.03530 6.79629 5.98096
#
# Compressibility (1/GPa) = 0.05302738
#
# Stress axis : x y z
#
# Youngs Moduli (GPa) = 82.06477 59.53143 44.08417
#
# Poissons Ratio (x) = 0.04353 -0.08345
# Poissons Ratio (y) = 0.06001 0.02123
# Poissons Ratio (z) = -0.15534 0.02867
#
# Static dielectric constant tensor:
#      x y z
#    x 1.708880 0.026040 -0.059010 
#    y 0.026040 1.727290 0.017590 
#    z -0.059010 0.017590 1.757610 
# 
# From -- ./inp_files/181939.got.cif
#   From: 2010.05.17/outbox.cif.g08.bks.cpg/sg2_91_cif.got.tgz:181939.got - 2010.06.03 11:33:40.
