data_PCOD9010632
_publ_section_title
;
Structure prediction by ZEFSAII (Michael W. Deem and Ramdas Pophale) SiO2 
 PCOD9010632
Probable space group: P -1
;
_chemical_formula_sum "Si O2"
_cell_formula_units_Z 16
_cell_length_a 11.734272
_cell_length_b 18.998208
_cell_length_c 10.870644
_cell_angle_alpha 135.073289
_cell_angle_beta 117.636249
_cell_angle_gamma 28.204609
_cell_volume 709.733888
_symmetry_space_group_name_H-M "P -1"
_symmetry_group_IT_number 2
_symmetry_cell_setting 'triclinic'
loop_
_space_group_symop_operation_xyz
x,y,z
-x,-y,-z
loop_
_atom_site_type_symbol
_atom_site_label
_atom_site_fract_x
_atom_site_fract_y
_atom_site_fract_z
Si Si1 0.779117 0.311301 0.534598
Si Si2 0.141759 0.367198 0.777729
Si Si3 0.379175 0.805354 0.617474
Si Si4 0.420960 0.466614 0.068173
Si Si5 0.131981 0.481365 0.648230
Si Si6 0.632448 0.611229 0.753183
Si Si7 0.645223 0.101603 0.807226
Si Si8 0.886866 0.287744 0.033304
O O1 0.715165 0.243697 0.467611
O O2 0.823085 0.338475 0.720262
O O3 0.567409 0.538672 0.651251
O O4 0.037088 0.127261 0.345367
O O5 0.112192 0.454637 0.746029
O O6 0.457746 0.145693 0.703854
O O7 0.949963 0.406577 0.694641
O O8 0.000000 0.500000 0.000000
O O9 0.546881 0.718180 0.471973
O O10 0.592803 0.671368 0.669690
O O11 0.128654 0.050454 0.818156
O O12 0.301493 0.558019 0.987033
O O13 0.535143 0.278549 0.909063
O O14 0.673703 0.367935 0.105039
O O15 0.000000 0.500000 0.500000
O O16 0.010904 0.676940 0.819532
O O17 0.441348 0.814501 0.991852
#
# Coordination Sequence:
#
# PCOD9010632 Si02
#       8
#     2   2   2   2   2   2   2   2
#     4  11  23  40  69 103 133 182 231 285 342 408
#     4  10  22  46  71  94 138 182 230 283 338 407
#     4  12  25  42  68 105 137 178 230 281 352 416
#     4  10  21  40  63  99 136 171 223 282 346 396
#     4  12  25  46  70 101 140 182 227 285 345 414
#     4  10  24  44  63  96 142 184 228 286 333 409
#     4  10  21  41  69  95 131 180 234 280 339 400
#     4  11  24  40  68  97 141 178 213 289 350 402
#
# _framework density 22.543659999999999
#
# number of rings (size 3 to 8) (size 9 to 14) (size 15 to 20)
#    0.000    1.250    5.000    0.375    1.750    3.000 
#    0.000    1.250    0.000    0.000    0.000    0.000 
#    0.000    0.000    0.000    0.000    0.000    0.000 
#
# Total GULP energy -89147.532388 kJ/mol
# GULP energy per Si atom -5571.720774 kJ/mol
# Density = 2.249235 g / cm^3
# Si number density = 22.543660 Si / 1000 Ang^3
#
#
#
# Elastic Constant Matrix: (Units=GPa)
#
#
# Indices 1 2 3 4 5 6 
#
# 1 124.5690 17.2523 49.0563 -9.2901 -10.3342 -7.5866
# 2 17.2523 36.1642 22.6323 -6.7280 -2.7484 -3.7688
# 3 49.0563 22.6323 123.4456 11.9881 1.5673 -2.3056
# 4 -9.2901 -6.7280 11.9881 27.6530 -2.9154 -8.4775
# 5 -10.3342 -2.7484 1.5673 -2.9154 37.2917 0.6384
# 6 -7.5866 -3.7688 -2.3056 -8.4775 0.6384 25.6242
#
#
#
# Elastic Compliance Matrix: (Units=1/GPa)
#
#
# Indices 1 2 3 4 5 6 
#
# 1 0.011377 0.000359 -0.005344 0.008363 0.003962 0.005608
# 2 0.000359 0.037173 -0.008413 0.016369 0.004299 0.010125
# 3 -0.005344 -0.008413 0.012818 -0.011403 -0.003440 -0.005353
# 4 0.008363 0.016369 -0.011403 0.055487 0.007964 0.022017
# 5 0.003962 0.004299 -0.003440 0.007964 0.028939 0.003410
# 6 0.005608 0.010125 -0.005353 0.022017 0.003410 0.048893
#
#
# Mechanical properties :
#
#
# Convention : Reuss Voigt Hill
#
# Bulk Modulus (GPa) = 28.92665 51.34006 40.13335
# Shear Modulus (GPa) = 21.45860 31.12964 26.29412
#
# Velocity S-wave (km/s) = 3.08858 3.72002 3.41891
# Velocity P-wave (km/s) = 5.05751 6.42452 5.78156
#
# Compressibility (1/GPa) = 0.03457020
#
# Stress axis : x y z
#
# Youngs Moduli (GPa) = 87.89966 26.90159 78.01503
#
# Poissons Ratio (x) = -0.00965 0.41695
# Poissons Ratio (y) = -0.03154 0.65633
# Poissons Ratio (z) = 0.46978 0.22632
#
# Static dielectric constant tensor:
#      x y z
#    x 1.931170 -0.065820 -0.014310 
#    y -0.065820 1.901550 -0.034740 
#    z -0.014310 -0.034740 1.855720 
# 
# From -- ./inp_files/438692.got.cif
#   From: 2010.05.17/outbox.cif.g08.bks.cpg/sg2_220_cif.got.tgz:438692.got - 2010.06.03 11:33:40.
