data_PCOD9010458
_publ_section_title
;
Structure prediction by ZEFSAII (Michael W. Deem and Ramdas Pophale) SiO2 
 PCOD9010458
Probable space group: P -1
;
_chemical_formula_sum "Si O2"
_cell_formula_units_Z 14
_cell_length_a 12.770702
_cell_length_b 10.322921
_cell_length_c 5.179496
_cell_angle_alpha 97.900420
_cell_angle_beta 96.444386
_cell_angle_gamma 103.408766
_cell_volume 650.499418
_symmetry_space_group_name_H-M "P -1"
_symmetry_group_IT_number 2
_symmetry_cell_setting 'triclinic'
loop_
_space_group_symop_operation_xyz
x,y,z
-x,-y,-z
loop_
_atom_site_type_symbol
_atom_site_label
_atom_site_fract_x
_atom_site_fract_y
_atom_site_fract_z
Si Si1 0.435062 0.028285 0.737434
Si Si2 0.356769 0.451183 0.221475
Si Si3 0.826777 0.429641 0.535069
Si Si4 0.800719 0.124213 0.537439
Si Si5 0.967793 0.384468 0.164598
Si Si6 0.411535 0.327959 0.704751
Si Si7 0.085978 0.914959 0.959242
O O1 0.422050 0.181431 0.755829
O O2 0.500000 0.000000 0.500000
O O3 0.317221 0.926616 0.637436
O O4 0.500000 0.000000 0.000000
O O5 0.270803 0.522137 0.349758
O O6 0.368663 0.339012 0.405878
O O7 0.469087 0.567289 0.248409
O O8 0.339661 0.383250 0.914661
O O9 0.827680 0.286443 0.630049
O O10 0.847108 0.381207 0.237067
O O11 0.929738 0.561301 0.600911
O O12 0.878071 0.087285 0.328300
O O13 0.816788 0.053989 0.793832
O O14 0.973693 0.239387 0.038151
O O15 0.000000 0.500000 0.000000
O O16 0.000000 0.000000 0.000000
#
# Coordination Sequence:
#
# PCOD9010458 Si02
#       7
#     2   2   2   2   2   2   2
#     4  12  25  43  68  93 130 173 216 268 322 386
#     4  10  22  40  64  91 126 165 203 266 323 377
#     4  10  22  38  64  94 123 170 211 262 326 373
#     4  11  24  42  65  94 128 167 221 258 314 403
#     4  10  21  40  63  91 128 157 223 264 306 392
#     4  10  23  41  61  94 129 157 213 263 316 385
#     4  11  24  43  65  93 133 172 207 270 329 376
#
# _framework density 21.521923999999999
#
# number of rings (size 3 to 8) (size 9 to 14) (size 15 to 20)
#    0.000    1.429    1.429    3.000    2.000    4.571 
#    0.000    0.000    0.000    0.000    0.000    0.000 
#    0.000    0.000    0.000    0.000    0.000    0.000 
#
# Total GULP energy -77979.820158 kJ/mol
# GULP energy per Si atom -5569.987154 kJ/mol
# Density = 2.147294 g / cm^3
# Si number density = 21.521924 Si / 1000 Ang^3
#
#
#
# Elastic Constant Matrix: (Units=GPa)
#
#
# Indices 1 2 3 4 5 6 
#
# 1 99.7988 38.0068 33.2639 12.5156 -29.9206 -18.9336
# 2 38.0068 103.2191 40.6676 9.3412 -14.2957 -15.3871
# 3 33.2639 40.6676 111.3201 -3.8868 -12.1288 -15.2632
# 4 12.5156 9.3412 -3.8868 26.3653 -0.2665 -5.2212
# 5 -29.9206 -14.2957 -12.1288 -0.2665 46.2688 13.1625
# 6 -18.9336 -15.3871 -15.2632 -5.2212 13.1625 28.1453
#
#
#
# Elastic Compliance Matrix: (Units=1/GPa)
#
#
# Indices 1 2 3 4 5 6 
#
# 1 0.015527 -0.002616 -0.002676 -0.006203 0.007695 0.002814
# 2 -0.002616 0.012825 -0.003628 -0.003362 0.000627 0.002367
# 3 -0.002676 -0.003628 0.011728 0.005052 -0.000862 0.003917
# 4 -0.006203 -0.003362 0.005052 0.044251 -0.005624 0.007568
# 5 0.007695 0.000627 -0.000862 -0.005624 0.029279 -0.009685
# 6 0.002814 0.002367 0.003917 0.007568 -0.009685 0.046774
#
#
# Mechanical properties :
#
#
# Convention : Reuss Voigt Hill
#
# Bulk Modulus (GPa) = 44.96656 59.80164 52.38410
# Shear Modulus (GPa) = 26.93415 33.64919 30.29167
#
# Velocity S-wave (km/s) = 3.54146 3.95838 3.75571
# Velocity P-wave (km/s) = 6.13688 6.98129 6.57266
#
# Compressibility (1/GPa) = 0.02223875
#
# Stress axis : x y z
#
# Youngs Moduli (GPa) = 64.40200 77.97409 85.26905
#
# Poissons Ratio (x) = 0.20400 0.22821
# Poissons Ratio (y) = 0.16850 0.30935
# Poissons Ratio (z) = 0.17236 0.28288
#
# Static dielectric constant tensor:
#      x y z
#    x 1.974580 0.065290 0.181410 
#    y 0.065290 1.788550 0.079500 
#    z 0.181410 0.079500 2.054660 
# 
# From -- ./inp_files/61018.got.cif
#   From: 2010.05.17/outbox.cif.g08.bks.cpg/sg2_31_cif.got.tgz:61018.got - 2010.06.03 11:33:40.
