data_PCOD9010444
_publ_section_title
;
Structure prediction by ZEFSAII (Michael W. Deem and Ramdas Pophale) SiO2 
 PCOD9010444
Probable space group: P -1
;
_chemical_formula_sum "Si O2"
_cell_formula_units_Z 16
_cell_length_a 5.108151
_cell_length_b 24.050747
_cell_length_c 20.645592
_cell_angle_alpha 161.751223
_cell_angle_beta 94.340853
_cell_angle_gamma 76.626225
_cell_volume 680.980184
_symmetry_space_group_name_H-M "P -1"
_symmetry_group_IT_number 2
_symmetry_cell_setting 'triclinic'
loop_
_space_group_symop_operation_xyz
x,y,z
-x,-y,-z
loop_
_atom_site_type_symbol
_atom_site_label
_atom_site_fract_x
_atom_site_fract_y
_atom_site_fract_z
Si Si1 0.200887 0.000982 0.859051
Si Si2 0.067518 0.778488 0.424618
Si Si3 0.225412 0.014118 0.470009
Si Si4 0.858765 0.355076 0.343800
Si Si5 0.445178 0.342427 0.022972
Si Si6 0.880961 0.456847 0.216370
Si Si7 0.099341 0.236882 0.356865
Si Si8 0.506444 0.102609 0.379705
O O1 0.534326 0.908162 0.795361
O O2 0.266078 0.041093 0.831370
O O3 0.073901 0.842429 0.686463
O O4 0.962944 0.198495 0.113005
O O5 0.953894 0.785234 0.357318
O O6 0.764534 0.916086 0.614775
O O7 0.252556 0.555383 0.214314
O O8 0.291903 0.869009 0.531361
O O9 0.500000 0.000000 0.500000
O O10 0.000000 0.000000 0.500000
O O11 0.358131 0.828280 0.215088
O O12 0.500000 0.500000 0.500000
O O13 0.000000 0.500000 0.500000
O O14 0.976188 0.238814 0.285645
O O15 0.656536 0.368210 0.108484
O O16 0.188451 0.317530 0.027547
O O17 0.958258 0.539592 0.374438
O O18 0.682891 0.677156 0.418309
#
# Coordination Sequence:
#
# PCOD9010444 Si02
#       8
#     2   2   2   2   2   2   2   2
#     4  11  21  40  68  91 119 171 226 266 322 389
#     4  10  21  40  63  91 124 161 203 262 315 367
#     4  12  26  42  62  92 130 165 212 249 304 394
#     4  12  26  42  56  90 142 170 212 272 328 390
#     4  10  21  40  63  91 124 161 203 262 315 367
#     4   9  18  36  64  90 118 150 208 263 311 366
#     4  11  21  40  68  91 119 171 226 266 322 389
#     4   9  18  36  64  90 118 150 208 263 311 366
#
# _framework density 23.495543999999999
#
# number of rings (size 3 to 8) (size 9 to 14) (size 15 to 20)
#    0.000    1.500    0.000    7.500    0.000    1.000 
#    6.750    0.000    0.000    0.000    0.000    0.000 
#    0.000    0.000    0.000    0.000    0.000    0.000 
#
# Total GULP energy -89542.105840 kJ/mol
# GULP energy per Si atom -5596.381615 kJ/mol
# Density = 2.344207 g / cm^3
# Si number density = 23.495544 Si / 1000 Ang^3
#
#
#
# Elastic Constant Matrix: (Units=GPa)
#
#
# Indices 1 2 3 4 5 6 
#
# 1 165.1922 32.9736 29.2418 1.2922 -10.4435 -3.1318
# 2 32.9736 96.6621 6.7209 -8.7351 -1.7321 -0.5202
# 3 29.2418 6.7209 92.0727 -11.2748 -15.6020 6.8340
# 4 1.2922 -8.7351 -11.2748 29.6122 0.4742 -2.6815
# 5 -10.4435 -1.7321 -15.6020 0.4742 45.3753 -2.1428
# 6 -3.1318 -0.5202 6.8340 -2.6815 -2.1428 41.9595
#
#
#
# Elastic Compliance Matrix: (Units=1/GPa)
#
#
# Indices 1 2 3 4 5 6 
#
# 1 0.006995 -0.002376 -0.002184 -0.001781 0.000824 0.000777
# 2 -0.002376 0.011460 0.000349 0.003630 -0.000021 0.000139
# 3 -0.002184 0.000349 0.012905 0.004892 0.003814 -0.001753
# 4 -0.001781 0.003630 0.004892 0.036902 0.001097 0.001530
# 5 0.000824 -0.000021 0.003814 0.001097 0.023561 0.000713
# 6 0.000777 0.000139 -0.001753 0.001530 0.000713 0.024312
#
#
# Mechanical properties :
#
#
# Convention : Reuss Voigt Hill
#
# Bulk Modulus (GPa) = 43.59901 54.64440 49.12171
# Shear Modulus (GPa) = 37.82042 42.38879 40.10461
#
# Velocity S-wave (km/s) = 4.01644 4.25210 4.13595
# Velocity P-wave (km/s) = 6.33290 6.88585 6.61516
#
# Compressibility (1/GPa) = 0.02293630
#
# Stress axis : x y z
#
# Youngs Moduli (GPa) = 142.95347 87.25928 77.49123
#
# Poissons Ratio (x) = 0.20736 0.16927
# Poissons Ratio (y) = 0.33971 -0.02703
# Poissons Ratio (z) = 0.31226 -0.03044
#
# Static dielectric constant tensor:
#      x y z
#    x 1.816450 0.012610 0.011350 
#    y 0.012610 1.956420 0.072840 
#    z 0.011350 0.072840 1.934680 
# 
# From -- ./inp_files/584495.got.cif
#   From: 2010.05.17/outbox.cif.g08.bks.cpg/sg2_293_cif.got.tgz:584495.got - 2010.06.03 11:33:40.
