data_PCOD9010304
_publ_section_title
;
Structure prediction by ZEFSAII (Michael W. Deem and Ramdas Pophale) SiO2 
 PCOD9010304
Probable space group: P -1
;
_chemical_formula_sum "Si O2"
_cell_formula_units_Z 16
_cell_length_a 13.711476
_cell_length_b 8.395305
_cell_length_c 14.436343
_cell_angle_alpha 53.305562
_cell_angle_beta 146.631277
_cell_angle_gamma 124.192330
_cell_volume 725.399819
_symmetry_space_group_name_H-M "P -1"
_symmetry_group_IT_number 2
_symmetry_cell_setting 'triclinic'
loop_
_space_group_symop_operation_xyz
x,y,z
-x,-y,-z
loop_
_atom_site_type_symbol
_atom_site_label
_atom_site_fract_x
_atom_site_fract_y
_atom_site_fract_z
Si Si1 0.383700 0.643628 0.561418
Si Si2 0.665557 0.374850 0.941720
Si Si3 0.430909 0.269584 0.497155
Si Si4 0.653061 0.361273 0.142921
Si Si5 0.046295 0.662507 0.164503
Si Si6 0.269340 0.871802 0.102766
Si Si7 0.234086 0.900664 0.515352
Si Si8 0.902136 0.763384 0.196158
O O1 0.484711 0.474031 0.745996
O O2 0.540954 0.747578 0.583175
O O3 0.214747 0.576337 0.380249
O O4 0.324414 0.790304 0.540677
O O5 0.697017 0.243672 0.923672
O O6 0.634423 0.280676 0.051478
O O7 0.854583 0.526410 0.044933
O O8 0.500000 0.500000 0.500000
O O9 0.561542 0.134526 0.696097
O O10 0.247363 0.142298 0.428584
O O11 0.687579 0.187021 0.300507
O O12 0.828788 0.530373 0.223982
O O13 0.500000 0.500000 0.000000
O O14 0.114334 0.756886 0.087076
O O15 0.005015 0.810565 0.163109
O O16 0.247619 0.094528 0.979601
O O17 0.025973 0.820487 0.362219
#
# Coordination Sequence:
#
# PCOD9010304 Si02
#       8
#     2   2   2   2   2   2   2   2
#     4  10  21  40  62  98 125 168 216 268 324 391
#     4  11  22  39  66  93 133 172 218 264 330 379
#     4  11  23  39  62  97 131 160 213 267 324 394
#     4  11  22  43  67  92 125 172 227 268 307 390
#     4   9  22  37  63  94 134 167 215 268 324 393
#     4  11  22  39  60  95 134 169 207 264 333 388
#     4  11  23  42  67  92 128 173 217 270 323 377
#     4  10  23  40  64  98 129 168 221 265 323 385
#
# _framework density 22.056802000000001
#
# number of rings (size 3 to 8) (size 9 to 14) (size 15 to 20)
#    0.000    1.500    2.500    2.250    3.500    2.000 
#    0.000    4.375    0.000    0.000    0.000    0.000 
#    0.000    0.000    0.000    0.000    0.000    0.000 
#
# Total GULP energy -89142.431757 kJ/mol
# GULP energy per Si atom -5571.401985 kJ/mol
# Density = 2.200660 g / cm^3
# Si number density = 22.056802 Si / 1000 Ang^3
#
#
#
# Elastic Constant Matrix: (Units=GPa)
#
#
# Indices 1 2 3 4 5 6 
#
# 1 71.8733 8.0863 10.5326 -6.4082 -27.4956 -3.5556
# 2 8.0863 54.0725 18.3817 -16.8672 -5.6444 0.4171
# 3 10.5326 18.3817 83.6848 -15.8313 -17.3590 -5.2803
# 4 -6.4082 -16.8672 -15.8313 22.9680 7.9508 -3.0527
# 5 -27.4956 -5.6444 -17.3590 7.9508 40.0244 -0.7859
# 6 -3.5556 0.4171 -5.2803 -3.0527 -0.7859 21.7389
#
#
#
# Elastic Compliance Matrix: (Units=1/GPa)
#
#
# Indices 1 2 3 4 5 6 
#
# 1 0.019365 -0.001639 0.001139 0.000862 0.013474 0.004083
# 2 -0.001639 0.024558 -0.002371 0.016765 -0.002002 0.000967
# 3 0.001139 -0.002371 0.015319 0.007887 0.005628 0.005264
# 4 0.000862 0.016765 0.007887 0.065143 -0.006354 0.010653
# 5 0.013474 -0.002002 0.005628 -0.006354 0.037742 0.004081
# 6 0.004083 0.000967 0.005264 0.010653 0.004081 0.049572
#
#
# Mechanical properties :
#
#
# Convention : Reuss Voigt Hill
#
# Bulk Modulus (GPa) = 18.69195 31.51466 25.10330
# Shear Modulus (GPa) = 21.25188 28.45493 24.85341
#
# Velocity S-wave (km/s) = 3.10741 3.59566 3.36041
# Velocity P-wave (km/s) = 4.62250 5.61759 5.14416
#
# Compressibility (1/GPa) = 0.05349897
#
# Stress axis : x y z
#
# Youngs Moduli (GPa) = 51.64075 40.72021 65.27996
#
# Poissons Ratio (x) = 0.06674 -0.07433
# Poissons Ratio (y) = 0.08463 0.15476
# Poissons Ratio (z) = -0.05880 0.09654
#
# Static dielectric constant tensor:
#      x y z
#    x 1.891760 0.072320 0.063870 
#    y 0.072320 1.897490 0.028680 
#    z 0.063870 0.028680 1.892840 
# 
# From -- ./inp_files/239327.got.cif
#   From: 2010.05.17/outbox.cif.g08.bks.cpg/sg2_120_cif.got.tgz:239327.got - 2010.06.03 11:33:40.
