data_PCOD9010385
_publ_section_title
;
Structure prediction by ZEFSAII (Michael W. Deem and Ramdas Pophale) SiO2 
 PCOD9010385
Probable space group: P -1
;
_chemical_formula_sum "Si O2"
_cell_formula_units_Z 14
_cell_length_a 7.208510
_cell_length_b 4.987656
_cell_length_c 16.489877
_cell_angle_alpha 87.784628
_cell_angle_beta 87.584420
_cell_angle_gamma 118.413097
_cell_volume 519.825274
_symmetry_space_group_name_H-M "P -1"
_symmetry_group_IT_number 2
_symmetry_cell_setting 'triclinic'
loop_
_space_group_symop_operation_xyz
x,y,z
-x,-y,-z
loop_
_atom_site_type_symbol
_atom_site_label
_atom_site_fract_x
_atom_site_fract_y
_atom_site_fract_z
Si Si1 0.598817 0.792155 0.398172
Si Si2 0.962058 0.688292 0.131504
Si Si3 0.656738 0.132702 0.236559
Si Si4 0.689763 0.781107 0.681126
Si Si5 0.231525 0.376448 0.150584
Si Si6 0.177450 0.826373 0.461798
Si Si7 0.578575 0.218586 0.071740
O O1 0.496255 0.445715 0.373671
O O2 0.385189 0.802249 0.430286
O O3 0.709735 0.987702 0.313316
O O4 0.751621 0.928234 0.469861
O O5 0.823453 0.487044 0.213505
O O6 0.805139 0.526385 0.061177
O O7 0.157864 0.619307 0.122952
O O8 0.037619 0.039052 0.139965
O O9 0.426085 0.077491 0.265501
O O10 0.618676 0.025346 0.145411
O O11 0.743989 0.606411 0.751682
O O12 0.869541 0.030909 0.619142
O O13 0.421158 0.346846 0.103218
O O14 0.000000 0.500000 0.500000
O O15 0.500000 0.000000 0.000000
#
# Coordination Sequence:
#
# PCOD9010385 Si02
#       7
#     2   2   2   2   2   2   2
#     4  10  21  40  63  88 133 176 230 284 348 421
#     4  10  25  43  68 107 136 186 234 294 346 420
#     4   8  21  39  64  92 131 176 228 278 352 402
#     4  10  22  40  66  91 134 184 227 289 350 413
#     4  11  25  42  73 102 143 181 245 282 351 425
#     4  10  23  39  59  95 130 174 229 289 347 412
#     4   9  22  45  70 102 144 184 230 293 355 415
#
# _framework density 26.932126
#
# number of rings (size 3 to 8) (size 9 to 14) (size 15 to 20)
#    0.857    1.429    0.000    0.429   10.000    2.857 
#    0.000    1.429    0.000    0.000    0.000    0.000 
#    0.000    0.000    0.000    0.000    0.000    0.000 
#
# Total GULP energy -78275.617129 kJ/mol
# GULP energy per Si atom -5591.115509 kJ/mol
# Density = 2.687083 g / cm^3
# Si number density = 26.932126 Si / 1000 Ang^3
#
#
#
# Elastic Constant Matrix: (Units=GPa)
#
#
# Indices 1 2 3 4 5 6 
#
# 1 121.2377 11.1161 23.9825 2.6343 -6.0659 5.0469
# 2 11.1161 122.2741 44.5658 24.3349 -11.4285 -0.8715
# 3 23.9825 44.5658 146.5508 16.5029 -5.9870 2.4401
# 4 2.6343 24.3349 16.5029 46.1767 10.4754 -4.2960
# 5 -6.0659 -11.4285 -5.9870 10.4754 28.0840 -1.4048
# 6 5.0469 -0.8715 2.4401 -4.2960 -1.4048 35.1781
#
#
#
# Elastic Compliance Matrix: (Units=1/GPa)
#
#
# Indices 1 2 3 4 5 6 
#
# 1 0.008646 -0.000083 -0.001245 -0.000496 0.001696 -0.001149
# 2 -0.000083 0.010878 -0.002324 -0.006327 0.006269 -0.000080
# 3 -0.001245 -0.002324 0.008004 -0.001886 0.001164 -0.000618
# 4 -0.000496 -0.006327 -0.001886 0.029104 -0.013787 0.003049
# 5 0.001696 0.006269 0.001164 -0.013787 0.043911 -0.000099
# 6 -0.001149 -0.000080 -0.000618 0.003049 -0.000099 0.029001
#
#
# Mechanical properties :
#
#
# Convention : Reuss Voigt Hill
#
# Bulk Modulus (GPa) = 49.45103 61.04349 55.24726
# Shear Modulus (GPa) = 34.82156 42.58097 38.70127
#
# Velocity S-wave (km/s) = 3.59965 3.98055 3.79488
# Velocity P-wave (km/s) = 5.97309 6.62127 6.30552
#
# Compressibility (1/GPa) = 0.02022203
#
# Stress axis : x y z
#
# Youngs Moduli (GPa) = 115.66500 91.93252 124.93012
#
# Poissons Ratio (x) = 0.00764 0.15558
# Poissons Ratio (y) = 0.00961 0.29039
# Poissons Ratio (z) = 0.14404 0.21369
#
# Static dielectric constant tensor:
#      x y z
#    x 2.167260 0.025750 0.018570 
#    y 0.025750 2.135240 -0.047830 
#    z 0.018570 -0.047830 2.176940 
# 
# From -- ./inp_files/553445.got.cif
#   From: 2010.05.17/outbox.cif.g08.bks.cpg/sg2_277_cif.got.tgz:553445.got - 2010.06.03 11:33:40.
