data_PCOD9010384
_publ_section_title
;
Structure prediction by ZEFSAII (Michael W. Deem and Ramdas Pophale) SiO2 
 PCOD9010384
Probable space group: P -1
;
_chemical_formula_sum "Si O2"
_cell_formula_units_Z 16
_cell_length_a 12.845818
_cell_length_b 10.113007
_cell_length_c 13.512685
_cell_angle_alpha 122.913533
_cell_angle_beta 41.841625
_cell_angle_gamma 142.329283
_cell_volume 710.992388
_symmetry_space_group_name_H-M "P -1"
_symmetry_group_IT_number 2
_symmetry_cell_setting 'triclinic'
loop_
_space_group_symop_operation_xyz
x,y,z
-x,-y,-z
loop_
_atom_site_type_symbol
_atom_site_label
_atom_site_fract_x
_atom_site_fract_y
_atom_site_fract_z
Si Si1 0.657358 0.489165 0.625534
Si Si2 0.834442 0.915402 0.753561
Si Si3 0.690339 0.118742 0.835199
Si Si4 0.096568 0.543661 0.817369
Si Si5 0.741547 0.222599 0.402246
Si Si6 0.669755 0.015211 0.089595
Si Si7 0.203175 0.053236 0.827239
Si Si8 0.252082 0.331953 0.584467
O O1 0.719716 0.668477 0.730121
O O2 0.772175 0.398262 0.520106
O O3 0.395781 0.282571 0.728790
O O4 0.750814 0.626014 0.512344
O O5 0.774222 0.998329 0.740738
O O6 0.752825 0.949349 0.922550
O O7 0.092647 0.080859 0.625598
O O8 0.567650 0.082603 0.807893
O O9 0.868879 0.365381 0.849738
O O10 0.500000 0.000000 0.000000
O O11 0.251740 0.698210 0.679520
O O12 0.160770 0.413342 0.747075
O O13 0.158004 0.719341 0.923671
O O14 0.500000 0.000000 0.500000
O O15 0.870931 0.147977 0.270117
O O16 0.677359 0.937828 0.158341
O O17 0.000000 0.000000 0.000000
O O18 0.500000 0.500000 0.500000
#
# Coordination Sequence:
#
# PCOD9010384 Si02
#       8
#     2   2   2   2   2   2   2   2
#     4  10  21  40  63  88 133 165 206 265 316 373
#     4  10  22  38  61  95 129 164 209 265 317 377
#     4   9  20  36  57  91 125 165 201 257 315 374
#     4   9  19  38  61  87 124 163 206 263 311 369
#     4   8  17  38  63  83 116 169 207 244 315 370
#     4  10  22  40  64  94 130 161 219 253 330 386
#     4  10  22  39  69  96 124 168 211 270 316 383
#     4  10  22  37  61  89 121 174 211 252 314 382
#
# _framework density 22.503758999999999
#
# number of rings (size 3 to 8) (size 9 to 14) (size 15 to 20)
#    0.000    2.500    0.000    0.375    3.500    9.000 
#    0.000    0.000    0.000    9.000    0.000    0.000 
#    0.000    0.000    0.000    0.000    0.000    0.000 
#
# Total GULP energy -89076.980855 kJ/mol
# GULP energy per Si atom -5567.311303 kJ/mol
# Density = 2.245254 g / cm^3
# Si number density = 22.503759 Si / 1000 Ang^3
#
#
#
# Elastic Constant Matrix: (Units=GPa)
#
#
# Indices 1 2 3 4 5 6 
#
# 1 51.1957 16.7533 0.3209 -2.1778 -2.5181 17.9380
# 2 16.7533 144.7021 49.2065 32.7591 -12.9781 1.8990
# 3 0.3209 49.2065 108.6718 15.2170 -12.0671 0.0651
# 4 -2.1778 32.7591 15.2170 45.4007 -1.2808 -3.5869
# 5 -2.5181 -12.9781 -12.0671 -1.2808 20.9957 -7.6408
# 6 17.9380 1.8990 0.0651 -3.5869 -7.6408 23.0138
#
#
#
# Elastic Compliance Matrix: (Units=1/GPa)
#
#
# Indices 1 2 3 4 5 6 
#
# 1 0.029410 -0.004560 0.000824 0.002252 -0.007688 -0.024751
# 2 -0.004560 0.010337 -0.003270 -0.006182 0.004802 0.003341
# 3 0.000824 -0.003270 0.011396 -0.001198 0.004935 0.001047
# 4 0.002252 -0.006182 -0.001198 0.027140 -0.001703 0.002423
# 5 -0.007688 0.004802 0.004935 -0.001703 0.061810 0.025838
# 6 -0.024751 0.003341 0.001047 0.002423 0.025838 0.071421
#
#
# Mechanical properties :
#
#
# Convention : Reuss Voigt Hill
#
# Bulk Modulus (GPa) = 26.93276 48.57011 37.75144
# Shear Modulus (GPa) = 21.01694 33.76795 27.39244
#
# Velocity S-wave (km/s) = 3.05934 3.87789 3.49268
# Velocity P-wave (km/s) = 4.94707 6.45606 5.75127
#
# Compressibility (1/GPa) = 0.03712950
#
# Stress axis : x y z
#
# Youngs Moduli (GPa) = 34.00237 96.73891 87.75376
#
# Poissons Ratio (x) = 0.44109 -0.07227
# Poissons Ratio (y) = 0.15504 0.28698
# Poissons Ratio (z) = -0.02800 0.31637
#
# Static dielectric constant tensor:
#      x y z
#    x 1.767680 -0.009840 -0.122800 
#    y -0.009840 1.900250 0.031010 
#    z -0.122800 0.031010 1.807240 
# 
# From -- ./inp_files/532665.got.cif
#   From: 2010.05.17/outbox.cif.g08.bks.cpg/sg2_267_cif.got.tgz:532665.got - 2010.06.03 11:33:40.
