data_PCOD9011291
_publ_section_title
;
Structure prediction by ZEFSAII (Michael W. Deem and Ramdas Pophale) SiO2 
 PCOD9011291
Probable space group: P -1
;
_chemical_formula_sum "Si O2"
_cell_formula_units_Z 12
_cell_length_a 8.597197
_cell_length_b 14.156576
_cell_length_c 4.998815
_cell_angle_alpha 124.397912
_cell_angle_beta 82.193470
_cell_angle_gamma 74.724066
_cell_volume 452.237877
_symmetry_space_group_name_H-M "P -1"
_symmetry_group_IT_number 2
_symmetry_cell_setting 'triclinic'
loop_
_space_group_symop_operation_xyz
x,y,z
-x,-y,-z
loop_
_atom_site_type_symbol
_atom_site_label
_atom_site_fract_x
_atom_site_fract_y
_atom_site_fract_z
Si Si1 0.384811 0.002853 0.783710
Si Si2 0.833707 0.072632 0.971649
Si Si3 0.386611 0.410191 0.566482
Si Si4 0.725744 0.415530 0.626626
Si Si5 0.080330 0.351722 0.664492
Si Si6 0.922166 0.838560 0.190551
O O1 0.209283 0.127977 0.975030
O O2 0.500000 0.000000 0.500000
O O3 0.500000 0.000000 0.000000
O O4 0.317268 0.898018 0.726780
O O5 0.892231 0.164826 0.934969
O O6 0.831937 0.969743 0.594372
O O7 0.000000 0.000000 0.000000
O O8 0.592143 0.354698 0.479394
O O9 0.332944 0.466861 0.374497
O O10 0.277273 0.328983 0.515019
O O11 0.320772 0.529585 0.975266
O O12 0.935401 0.349268 0.482444
O O13 0.076365 0.268725 0.784927
O O14 0.000000 0.500000 0.000000
#
# Coordination Sequence:
#
# PCOD9011291 Si02
#       6
#     2   2   2   2   2   2
#     4  11  21  41  70  98 132 168 221 287 347 403
#     4   9  20  41  67  93 133 168 223 278 342 401
#     4   9  18  36  58  83 120 166 221 270 301 377
#     4   9  18  36  59  81 121 168 216 265 316 369
#     4  10  21  40  65  96 135 180 223 266 333 402
#     4  10  21  42  67  99 136 177 222 280 338 415
#
# _framework density 26.534706
#
# number of rings (size 3 to 8) (size 9 to 14) (size 15 to 20)
#    0.000    2.333    1.667    0.500    0.000    0.000 
#   27.000    0.000    7.333    0.000    0.000    0.000 
#    0.000    0.000    0.000    0.000    0.000    0.000 
#
# Total GULP energy -67008.007157 kJ/mol
# GULP energy per Si atom -5584.000596 kJ/mol
# Density = 2.647431 g / cm^3
# Si number density = 26.534706 Si / 1000 Ang^3
#
#
#
# Elastic Constant Matrix: (Units=GPa)
#
#
# Indices 1 2 3 4 5 6 
#
# 1 284.8833 96.1768 45.6396 -16.5200 -8.1015 24.6483
# 2 96.1768 199.2752 33.2877 -29.3472 -0.7908 49.8053
# 3 45.6396 33.2877 62.6968 -29.8264 -3.4159 9.0787
# 4 -16.5200 -29.3472 -29.8264 46.4554 7.6050 -10.2462
# 5 -8.1015 -0.7908 -3.4159 7.6050 61.4209 -15.5696
# 6 24.6483 49.8053 9.0787 -10.2462 -15.5696 67.6159
#
#
#
# Elastic Compliance Matrix: (Units=1/GPa)
#
#
# Indices 1 2 3 4 5 6 
#
# 1 0.004577 -0.001960 -0.003058 -0.001660 0.000634 0.000081
# 2 -0.001960 0.007715 -0.000644 0.002989 -0.001792 -0.004842
# 3 -0.003058 -0.000644 0.025649 0.015161 -0.000797 0.000259
# 4 -0.001660 0.002989 0.015161 0.033239 -0.003289 0.000648
# 5 0.000634 -0.001792 -0.000797 -0.003289 0.017928 0.004826
# 6 0.000081 -0.004842 0.000259 0.000648 0.004826 0.019501
#
#
# Mechanical properties :
#
#
# Convention : Reuss Voigt Hill
#
# Bulk Modulus (GPa) = 37.56962 99.67372 68.62167
# Shear Modulus (GPa) = 38.81853 59.88186 49.35020
#
# Velocity S-wave (km/s) = 3.82898 4.75567 4.31726
# Velocity P-wave (km/s) = 5.80840 8.23409 7.12523
#
# Compressibility (1/GPa) = 0.02661725
#
# Stress axis : x y z
#
# Youngs Moduli (GPa) = 218.50243 129.61959 38.98768
#
# Poissons Ratio (x) = 0.25407 0.11921
# Poissons Ratio (y) = 0.42830 0.02511
# Poissons Ratio (z) = 0.66809 0.08347
#
# Static dielectric constant tensor:
#      x y z
#    x 1.379830 1.798840 0.300380 
#    y 1.798840 -2.047040 -0.581100 
#    z 0.300380 -0.581100 2.327600 
# 
# From -- ./inp_files/28251.got.cif
#   From: 2010.05.17/outbox.cif.g08.bks.cpg/sg2_15_cif.got.tgz:28251.got - 2010.06.03 11:33:40.
