data_PCOD9011480
_publ_section_title
;
Structure prediction by ZEFSAII (Michael W. Deem and Ramdas Pophale) SiO2 
 PCOD9011480
Probable space group: P -1
;
_chemical_formula_sum "Si O2"
_cell_formula_units_Z 12
_cell_length_a 8.067434
_cell_length_b 14.330580
_cell_length_c 10.959128
_cell_angle_alpha 150.489096
_cell_angle_beta 46.659813
_cell_angle_gamma 126.004164
_cell_volume 453.751142
_symmetry_space_group_name_H-M "P -1"
_symmetry_group_IT_number 2
_symmetry_cell_setting 'triclinic'
loop_
_space_group_symop_operation_xyz
x,y,z
-x,-y,-z
loop_
_atom_site_type_symbol
_atom_site_label
_atom_site_fract_x
_atom_site_fract_y
_atom_site_fract_z
Si Si1 0.870902 0.531295 0.404048
Si Si2 0.386275 0.657491 0.903568
Si Si3 0.704606 0.982179 0.776815
Si Si4 0.142267 0.185821 0.889910
Si Si5 0.829083 0.127311 0.313155
Si Si6 0.385839 0.339099 0.706209
O O1 0.637859 0.595094 0.659980
O O2 0.790219 0.432028 0.206298
O O3 0.021266 0.713772 0.517219
O O4 0.013255 0.369392 0.222126
O O5 0.363936 0.559526 0.934298
O O6 0.355814 0.880003 0.150217
O O7 0.935749 0.059707 0.802121
O O8 0.733300 0.774001 0.471426
O O9 0.500000 0.000000 0.000000
O O10 0.283154 0.280527 0.819471
O O11 0.276301 0.036190 0.735707
O O12 0.639372 0.248245 0.474273
O O13 0.000000 0.000000 0.000000
#
# Coordination Sequence:
#
# PCOD9011480 Si02
#       6
#     2   2   2   2   2   2
#     4  10  22  41  65  89 121 161 211 260 305 369
#     4  10  21  40  66  93 120 160 211 258 307 365
#     4  11  22  42  70  94 122 164 214 258 300 367
#     4  11  25  42  62  92 128 166 206 257 317 370
#     4  12  25  42  65  90 124 169 214 257 308 372
#     4  12  25  39  62  96 130 163 203 259 320 370
#
# _framework density 26.446211999999999
#
# number of rings (size 3 to 8) (size 9 to 14) (size 15 to 20)
#    0.000    1.000    0.000    9.000    0.000    8.667 
#    0.000    0.000    0.000    0.000    0.000    0.000 
#    0.000    0.000    0.000    0.000    0.000    0.000 
#
# Total GULP energy -67280.388548 kJ/mol
# GULP energy per Si atom -5606.699046 kJ/mol
# Density = 2.638602 g / cm^3
# Si number density = 26.446212 Si / 1000 Ang^3
#
#
#
# Elastic Constant Matrix: (Units=GPa)
#
#
# Indices 1 2 3 4 5 6 
#
# 1 71.7173 18.0182 12.6707 24.6232 -3.0327 -2.7234
# 2 18.0182 161.1664 19.5781 28.2121 -7.2288 -31.9667
# 3 12.6707 19.5781 57.5627 14.2866 -10.4927 7.2435
# 4 24.6232 28.2121 14.2866 50.1918 -11.5148 -7.0664
# 5 -3.0327 -7.2288 -10.4927 -11.5148 27.3135 9.9502
# 6 -2.7234 -31.9667 7.2435 -7.0664 9.9502 30.7667
#
#
#
# Elastic Compliance Matrix: (Units=1/GPa)
#
#
# Indices 1 2 3 4 5 6 
#
# 1 0.017110 -0.000137 -0.002327 -0.008167 -0.002822 0.000957
# 2 -0.000137 0.009528 -0.004785 -0.003424 -0.005102 0.011878
# 3 -0.002327 -0.004785 0.024329 -0.002419 0.012443 -0.015486
# 4 -0.008167 -0.003424 -0.002419 0.028679 0.009409 -0.000167
# 5 -0.002822 -0.005102 0.012443 0.009409 0.052140 -0.023182
# 6 0.000957 0.011878 -0.015486 -0.000167 -0.023182 0.056033
#
#
# Mechanical properties :
#
#
# Convention : Reuss Voigt Hill
#
# Bulk Modulus (GPa) = 27.42154 43.44226 35.43190
# Shear Modulus (GPa) = 23.31273 37.66637 30.48955
#
# Velocity S-wave (km/s) = 2.97225 3.77804 3.39911
# Velocity P-wave (km/s) = 4.70854 5.95766 5.36955
#
# Compressibility (1/GPa) = 0.03646769
#
# Stress axis : x y z
#
# Youngs Moduli (GPa) = 58.44391 104.95534 41.10252
#
# Poissons Ratio (x) = 0.01442 0.09566
# Poissons Ratio (y) = 0.00803 0.19668
# Poissons Ratio (z) = 0.13603 0.50223
#
# Static dielectric constant tensor:
#      x y z
#    x 2.131480 -0.035090 -0.005420 
#    y -0.035090 2.114530 -0.013380 
#    z -0.005420 -0.013380 2.031470 
# 
# From -- ./inp_files/183722.got.cif
#   From: 2010.05.17/outbox.cif.g08.bks.cpg/sg2_92_cif.got.tgz:183722.got - 2010.06.03 11:33:40.
