data_PCOD9011007
_publ_section_title
;
Structure prediction by ZEFSAII (Michael W. Deem and Ramdas Pophale) SiO2 
 PCOD9011007
Probable space group: P -1
;
_chemical_formula_sum "Si O2"
_cell_formula_units_Z 16
_cell_length_a 13.223991
_cell_length_b 14.562609
_cell_length_c 9.110518
_cell_angle_alpha 38.473625
_cell_angle_beta 133.981688
_cell_angle_gamma 142.671151
_cell_volume 649.772510
_symmetry_space_group_name_H-M "P -1"
_symmetry_group_IT_number 2
_symmetry_cell_setting 'triclinic'
loop_
_space_group_symop_operation_xyz
x,y,z
-x,-y,-z
loop_
_atom_site_type_symbol
_atom_site_label
_atom_site_fract_x
_atom_site_fract_y
_atom_site_fract_z
Si Si1 0.826117 0.728165 0.812355
Si Si2 0.267988 0.775335 0.683885
Si Si3 0.486908 0.141387 0.902825
Si Si4 0.033497 0.581450 0.267707
Si Si5 0.172175 0.057725 0.187803
Si Si6 0.340052 0.570958 0.514359
Si Si7 0.547775 0.352738 0.140007
Si Si8 0.684046 0.685152 0.414898
O O1 0.831480 0.873714 0.738604
O O2 0.813764 0.744611 0.606316
O O3 0.985899 0.723188 0.029904
O O4 0.658149 0.529069 0.930659
O O5 0.099909 0.578707 0.770300
O O6 0.377165 0.765078 0.675326
O O7 0.208917 0.905453 0.428655
O O8 0.373696 0.807832 0.895854
O O9 0.514936 0.274816 0.632664
O O10 0.346214 0.156135 0.832146
O O11 0.500000 0.000000 0.000000
O O12 0.000000 0.500000 0.500000
O O13 0.212853 0.632420 0.331599
O O14 0.346326 0.224413 0.084576
O O15 0.000000 0.000000 0.000000
O O16 0.403200 0.575318 0.735286
O O17 0.260348 0.386789 0.575075
O O18 0.500000 0.500000 0.500000
#
# Coordination Sequence:
#
# PCOD9011007 Si02
#       8
#     2   2   2   2   2   2   2   2
#     4  11  23  42  68  97 139 172 233 283 332 408
#     4  11  24  45  66  96 140 177 224 280 338 413
#     4  11  24  44  65  95 136 178 227 278 337 410
#     4  11  21  42  68  98 138 176 228 287 337 394
#     4  12  26  41  66 105 140 172 222 292 344 390
#     4  11  22  40  75 100 129 180 232 277 340 400
#     4  11  23  43  73  98 127 186 233 271 342 412
#     4  10  21  40  65 102 128 170 231 282 327 400
#
# _framework density 24.624002000000001
#
# number of rings (size 3 to 8) (size 9 to 14) (size 15 to 20)
#    0.000    1.000    2.500    7.500    0.000    3.000 
#    0.000    0.000    0.000    3.000    0.000    0.000 
#    0.000    0.000    0.000    0.000    0.000    0.000 
#
# Total GULP energy -89414.102011 kJ/mol
# GULP energy per Si atom -5588.381376 kJ/mol
# Density = 2.456796 g / cm^3
# Si number density = 24.624002 Si / 1000 Ang^3
#
#
#
# Elastic Constant Matrix: (Units=GPa)
#
#
# Indices 1 2 3 4 5 6 
#
# 1 88.1594 37.8551 26.7423 3.5131 15.6900 -30.4373
# 2 37.8551 94.6044 38.0273 10.1749 3.2759 -34.3251
# 3 26.7423 38.0273 134.2513 18.8079 12.1571 -29.2436
# 4 3.5131 10.1749 18.8079 51.7678 -16.2773 9.1752
# 5 15.6900 3.2759 12.1571 -16.2773 43.7548 2.9010
# 6 -30.4373 -34.3251 -29.2436 9.1752 2.9010 59.7920
#
#
#
# Elastic Compliance Matrix: (Units=1/GPa)
#
#
# Indices 1 2 3 4 5 6 
#
# 1 0.017133 -0.003305 0.000827 -0.004989 -0.008540 0.008409
# 2 -0.003305 0.015615 -0.001462 -0.004101 -0.001586 0.007273
# 3 0.000827 -0.001462 0.010437 -0.006470 -0.005889 0.005965
# 4 -0.004989 -0.004101 -0.006470 0.030244 0.016038 -0.013478
# 5 -0.008540 -0.001586 -0.005889 0.016038 0.034452 -0.012271
# 6 0.008409 0.007273 0.005965 -0.013478 -0.012271 0.030761
#
#
# Mechanical properties :
#
#
# Convention : Reuss Voigt Hill
#
# Bulk Modulus (GPa) = 28.32402 58.02937 43.17669
# Shear Modulus (GPa) = 31.58729 45.35562 38.47145
#
# Velocity S-wave (km/s) = 3.58548 4.29642 3.95695
# Velocity P-wave (km/s) = 5.35430 6.94476 6.20073
#
# Compressibility (1/GPa) = 0.03530572
#
# Stress axis : x y z
#
# Youngs Moduli (GPa) = 58.36645 64.03905 95.81184
#
# Poissons Ratio (x) = 0.21164 -0.07926
# Poissons Ratio (y) = 0.19289 0.14011
# Poissons Ratio (z) = -0.04828 0.09365
#
# Static dielectric constant tensor:
#      x y z
#    x 2.060710 0.005280 0.020380 
#    y 0.005280 1.985770 -0.051260 
#    z 0.020380 -0.051260 2.085890 
# 
# From -- ./inp_files/314501.got.cif
#   From: 2010.05.17/outbox.cif.g08.bks.cpg/sg2_158_cif.got.tgz:314501.got - 2010.06.03 11:33:40.
