data_PCOD9011026
_publ_section_title
;
Structure prediction by ZEFSAII (Michael W. Deem and Ramdas Pophale) SiO2 
 PCOD9011026
Probable space group: P -1
;
_chemical_formula_sum "Si O2"
_cell_formula_units_Z 16
_cell_length_a 13.748022
_cell_length_b 12.029790
_cell_length_c 5.259740
_cell_angle_alpha 100.336337
_cell_angle_beta 101.677610
_cell_angle_gamma 125.054456
_cell_volume 648.189680
_symmetry_space_group_name_H-M "P -1"
_symmetry_group_IT_number 2
_symmetry_cell_setting 'triclinic'
loop_
_space_group_symop_operation_xyz
x,y,z
-x,-y,-z
loop_
_atom_site_type_symbol
_atom_site_label
_atom_site_fract_x
_atom_site_fract_y
_atom_site_fract_z
Si Si1 0.231466 0.817889 0.055316
Si Si2 0.528261 0.263528 0.708150
Si Si3 0.289123 0.717491 0.544289
Si Si4 0.331176 0.271265 0.322969
Si Si5 0.148359 0.108968 0.546821
Si Si6 0.639287 0.558130 0.995122
Si Si7 0.970498 0.552305 0.755592
Si Si8 0.667958 0.919870 0.114660
O O1 0.276411 0.759738 0.836711
O O2 0.078385 0.725244 0.897254
O O3 0.300618 0.979030 0.063486
O O4 0.256837 0.790609 0.341212
O O5 0.581461 0.240451 0.479568
O O6 0.420353 0.276256 0.576467
O O7 0.635717 0.419364 0.964946
O O8 0.449190 0.123445 0.792241
O O9 0.180907 0.542380 0.378298
O O10 0.185729 0.144784 0.283162
O O11 0.354224 0.413172 0.295382
O O12 0.370613 0.227663 0.082444
O O13 0.207163 0.030815 0.641781
O O14 0.235968 0.282043 0.763211
O O15 0.000000 0.000000 0.500000
O O16 0.500000 0.500000 0.000000
O O17 0.000000 0.500000 0.500000
O O18 0.000000 0.500000 0.000000
#
# Coordination Sequence:
#
# PCOD9011026 Si02
#       8
#     2   2   2   2   2   2   2   2
#     4  10  22  41  62  88 128 176 211 262 334 377
#     4  11  23  38  61  94 123 162 219 262 320 384
#     4  10  23  39  62  92 128 165 221 274 308 388
#     4  10  21  40  65  84 130 166 205 267 328 388
#     4  10  23  43  63  97 129 160 216 271 322 392
#     4  11  20  40  64  91 123 171 208 259 331 391
#     4   8  16  37  58  78 114 160 207 258 313 369
#     4  10  23  39  63  89 127 168 209 258 326 399
#
# _framework density 24.68413
#
# number of rings (size 3 to 8) (size 9 to 14) (size 15 to 20)
#    0.000    2.000    3.750    0.375    5.250    3.000 
#    4.500    2.500    0.000    0.000    0.000    0.000 
#    0.000    0.000    0.000    0.000    0.000    0.000 
#
# Total GULP energy -89118.596951 kJ/mol
# GULP energy per Si atom -5569.912309 kJ/mol
# Density = 2.462795 g / cm^3
# Si number density = 24.684130 Si / 1000 Ang^3
#
#
#
# Elastic Constant Matrix: (Units=GPa)
#
#
# Indices 1 2 3 4 5 6 
#
# 1 54.8683 31.0296 0.0414 4.4107 3.2769 24.2228
# 2 31.0296 153.7255 9.7779 0.9191 12.2476 25.6574
# 3 0.0414 9.7779 61.6168 -7.2905 -2.5310 9.5988
# 4 4.4107 0.9191 -7.2905 40.1072 1.4648 -3.8236
# 5 3.2769 12.2476 -2.5310 1.4648 24.4529 -2.5316
# 6 24.2228 25.6574 9.5988 -3.8236 -2.5316 41.3522
#
#
#
# Elastic Compliance Matrix: (Units=1/GPa)
#
#
# Indices 1 2 3 4 5 6 
#
# 1 0.026989 -0.002768 0.002192 -0.003829 -0.003344 -0.015160
# 2 -0.002768 0.008018 -0.000934 -0.000225 -0.004081 -0.003408
# 3 0.002192 -0.000934 0.017416 0.002473 0.001369 -0.004435
# 4 -0.003829 -0.000225 0.002473 0.026220 -0.000252 0.004218
# 5 -0.003344 -0.004081 0.001369 -0.000252 0.044254 0.006859
# 6 -0.015160 -0.003408 -0.004435 0.004218 0.006859 0.037016
#
#
# Mechanical properties :
#
#
# Convention : Reuss Voigt Hill
#
# Bulk Modulus (GPa) = 20.24101 39.10093 29.67097
# Shear Modulus (GPa) = 27.87048 36.47323 32.17186
#
# Velocity S-wave (km/s) = 3.36383 3.84812 3.61410
# Velocity P-wave (km/s) = 4.82752 5.96816 5.42789
#
# Compressibility (1/GPa) = 0.04940466
#
# Stress axis : x y z
#
# Youngs Moduli (GPa) = 37.05188 124.71251 57.41905
#
# Poissons Ratio (x) = 0.34517 -0.12588
# Poissons Ratio (y) = 0.10255 0.05363
# Poissons Ratio (z) = -0.08123 0.11648
#
# Static dielectric constant tensor:
#      x y z
#    x 1.946910 -0.000340 0.026900 
#    y -0.000340 2.010280 0.034920 
#    z 0.026900 0.034920 2.125030 
# 
# From -- ./inp_files/97180.got.cif
#   From: 2010.05.17/outbox.cif.g08.bks.cpg/sg2_49_cif.got.tgz:97180.got - 2010.06.03 11:33:40.
