data_PCOD9011116
_publ_section_title
;
Structure prediction by ZEFSAII (Michael W. Deem and Ramdas Pophale) SiO2 
 PCOD9011116
Probable space group: P -1
;
_chemical_formula_sum "Si O2"
_cell_formula_units_Z 16
_cell_length_a 18.513168
_cell_length_b 9.056085
_cell_length_c 21.952254
_cell_angle_alpha 39.766231
_cell_angle_beta 18.534542
_cell_angle_gamma 42.286555
_cell_volume 747.256005
_symmetry_space_group_name_H-M "P -1"
_symmetry_group_IT_number 2
_symmetry_cell_setting 'triclinic'
loop_
_space_group_symop_operation_xyz
x,y,z
-x,-y,-z
loop_
_atom_site_type_symbol
_atom_site_label
_atom_site_fract_x
_atom_site_fract_y
_atom_site_fract_z
Si Si1 0.100603 0.192648 0.707879
Si Si2 0.336862 0.413844 0.711134
Si Si3 0.499463 0.334557 0.270165
Si Si4 0.318541 0.099910 0.256083
Si Si5 0.025812 0.298630 0.317864
Si Si6 0.585430 0.823613 0.039157
Si Si7 0.397513 0.893498 0.866942
Si Si8 0.175032 0.714364 0.859913
O O1 0.290091 0.193327 0.504376
O O2 0.090897 0.446830 0.664729
O O3 0.159046 0.988014 0.773230
O O4 0.853841 0.140561 0.896021
O O5 0.500000 0.500000 0.500000
O O6 0.300831 0.589320 0.741166
O O7 0.427041 0.164448 0.744454
O O8 0.080576 0.373416 0.904770
O O9 0.429760 0.604524 0.232067
O O10 0.596442 0.234126 0.162001
O O11 0.683755 0.330699 0.177774
O O12 0.200915 0.262776 0.246762
O O13 0.409442 0.210597 0.209369
O O14 0.538802 0.958646 0.095893
O O15 0.142945 0.906745 0.474791
O O16 0.166177 0.265098 0.153623
O O17 0.500000 0.000000 0.000000
#
# Coordination Sequence:
#
# PCOD9011116 Si02
#       8
#     2   2   2   2   2   2   2   2
#     4  11  23  41  63  96 129 164 212 264 313 379
#     4  10  22  42  65  93 129 166 214 264 317 373
#     4  12  23  41  65  93 131 172 212 259 317 376
#     4  10  22  42  67  91 126 168 211 263 316 381
#     4  10  21  41  68  93 122 166 216 258 323 379
#     4  10  21  40  65  92 122 163 214 258 311 381
#     4  11  25  41  62  97 128 164 213 262 320 375
#     4  10  24  41  65  95 129 169 214 262 312 379
#
# _framework density 21.411671999999999
#
# number of rings (size 3 to 8) (size 9 to 14) (size 15 to 20)
#    0.000    1.500    2.500    1.875    0.000    5.500 
#    0.000    0.625    0.000    0.000    0.000    0.000 
#    0.000    0.000    0.000    0.000    0.000    0.000 
#
# Total GULP energy -89426.080623 kJ/mol
# GULP energy per Si atom -5589.130039 kJ/mol
# Density = 2.136294 g / cm^3
# Si number density = 21.411672 Si / 1000 Ang^3
#
#
#
# Elastic Constant Matrix: (Units=GPa)
#
#
# Indices 1 2 3 4 5 6 
#
# 1 119.7060 23.6219 53.0975 4.1104 -3.0497 -0.7895
# 2 23.6219 83.4302 5.2238 -10.2802 2.7454 -0.4979
# 3 53.0975 5.2238 108.8500 -3.7014 18.0826 -6.2970
# 4 4.1104 -10.2802 -3.7014 29.5441 -0.0532 10.3624
# 5 -3.0497 2.7454 18.0826 -0.0532 18.6743 6.3047
# 6 -0.7895 -0.4979 -6.2970 10.3624 6.3047 20.1759
#
#
#
# Elastic Compliance Matrix: (Units=1/GPa)
#
#
# Indices 1 2 3 4 5 6 
#
# 1 0.013541 -0.004055 -0.009005 -0.002572 0.013279 -0.005209
# 2 -0.004055 0.013870 0.002238 0.005913 -0.004611 -0.000714
# 3 -0.009005 0.002238 0.018156 -0.000271 -0.023746 0.012929
# 4 -0.002572 0.005913 -0.000271 0.045264 0.007786 -0.025720
# 5 0.013279 -0.004611 -0.023746 0.007786 0.092932 -0.040044
# 6 -0.005209 -0.000714 0.012929 -0.025720 -0.040044 0.079101
#
#
# Mechanical properties :
#
#
# Convention : Reuss Voigt Hill
#
# Bulk Modulus (GPa) = 41.80217 52.87475 47.33846
# Shear Modulus (GPa) = 17.09501 29.01506 23.05503
#
# Velocity S-wave (km/s) = 2.82866 3.68517 3.28495
# Velocity P-wave (km/s) = 5.49853 6.54639 6.04521
#
# Compressibility (1/GPa) = 0.02392220
#
# Stress axis : x y z
#
# Youngs Moduli (GPa) = 73.85133 72.09770 55.07819
#
# Poissons Ratio (x) = 0.29235 0.49600
# Poissons Ratio (y) = 0.29946 -0.12327
# Poissons Ratio (z) = 0.66506 -0.16136
#
# Static dielectric constant tensor:
#      x y z
#    x 1.758910 0.003910 0.009730 
#    y 0.003910 1.797550 0.018040 
#    z 0.009730 0.018040 1.799730 
# 
# From -- ./inp_files/343321.got.cif
#   From: 2010.05.17/outbox.cif.g08.bks.cpg/sg2_172_cif.got.tgz:343321.got - 2010.06.03 11:33:40.
