data_PCOD9011461
_publ_section_title
;
Structure prediction by ZEFSAII (Michael W. Deem and Ramdas Pophale) SiO2 
 PCOD9011461
Probable space group: P -1
;
_chemical_formula_sum "Si O2"
_cell_formula_units_Z 13
_cell_length_a 7.647969
_cell_length_b 9.096040
_cell_length_c 9.313990
_cell_angle_alpha 57.657874
_cell_angle_beta 63.421612
_cell_angle_gamma 86.784688
_cell_volume 474.953788
_symmetry_space_group_name_H-M "P -1"
_symmetry_group_IT_number 2
_symmetry_cell_setting 'triclinic'
loop_
_space_group_symop_operation_xyz
x,y,z
-x,-y,-z
loop_
_atom_site_type_symbol
_atom_site_label
_atom_site_fract_x
_atom_site_fract_y
_atom_site_fract_z
Si Si1 0.000000 0.000000 0.500000
Si Si2 0.371642 0.002688 0.346224
Si Si3 0.635591 0.523967 0.142405
Si Si4 0.189774 0.409256 0.281164
Si Si5 0.055695 0.765657 0.145821
Si Si6 0.781714 0.211924 0.233096
Si Si7 0.674635 0.852349 0.161267
O O1 0.789471 0.926468 0.718351
O O2 0.046158 0.213512 0.447589
O O3 0.203022 0.931790 0.574408
O O4 0.468615 0.858939 0.312746
O O5 0.562680 0.134523 0.279808
O O6 0.400116 0.424668 0.277089
O O7 0.765641 0.390772 0.226728
O O8 0.637896 0.699800 0.137720
O O9 0.730055 0.547924 0.935417
O O10 0.098162 0.577460 0.271349
O O11 0.840088 0.805064 0.233780
O O12 0.067891 0.768169 0.963183
O O13 0.230502 0.941387 0.029481
#
# Coordination Sequence:
#
# PCOD9011461 Si02
#       7
#     1   2   2   2   2   2   2
#     4  12  24  42  64  94 122 174 208 262 306 390
#     4  10  22  40  62  90 131 162 207 261 313 371
#     4  10  21  40  66  92 125 168 213 258 312 371
#     4  10  23  42  64  91 128 167 218 254 305 388
#     4   9  21  42  65  96 122 166 216 256 308 380
#     4   9  19  40  65  88 122 172 211 250 304 383
#     4  10  22  40  64  98 127 159 211 264 322 358
#
# _framework density 27.371085000000001
#
# number of rings (size 3 to 8) (size 9 to 14) (size 15 to 20)
#    0.000    2.154    1.538    0.000    6.462    2.462 
#    0.000    0.769    0.000    0.000    0.000    0.000 
#    0.000    0.000    0.000    0.000    0.000    0.000 
#
# Total GULP energy -72566.042917 kJ/mol
# GULP energy per Si atom -5582.003301 kJ/mol
# Density = 2.730879 g / cm^3
# Si number density = 27.371085 Si / 1000 Ang^3
#
#
#
# Elastic Constant Matrix: (Units=GPa)
#
#
# Indices 1 2 3 4 5 6 
#
# 1 100.1162 45.0381 40.8531 -1.3791 -39.8207 -17.3329
# 2 45.0381 210.9797 26.3908 -17.7470 1.9965 -25.1918
# 3 40.8531 26.3908 80.5861 -3.0789 -1.9338 -8.4874
# 4 -1.3791 -17.7470 -3.0789 47.4473 -8.4901 -9.3687
# 5 -39.8207 1.9965 -1.9338 -8.4901 43.1872 -3.5805
# 6 -17.3329 -25.1918 -8.4874 -9.3687 -3.5805 63.2129
#
#
#
# Elastic Compliance Matrix: (Units=1/GPa)
#
#
# Indices 1 2 3 4 5 6 
#
# 1 0.028828 -0.003653 -0.011797 0.005106 0.027822 0.007198
# 2 -0.003653 0.005863 0.000076 0.001810 -0.003161 0.001435
# 3 -0.011797 0.000076 0.017894 -0.001343 -0.010476 -0.001594
# 4 0.005106 0.001810 -0.001343 0.024816 0.009955 0.006183
# 5 0.027822 -0.003161 -0.010476 0.009955 0.051216 0.009339
# 6 0.007198 0.001435 -0.001594 0.006183 0.009339 0.019596
#
#
# Mechanical properties :
#
#
# Convention : Reuss Voigt Hill
#
# Bulk Modulus (GPa) = 45.79292 68.47177 57.13234
# Shear Modulus (GPa) = 26.84683 49.39616 38.12149
#
# Velocity S-wave (km/s) = 3.13524 4.25277 3.73603
# Velocity P-wave (km/s) = 5.46563 7.01321 6.28722
#
# Compressibility (1/GPa) = 0.02183744
#
# Stress axis : x y z
#
# Youngs Moduli (GPa) = 34.68858 170.54832 55.88370
#
# Poissons Ratio (x) = 0.62295 0.65928
# Poissons Ratio (y) = 0.12670 -0.00424
# Poissons Ratio (z) = 0.40923 -0.01294
#
# Static dielectric constant tensor:
#      x y z
#    x 2.282430 -0.010750 0.034060 
#    y -0.010750 2.153990 -0.005710 
#    z 0.034060 -0.005710 2.163660 
# 
# From -- ./inp_files/151219.got.cif
#   From: 2010.05.17/outbox.cif.g08.bks.cpg/sg2_76_cif.got.tgz:151219.got - 2010.06.03 11:33:40.
