data_PCOD9011723
_publ_section_title
;
Structure prediction by ZEFSAII (Michael W. Deem and Ramdas Pophale) SiO2 
 PCOD9011723
Probable space group: P -1
;
_chemical_formula_sum "Si O2"
_cell_formula_units_Z 16
_cell_length_a 7.475766
_cell_length_b 9.260918
_cell_length_c 21.645495
_cell_angle_alpha 143.524758
_cell_angle_beta 47.802947
_cell_angle_gamma 130.445427
_cell_volume 639.600916
_symmetry_space_group_name_H-M "P -1"
_symmetry_group_IT_number 2
_symmetry_cell_setting 'triclinic'
loop_
_space_group_symop_operation_xyz
x,y,z
-x,-y,-z
loop_
_atom_site_type_symbol
_atom_site_label
_atom_site_fract_x
_atom_site_fract_y
_atom_site_fract_z
Si Si1 0.852134 0.640130 0.653902
Si Si2 0.463436 0.246165 0.540767
Si Si3 0.247596 0.572959 0.060859
Si Si4 0.776410 0.101217 0.615824
Si Si5 0.935809 0.989839 0.084858
Si Si6 0.157716 0.601993 0.686431
Si Si7 0.671017 0.960600 0.891205
Si Si8 0.024871 0.910965 0.314433
O O1 0.717854 0.385235 0.563124
O O2 0.082149 0.629098 0.641723
O O3 0.632821 0.728538 0.773405
O O4 0.950570 0.870566 0.664934
O O5 0.371810 0.451550 0.591706
O O6 0.241300 0.162353 0.614481
O O7 0.445914 0.008722 0.417268
O O8 0.291606 0.786787 0.071768
O O9 0.092908 0.675733 0.184036
O O10 0.500000 0.500000 0.000000
O O11 0.101185 0.294834 0.982165
O O12 0.756860 0.001290 0.654997
O O13 0.899406 0.396337 0.696394
O O14 0.000000 0.000000 0.500000
O O15 0.119633 0.109216 0.138409
O O16 0.752412 0.163522 0.205253
O O17 0.000000 0.000000 0.000000
O O18 0.500000 0.000000 0.000000
#
# Coordination Sequence:
#
# PCOD9011723 Si02
#       8
#     2   2   2   2   2   2   2   2
#     4  10  22  38  59  91 119 157 204 251 301 361
#     4  10  21  40  67  85 120 166 196 247 318 354
#     4  11  23  37  59  90 120 159 206 245 302 369
#     4   8  17  38  61  89 117 158 197 248 305 361
#     4  11  21  35  60  83 114 162 192 246 310 352
#     4   9  20  37  57  85 122 146 201 249 289 366
#     4  10  23  38  55  85 121 154 204 255 292 363
#     4   9  20  39  61  85 127 152 199 257 293 363
#
# _framework density 25.015599999999999
#
# number of rings (size 3 to 8) (size 9 to 14) (size 15 to 20)
#    0.000    2.500    0.000    2.625    7.000    3.000 
#    0.000    8.125    0.000    0.000    0.000    0.000 
#    0.000    0.000    0.000    0.000    0.000    0.000 
#
# Total GULP energy -89107.576857 kJ/mol
# GULP energy per Si atom -5569.223554 kJ/mol
# Density = 2.495866 g / cm^3
# Si number density = 25.015600 Si / 1000 Ang^3
#
#
#
# Elastic Constant Matrix: (Units=GPa)
#
#
# Indices 1 2 3 4 5 6 
#
# 1 98.8648 29.6438 32.4400 -2.1777 16.2801 -32.9997
# 2 29.6438 81.2633 22.6825 8.0604 -0.3654 -28.6725
# 3 32.4400 22.6825 125.1155 21.2594 15.3187 -4.0508
# 4 -2.1777 8.0604 21.2594 28.4411 -3.1016 -5.1743
# 5 16.2801 -0.3654 15.3187 -3.1016 23.5299 1.8064
# 6 -32.9997 -28.6725 -4.0508 -5.1743 1.8064 46.5725
#
#
#
# Elastic Compliance Matrix: (Units=1/GPa)
#
#
# Indices 1 2 3 4 5 6 
#
# 1 0.017657 -0.001764 -0.003588 0.005640 -0.010096 0.012131
# 2 -0.001764 0.016801 -0.002348 -0.001330 0.002170 0.008657
# 3 -0.003588 -0.002348 0.011610 -0.009645 -0.006091 -0.003813
# 4 0.005640 -0.001330 -0.009645 0.045315 0.007787 0.007071
# 5 -0.010096 0.002170 -0.006091 0.007787 0.055096 -0.007620
# 6 0.012131 0.008657 -0.003813 0.007071 -0.007620 0.036147
#
#
# Mechanical properties :
#
#
# Convention : Reuss Voigt Hill
#
# Bulk Modulus (GPa) = 32.60702 52.75290 42.67996
# Shear Modulus (GPa) = 24.00995 34.40717 29.20856
#
# Velocity S-wave (km/s) = 3.10142 3.71270 3.42074
# Velocity P-wave (km/s) = 5.08803 6.28591 5.71842
#
# Compressibility (1/GPa) = 0.03066824
#
# Stress axis : x y z
#
# Youngs Moduli (GPa) = 56.63476 59.52085 86.13455
#
# Poissons Ratio (x) = 0.10500 0.30902
# Poissons Ratio (y) = 0.09991 0.20224
# Poissons Ratio (z) = 0.20318 0.13975
#
# Static dielectric constant tensor:
#      x y z
#    x 1.479010 -0.542490 -1.307990 
#    y -0.542490 1.299370 -1.743450 
#    z -1.307990 -1.743450 -2.354840 
# 
# From -- ./inp_files/504197.got.cif
#   From: 2010.05.17/outbox.cif.g08.bks.cpg/sg2_253_cif.got.tgz:504197.got - 2010.06.03 11:33:40.
