data_PCOD9011457
_publ_section_title
;
Structure prediction by ZEFSAII (Michael W. Deem and Ramdas Pophale) SiO2 
 PCOD9011457
Probable space group: P -1
;
_chemical_formula_sum "Si O2"
_cell_formula_units_Z 16
_cell_length_a 15.147706
_cell_length_b 14.929652
_cell_length_c 9.162230
_cell_angle_alpha 44.622715
_cell_angle_beta 40.796191
_cell_angle_gamma 41.965868
_cell_volume 851.110739
_symmetry_space_group_name_H-M "P -1"
_symmetry_group_IT_number 2
_symmetry_cell_setting 'triclinic'
loop_
_space_group_symop_operation_xyz
x,y,z
-x,-y,-z
loop_
_atom_site_type_symbol
_atom_site_label
_atom_site_fract_x
_atom_site_fract_y
_atom_site_fract_z
Si Si1 0.445502 0.381146 0.546973
Si Si2 0.418699 0.918106 0.117684
Si Si3 0.268747 0.589539 0.749805
Si Si4 0.870691 0.089538 0.450816
Si Si5 0.596403 0.077014 0.222932
Si Si6 0.571466 0.611322 0.778817
Si Si7 0.892836 0.425209 0.741893
Si Si8 0.048190 0.092675 0.938147
O O1 0.498189 0.242441 0.741642
O O2 0.298629 0.493667 0.681849
O O3 0.573373 0.438616 0.334218
O O4 0.427769 0.350100 0.437740
O O5 0.250179 0.972067 0.329803
O O6 0.412940 0.924752 0.940751
O O7 0.500000 0.000000 0.000000
O O8 0.210702 0.749009 0.580500
O O9 0.161001 0.573856 0.024131
O O10 0.000000 0.000000 0.500000
O O11 0.948244 0.098829 0.195484
O O12 0.522915 0.241016 0.184975
O O13 0.500000 0.000000 0.500000
O O14 0.772445 0.987662 0.156359
O O15 0.740031 0.520039 0.734469
O O16 0.500000 0.500000 0.000000
O O17 0.000000 0.500000 0.500000
O O18 0.984968 0.257936 0.776741
O O19 0.000000 0.000000 0.000000
#
# Coordination Sequence:
#
# PCOD9011457 Si02
#       8
#     2   2   2   2   2   2   2   2
#     4  10  21  40  66  92 124 163 220 267 310 380
#     4  11  24  41  67  94 130 170 217 269 330 384
#     4   9  20  38  65  90 123 165 211 263 318 377
#     4  10  21  41  64  90 125 170 214 263 321 391
#     4  12  26  43  68 101 134 173 220 277 329 393
#     4  12  24  40  70  98 127 170 231 264 320 395
#     4  11  23  43  63  94 135 171 208 273 333 386
#     4  11  25  42  65  96 135 173 217 267 333 394
#
# _framework density 18.798964999999999
#
# number of rings (size 3 to 8) (size 9 to 14) (size 15 to 20)
#    0.000    1.250    2.500    3.000    8.750    1.000 
#    0.000    0.625    0.000    0.000    0.000    0.000 
#    0.000    0.000    0.000    0.000    0.000    0.000 
#
# Total GULP energy -89232.957182 kJ/mol
# GULP energy per Si atom -5577.059824 kJ/mol
# Density = 1.875618 g / cm^3
# Si number density = 18.798965 Si / 1000 Ang^3
#
#
#
# Elastic Constant Matrix: (Units=GPa)
#
#
# Indices 1 2 3 4 5 6 
#
# 1 103.7423 70.7010 51.3389 1.8989 -12.0093 -9.4644
# 2 70.7010 140.7031 48.4740 -1.8989 -11.2758 -2.1680
# 3 51.3389 48.4740 125.4974 -6.7832 -23.6302 -1.7747
# 4 1.8989 -1.8989 -6.7832 21.8916 -2.8939 -1.5418
# 5 -12.0093 -11.2758 -23.6302 -2.8939 42.3506 0.8930
# 6 -9.4644 -2.1680 -1.7747 -1.5418 0.8930 33.4817
#
#
#
# Elastic Compliance Matrix: (Units=1/GPa)
#
#
# Indices 1 2 3 4 5 6 
#
# 1 0.017005 -0.007021 -0.004309 -0.003106 0.000253 0.003974
# 2 -0.007021 0.011110 -0.001313 0.001119 0.000338 -0.001292
# 3 -0.004309 -0.001313 0.011434 0.004436 0.005125 -0.000629
# 4 -0.003106 0.001119 0.004436 0.048209 0.005155 0.001512
# 5 0.000253 0.000338 0.005125 0.005155 0.026988 -0.000118
# 6 0.003974 -0.001292 -0.000629 0.001512 -0.000118 0.030946
#
#
# Mechanical properties :
#
#
# Convention : Reuss Voigt Hill
#
# Bulk Modulus (GPa) = 70.11054 78.99673 74.55364
# Shear Modulus (GPa) = 28.45259 32.84004 30.64632
#
# Velocity S-wave (km/s) = 3.89462 4.18414 4.04197
# Velocity P-wave (km/s) = 7.58946 8.09047 7.84397
#
# Compressibility (1/GPa) = 0.01426319
#
# Stress axis : x y z
#
# Youngs Moduli (GPa) = 58.80689 90.01185 87.45872
#
# Poissons Ratio (x) = 0.63194 0.37684
# Poissons Ratio (y) = 0.41286 0.11485
# Poissons Ratio (z) = 0.25338 0.11821
#
# Static dielectric constant tensor:
#      x y z
#    x 1.655640 -0.068520 0.013090 
#    y -0.068520 1.633040 0.069620 
#    z 0.013090 0.069620 1.617590 
# 
# From -- ./inp_files/238487.got.cif
#   From: 2010.05.17/outbox.cif.g08.bks.cpg/sg2_120_cif.got.tgz:238487.got - 2010.06.03 11:33:40.
