data_PCOD9011512
_publ_section_title
;
Structure prediction by ZEFSAII (Michael W. Deem and Ramdas Pophale) SiO2 
 PCOD9011512
Probable space group: P -1
;
_chemical_formula_sum "Si O2"
_cell_formula_units_Z 16
_cell_length_a 9.576748
_cell_length_b 14.729255
_cell_length_c 11.605081
_cell_angle_alpha 56.815493
_cell_angle_beta 126.496288
_cell_angle_gamma 77.726820
_cell_volume 661.071439
_symmetry_space_group_name_H-M "P -1"
_symmetry_group_IT_number 2
_symmetry_cell_setting 'triclinic'
loop_
_space_group_symop_operation_xyz
x,y,z
-x,-y,-z
loop_
_atom_site_type_symbol
_atom_site_label
_atom_site_fract_x
_atom_site_fract_y
_atom_site_fract_z
Si Si1 0.849947 0.967222 0.496026
Si Si2 0.707810 0.179855 0.859576
Si Si3 0.201123 0.111273 0.832125
Si Si4 0.376466 0.872939 0.377964
Si Si5 0.232041 0.457248 0.075822
Si Si6 0.172166 0.687223 0.047986
Si Si7 0.166059 0.635744 0.724443
Si Si8 0.282779 0.146884 0.105524
O O1 0.975454 0.867029 0.750006
O O2 0.957106 0.822337 0.559867
O O3 0.502530 0.136792 0.211358
O O4 0.000000 0.000000 0.500000
O O5 0.603908 0.339626 0.764290
O O6 0.768190 0.035300 0.052825
O O7 0.536783 0.233379 0.622640
O O8 0.032088 0.054950 0.071754
O O9 0.940728 0.295106 0.505421
O O10 0.184072 0.161040 0.920159
O O11 0.500000 0.000000 0.000000
O O12 0.474658 0.756136 0.616453
O O13 0.482279 0.943498 0.385036
O O14 0.281073 0.543891 0.110980
O O15 0.137440 0.536306 0.846566
O O16 0.000000 0.500000 0.000000
O O17 0.975647 0.721155 0.021273
O O18 0.500000 0.500000 0.000000
#
# Coordination Sequence:
#
# PCOD9011512 Si02
#       8
#     2   2   2   2   2   2   2   2
#     4  11  22  38  61  91 126 168 211 263 317 374
#     4   9  19  35  62  91 115 159 211 259 306 364
#     4  11  21  38  69  93 127 167 217 262 311 384
#     4   9  18  37  61  87 120 160 208 253 308 381
#     4  11  24  39  61  89 127 167 204 253 326 378
#     4  10  22  37  59  95 129 161 208 268 315 376
#     4  11  24  41  62  93 126 164 209 260 317 377
#     4  10  21  40  66  94 123 163 223 264 311 370
#
# _framework density 24.203132
#
# number of rings (size 3 to 8) (size 9 to 14) (size 15 to 20)
#    0.000    1.750    1.250    4.125    1.750    3.500 
#    0.000    1.250    0.000    1.500    0.000    0.000 
#    0.000    0.000    0.000    0.000    0.000    0.000 
#
# Total GULP energy -89423.563464 kJ/mol
# GULP energy per Si atom -5588.972717 kJ/mol
# Density = 2.414804 g / cm^3
# Si number density = 24.203132 Si / 1000 Ang^3
#
#
#
# Elastic Constant Matrix: (Units=GPa)
#
#
# Indices 1 2 3 4 5 6 
#
# 1 155.1375 10.0192 43.1736 10.2557 -10.9941 8.4673
# 2 10.0192 94.7875 15.6322 11.2126 -9.7848 1.8810
# 3 43.1736 15.6322 101.4894 3.5919 -27.7226 2.2111
# 4 10.2557 11.2126 3.5919 24.6764 -1.9729 -3.4523
# 5 -10.9941 -9.7848 -27.7226 -1.9729 43.8865 3.1810
# 6 8.4673 1.8810 2.2111 -3.4523 3.1810 39.5877
#
#
#
# Elastic Compliance Matrix: (Units=1/GPa)
#
#
# Indices 1 2 3 4 5 6 
#
# 1 0.007594 0.000093 -0.003117 -0.002989 -0.000056 -0.001711
# 2 0.000093 0.011534 -0.001140 -0.005128 0.001723 -0.001090
# 3 -0.003117 -0.001140 0.013401 0.000379 0.007490 -0.000596
# 4 -0.002989 -0.005128 0.000379 0.044709 0.000012 0.004760
# 5 -0.000056 0.001723 0.007490 0.000012 0.028087 -0.002744
# 6 -0.001711 -0.001090 -0.000596 0.004760 -0.002744 0.026347
#
#
# Mechanical properties :
#
#
# Convention : Reuss Voigt Hill
#
# Bulk Modulus (GPa) = 41.32204 54.34050 47.83127
# Shear Modulus (GPa) = 33.76838 40.46941 37.11890
#
# Velocity S-wave (km/s) = 3.73930 4.09354 3.92042
# Velocity P-wave (km/s) = 5.97940 6.69651 6.34809
#
# Compressibility (1/GPa) = 0.02420016
#
# Stress axis : x y z
#
# Youngs Moduli (GPa) = 131.67662 86.69799 74.62387
#
# Poissons Ratio (x) = -0.00807 0.23263
# Poissons Ratio (y) = -0.01225 0.08509
# Poissons Ratio (z) = 0.41048 0.09886
#
# Static dielectric constant tensor:
#      x y z
#    x 1.972250 0.017660 -0.008150 
#    y 0.017660 2.060290 0.026110 
#    z -0.008150 0.026110 1.996160 
# 
# From -- ./inp_files/401964.got.cif
#   From: 2010.05.17/outbox.cif.g08.bks.cpg/sg2_201_cif.got.tgz:401964.got - 2010.06.03 11:33:40.
