data_PCOD9011706
_publ_section_title
;
Structure prediction by ZEFSAII (Michael W. Deem and Ramdas Pophale) SiO2 
 PCOD9011706
Probable space group: P -1
;
_chemical_formula_sum "Si O2"
_cell_formula_units_Z 16
_cell_length_a 10.748437
_cell_length_b 9.683451
_cell_length_c 17.860652
_cell_angle_alpha 31.704702
_cell_angle_beta 139.499933
_cell_angle_gamma 122.633219
_cell_volume 602.092927
_symmetry_space_group_name_H-M "P -1"
_symmetry_group_IT_number 2
_symmetry_cell_setting 'triclinic'
loop_
_space_group_symop_operation_xyz
x,y,z
-x,-y,-z
loop_
_atom_site_type_symbol
_atom_site_label
_atom_site_fract_x
_atom_site_fract_y
_atom_site_fract_z
Si Si1 0.833984 0.635202 0.296725
Si Si2 0.762108 0.669555 0.822351
Si Si3 0.603569 0.765540 0.269057
Si Si4 0.796981 0.237126 0.328139
Si Si5 0.697269 0.300095 0.726121
Si Si6 0.234402 0.720618 0.869190
Si Si7 0.776831 0.779803 0.619297
Si Si8 0.861684 0.153464 0.720658
O O1 0.629450 0.717841 0.213538
O O2 0.829063 0.438488 0.314967
O O3 0.000000 0.500000 0.500000
O O4 0.914636 0.879557 0.190887
O O5 0.671992 0.724047 0.672710
O O6 0.761946 0.961955 0.719150
O O7 0.682881 0.498249 0.925962
O O8 0.000000 0.500000 0.000000
O O9 0.394387 0.824047 0.190229
O O10 0.743175 0.476427 0.502253
O O11 0.689411 0.016318 0.209807
O O12 0.719963 0.389128 0.144491
O O13 0.676681 0.046012 0.399242
O O14 0.000000 0.000000 0.500000
O O15 0.500000 0.500000 0.500000
O O16 0.812390 0.505676 0.713980
O O17 0.833696 0.100780 0.818973
O O18 0.990878 0.814999 0.723780
#
# Coordination Sequence:
#
# PCOD9011706 Si02
#       8
#     2   2   2   2   2   2   2   2
#     4  10  17  29  53  84 111 146 193 242 287 341
#     4  10  21  37  58  88 121 155 197 250 300 351
#     4  10  20  37  59  87 119 155 197 248 298 351
#     4  10  17  29  53  84 111 146 193 242 287 341
#     4  10  21  37  58  88 121 155 197 250 300 351
#     4  10  20  37  59  87 119 155 197 248 298 351
#     4  10  18  35  60  85 116 158 198 242 296 355
#     4  10  18  35  60  85 116 158 198 242 296 355
#
# _framework density 26.573972000000001
#
# number of rings (size 3 to 8) (size 9 to 14) (size 15 to 20)
#    0.000    2.000    0.000    9.000    0.000    0.000 
#    0.000   15.000    0.000    0.000    0.000    0.000 
#    0.000    0.000    0.000    0.000    0.000    0.000 
#
# Total GULP energy -89487.449461 kJ/mol
# GULP energy per Si atom -5592.965591 kJ/mol
# Density = 2.651349 g / cm^3
# Si number density = 26.573972 Si / 1000 Ang^3
#
#
#
# Elastic Constant Matrix: (Units=GPa)
#
#
# Indices 1 2 3 4 5 6 
#
# 1 153.9884 40.6641 64.5514 9.2188 -34.8291 -26.1811
# 2 40.6641 133.3203 23.6437 -22.7498 -21.8208 -28.0741
# 3 64.5514 23.6437 87.9375 14.2431 -28.5386 4.6463
# 4 9.2188 -22.7498 14.2431 32.5417 1.7395 -13.0160
# 5 -34.8291 -21.8208 -28.5386 1.7395 36.1000 3.3818
# 6 -26.1811 -28.0741 4.6463 -13.0160 3.3818 56.6273
#
#
#
# Elastic Compliance Matrix: (Units=1/GPa)
#
#
# Indices 1 2 3 4 5 6 
#
# 1 0.011772 0.000593 -0.008265 0.003220 0.004382 0.006894
# 2 0.000593 0.014488 -0.007399 0.017961 0.001481 0.012104
# 3 -0.008265 -0.007399 0.027625 -0.021743 0.011889 -0.015464
# 4 0.003220 0.017961 -0.021743 0.063260 -0.008826 0.027245
# 5 0.004382 0.001481 0.011889 -0.008826 0.042911 -0.002806
# 6 0.006894 0.012104 -0.015464 0.027245 -0.002806 0.034546
#
#
# Mechanical properties :
#
#
# Convention : Reuss Voigt Hill
#
# Bulk Modulus (GPa) = 42.11482 70.32938 56.22210
# Shear Modulus (GPa) = 21.49082 41.47961 31.48521
#
# Velocity S-wave (km/s) = 2.84688 3.95512 3.44585
# Velocity P-wave (km/s) = 5.16613 6.88333 6.08560
#
# Compressibility (1/GPa) = 0.02374461
#
# Stress axis : x y z
#
# Youngs Moduli (GPa) = 84.94572 69.02223 36.19913
#
# Poissons Ratio (x) = -0.04096 0.29918
# Poissons Ratio (y) = -0.05041 0.26783
# Poissons Ratio (z) = 0.70206 0.51069
#
# Static dielectric constant tensor:
#      x y z
#    x 2.163270 -0.013360 -0.060620 
#    y -0.013360 2.017750 0.064480 
#    z -0.060620 0.064480 1.990110 
# 
# From -- ./inp_files/566372.got.cif
#   From: 2010.05.17/outbox.cif.g08.bks.cpg/sg2_284_cif.got.tgz:566372.got - 2010.06.03 11:33:40.
