data_PCOD9011307
_publ_section_title
;
Structure prediction by ZEFSAII (Michael W. Deem and Ramdas Pophale) SiO2 
 PCOD9011307
Probable space group: P -1
;
_chemical_formula_sum "Si O2"
_cell_formula_units_Z 14
_cell_length_a 16.375130
_cell_length_b 5.203137
_cell_length_c 7.878808
_cell_angle_alpha 52.880068
_cell_angle_beta 83.831545
_cell_angle_gamma 80.445257
_cell_volume 527.821486
_symmetry_space_group_name_H-M "P -1"
_symmetry_group_IT_number 2
_symmetry_cell_setting 'triclinic'
loop_
_space_group_symop_operation_xyz
x,y,z
-x,-y,-z
loop_
_atom_site_type_symbol
_atom_site_label
_atom_site_fract_x
_atom_site_fract_y
_atom_site_fract_z
Si Si1 0.921377 0.645732 0.313964
Si Si2 0.021126 0.175827 0.238022
Si Si3 0.671079 0.067600 0.350969
Si Si4 0.774715 0.025845 0.018453
Si Si5 0.373434 0.177548 0.016417
Si Si6 0.817909 0.725713 0.655048
Si Si7 0.515386 0.873559 0.320756
O O1 0.966386 0.307616 0.364959
O O2 0.868354 0.635816 0.502975
O O3 0.986679 0.893149 0.249329
O O4 0.860114 0.799933 0.119027
O O5 0.117292 0.141581 0.284829
O O6 0.000000 0.500000 0.000000
O O7 0.653918 0.446738 0.163738
O O8 0.736194 0.966324 0.525550
O O9 0.579864 0.956363 0.417467
O O10 0.722058 0.929167 0.230261
O O11 0.792654 0.394512 0.868664
O O12 0.710537 0.986753 0.898495
O O13 0.431014 0.072774 0.882626
O O14 0.429686 0.091727 0.202997
O O15 0.500000 0.500000 0.500000
#
# Coordination Sequence:
#
# PCOD9011307 Si02
#       7
#     2   2   2   2   2   2   2
#     4  11  26  47  70 102 144 180 247 294 356 420
#     4  12  25  48  71 103 138 192 236 302 356 421
#     4  10  23  42  62 101 133 176 228 284 342 419
#     4  10  23  42  64  96 134 182 226 285 352 414
#     4  10  22  40  65  92 137 172 223 283 337 419
#     4  11  24  44  69  97 139 181 235 291 354 420
#     4  10  21  40  65  97 131 175 222 276 343 414
#
# _framework density 26.52412
#
# number of rings (size 3 to 8) (size 9 to 14) (size 15 to 20)
#    0.000    1.429    1.429    2.571    4.000    1.714 
#    7.714    0.000    0.000    0.000    0.000    0.000 
#    0.000    0.000    0.000    0.000    0.000    0.000 
#
# Total GULP energy -78402.014980 kJ/mol
# GULP energy per Si atom -5600.143927 kJ/mol
# Density = 2.646375 g / cm^3
# Si number density = 26.524120 Si / 1000 Ang^3
#
#
#
# Elastic Constant Matrix: (Units=GPa)
#
#
# Indices 1 2 3 4 5 6 
#
# 1 278.6991 79.1384 88.3940 -16.5989 47.3830 30.2748
# 2 79.1384 109.1754 24.4010 -8.7743 14.7517 17.5350
# 3 88.3940 24.4010 102.7146 16.6239 26.9588 16.8951
# 4 -16.5989 -8.7743 16.6239 64.2320 0.5534 -3.6343
# 5 47.3830 14.7517 26.9588 0.5534 65.2476 -15.3698
# 6 30.2748 17.5350 16.8951 -3.6343 -15.3698 41.6736
#
#
#
# Elastic Compliance Matrix: (Units=1/GPa)
#
#
# Indices 1 2 3 4 5 6 
#
# 1 0.006722 -0.002841 -0.004123 0.002273 -0.003267 -0.003023
# 2 -0.002841 0.011988 0.000620 0.000540 -0.001816 -0.003854
# 3 -0.004123 0.000620 0.016535 -0.005579 -0.005454 -0.006467
# 4 0.002273 0.000540 -0.005579 0.017794 0.000917 0.002273
# 5 -0.003267 -0.001816 -0.005454 0.000917 0.023692 0.014166
# 6 -0.003023 -0.003854 -0.006467 0.002273 0.014166 0.035859
#
#
# Mechanical properties :
#
#
# Convention : Reuss Voigt Hill
#
# Bulk Modulus (GPa) = 44.33219 97.16176 70.74697
# Shear Modulus (GPa) = 37.65167 54.14100 45.89634
#
# Velocity S-wave (km/s) = 3.77175 4.52286 4.16428
# Velocity P-wave (km/s) = 5.97648 7.99913 7.06061
#
# Compressibility (1/GPa) = 0.02255698
#
# Stress axis : x y z
#
# Youngs Moduli (GPa) = 148.77275 83.41421 60.47939
#
# Poissons Ratio (x) = 0.23701 0.24934
# Poissons Ratio (y) = 0.42271 -0.03752
# Poissons Ratio (z) = 0.61336 -0.05174
#
# Static dielectric constant tensor:
#      x y z
#    x 2.100480 -0.053370 -0.038860 
#    y -0.053370 2.130600 0.117550 
#    z -0.038860 0.117550 2.154140 
# 
# From -- ./inp_files/139449.got.cif
#   From: 2010.05.17/outbox.cif.g08.bks.cpg/sg2_70_cif.got.tgz:139449.got - 2010.06.03 11:33:40.
