data_PCOD9011568
_publ_section_title
;
Structure prediction by ZEFSAII (Michael W. Deem and Ramdas Pophale) SiO2 
 PCOD9011568
Probable space group: P -1
;
_chemical_formula_sum "Si O2"
_cell_formula_units_Z 16
_cell_length_a 13.918994
_cell_length_b 7.908326
_cell_length_c 7.619277
_cell_angle_alpha 71.991937
_cell_angle_beta 92.239254
_cell_angle_gamma 121.214578
_cell_volume 674.536045
_symmetry_space_group_name_H-M "P -1"
_symmetry_group_IT_number 2
_symmetry_cell_setting 'triclinic'
loop_
_space_group_symop_operation_xyz
x,y,z
-x,-y,-z
loop_
_atom_site_type_symbol
_atom_site_label
_atom_site_fract_x
_atom_site_fract_y
_atom_site_fract_z
Si Si1 0.592057 0.649143 0.106825
Si Si2 0.988437 0.934773 0.317217
Si Si3 0.044545 0.345112 0.084053
Si Si4 0.427119 0.767212 0.151069
Si Si5 0.629581 0.107356 0.532712
Si Si6 0.721302 0.438296 0.144323
Si Si7 0.768815 0.008584 0.758535
Si Si8 0.105709 0.497244 0.429283
O O1 0.515352 0.693549 0.212082
O O2 0.655387 0.533391 0.204900
O O3 0.500000 0.500000 0.000000
O O4 0.693861 0.867931 0.960240
O O5 0.116633 0.992736 0.258221
O O6 0.896360 0.684004 0.393428
O O7 0.963374 0.091474 0.157576
O O8 0.000000 0.000000 0.500000
O O9 0.088689 0.402933 0.266017
O O10 0.148295 0.408965 0.943297
O O11 0.000000 0.500000 0.000000
O O12 0.374183 0.775855 0.327336
O O13 0.339158 0.638755 0.027718
O O14 0.500000 0.000000 0.000000
O O15 0.705067 0.256449 0.330707
O O16 0.670319 0.944205 0.624973
O O17 0.500000 0.000000 0.500000
O O18 0.813046 0.254490 0.676454
O O19 0.000000 0.500000 0.500000
#
# Coordination Sequence:
#
# PCOD9011568 Si02
#       8
#     2   2   2   2   2   2   2   2
#     4  10  21  40  66  95 135 179 218 271 337 407
#     4   9  20  40  64  95 126 172 223 268 335 410
#     4  11  23  40  65  97 134 168 220 281 338 397
#     4  11  21  42  68  93 134 178 219 273 341 398
#     4  12  24  39  68 101 132 173 229 278 327 403
#     4  11  24  41  64  99 134 176 223 273 342 399
#     4  11  20  40  69  91 131 181 217 269 342 399
#     4   9  21  39  66  92 121 175 224 266 335 404
#
# _framework density 23.720006999999999
#
# number of rings (size 3 to 8) (size 9 to 14) (size 15 to 20)
#    0.000    1.500    3.750    1.500    5.250    0.500 
#    0.000    3.750    0.000    0.000    0.000    0.000 
#    0.000    0.000    0.000    0.000    0.000    0.000 
#
# Total GULP energy -89150.833644 kJ/mol
# GULP energy per Si atom -5571.927103 kJ/mol
# Density = 2.366602 g / cm^3
# Si number density = 23.720007 Si / 1000 Ang^3
#
#
#
# Elastic Constant Matrix: (Units=GPa)
#
#
# Indices 1 2 3 4 5 6 
#
# 1 69.0355 17.7162 15.2073 2.0209 9.2469 -29.7978
# 2 17.7162 65.4857 29.3013 -16.1302 -6.3798 -7.8122
# 3 15.2073 29.3013 107.0770 -2.9612 0.3123 -4.0815
# 4 2.0209 -16.1302 -2.9612 53.6863 -10.8407 -2.5421
# 5 9.2469 -6.3798 0.3123 -10.8407 43.2507 -5.5835
# 6 -29.7978 -7.8122 -4.0815 -2.5421 -5.5835 26.8554
#
#
#
# Elastic Compliance Matrix: (Units=1/GPa)
#
#
# Indices 1 2 3 4 5 6 
#
# 1 0.029708 -0.004316 -0.001914 -0.001778 -0.003479 0.030525
# 2 -0.004316 0.021551 -0.004981 0.007799 0.006454 0.002803
# 3 -0.001914 -0.004981 0.010860 -0.001128 -0.000975 -0.002231
# 4 -0.001778 0.007799 -0.001128 0.022720 0.007735 0.003883
# 5 -0.003479 0.006454 -0.000975 0.007735 0.027315 0.004280
# 6 0.030525 0.002803 -0.002231 0.003883 0.004280 0.072840
#
#
# Mechanical properties :
#
#
# Convention : Reuss Voigt Hill
#
# Bulk Modulus (GPa) = 25.18987 40.67197 32.93092
# Shear Modulus (GPa) = 22.66050 36.71671 29.68860
#
# Velocity S-wave (km/s) = 3.09420 3.93863 3.54167
# Velocity P-wave (km/s) = 4.83820 6.15367 5.53515
#
# Compressibility (1/GPa) = 0.03969849
#
# Stress axis : x y z
#
# Youngs Moduli (GPa) = 33.66091 46.40171 92.07764
#
# Poissons Ratio (x) = 0.20028 0.17620
# Poissons Ratio (y) = 0.14529 0.45861
# Poissons Ratio (z) = 0.06441 0.23111
#
# Static dielectric constant tensor:
#      x y z
#    x 1.832510 -0.090410 0.234210 
#    y -0.090410 1.781500 0.271220 
#    z 0.234210 0.271220 1.591980 
# 
# From -- ./inp_files/297672.got.cif
#   From: 2010.05.17/outbox.cif.g08.bks.cpg/sg2_149_cif.got.tgz:297672.got - 2010.06.03 11:33:40.
