data_PCOD9011914
_publ_section_title
;
Structure prediction by ZEFSAII (Michael W. Deem and Ramdas Pophale) SiO2 
 PCOD9011914
Probable space group: P -1
;
_chemical_formula_sum "Si O2"
_cell_formula_units_Z 14
_cell_length_a 11.800539
_cell_length_b 9.299966
_cell_length_c 16.961093
_cell_angle_alpha 142.494017
_cell_angle_beta 33.970992
_cell_angle_gamma 128.996850
_cell_volume 631.011366
_symmetry_space_group_name_H-M "P -1"
_symmetry_group_IT_number 2
_symmetry_cell_setting 'triclinic'
loop_
_space_group_symop_operation_xyz
x,y,z
-x,-y,-z
loop_
_atom_site_type_symbol
_atom_site_label
_atom_site_fract_x
_atom_site_fract_y
_atom_site_fract_z
Si Si1 0.776020 0.046204 0.987951
Si Si2 0.568296 0.261811 0.904694
Si Si3 0.590457 0.994696 0.620764
Si Si4 0.793472 0.375922 0.979414
Si Si5 0.572510 0.253198 0.595746
Si Si6 0.801220 0.473617 0.252686
Si Si7 0.185669 0.807392 0.720888
O O1 0.820452 0.147175 0.920355
O O2 0.683092 0.272853 0.190703
O O3 0.622472 0.844030 0.988617
O O4 0.979698 0.951878 0.875280
O O5 0.639269 0.076301 0.715100
O O6 0.500000 0.500000 0.000000
O O7 0.727742 0.307958 0.900119
O O8 0.680477 0.728599 0.436610
O O9 0.347390 0.982433 0.739688
O O10 0.668232 0.181335 0.594188
O O11 0.615587 0.555647 0.196992
O O12 0.000638 0.499517 0.902985
O O13 0.716740 0.314503 0.467601
O O14 0.500000 0.000000 0.500000
O O15 0.850603 0.377499 0.269791
#
# Coordination Sequence:
#
# PCOD9011914 Si02
#       7
#     2   2   2   2   2   2   2
#     4  12  25  44  72 104 140 182 234 286 343 411
#     4  12  26  46  71  99 146 187 227 279 351 422
#     4  11  23  43  71 103 140 179 230 290 347 402
#     4  12  26  46  70 104 142 185 228 281 353 415
#     4  10  21  40  67  98 138 173 225 285 340 397
#     4  12  24  43  76 107 134 178 240 291 340 400
#     4  11  23  41  71 106 135 173 233 294 337 397
#
# _framework density 22.186605
#
# number of rings (size 3 to 8) (size 9 to 14) (size 15 to 20)
#    0.000    0.571    2.857    6.857    2.000    0.571 
#    0.000    0.714    0.000    0.000    0.000    0.000 
#    0.000    0.000    0.000    0.000    0.000    0.000 
#
# Total GULP energy -78347.033281 kJ/mol
# GULP energy per Si atom -5596.216663 kJ/mol
# Density = 2.213611 g / cm^3
# Si number density = 22.186605 Si / 1000 Ang^3
#
#
#
# Elastic Constant Matrix: (Units=GPa)
#
#
# Indices 1 2 3 4 5 6 
#
# 1 88.8749 19.8374 -1.5500 1.8535 4.0373 -24.8316
# 2 19.8374 121.5694 6.5480 -8.3923 -4.4450 -35.5743
# 3 -1.5500 6.5480 70.6336 8.6749 6.2928 -5.6601
# 4 1.8535 -8.3923 8.6749 27.5358 -16.0682 7.1581
# 5 4.0373 -4.4450 6.2928 -16.0682 28.5277 3.7348
# 6 -24.8316 -35.5743 -5.6601 7.1581 3.7348 54.3487
#
#
#
# Elastic Compliance Matrix: (Units=1/GPa)
#
#
# Indices 1 2 3 4 5 6 
#
# 1 0.014520 -0.001204 0.003205 -0.010174 -0.009752 0.008190
# 2 -0.001204 0.010533 -0.001556 0.004876 0.004214 0.005251
# 3 0.003205 -0.001556 0.018126 -0.016368 -0.014633 0.005495
# 4 -0.010174 0.004876 -0.016368 0.078637 0.052343 -0.017115
# 5 -0.009752 0.004214 -0.014633 0.052343 0.071770 -0.015047
# 6 0.008190 0.005251 0.005495 -0.017115 -0.015047 0.029439
#
#
# Mechanical properties :
#
#
# Convention : Reuss Voigt Hill
#
# Bulk Modulus (GPa) = 22.69245 36.74987 29.72116
# Shear Modulus (GPa) = 21.11258 39.16528 30.13893
#
# Velocity S-wave (km/s) = 3.08813 4.20607 3.68969
# Velocity P-wave (km/s) = 4.79225 6.33940 5.61932
#
# Compressibility (1/GPa) = 0.04406752
#
# Stress axis : x y z
#
# Youngs Moduli (GPa) = 68.87150 94.93804 55.16837
#
# Poissons Ratio (x) = 0.11434 -0.17680
# Poissons Ratio (y) = 0.08294 0.08586
# Poissons Ratio (z) = -0.22072 0.14776
#
# Static dielectric constant tensor:
#      x y z
#    x 1.837430 -0.040540 0.027620 
#    y -0.040540 1.832100 -0.019000 
#    z 0.027620 -0.019000 1.837700 
# 
# From -- ./inp_files/205059.got.cif
#   From: 2010.05.17/outbox.cif.g08.bks.cpg/sg2_103_cif.got.tgz:205059.got - 2010.06.03 11:33:40.
