data_PCOD9011298
_publ_section_title
;
Structure prediction by ZEFSAII (Michael W. Deem and Ramdas Pophale) SiO2 
 PCOD9011298
Probable space group: P -1
;
_chemical_formula_sum "Si O2"
_cell_formula_units_Z 14
_cell_length_a 11.911062
_cell_length_b 17.910748
_cell_length_c 9.014404
_cell_angle_alpha 47.894456
_cell_angle_beta 67.488377
_cell_angle_gamma 31.829366
_cell_volume 661.176031
_symmetry_space_group_name_H-M "P -1"
_symmetry_group_IT_number 2
_symmetry_cell_setting 'triclinic'
loop_
_space_group_symop_operation_xyz
x,y,z
-x,-y,-z
loop_
_atom_site_type_symbol
_atom_site_label
_atom_site_fract_x
_atom_site_fract_y
_atom_site_fract_z
Si Si1 0.617866 0.760231 0.933365
Si Si2 0.514513 0.942349 0.232475
Si Si3 0.002272 0.746140 0.930108
Si Si4 0.224054 0.877064 0.951626
Si Si5 0.909054 0.145760 0.472805
Si Si6 0.587771 0.455175 0.844517
Si Si7 0.122381 0.425743 0.263133
O O1 0.869209 0.557628 0.163353
O O2 0.407935 0.830068 0.978936
O O3 0.691888 0.710092 0.789130
O O4 0.532987 0.931451 0.799106
O O5 0.753035 0.715137 0.470875
O O6 0.284670 0.032960 0.224316
O O7 0.500000 0.000000 0.000000
O O8 0.089623 0.743993 0.744595
O O9 0.148063 0.685636 0.077065
O O10 0.062037 0.585882 0.107005
O O11 0.091154 0.013477 0.691233
O O12 0.378017 0.670609 0.096362
O O13 0.000000 0.000000 0.000000
O O14 0.627150 0.325801 0.410504
O O15 0.000000 0.000000 0.500000
O O16 0.500000 0.500000 0.000000
#
# Coordination Sequence:
#
# PCOD9011298 Si02
#       7
#     2   2   2   2   2   2   2
#     4  10  23  42  66  97 129 176 226 270 333 403
#     4  11  25  41  67  97 130 172 215 278 345 394
#     4  10  22  38  69  98 122 169 228 271 324 397
#     4  12  26  42  65 103 146 175 216 285 349 399
#     4  11  22  40  70  98 130 182 231 275 322 404
#     4  10  21  40  65  97 126 173 228 263 328 399
#     4  10  22  44  71  95 126 172 231 283 323 395
#
# _framework density 21.174391
#
# number of rings (size 3 to 8) (size 9 to 14) (size 15 to 20)
#    0.000    1.429    2.857    3.000    4.000    6.286 
#    2.571    0.000    0.000    0.000    0.000    0.000 
#    0.000    0.000    0.000    0.000    0.000    0.000 
#
# Total GULP energy -78147.686727 kJ/mol
# GULP energy per Si atom -5581.977623 kJ/mol
# Density = 2.112620 g / cm^3
# Si number density = 21.174391 Si / 1000 Ang^3
#
#
#
# Elastic Constant Matrix: (Units=GPa)
#
#
# Indices 1 2 3 4 5 6 
#
# 1 95.7384 8.9171 31.3360 -15.6442 12.4261 -32.1389
# 2 8.9171 45.5736 23.5414 -13.9947 -1.6563 -22.4664
# 3 31.3360 23.5414 136.5886 -16.3922 12.1896 -7.7351
# 4 -15.6442 -13.9947 -16.3922 29.9386 -2.6787 -1.8728
# 5 12.4261 -1.6563 12.1896 -2.6787 23.1355 -12.6010
# 6 -32.1389 -22.4664 -7.7351 -1.8728 -12.6010 29.1053
#
#
#
# Elastic Compliance Matrix: (Units=1/GPa)
#
#
# Indices 1 2 3 4 5 6 
#
# 1 -0.018554 -0.063865 0.009501 -0.045307 -0.056374 -0.094582
# 2 -0.063865 -0.102811 0.019238 -0.091901 -0.099328 -0.193685
# 3 0.009501 0.019238 0.004865 0.020084 0.014717 0.034299
# 4 -0.045307 -0.091901 0.020084 -0.039035 -0.080730 -0.153093
# 5 -0.056374 -0.099328 0.014717 -0.080730 -0.035428 -0.155542
# 6 -0.094582 -0.193685 0.034299 -0.153093 -0.155542 -0.287664
#
#
# Mechanical properties :
#
#
# Convention : Reuss Voigt Hill
#
# Bulk Modulus (GPa) = -5.35473 45.05442 19.84984
# Shear Modulus (GPa) = -10.62416 30.70964 10.04274
#
# Velocity S-wave (km/s) = -2.24240 3.81244 2.18018
# Velocity P-wave (km/s) = 3.03954 6.37993 3.96640
#
# Compressibility (1/GPa) = -0.18675081
#
# Stress axis : x y z
#
# Youngs Moduli (GPa) = -53.89814 -9.72662 205.55373
#
# Poissons Ratio (x) = -0.62119 -1.95302
# Poissons Ratio (y) = -3.44222 -3.95450
# Poissons Ratio (z) = 0.51210 0.18712
#
# Static dielectric constant tensor:
#      x y z
#    x 2.435480 -2.152850 -0.676400 
#    y -2.152850 8.494020 2.260890 
#    z -0.676400 2.260890 2.550750 
# 
# From -- ./inp_files/71320.got.cif
#   From: 2010.05.17/outbox.cif.g08.bks.cpg/sg2_36_cif.got.tgz:71320.got - 2010.06.03 11:33:40.
