data_PCOD9011553
_publ_section_title
;
Structure prediction by ZEFSAII (Michael W. Deem and Ramdas Pophale) SiO2 
 PCOD9011553
Probable space group: P -1
;
_chemical_formula_sum "Si O2"
_cell_formula_units_Z 14
_cell_length_a 4.999740
_cell_length_b 18.979220
_cell_length_c 9.442778
_cell_angle_alpha 46.232469
_cell_angle_beta 125.607927
_cell_angle_gamma 110.809418
_cell_volume 524.360883
_symmetry_space_group_name_H-M "P -1"
_symmetry_group_IT_number 2
_symmetry_cell_setting 'triclinic'
loop_
_space_group_symop_operation_xyz
x,y,z
-x,-y,-z
loop_
_atom_site_type_symbol
_atom_site_label
_atom_site_fract_x
_atom_site_fract_y
_atom_site_fract_z
Si Si1 0.971588 0.958438 0.706152
Si Si2 0.253456 0.281460 0.739637
Si Si3 0.172487 0.901703 0.125051
Si Si4 0.201128 0.650605 0.731428
Si Si5 0.460005 0.855252 0.557142
Si Si6 0.440979 0.504392 0.780024
Si Si7 0.836879 0.391978 0.706757
O O1 0.777487 0.864294 0.738680
O O2 0.764617 0.048761 0.593818
O O3 0.000000 0.000000 0.500000
O O4 0.249660 0.922644 0.955358
O O5 0.625463 0.311826 0.826348
O O6 0.107240 0.175778 0.848090
O O7 0.140196 0.321421 0.493070
O O8 0.050024 0.338416 0.721075
O O9 0.468724 0.866531 0.372258
O O10 0.000000 0.000000 0.000000
O O11 0.319882 0.752142 0.680996
O O12 0.423427 0.599408 0.743296
O O13 0.254476 0.571385 0.980818
O O14 0.400506 0.530858 0.566281
O O15 0.108959 0.449552 0.791356
#
# Coordination Sequence:
#
# PCOD9011553 Si02
#       7
#     2   2   2   2   2   2   2
#     4  10  21  40  66  95 130 169 221 280 345 407
#     4  10  22  43  65  96 129 178 227 278 344 413
#     4   9  20  43  64  94 134 176 222 280 347 412
#     4   9  19  40  63  90 133 172 224 273 343 403
#     4   9  20  41  62  93 132 170 224 275 336 418
#     4   9  20  38  65  95 129 177 219 285 338 397
#     4  10  22  41  66  93 133 171 230 280 337 413
#
# _framework density 26.699166999999999
#
# number of rings (size 3 to 8) (size 9 to 14) (size 15 to 20)
#    0.000    2.571    0.000    0.000    2.000    6.286 
#   30.857    2.857    0.000    0.000    0.000    0.000 
#    0.000    0.000    0.000    0.000    0.000    0.000 
#
# Total GULP energy -78235.450337 kJ/mol
# GULP energy per Si atom -5588.246453 kJ/mol
# Density = 2.663840 g / cm^3
# Si number density = 26.699167 Si / 1000 Ang^3
#
#
#
# Elastic Constant Matrix: (Units=GPa)
#
#
# Indices 1 2 3 4 5 6 
#
# 1 70.6385 40.6918 25.3543 1.6848 -19.0584 7.8203
# 2 40.6918 168.4048 41.6203 -4.5744 -11.3637 22.4737
# 3 25.3543 41.6203 130.7369 30.3817 -4.8432 -1.9376
# 4 1.6848 -4.5744 30.3817 53.3068 -5.4480 -17.6592
# 5 -19.0584 -11.3637 -4.8432 -5.4480 16.7705 0.8416
# 6 7.8203 22.4737 -1.9376 -17.6592 0.8416 27.8950
#
#
#
# Elastic Compliance Matrix: (Units=1/GPa)
#
#
# Indices 1 2 3 4 5 6 
#
# 1 0.024303 -0.002635 -0.003496 0.002200 0.025756 -0.004318
# 2 -0.002635 0.008022 -0.002116 0.000300 0.002217 -0.005749
# 3 -0.003496 -0.002116 0.010373 -0.006674 -0.004544 -0.000683
# 4 0.002200 0.000300 -0.006674 0.029034 0.009366 0.016776
# 5 0.025756 0.002217 -0.004544 0.009366 0.092441 -0.006182
# 6 -0.004318 -0.005749 -0.000683 0.016776 -0.006182 0.052450
#
#
# Mechanical properties :
#
#
# Convention : Reuss Voigt Hill
#
# Bulk Modulus (GPa) = 38.15796 65.01257 51.58526
# Shear Modulus (GPa) = 20.67391 37.06871 28.87131
#
# Velocity S-wave (km/s) = 2.78569 3.73015 3.29197
# Velocity P-wave (km/s) = 4.96685 6.55400 5.81483
#
# Compressibility (1/GPa) = 0.02620685
#
# Stress axis : x y z
#
# Youngs Moduli (GPa) = 41.14636 124.64963 96.40589
#
# Poissons Ratio (x) = 0.32840 0.33700
# Poissons Ratio (y) = 0.10840 0.20397
# Poissons Ratio (z) = 0.14383 0.26373
#
# Static dielectric constant tensor:
#      x y z
#    x 2.176070 0.066530 -0.048220 
#    y 0.066530 2.091550 0.003230 
#    z -0.048220 0.003230 2.174180 
# 
# From -- ./inp_files/137259.got.cif
#   From: 2010.05.17/outbox.cif.g08.bks.cpg/sg2_69_cif.got.tgz:137259.got - 2010.06.03 11:33:40.
