data_PCOD9011924
_publ_section_title
;
Structure prediction by ZEFSAII (Michael W. Deem and Ramdas Pophale) SiO2 
 PCOD9011924
Probable space group: P -1
;
_chemical_formula_sum "Si O2"
_cell_formula_units_Z 14
_cell_length_a 17.999609
_cell_length_b 7.300060
_cell_length_c 7.010487
_cell_angle_alpha 139.856610
_cell_angle_beta 63.116577
_cell_angle_gamma 121.088240
_cell_volume 505.819663
_symmetry_space_group_name_H-M "P -1"
_symmetry_group_IT_number 2
_symmetry_cell_setting 'triclinic'
loop_
_space_group_symop_operation_xyz
x,y,z
-x,-y,-z
loop_
_atom_site_type_symbol
_atom_site_label
_atom_site_fract_x
_atom_site_fract_y
_atom_site_fract_z
Si Si1 0.202272 0.630122 0.630947
Si Si2 0.216241 0.097811 0.462884
Si Si3 0.931702 0.182798 0.809568
Si Si4 0.459162 0.875537 0.247756
Si Si5 0.359515 0.351612 0.725007
Si Si6 0.644088 0.109649 0.109437
Si Si7 0.051154 0.266599 0.294101
O O1 0.200216 0.375787 0.590947
O O2 0.304836 0.817904 0.687294
O O3 0.154030 0.465259 0.365771
O O4 0.140582 0.812242 0.934595
O O5 0.256475 0.177996 0.688299
O O6 0.125831 0.850651 0.340744
O O7 0.288916 0.997498 0.182500
O O8 0.963269 0.907541 0.625418
O O9 0.000000 0.500000 0.000000
O O10 0.413313 0.122773 0.439716
O O11 0.548254 0.880649 0.040543
O O12 0.500000 0.000000 0.500000
O O13 0.393013 0.549148 0.030454
O O14 0.370263 0.598143 0.740672
O O15 0.000000 0.500000 0.500000
O O16 0.000000 0.000000 0.000000
#
# Coordination Sequence:
#
# PCOD9011924 Si02
#       7
#     2   2   2   2   2   2   2
#     4   9  20  38  66  90 127 165 221 266 318 387
#     4   9  20  37  67  97 121 168 225 279 315 382
#     4  10  21  40  67  99 132 169 221 283 331 377
#     4  12  26  40  63  96 134 167 206 272 336 386
#     4  11  22  42  66  93 125 169 223 263 316 398
#     4  10  21  40  69  92 121 171 227 263 313 391
#     4  11  21  39  63  92 129 173 214 260 324 401
#
# _framework density 27.677847
#
# number of rings (size 3 to 8) (size 9 to 14) (size 15 to 20)
#    0.000    1.714    2.857    1.286    4.000    2.286 
#    0.000    1.429    9.429    0.000    0.000    0.000 
#    0.000    0.000    0.000    0.000    0.000    0.000 
#
# Total GULP energy -78273.387484 kJ/mol
# GULP energy per Si atom -5590.956249 kJ/mol
# Density = 2.761485 g / cm^3
# Si number density = 27.677847 Si / 1000 Ang^3
#
#
#
# Elastic Constant Matrix: (Units=GPa)
#
#
# Indices 1 2 3 4 5 6 
#
# 1 225.1579 32.0621 72.6392 20.8871 49.7113 6.6647
# 2 32.0621 42.3504 25.5078 6.8570 4.8162 -3.3836
# 3 72.6392 25.5078 138.1575 37.4726 36.2337 10.9092
# 4 20.8871 6.8570 37.4726 40.7023 0.7819 5.1627
# 5 49.7113 4.8162 36.2337 0.7819 79.0853 19.4244
# 6 6.6647 -3.3836 10.9092 5.1627 19.4244 47.0142
#
#
#
# Elastic Compliance Matrix: (Units=1/GPa)
#
#
# Indices 1 2 3 4 5 6 
#
# 1 0.006177 -0.003119 -0.001574 -0.001223 -0.003130 0.000692
# 2 -0.003119 0.028596 -0.004379 0.000425 0.001524 0.002840
# 3 -0.001574 -0.004379 0.012813 -0.010153 -0.004491 -0.000095
# 4 -0.001223 0.000425 -0.010153 0.034830 0.005966 -0.003730
# 5 -0.003130 0.001524 -0.004491 0.005966 0.018126 -0.006549
# 6 0.000692 0.002840 -0.000095 -0.003730 -0.006549 0.024514
#
#
# Mechanical properties :
#
#
# Convention : Reuss Voigt Hill
#
# Bulk Modulus (GPa) = 33.96464 74.00934 53.98699
# Shear Modulus (GPa) = 32.67651 51.72412 42.20031
#
# Velocity S-wave (km/s) = 3.43972 4.32764 3.90897
# Velocity P-wave (km/s) = 5.29845 7.19506 6.31833
#
# Compressibility (1/GPa) = 0.02944238
#
# Stress axis : x y z
#
# Youngs Moduli (GPa) = 161.88327 34.96962 78.04498
#
# Poissons Ratio (x) = 0.10908 0.12285
# Poissons Ratio (y) = 0.50496 0.34174
# Poissons Ratio (z) = 0.25481 0.15312
#
# Static dielectric constant tensor:
#      x y z
#    x 2.211120 0.059210 0.043190 
#    y 0.059210 2.319660 -0.126740 
#    z 0.043190 -0.126740 2.330170 
# 
# From -- ./inp_files/326847.got.cif
#   From: 2010.05.17/outbox.cif.g08.bks.cpg/sg2_164_cif.got.tgz:326847.got - 2010.06.03 11:33:40.
