data_PCOD9011061
_publ_section_title
;
Structure prediction by ZEFSAII (Michael W. Deem and Ramdas Pophale) SiO2 
 PCOD9011061
Probable space group: P -1
;
_chemical_formula_sum "Si O2"
_cell_formula_units_Z 16
_cell_length_a 14.839642
_cell_length_b 8.829489
_cell_length_c 20.756893
_cell_angle_alpha 131.800289
_cell_angle_beta 160.882358
_cell_angle_gamma 51.703402
_cell_volume 663.450210
_symmetry_space_group_name_H-M "P -1"
_symmetry_group_IT_number 2
_symmetry_cell_setting 'triclinic'
loop_
_space_group_symop_operation_xyz
x,y,z
-x,-y,-z
loop_
_atom_site_type_symbol
_atom_site_label
_atom_site_fract_x
_atom_site_fract_y
_atom_site_fract_z
Si Si1 0.311258 0.861959 0.477780
Si Si2 0.233788 0.232301 0.749998
Si Si3 0.793895 0.349735 0.780364
Si Si4 0.620276 0.481452 0.182427
Si Si5 0.133711 0.941745 0.153286
Si Si6 0.793409 0.087361 0.251703
Si Si7 0.283109 0.572175 0.482811
Si Si8 0.892515 0.319244 0.054515
O O1 0.199151 0.690952 0.302522
O O2 0.418385 0.753796 0.583770
O O3 0.571834 0.975237 0.652155
O O4 0.053092 0.990202 0.363194
O O5 0.279931 0.311288 0.729978
O O6 0.952452 0.338507 0.608235
O O7 0.207832 0.005422 0.701392
O O8 0.477144 0.342413 0.989234
O O9 0.833314 0.126529 0.771705
O O10 0.498988 0.434667 0.623251
O O11 0.000000 0.500000 0.000000
O O12 0.793944 0.326061 0.299003
O O13 0.378642 0.557917 0.086239
O O14 0.059296 0.746172 0.003896
O O15 0.896858 0.100157 0.030411
O O16 0.500000 0.000000 0.000000
O O17 0.130166 0.433419 0.287011
#
# Coordination Sequence:
#
# PCOD9011061 Si02
#       8
#     2   2   2   2   2   2   2   2
#     4  11  23  41  67  90 128 169 206 261 321 373
#     4   8  17  32  58  93 116 157 206 261 304 378
#     4  12  26  39  62  97 127 164 214 262 314 379
#     4   9  17  34  63  87 121 161 209 253 315 368
#     4  11  25  40  62  95 130 159 216 262 313 377
#     4   9  19  35  60  92 121 162 213 256 311 375
#     4  10  21  40  65  89 127 164 207 255 325 378
#     4  10  22  41  65  90 127 169 206 258 321 379
#
# _framework density 24.116356
#
# number of rings (size 3 to 8) (size 9 to 14) (size 15 to 20)
#    0.000    2.000    1.250    2.250    5.250    3.000 
#    0.000    0.625    2.750    1.500    0.000    0.000 
#    0.000    0.000    0.000    0.000    0.000    0.000 
#
# Total GULP energy -89261.461068 kJ/mol
# GULP energy per Si atom -5578.841317 kJ/mol
# Density = 2.406147 g / cm^3
# Si number density = 24.116356 Si / 1000 Ang^3
#
#
#
# Elastic Constant Matrix: (Units=GPa)
#
#
# Indices 1 2 3 4 5 6 
#
# 1 18.0516 14.9125 20.1993 -3.4824 -5.4423 31.9087
# 2 14.9125 117.7332 39.2173 -18.6571 -4.8864 22.2930
# 3 20.1993 39.2173 50.9392 9.7455 5.5053 -26.8907
# 4 -3.4824 -18.6571 9.7455 44.8194 7.8680 -4.8788
# 5 -5.4423 -4.8864 5.5053 7.8680 20.0876 -0.4576
# 6 31.9087 22.2930 -26.8907 -4.8788 -0.4576 23.5954
#
#
#
# Elastic Compliance Matrix: (Units=1/GPa)
#
#
# Indices 1 2 3 4 5 6 
#
# 1 0.007642 -0.011731 0.017947 -0.005468 -0.003104 0.020011
# 2 -0.011731 0.010916 -0.002672 0.004877 -0.001622 0.003482
# 3 0.017947 -0.002672 0.007700 -0.003424 0.003133 -0.013618
# 4 -0.005468 0.004877 -0.003424 0.026839 -0.009772 0.004244
# 5 -0.003104 -0.001622 0.003133 -0.009772 0.051704 0.008282
# 6 0.020011 0.003482 -0.013618 0.004244 0.008282 -0.002452
#
#
# Mechanical properties :
#
#
# Convention : Reuss Voigt Hill
#
# Bulk Modulus (GPa) = 29.98922 37.26469 33.62696
# Shear Modulus (GPa) = 47.00312 25.19346 36.09829
#
# Velocity S-wave (km/s) = 4.41955 3.23563 3.87310
# Velocity P-wave (km/s) = 6.20528 5.42629 5.82881
#
# Compressibility (1/GPa) = 0.03334531
#
# Stress axis : x y z
#
# Youngs Moduli (GPa) = 130.86183 91.60878 129.87570
#
# Poissons Ratio (x) = 1.07463 -2.33085
# Poissons Ratio (y) = 1.53510 0.34704
# Poissons Ratio (z) = -2.34855 0.24479
#
# Static dielectric constant tensor:
#      x y z
#    x 1.804110 -0.086120 -0.036580 
#    y -0.086120 1.702190 0.021210 
#    z -0.036580 0.021210 1.931990 
# 
# From -- ./inp_files/318124.got.cif
#   From: 2010.05.17/outbox.cif.g08.bks.cpg/sg2_160_cif.got.tgz:318124.got - 2010.06.03 11:33:40.
