data_PCOD9011297
_publ_section_title
;
Structure prediction by ZEFSAII (Michael W. Deem and Ramdas Pophale) SiO2 
 PCOD9011297
Probable space group: P -1
;
_chemical_formula_sum "Si O2"
_cell_formula_units_Z 16
_cell_length_a 16.702732
_cell_length_b 13.589389
_cell_length_c 8.499647
_cell_angle_alpha 88.041638
_cell_angle_beta 74.371204
_cell_angle_gamma 23.525402
_cell_volume 617.544595
_symmetry_space_group_name_H-M "P -1"
_symmetry_group_IT_number 2
_symmetry_cell_setting 'triclinic'
loop_
_space_group_symop_operation_xyz
x,y,z
-x,-y,-z
loop_
_atom_site_type_symbol
_atom_site_label
_atom_site_fract_x
_atom_site_fract_y
_atom_site_fract_z
Si Si1 0.224136 0.809904 0.566332
Si Si2 0.084854 0.037737 0.291293
Si Si3 0.010776 0.620913 0.376382
Si Si4 0.227621 0.125264 0.805751
Si Si5 0.524011 0.086618 0.026448
Si Si6 0.465199 0.240428 0.722326
Si Si7 0.947388 0.901932 0.038689
Si Si8 0.770446 0.585907 0.428570
O O1 0.500000 0.500000 0.500000
O O2 0.224150 0.864208 0.393073
O O3 0.072939 0.019460 0.788317
O O4 0.129488 0.805165 0.588224
O O5 0.970779 0.274528 0.341236
O O6 0.188935 0.910099 0.062629
O O7 0.244914 0.428441 0.216864
O O8 0.121090 0.459470 0.495304
O O9 0.955160 0.625953 0.242701
O O10 0.728888 0.978100 0.521503
O O11 0.249379 0.145083 0.965613
O O12 0.510010 0.832819 0.617876
O O13 0.156515 0.090984 0.868789
O O14 0.557192 0.106990 0.849661
O O15 0.500000 0.000000 0.000000
O O16 0.329193 0.296733 0.705575
O O17 0.238134 0.569363 0.848300
#
# Coordination Sequence:
#
# PCOD9011297 Si02
#       8
#     2   2   2   2   2   2   2   2
#     4  11  24  43  61  94 138 173 218 276 340 384
#     4  10  23  39  62  94 132 172 218 278 328 394
#     4  10  21  42  65  94 131 170 219 276 325 392
#     4  10  21  40  65  97 125 171 219 273 328 391
#     4  11  25  43  66  98 135 171 214 275 340 400
#     4  10  23  40  66  97 126 172 227 268 328 403
#     4  11  22  43  68  96 131 177 231 272 330 400
#     4   9  20  40  66  94 127 168 227 270 321 386
#
# _framework density 25.909058999999999
#
# number of rings (size 3 to 8) (size 9 to 14) (size 15 to 20)
#    0.000    1.750    1.250    1.875    5.250    3.500 
#    0.000    5.625    0.000    0.000    0.000    0.000 
#    0.000    0.000    0.000    0.000    0.000    0.000 
#
# Total GULP energy -89130.102973 kJ/mol
# GULP energy per Si atom -5570.631436 kJ/mol
# Density = 2.585009 g / cm^3
# Si number density = 25.909059 Si / 1000 Ang^3
#
#
#
# Elastic Constant Matrix: (Units=GPa)
#
#
# Indices 1 2 3 4 5 6 
#
# 1 79.3514 61.5396 7.2550 -11.6050 13.6868 -39.6885
# 2 61.5396 144.0676 63.0746 -32.1443 7.0732 -47.9477
# 3 7.2550 63.0746 111.9013 -15.7941 -2.2972 -7.7103
# 4 -11.6050 -32.1443 -15.7941 65.4537 -10.0430 0.5672
# 5 13.6868 7.0732 -2.2972 -10.0430 29.3933 -14.0863
# 6 -39.6885 -47.9477 -7.7103 0.5672 -14.0863 52.9278
#
#
#
# Elastic Compliance Matrix: (Units=1/GPa)
#
#
# Indices 1 2 3 4 5 6 
#
# 1 0.024840 -0.008609 0.003924 0.000403 -0.004114 0.010300
# 2 -0.008609 0.019365 -0.008462 0.006847 0.006550 0.011525
# 3 0.003924 -0.008462 0.013211 -0.000282 -0.000223 -0.002855
# 4 0.000403 0.006847 -0.000282 0.019969 0.009125 0.008678
# 5 -0.004114 0.006550 -0.000223 0.009125 0.044431 0.014543
# 6 0.010300 0.011525 -0.002855 0.008678 0.014543 0.040419
#
#
# Mechanical properties :
#
#
# Convention : Reuss Voigt Hill
#
# Bulk Modulus (GPa) = 32.13160 66.56208 49.34684
# Shear Modulus (GPa) = 25.13796 43.11836 34.12816
#
# Velocity S-wave (km/s) = 3.11824 4.08391 3.63330
# Velocity P-wave (km/s) = 5.03917 6.92706 6.05712
#
# Compressibility (1/GPa) = 0.03112201
#
# Stress axis : x y z
#
# Youngs Moduli (GPa) = 40.25754 51.63949 75.69564
#
# Poissons Ratio (x) = 0.44455 -0.29703
# Poissons Ratio (y) = 0.34656 0.64056
# Poissons Ratio (z) = -0.15797 0.43699
#
# Static dielectric constant tensor:
#      x y z
#    x 2.048770 -0.047300 0.185410 
#    y -0.047300 2.005920 -0.038260 
#    z 0.185410 -0.038260 2.291760 
# 
# From -- ./inp_files/335349.got.cif
#   From: 2010.05.17/outbox.cif.g08.bks.cpg/sg2_168_cif.got.tgz:335349.got - 2010.06.03 11:33:40.
