data_PCOD9011550
_publ_section_title
;
Structure prediction by ZEFSAII (Michael W. Deem and Ramdas Pophale) SiO2 
 PCOD9011550
Probable space group: P -1
;
_chemical_formula_sum "Si O2"
_cell_formula_units_Z 14
_cell_length_a 7.780113
_cell_length_b 9.391389
_cell_length_c 20.769344
_cell_angle_alpha 139.741548
_cell_angle_beta 35.325741
_cell_angle_gamma 129.535628
_cell_volume 566.662260
_symmetry_space_group_name_H-M "P -1"
_symmetry_group_IT_number 2
_symmetry_cell_setting 'triclinic'
loop_
_space_group_symop_operation_xyz
x,y,z
-x,-y,-z
loop_
_atom_site_type_symbol
_atom_site_label
_atom_site_fract_x
_atom_site_fract_y
_atom_site_fract_z
Si Si1 0.781965 0.382179 0.903520
Si Si2 0.297108 0.366578 0.369586
Si Si3 0.446362 0.005232 0.914601
Si Si4 0.736930 0.706863 0.501522
Si Si5 0.339595 0.228306 0.638699
Si Si6 0.598237 0.192968 0.683934
Si Si7 0.861461 0.840015 0.071248
O O1 0.983166 0.229566 0.745336
O O2 0.655369 0.217380 0.939512
O O3 0.500000 0.500000 0.000000
O O4 0.974794 0.597676 0.937224
O O5 0.366167 0.206414 0.233817
O O6 0.262545 0.239405 0.403584
O O7 0.546215 0.563609 0.365934
O O8 0.000000 0.500000 0.500000
O O9 0.296404 0.058871 0.908612
O O10 0.165308 0.980429 0.038924
O O11 0.500000 0.500000 0.500000
O O12 0.080091 0.679233 0.365980
O O13 0.648883 0.930092 0.569863
O O14 0.434086 0.276330 0.700039
O O15 0.500000 0.000000 0.500000
O O16 0.377755 0.198921 0.813523
#
# Coordination Sequence:
#
# PCOD9011550 Si02
#       7
#     2   2   2   2   2   2   2
#     4  10  23  40  68 101 132 182 235 287 345 419
#     4  12  22  42  70  98 138 182 234 291 349 419
#     4  10  21  40  66  95 129 178 228 282 340 414
#     4  11  25  43  67 102 141 190 235 291 358 419
#     4  12  25  44  70 105 142 185 239 293 357 423
#     4  11  25  44  67  99 145 184 232 297 352 420
#     4  10  21  42  66  93 134 179 229 278 348 414
#
# _framework density 24.706071999999999
#
# number of rings (size 3 to 8) (size 9 to 14) (size 15 to 20)
#    0.000    1.143    4.286    1.714    0.000    5.143 
#    0.000    0.714    0.000    0.000    0.000    0.000 
#    0.000    0.000    0.000    0.000    0.000    0.000 
#
# Total GULP energy -78185.199858 kJ/mol
# GULP energy per Si atom -5584.657133 kJ/mol
# Density = 2.464984 g / cm^3
# Si number density = 24.706072 Si / 1000 Ang^3
#
#
#
# Elastic Constant Matrix: (Units=GPa)
#
#
# Indices 1 2 3 4 5 6 
#
# 1 43.4840 10.2143 19.5441 -7.6138 -10.3408 -22.0718
# 2 10.2143 132.3545 40.2170 -22.4745 -15.5664 5.9520
# 3 19.5441 40.2170 150.5548 -11.4028 -26.1389 0.0068
# 4 -7.6138 -22.4745 -11.4028 58.5130 -3.7073 -0.0793
# 5 -10.3408 -15.5664 -26.1389 -3.7073 27.2145 -5.3753
# 6 -22.0718 5.9520 0.0068 -0.0793 -5.3753 43.2626
#
#
#
# Elastic Compliance Matrix: (Units=1/GPa)
#
#
# Indices 1 2 3 4 5 6 
#
# 1 0.041557 -0.000477 -0.001368 0.006240 0.019741 0.023732
# 2 -0.000477 0.009112 -0.001434 0.003405 0.003919 -0.001004
# 3 -0.001368 -0.001434 0.008547 0.001389 0.007134 0.000387
# 4 0.006240 0.003405 0.001389 0.020066 0.009155 0.003889
# 5 0.019741 0.003919 0.007134 0.009155 0.057894 0.016741
# 6 0.023732 -0.001004 0.000387 0.003889 0.016741 0.037447
#
#
# Mechanical properties :
#
#
# Convention : Reuss Voigt Hill
#
# Bulk Modulus (GPa) = 18.99062 51.81603 35.40332
# Shear Modulus (GPa) = 25.15915 42.89254 34.02584
#
# Velocity S-wave (km/s) = 3.19460 4.17119 3.71513
# Velocity P-wave (km/s) = 4.61634 6.64958 5.72397
#
# Compressibility (1/GPa) = 0.05265757
#
# Stress axis : x y z
#
# Youngs Moduli (GPa) = 24.06331 109.74161 117.00572
#
# Poissons Ratio (x) = 0.05236 0.16010
# Poissons Ratio (y) = 0.01148 0.16776
# Poissons Ratio (z) = 0.03293 0.15734
#
# Static dielectric constant tensor:
#      x y z
#    x 2.053780 0.034320 0.018630 
#    y 0.034320 2.029910 -0.014020 
#    z 0.018630 -0.014020 2.023450 
# 
# From -- ./inp_files/184733.got.cif
#   From: 2010.05.17/outbox.cif.g08.bks.cpg/sg2_93_cif.got.tgz:184733.got - 2010.06.03 11:33:40.
