data_PCOD9011585
_publ_section_title
;
Structure prediction by ZEFSAII (Michael W. Deem and Ramdas Pophale) SiO2 
 PCOD9011585
Probable space group: P -1
;
_chemical_formula_sum "Si O2"
_cell_formula_units_Z 16
_cell_length_a 26.322790
_cell_length_b 9.622611
_cell_length_c 8.387076
_cell_angle_alpha 106.366217
_cell_angle_beta 42.652044
_cell_angle_gamma 138.974064
_cell_volume 745.723012
_symmetry_space_group_name_H-M "P -1"
_symmetry_group_IT_number 2
_symmetry_cell_setting 'triclinic'
loop_
_space_group_symop_operation_xyz
x,y,z
-x,-y,-z
loop_
_atom_site_type_symbol
_atom_site_label
_atom_site_fract_x
_atom_site_fract_y
_atom_site_fract_z
Si Si1 0.740451 0.491048 0.369511
Si Si2 0.861667 0.124609 0.049302
Si Si3 0.438514 0.016000 0.018896
Si Si4 0.854598 0.847957 0.752333
Si Si5 0.903400 0.521734 0.109532
Si Si6 0.145627 0.062870 0.574568
Si Si7 0.353570 0.201711 0.299443
Si Si8 0.346000 0.708329 0.829050
O O1 0.775996 0.423366 0.393046
O O2 0.834339 0.782494 0.284897
O O3 0.743300 0.420240 0.167385
O O4 0.585295 0.298833 0.688421
O O5 0.863287 0.298443 0.070852
O O6 0.720344 0.863079 0.389506
O O7 0.995178 0.320429 0.920927
O O8 0.870948 0.032934 0.851241
O O9 0.342971 0.792831 0.028012
O O10 0.500000 0.000000 0.000000
O O11 0.368219 0.053071 0.241377
O O12 0.831957 0.825357 0.609040
O O13 0.718544 0.550232 0.046939
O O14 0.000000 0.000000 0.500000
O O15 0.994530 0.752186 0.842196
O O16 0.247136 0.091621 0.378082
O O17 0.500000 0.500000 0.000000
O O18 0.500000 0.000000 0.500000
#
# Coordination Sequence:
#
# PCOD9011585 Si02
#       8
#     2   2   2   2   2   2   2   2
#     4  11  20  40  65  93 132 176 227 281 338 405
#     4  10  24  42  66  96 136 179 226 284 343 414
#     4  11  23  40  67  95 135 176 231 280 340 412
#     4  12  25  43  69 103 140 177 235 291 347 412
#     4  10  21  40  66  96 130 177 230 275 349 409
#     4  11  23  39  68  98 134 181 226 283 349 407
#     4  11  23  43  67  94 136 183 223 278 341 410
#     4  10  24  40  64  97 130 175 225 285 338 405
#
# _framework density 21.455687000000001
#
# number of rings (size 3 to 8) (size 9 to 14) (size 15 to 20)
#    0.000    1.250    1.250    4.875    1.750    4.500 
#    0.000    1.875    0.000    0.000    0.000    0.000 
#    0.000    0.000    0.000    0.000    0.000    0.000 
#
# Total GULP energy -89141.918700 kJ/mol
# GULP energy per Si atom -5571.369919 kJ/mol
# Density = 2.140685 g / cm^3
# Si number density = 21.455687 Si / 1000 Ang^3
#
#
#
# Elastic Constant Matrix: (Units=GPa)
#
#
# Indices 1 2 3 4 5 6 
#
# 1 109.5747 41.2431 34.5128 7.2404 -11.9776 -9.1562
# 2 41.2431 135.7665 43.5571 3.2874 -1.6270 -9.8027
# 3 34.5128 43.5571 67.1327 -4.5705 -15.9207 5.1645
# 4 7.2404 3.2874 -4.5705 42.0728 -10.1681 3.3260
# 5 -11.9776 -1.6270 -15.9207 -10.1681 35.8484 4.2610
# 6 -9.1562 -9.8027 5.1645 3.3260 4.2610 34.5344
#
#
#
# Elastic Compliance Matrix: (Units=1/GPa)
#
#
# Indices 1 2 3 4 5 6 
#
# 1 0.011991 -0.001480 -0.005653 -0.002826 0.000169 0.003856
# 2 -0.001480 0.010717 -0.007937 -0.003016 -0.004952 0.004738
# 3 -0.005653 -0.007937 0.027602 0.008731 0.013724 -0.010414
# 4 -0.002826 -0.003016 0.008731 0.028864 0.011834 -0.007151
# 5 0.000169 -0.004952 0.013724 0.011834 0.038281 -0.009276
# 6 0.003856 0.004738 -0.010414 -0.007151 -0.009276 0.034715
#
#
# Mechanical properties :
#
#
# Convention : Reuss Voigt Hill
#
# Bulk Modulus (GPa) = 49.57876 61.23332 55.40604
# Shear Modulus (GPa) = 26.45021 35.36851 30.90936
#
# Velocity S-wave (km/s) = 3.51491 4.06451 3.79966
# Velocity P-wave (km/s) = 6.29527 7.11536 6.71784
#
# Compressibility (1/GPa) = 0.02016993
#
# Stress axis : x y z
#
# Youngs Moduli (GPa) = 83.39338 93.30670 36.22913
#
# Poissons Ratio (x) = 0.13810 0.20482
# Poissons Ratio (y) = 0.12343 0.28755
# Poissons Ratio (z) = 0.47146 0.74056
#
# Static dielectric constant tensor:
#      x y z
#    x 1.807830 -0.013970 -0.023540 
#    y -0.013970 1.760240 -0.038200 
#    z -0.023540 -0.038200 2.095360 
# 
# From -- ./inp_files/262557.got.cif
#   From: 2010.05.17/outbox.cif.g08.bks.cpg/sg2_132_cif.got.tgz:262557.got - 2010.06.03 11:33:40.
