data_PCOD9011330
_publ_section_title
;
Structure prediction by ZEFSAII (Michael W. Deem and Ramdas Pophale) SiO2 
 PCOD9011330
Probable space group: P -1
;
_chemical_formula_sum "Si O2"
_cell_formula_units_Z 16
_cell_length_a 9.633961
_cell_length_b 13.497097
_cell_length_c 7.292798
_cell_angle_alpha 48.405093
_cell_angle_beta 85.488161
_cell_angle_gamma 75.450414
_cell_volume 681.335668
_symmetry_space_group_name_H-M "P -1"
_symmetry_group_IT_number 2
_symmetry_cell_setting 'triclinic'
loop_
_space_group_symop_operation_xyz
x,y,z
-x,-y,-z
loop_
_atom_site_type_symbol
_atom_site_label
_atom_site_fract_x
_atom_site_fract_y
_atom_site_fract_z
Si Si1 0.635181 0.188249 0.626248
Si Si2 0.348110 0.382635 0.046152
Si Si3 0.582909 0.916492 0.428229
Si Si4 0.174802 0.942070 0.884681
Si Si5 0.581414 0.507704 0.727399
Si Si6 0.072237 0.793610 0.501933
Si Si7 0.952588 0.618700 0.010216
Si Si8 0.139776 0.654469 0.273430
O O1 0.535693 0.089576 0.704771
O O2 0.527713 0.340828 0.480916
O O3 0.764728 0.204964 0.457507
O O4 0.736317 0.115227 0.869766
O O5 0.369014 0.240313 0.322979
O O6 0.337446 0.486939 0.091588
O O7 0.211676 0.383492 0.936229
O O8 0.483469 0.402648 0.895004
O O9 0.500000 0.000000 0.500000
O O10 0.714750 0.980138 0.304892
O O11 0.023225 0.058258 0.741647
O O12 0.149865 0.798025 0.000713
O O13 0.703304 0.452144 0.632579
O O14 0.986421 0.743765 0.736468
O O15 0.091628 0.693934 0.440551
O O16 0.000000 0.500000 0.000000
O O17 0.032272 0.603001 0.215136
#
# Coordination Sequence:
#
# PCOD9011330 Si02
#       8
#     2   2   2   2   2   2   2   2
#     4  10  23  42  69  93 136 181 218 290 339 388
#     4  10  21  40  65  98 135 171 219 292 333 396
#     4  11  23  39  66  99 131 176 228 273 336 408
#     4  11  24  46  64  98 141 178 228 280 335 408
#     4  10  21  42  70  98 132 174 231 282 342 404
#     4  11  26  46  67 101 143 179 228 285 335 415
#     4  12  24  44  70 100 135 180 226 283 347 399
#     4  11  25  43  72 100 135 184 229 279 349 413
#
# _framework density 23.483286
#
# number of rings (size 3 to 8) (size 9 to 14) (size 15 to 20)
#    0.000    1.250    2.500    3.375    5.250    5.000 
#    0.000    3.750    0.000    0.000    0.000    0.000 
#    0.000    0.000    0.000    0.000    0.000    0.000 
#
# Total GULP energy -89276.875131 kJ/mol
# GULP energy per Si atom -5579.804696 kJ/mol
# Density = 2.342984 g / cm^3
# Si number density = 23.483286 Si / 1000 Ang^3
#
#
#
# Elastic Constant Matrix: (Units=GPa)
#
#
# Indices 1 2 3 4 5 6 
#
# 1 162.5086 51.3424 27.9125 -0.8343 -0.1408 5.1409
# 2 51.3424 40.9163 9.1355 9.2660 -0.5906 11.3480
# 3 27.9125 9.1355 96.3409 -8.9384 -12.7545 -13.2467
# 4 -0.8343 9.2660 -8.9384 29.1734 0.0242 4.1820
# 5 -0.1408 -0.5906 -12.7545 0.0242 34.0388 -5.4056
# 6 5.1409 11.3480 -13.2467 4.1820 -5.4056 37.0852
#
#
#
# Elastic Compliance Matrix: (Units=1/GPa)
#
#
# Indices 1 2 3 4 5 6 
#
# 1 0.011165 -0.015428 -0.001077 0.004570 -0.000274 0.002233
# 2 -0.015428 0.052317 -0.004332 -0.016375 -0.002992 -0.014007
# 3 -0.001077 -0.004332 0.013197 0.004445 0.005902 0.006548
# 4 0.004570 -0.016375 0.004445 0.040740 0.001627 0.001608
# 5 -0.000274 -0.002992 0.005902 0.001627 0.032751 0.007652
# 6 0.002233 -0.014007 0.006548 0.001608 0.007652 0.034215
#
#
# Mechanical properties :
#
#
# Convention : Reuss Voigt Hill
#
# Bulk Modulus (GPa) = 28.56834 52.94963 40.75898
# Shear Modulus (GPa) = 21.03243 34.15116 27.59179
#
# Velocity S-wave (km/s) = 2.99596 3.81763 3.43148
# Velocity P-wave (km/s) = 4.91523 6.48299 5.75277
#
# Compressibility (1/GPa) = 0.03500378
#
# Stress axis : x y z
#
# Youngs Moduli (GPa) = 89.56180 19.11415 75.77599
#
# Poissons Ratio (x) = 0.29490 0.08162
# Poissons Ratio (y) = 1.38179 0.32829
# Poissons Ratio (z) = 0.09647 0.08281
#
# Static dielectric constant tensor:
#      x y z
#    x 3.115460 0.167110 -0.390010 
#    y 0.167110 1.936010 -0.026300 
#    z -0.390010 -0.026300 2.093090 
# 
# From -- ./inp_files/205226.got.cif
#   From: 2010.05.17/outbox.cif.g08.bks.cpg/sg2_103_cif.got.tgz:205226.got - 2010.06.03 11:33:40.
