data_PCOD9012802
_publ_section_title
;
Structure prediction by ZEFSAII (Michael W. Deem and Ramdas Pophale) SiO2 
 PCOD9012802
Probable space group: P -1
;
_chemical_formula_sum "Si O2"
_cell_formula_units_Z 16
_cell_length_a 5.493746
_cell_length_b 27.055142
_cell_length_c 5.541527
_cell_angle_alpha 72.751718
_cell_angle_beta 58.074388
_cell_angle_gamma 95.370641
_cell_volume 634.976280
_symmetry_space_group_name_H-M "P -1"
_symmetry_group_IT_number 2
_symmetry_cell_setting 'triclinic'
loop_
_space_group_symop_operation_xyz
x,y,z
-x,-y,-z
loop_
_atom_site_type_symbol
_atom_site_label
_atom_site_fract_x
_atom_site_fract_y
_atom_site_fract_z
Si Si1 0.949957 0.040366 0.662874
Si Si2 0.017634 0.295510 0.042516
Si Si3 0.415899 0.068268 0.752591
Si Si4 0.668671 0.193292 0.111930
Si Si5 0.825345 0.600462 0.469599
Si Si6 0.910234 0.434951 0.117016
Si Si7 0.193368 0.164839 0.760635
Si Si8 0.435512 0.728518 0.313898
O O1 0.762797 0.078048 0.608771
O O2 0.270183 0.069111 0.568198
O O3 0.000000 0.000000 0.500000
O O4 0.733988 0.996411 0.022659
O O5 0.044049 0.334490 0.742920
O O6 0.361093 0.298651 0.912583
O O7 0.836683 0.231968 0.187595
O O8 0.813548 0.311114 0.329051
O O9 0.310665 0.115766 0.868567
O O10 0.714625 0.234860 0.811599
O O11 0.839459 0.150856 0.010052
O O12 0.324961 0.174580 0.406752
O O13 0.458734 0.585844 0.681611
O O14 0.955879 0.583831 0.675979
O O15 0.936867 0.577088 0.198319
O O16 0.000000 0.500000 0.000000
O O17 0.325595 0.224444 0.722892
#
# Coordination Sequence:
#
# PCOD9012802 Si02
#       8
#     2   2   2   2   2   2   2   2
#     4  10  22  41  62  86 122 160 202 272 324 375
#     4  10  23  38  62  94 129 171 225 277 329 409
#     4  10  23  39  61  92 119 157 216 256 324 399
#     4  10  22  40  61  88 129 164 211 269 332 387
#     4  12  26  44  75 109 140 197 244 293 368 428
#     4  12  26  49  73 108 150 191 244 306 361 427
#     4  10  23  38  60  94 118 166 212 259 328 404
#     4  10  21  41  61  88 131 166 213 275 335 389
#
# _framework density 25.197790999999999
#
# number of rings (size 3 to 8) (size 9 to 14) (size 15 to 20)
#    0.000    1.500    0.000    3.750    7.000    1.000 
#    0.000    0.000    0.000    0.000    0.000    0.000 
#    0.000    0.000    0.000    0.000    0.000    0.000 
#
# Total GULP energy -89193.327736 kJ/mol
# GULP energy per Si atom -5574.582983 kJ/mol
# Density = 2.514044 g / cm^3
# Si number density = 25.197791 Si / 1000 Ang^3
#
#
#
# Elastic Constant Matrix: (Units=GPa)
#
#
# Indices 1 2 3 4 5 6 
#
# 1 180.4275 36.3879 83.8571 11.3968 -11.9337 -26.6503
# 2 36.3879 82.4944 33.0990 4.9847 -6.8162 -13.3060
# 3 83.8571 33.0990 130.5045 11.4557 -25.4419 -2.2189
# 4 11.3968 4.9847 11.4557 47.6580 -11.4952 0.1346
# 5 -11.9337 -6.8162 -25.4419 -11.4952 43.8721 0.8492
# 6 -26.6503 -13.3060 -2.2189 0.1346 0.8492 38.0697
#
#
#
# Elastic Compliance Matrix: (Units=1/GPa)
#
#
# Indices 1 2 3 4 5 6 
#
# 1 0.009259 -0.000855 -0.005807 -0.001078 -0.001378 0.005879
# 2 -0.000855 0.014421 -0.002975 -0.000590 0.000046 0.004270
# 3 -0.005807 -0.002975 0.013185 -0.000090 0.005667 -0.004462
# 4 -0.001078 -0.000590 -0.000090 0.022659 0.005523 -0.001169
# 5 -0.001378 0.000046 0.005667 0.005523 0.027183 -0.001244
# 6 0.005879 0.004270 -0.004462 -0.001169 -0.001244 0.031647
#
#
# Mechanical properties :
#
#
# Convention : Reuss Voigt Hill
#
# Bulk Modulus (GPa) = 56.84389 77.79049 67.31719
# Shear Modulus (GPa) = 34.84533 41.92545 38.38539
#
# Velocity S-wave (km/s) = 3.72273 4.08346 3.90726
# Velocity P-wave (km/s) = 6.40987 7.29190 6.86506
#
# Compressibility (1/GPa) = 0.01759204
#
# Stress axis : x y z
#
# Youngs Moduli (GPa) = 108.00530 69.34436 75.84341
#
# Poissons Ratio (x) = 0.05927 0.44039
# Poissons Ratio (y) = 0.09231 0.22563
# Poissons Ratio (z) = 0.62714 0.20630
#
# Static dielectric constant tensor:
#      x y z
#    x 2.007300 -0.095280 0.173730 
#    y -0.095280 1.991890 0.165650 
#    z 0.173730 0.165650 1.748870 
# 
# From -- ./inp_files/14474.got.cif
#   From: 2010.05.17/outbox.cif.g08.bks.cpg/sg2_8_cif.got.tgz:14474.got - 2010.06.03 11:33:40.
