data_PCOD9012739
_publ_section_title
;
Structure prediction by ZEFSAII (Michael W. Deem and Ramdas Pophale) SiO2 
 PCOD9012739
Probable space group: P -1
;
_chemical_formula_sum "Si O2"
_cell_formula_units_Z 14
_cell_length_a 9.899743
_cell_length_b 17.271392
_cell_length_c 8.523571
_cell_angle_alpha 132.170899
_cell_angle_beta 134.691983
_cell_angle_gamma 31.480985
_cell_volume 530.892788
_symmetry_space_group_name_H-M "P -1"
_symmetry_group_IT_number 2
_symmetry_cell_setting 'triclinic'
loop_
_space_group_symop_operation_xyz
x,y,z
-x,-y,-z
loop_
_atom_site_type_symbol
_atom_site_label
_atom_site_fract_x
_atom_site_fract_y
_atom_site_fract_z
Si Si1 0.265764 0.794014 0.855486
Si Si2 0.428172 0.147710 0.673994
Si Si3 0.151798 0.549461 0.686320
Si Si4 0.602620 0.139487 0.466871
Si Si5 0.062943 0.179556 0.633706
Si Si6 0.531060 0.629217 0.559364
Si Si7 0.785719 0.263518 0.919861
O O1 0.519099 0.646621 0.759360
O O2 0.208584 0.760421 0.923651
O O3 0.021346 0.869120 0.639114
O O4 0.342009 0.880166 0.081603
O O5 0.417288 0.200302 0.559221
O O6 0.184100 0.231619 0.716724
O O7 0.500000 0.000000 0.500000
O O8 0.223653 0.532583 0.536900
O O9 0.049135 0.692272 0.890095
O O10 0.000000 0.500000 0.500000
O O11 0.461909 0.409397 0.815320
O O12 0.478166 0.251488 0.368001
O O13 0.717665 0.977911 0.307275
O O14 0.837741 0.131687 0.699201
O O15 0.761557 0.311307 0.642633
#
# Coordination Sequence:
#
# PCOD9012739 Si02
#       7
#     2   2   2   2   2   2   2
#     4   9  20  35  54  85 115 141 186 225 278 328
#     4   9  18  33  53  78 112 150 186 215 259 332
#     4  10  21  41  60  79 107 148 191 232 277 330
#     4   9  17  35  60  80 114 152 183 223 269 337
#     4   9  19  35  57  82 118 148 176 226 282 321
#     4   9  20  37  56  82 116 142 187 233 275 328
#     4   9  20  37  58  83 108 143 190 228 273 334
#
# _framework density 26.370674000000001
#
# number of rings (size 3 to 8) (size 9 to 14) (size 15 to 20)
#    0.857    2.000    0.000    0.429    0.000    9.143 
#    7.714    6.429    0.000    0.000    0.000    0.000 
#    0.000    0.000    0.000    0.000    0.000    0.000 
#
# Total GULP energy -77951.506663 kJ/mol
# GULP energy per Si atom -5567.964762 kJ/mol
# Density = 2.631065 g / cm^3
# Si number density = 26.370674 Si / 1000 Ang^3
#
#
#
# Elastic Constant Matrix: (Units=GPa)
#
#
# Indices 1 2 3 4 5 6 
#
# 1 136.7356 15.6614 -13.7257 3.1724 28.2425 -6.1316
# 2 15.6614 38.6924 4.2923 0.4938 4.8802 9.5166
# 3 -13.7257 4.2923 83.4122 10.5064 36.3994 7.4864
# 4 3.1724 0.4938 10.5064 28.0527 1.4821 -7.4323
# 5 28.2425 4.8802 36.3994 1.4821 50.7105 3.2395
# 6 -6.1316 9.5166 7.4864 -7.4323 3.2395 40.5316
#
#
#
# Elastic Compliance Matrix: (Units=1/GPa)
#
#
# Indices 1 2 3 4 5 6 
#
# 1 0.010765 -0.004173 0.006730 -0.002658 -0.010457 0.001713
# 2 -0.004173 0.029447 -0.001974 -0.001382 0.001430 -0.007548
# 3 0.006730 -0.001974 0.023250 -0.009159 -0.019793 -0.002910
# 4 -0.002658 -0.001382 -0.009159 0.041364 0.006424 0.008686
# 5 -0.010457 0.001430 -0.019793 0.006424 0.039441 -0.000236
# 6 0.001713 -0.007548 -0.002910 0.008686 -0.000236 0.028853
#
#
# Mechanical properties :
#
#
# Convention : Reuss Voigt Hill
#
# Bulk Modulus (GPa) = 15.47298 30.14402 22.80850
# Shear Modulus (GPa) = 25.84035 40.69978 33.27006
#
# Velocity S-wave (km/s) = 3.13371 3.93284 3.55580
# Velocity P-wave (km/s) = 4.35589 5.66380 5.05235
#
# Compressibility (1/GPa) = 0.06462880
#
# Stress axis : x y z
#
# Youngs Moduli (GPa) = 92.89153 33.95971 43.01058
#
# Poissons Ratio (x) = 0.14170 -0.28947
# Poissons Ratio (y) = 0.38761 0.08491
# Poissons Ratio (z) = -0.62519 0.06704
#
# Static dielectric constant tensor:
#      x y z
#    x 2.261970 -0.079600 -0.098820 
#    y -0.079600 2.193540 0.006370 
#    z -0.098820 0.006370 2.125010 
# 
# From -- ./inp_files/281309.got.cif
#   From: 2010.05.17/outbox.cif.g08.bks.cpg/sg2_141_cif.got.tgz:281309.got - 2010.06.03 11:33:40.
