data_PCOD9012995
_publ_section_title
;
Structure prediction by ZEFSAII (Michael W. Deem and Ramdas Pophale) SiO2 
 PCOD9012995
Probable space group: P -1
;
_chemical_formula_sum "Si O2"
_cell_formula_units_Z 10
_cell_length_a 12.527623
_cell_length_b 15.849483
_cell_length_c 16.168033
_cell_angle_alpha 161.828202
_cell_angle_beta 24.863303
_cell_angle_gamma 144.090424
_cell_volume 386.270373
_symmetry_space_group_name_H-M "P -1"
_symmetry_group_IT_number 2
_symmetry_cell_setting 'triclinic'
loop_
_space_group_symop_operation_xyz
x,y,z
-x,-y,-z
loop_
_atom_site_type_symbol
_atom_site_label
_atom_site_fract_x
_atom_site_fract_y
_atom_site_fract_z
Si Si1 0.301873 0.853393 0.036240
Si Si2 0.185417 0.599384 0.024828
Si Si3 0.037530 0.778259 0.693411
Si Si4 0.331717 0.451899 0.963101
Si Si5 0.013592 0.907986 0.130666
O O1 0.032909 0.110132 0.505590
O O2 0.209348 0.734076 0.907379
O O3 0.401846 0.644412 0.851135
O O4 0.500000 0.000000 0.000000
O O5 0.330508 0.404055 0.819674
O O6 0.000000 0.500000 0.000000
O O7 0.355699 0.673869 0.344351
O O8 0.862927 0.958472 0.905159
O O9 0.000000 0.500000 0.500000
O O10 0.000000 0.000000 0.000000
O O11 0.143614 0.287271 0.975865
O O12 0.196541 0.795364 0.400304
#
# Coordination Sequence:
#
# PCOD9012995 Si02
#       5
#     2   2   2   2   2
#     4  10  23  39  64  94 130 168 212 265 312 384
#     4  10  21  41  62  94 128 169 212 254 327 377
#     4  12  26  42  65  98 126 161 216 271 318 373
#     4  11  23  43  68  88 130 171 208 262 315 390
#     4  11  23  44  65  92 125 174 213 250 329 382
#
# _framework density 25.888601999999999
#
# number of rings (size 3 to 8) (size 9 to 14) (size 15 to 20)
#    0.000    1.200    2.000    3.600    2.800    2.400 
#    0.000    0.000    0.000    0.000    0.000    0.000 
#    0.000    0.000    0.000    0.000    0.000    0.000 
#
# Total GULP energy -55937.135934 kJ/mol
# GULP energy per Si atom -5593.713593 kJ/mol
# Density = 2.582968 g / cm^3
# Si number density = 25.888602 Si / 1000 Ang^3
#
#
#
# Elastic Constant Matrix: (Units=GPa)
#
#
# Indices 1 2 3 4 5 6 
#
# 1 125.4051 32.3260 -3.1960 -0.1892 -2.1996 -39.7400
# 2 32.3260 161.8743 -3.7816 8.6897 -6.3278 -22.8164
# 3 -3.1960 -3.7816 68.9789 4.6766 12.1909 -3.9107
# 4 -0.1892 8.6897 4.6766 40.2755 -7.9282 8.7137
# 5 -2.1996 -6.3278 12.1909 -7.9282 31.7081 3.6798
# 6 -39.7400 -22.8164 -3.9107 8.7137 3.6798 62.8921
#
#
#
# Elastic Compliance Matrix: (Units=1/GPa)
#
#
# Indices 1 2 3 4 5 6 
#
# 1 0.010302 -0.001088 0.001059 -0.001433 -0.001015 0.006439
# 2 -0.001088 0.006814 0.000502 -0.001905 0.000376 0.002058
# 3 0.001059 0.000502 0.016332 -0.004090 -0.007461 0.002870
# 4 -0.001433 -0.001905 -0.004090 0.028870 0.009052 -0.006380
# 5 -0.001015 0.000376 -0.007461 0.009052 0.037185 -0.004399
# 6 0.006439 0.002058 0.002870 -0.006380 -0.004399 0.022035
#
#
# Mechanical properties :
#
#
# Convention : Reuss Voigt Hill
#
# Bulk Modulus (GPa) = 29.07315 45.21723 37.14519
# Shear Modulus (GPa) = 37.86284 49.03579 43.44931
#
# Velocity S-wave (km/s) = 3.82845 4.35686 4.10117
# Velocity P-wave (km/s) = 5.54952 6.54321 6.06674
#
# Compressibility (1/GPa) = 0.03439600
#
# Stress axis : x y z
#
# Youngs Moduli (GPa) = 97.06888 146.76586 61.22765
#
# Poissons Ratio (x) = 0.15965 -0.06486
# Poissons Ratio (y) = 0.10559 -0.03076
# Poissons Ratio (z) = -0.10282 -0.07374
#
# Static dielectric constant tensor:
#      x y z
#    x 2.130130 -0.072480 -0.183100 
#    y -0.072480 2.093840 0.121690 
#    z -0.183100 0.121690 2.286320 
# 
# From -- ./inp_files/1460.got.cif
#   From: 2010.05.17/outbox.cif.g08.bks.cpg/sg2_1_cif.got.tgz:1460.got - 2010.06.03 11:33:40.
