data_PCOD9012042
_publ_section_title
;
Structure prediction by ZEFSAII (Michael W. Deem and Ramdas Pophale) SiO2 
 PCOD9012042
Probable space group: P -1
;
_chemical_formula_sum "Si O2"
_cell_formula_units_Z 14
_cell_length_a 14.114653
_cell_length_b 9.836673
_cell_length_c 12.520773
_cell_angle_alpha 131.092248
_cell_angle_beta 147.960293
_cell_angle_gamma 42.415124
_cell_volume 619.636257
_symmetry_space_group_name_H-M "P -1"
_symmetry_group_IT_number 2
_symmetry_cell_setting 'triclinic'
loop_
_space_group_symop_operation_xyz
x,y,z
-x,-y,-z
loop_
_atom_site_type_symbol
_atom_site_label
_atom_site_fract_x
_atom_site_fract_y
_atom_site_fract_z
Si Si1 0.789668 0.232701 0.870342
Si Si2 0.963820 0.347696 0.464111
Si Si3 0.937397 0.547469 0.765298
Si Si4 0.742656 0.854521 0.030461
Si Si5 0.399116 0.507834 0.519639
Si Si6 0.291263 0.942671 0.672737
Si Si7 0.124586 0.930335 0.905828
O O1 0.580440 0.411181 0.726405
O O2 0.766731 0.143228 0.914774
O O3 0.891366 0.062162 0.787776
O O4 0.959035 0.310150 0.087035
O O5 0.000000 0.500000 0.500000
O O6 0.892728 0.466122 0.568744
O O7 0.837804 0.261939 0.230744
O O8 0.153531 0.139536 0.574604
O O9 0.729682 0.615661 0.663887
O O10 0.102319 0.369589 0.902201
O O11 0.738586 0.994463 0.199365
O O12 0.810345 0.929752 0.029558
O O13 0.520221 0.876033 0.825223
O O14 0.500000 0.500000 0.500000
O O15 0.255287 0.746381 0.523823
#
# Coordination Sequence:
#
# PCOD9012042 Si02
#       7
#     2   2   2   2   2   2   2
#     4  11  25  45  64 101 136 170 220 266 328 400
#     4  11  22  42  66  94 132 174 218 269 326 385
#     4  11  23  43  70  96 132 175 220 270 322 391
#     4  10  21  40  68  92 130 172 216 270 325 378
#     4  12  25  41  69 100 131 171 220 271 326 390
#     4  10  22  39  63 101 127 164 227 268 314 394
#     4  11  24  43  65  94 138 175 211 275 332 381
#
# _framework density 22.593902
#
# number of rings (size 3 to 8) (size 9 to 14) (size 15 to 20)
#    0.000    1.143    2.857    3.429    2.000    4.571 
#    0.000    3.571    0.000    0.000    0.000    0.000 
#    0.000    0.000    0.000    0.000    0.000    0.000 
#
# Total GULP energy -78294.650551 kJ/mol
# GULP energy per Si atom -5592.475039 kJ/mol
# Density = 2.254248 g / cm^3
# Si number density = 22.593902 Si / 1000 Ang^3
#
#
#
# Elastic Constant Matrix: (Units=GPa)
#
#
# Indices 1 2 3 4 5 6 
#
# 1 143.2394 29.7863 31.5434 -15.6910 -15.5711 36.5400
# 2 29.7863 84.6811 17.9214 -0.5273 -11.0608 25.2595
# 3 31.5434 17.9214 55.0477 -0.2177 -3.9571 3.6603
# 4 -15.6910 -0.5273 -0.2177 39.1553 -2.4420 -3.7557
# 5 -15.5711 -11.0608 -3.9571 -2.4420 26.2001 -3.6925
# 6 36.5400 25.2595 3.6603 -3.7557 -3.6925 42.3573
#
#
#
# Elastic Compliance Matrix: (Units=1/GPa)
#
#
# Indices 1 2 3 4 5 6 
#
# 1 0.011400 0.000558 -0.005730 0.004024 0.005272 -0.008856
# 2 0.000558 0.015978 -0.004546 -0.000151 0.005082 -0.009187
# 3 -0.005730 -0.004546 0.022465 -0.001794 -0.001333 0.005438
# 4 0.004024 -0.000151 -0.001794 0.027385 0.004553 -0.000401
# 5 0.005272 0.005082 -0.001333 0.004553 0.043205 -0.003293
# 6 -0.008856 -0.009187 0.005438 -0.000401 -0.003293 0.035934
#
#
# Mechanical properties :
#
#
# Convention : Reuss Voigt Hill
#
# Bulk Modulus (GPa) = 32.88748 49.05227 40.96987
# Shear Modulus (GPa) = 26.89025 35.12369 31.00697
#
# Velocity S-wave (km/s) = 3.45361 3.94707 3.70856
# Velocity P-wave (km/s) = 5.52184 6.52151 6.04238
#
# Compressibility (1/GPa) = 0.03040671
#
# Stress axis : x y z
#
# Youngs Moduli (GPa) = 87.71803 62.58549 44.51320
#
# Poissons Ratio (x) = -0.03493 0.25508
# Poissons Ratio (y) = -0.04895 0.20236
# Poissons Ratio (z) = 0.50266 0.28452
#
# Static dielectric constant tensor:
#      x y z
#    x 1.825760 -0.036990 -0.020320 
#    y -0.036990 1.854400 0.038850 
#    z -0.020320 0.038850 1.856200 
# 
# From -- ./inp_files/199041.got.cif
#   From: 2010.05.17/outbox.cif.g08.bks.cpg/sg2_100_cif.got.tgz:199041.got - 2010.06.03 11:33:40.
