data_PCOD9012413
_publ_section_title
;
Structure prediction by ZEFSAII (Michael W. Deem and Ramdas Pophale) SiO2 
 PCOD9012413
Probable space group: P -1
;
_chemical_formula_sum "Si O2"
_cell_formula_units_Z 10
_cell_length_a 10.360529
_cell_length_b 6.919641
_cell_length_c 9.608692
_cell_angle_alpha 126.157155
_cell_angle_beta 88.162636
_cell_angle_gamma 66.708155
_cell_volume 477.034408
_symmetry_space_group_name_H-M "P -1"
_symmetry_group_IT_number 2
_symmetry_cell_setting 'triclinic'
loop_
_space_group_symop_operation_xyz
x,y,z
-x,-y,-z
loop_
_atom_site_type_symbol
_atom_site_label
_atom_site_fract_x
_atom_site_fract_y
_atom_site_fract_z
Si Si1 0.361640 0.592110 0.150061
Si Si2 0.070019 0.693080 0.051687
Si Si3 0.532638 0.276869 0.279807
Si Si4 0.175252 0.725967 0.754681
Si Si5 0.391858 0.093714 0.408358
O O1 0.422492 0.417086 0.214473
O O2 0.317951 0.906362 0.322363
O O3 0.500000 0.500000 0.000000
O O4 0.222337 0.588834 0.086894
O O5 0.109318 0.691245 0.886724
O O6 0.049012 0.979383 0.776546
O O7 0.000000 0.500000 0.000000
O O8 0.500000 0.500000 0.500000
O O9 0.699077 0.187413 0.185713
O O10 0.500398 0.054786 0.258347
O O11 0.264314 0.418333 0.555649
O O12 0.500000 0.000000 0.500000
#
# Coordination Sequence:
#
# PCOD9012413 Si02
#       5
#     2   2   2   2   2
#     4  12  24  43  69 106 131 180 234 273 337 405
#     4  11  26  44  67  97 146 179 216 287 340 396
#     4  10  21  40  70 100 130 175 227 273 333 403
#     4  10  23  43  66  99 137 181 224 268 349 402
#     4  11  22  41  72  98 136 175 226 286 328 397
#
# _framework density 20.962848000000001
#
# number of rings (size 3 to 8) (size 9 to 14) (size 15 to 20)
#    0.000    1.200    6.000    0.000    5.600    4.800 
#    0.000    7.000    0.000    0.000    0.000    0.000 
#    0.000    0.000    0.000    0.000    0.000    0.000 
#
# Total GULP energy -55871.548039 kJ/mol
# GULP energy per Si atom -5587.154804 kJ/mol
# Density = 2.091514 g / cm^3
# Si number density = 20.962848 Si / 1000 Ang^3
#
#
#
# Elastic Constant Matrix: (Units=GPa)
#
#
# Indices 1 2 3 4 5 6 
#
# 1 157.2182 79.8834 33.8601 -6.6058 14.4650 0.6296
# 2 79.8834 149.9820 42.7548 -22.0531 0.6382 0.5653
# 3 33.8601 42.7548 52.5511 2.8378 3.2924 -8.7402
# 4 -6.6058 -22.0531 2.8378 35.3739 -6.0523 -6.7812
# 5 14.4650 0.6382 3.2924 -6.0523 31.8160 -1.6094
# 6 0.6296 0.5653 -8.7402 -6.7812 -1.6094 50.3866
#
#
#
# Elastic Compliance Matrix: (Units=1/GPa)
#
#
# Indices 1 2 3 4 5 6 
#
# 1 0.009554 -0.004777 -0.002022 -0.001951 -0.004451 -0.000821
# 2 -0.004777 0.012714 -0.008024 0.008379 0.004331 -0.000209
# 3 -0.002022 -0.008024 0.028098 -0.007407 -0.003040 0.003895
# 4 -0.001951 0.008379 -0.007407 0.035896 0.008504 0.003748
# 5 -0.004451 0.004331 -0.003040 0.008504 0.035389 0.001755
# 6 -0.000821 -0.000209 0.003895 0.003748 0.001755 0.021095
#
#
# Mechanical properties :
#
#
# Convention : Reuss Voigt Hill
#
# Bulk Modulus (GPa) = 48.26212 74.74976 61.50594
# Shear Modulus (GPa) = 27.88637 37.06548 32.47592
#
# Velocity S-wave (km/s) = 3.65125 4.20950 3.94027
# Velocity P-wave (km/s) = 6.39126 7.70468 7.07850
#
# Compressibility (1/GPa) = 0.02072019
#
# Stress axis : x y z
#
# Youngs Moduli (GPa) = 104.66558 78.65549 35.58944
#
# Poissons Ratio (x) = 0.37576 0.07195
# Poissons Ratio (y) = 0.50002 0.28557
# Poissons Ratio (z) = 0.21160 0.63113
#
# Static dielectric constant tensor:
#      x y z
#    x 1.759720 0.014760 -0.032880 
#    y 0.014760 1.762200 0.043800 
#    z -0.032880 0.043800 1.817090 
# 
# From -- ./inp_files/103299.got.cif
#   From: 2010.05.17/outbox.cif.g08.bks.cpg/sg2_52_cif.got.tgz:103299.got - 2010.06.03 11:33:40.
