data_PCOD9012340
_publ_section_title
;
Structure prediction by ZEFSAII (Michael W. Deem and Ramdas Pophale) SiO2 
 PCOD9012340
Probable space group: P -1
;
_chemical_formula_sum "Si O2"
_cell_formula_units_Z 16
_cell_length_a 11.090955
_cell_length_b 9.661500
_cell_length_c 16.469448
_cell_angle_alpha 154.517865
_cell_angle_beta 100.661252
_cell_angle_gamma 89.152632
_cell_volume 696.124863
_symmetry_space_group_name_H-M "P -1"
_symmetry_group_IT_number 2
_symmetry_cell_setting 'triclinic'
loop_
_space_group_symop_operation_xyz
x,y,z
-x,-y,-z
loop_
_atom_site_type_symbol
_atom_site_label
_atom_site_fract_x
_atom_site_fract_y
_atom_site_fract_z
Si Si1 0.458903 0.476577 0.220028
Si Si2 0.092326 0.644621 0.274545
Si Si3 0.321704 0.683666 0.759290
Si Si4 0.348080 0.311910 0.411320
Si Si5 0.295962 0.651865 0.165427
Si Si6 0.184820 0.439635 0.765035
Si Si7 0.265386 0.520693 0.359199
Si Si8 0.349882 0.297882 0.846754
O O1 0.602621 0.542288 0.306330
O O2 0.422214 0.691096 0.258923
O O3 0.373160 0.498028 0.297390
O O4 0.410326 0.082751 0.974830
O O5 0.175814 0.619266 0.192924
O O6 0.136696 0.466139 0.261283
O O7 0.936584 0.519714 0.180619
O O8 0.138790 0.045380 0.518799
O O9 0.299786 0.534690 0.587839
O O10 0.214378 0.658881 0.801497
O O11 0.500000 0.500000 0.500000
O O12 0.260179 0.263326 0.294785
O O13 0.331277 0.967011 0.274828
O O14 0.267952 0.322193 0.929281
O O15 0.305568 0.484837 0.865256
O O16 0.316836 0.905351 0.607800
O O17 0.500000 0.500000 0.000000
#
# Coordination Sequence:
#
# PCOD9012340 Si02
#       8
#     2   2   2   2   2   2   2   2
#     4  10  23  40  64  94 133 168 216 261 328 397
#     4   9  21  44  67  93 126 177 223 262 317 383
#     4  11  22  39  65  96 130 170 214 266 328 381
#     4  12  23  37  62  97 131 163 211 269 330 382
#     4  11  23  40  64  94 130 172 213 266 324 385
#     4  10  21  40  69  95 129 172 222 267 314 386
#     4  10  22  42  63  93 134 167 211 270 317 390
#     4  11  23  37  65  98 132 165 214 261 336 378
#
# _framework density 22.984383000000001
#
# number of rings (size 3 to 8) (size 9 to 14) (size 15 to 20)
#    0.000    1.500    2.500    2.250    1.750    3.000 
#    0.000    3.125    2.750    0.000    0.000    0.000 
#    0.000    0.000    0.000    0.000    0.000    0.000 
#
# Total GULP energy -89479.073440 kJ/mol
# GULP energy per Si atom -5592.442090 kJ/mol
# Density = 2.293207 g / cm^3
# Si number density = 22.984383 Si / 1000 Ang^3
#
#
#
# Elastic Constant Matrix: (Units=GPa)
#
#
# Indices 1 2 3 4 5 6 
#
# 1 103.7304 39.8304 20.0868 -3.8236 -7.0583 2.7728
# 2 39.8304 171.5573 24.0440 -8.7591 -1.5488 -5.4804
# 3 20.0868 24.0440 78.2443 -13.3386 -17.9583 0.7840
# 4 -3.8236 -8.7591 -13.3386 36.1949 6.9001 -11.4201
# 5 -7.0583 -1.5488 -17.9583 6.9001 31.6744 -7.0582
# 6 2.7728 -5.4804 0.7840 -11.4201 -7.0582 26.5267
#
#
#
# Elastic Compliance Matrix: (Units=1/GPa)
#
#
# Indices 1 2 3 4 5 6 
#
# 1 0.011019 -0.002367 -0.001999 -0.000872 0.001021 -0.001686
# 2 -0.002367 0.006723 -0.001387 0.001722 -0.000873 0.002186
# 3 -0.001999 -0.001387 0.016536 0.005148 0.008620 0.003944
# 4 -0.000872 0.001722 0.005148 0.034830 -0.001458 0.014901
# 5 0.001021 -0.000873 0.008620 -0.001458 0.039013 0.009211
# 6 -0.001686 0.002186 0.003944 0.014901 0.009211 0.047075
#
#
# Mechanical properties :
#
#
# Convention : Reuss Voigt Hill
#
# Bulk Modulus (GPa) = 43.91345 57.93938 50.92642
# Shear Modulus (GPa) = 28.68742 36.85059 32.76901
#
# Velocity S-wave (km/s) = 3.53672 4.00845 3.77995
# Velocity P-wave (km/s) = 5.98540 6.83275 6.42307
#
# Compressibility (1/GPa) = 0.02277207
#
# Stress axis : x y z
#
# Youngs Moduli (GPa) = 90.75419 148.74729 60.47329
#
# Poissons Ratio (x) = 0.35212 0.12087
# Poissons Ratio (y) = 0.21484 0.08387
# Poissons Ratio (z) = 0.18140 0.20629
#
# Static dielectric constant tensor:
#      x y z
#    x 1.893990 -0.004460 -0.045380 
#    y -0.004460 1.885120 0.005890 
#    z -0.045380 0.005890 1.887500 
# 
# From -- ./inp_files/308206.got.cif
#   From: 2010.05.17/outbox.cif.g08.bks.cpg/sg2_155_cif.got.tgz:308206.got - 2010.06.03 11:33:40.
