data_PCOD9012620
_publ_section_title
;
Structure prediction by ZEFSAII (Michael W. Deem and Ramdas Pophale) SiO2 
 PCOD9012620
Probable space group: P -1
;
_chemical_formula_sum "Si O2"
_cell_formula_units_Z 12
_cell_length_a 8.110521
_cell_length_b 7.629472
_cell_length_c 9.811216
_cell_angle_alpha 63.282777
_cell_angle_beta 118.596563
_cell_angle_gamma 114.029187
_cell_volume 461.647339
_symmetry_space_group_name_H-M "P -1"
_symmetry_group_IT_number 2
_symmetry_cell_setting 'triclinic'
loop_
_space_group_symop_operation_xyz
x,y,z
-x,-y,-z
loop_
_atom_site_type_symbol
_atom_site_label
_atom_site_fract_x
_atom_site_fract_y
_atom_site_fract_z
Si Si1 0.223145 0.758800 0.952299
Si Si2 0.986002 0.226802 0.873986
Si Si3 0.568627 0.826440 0.669868
Si Si4 0.205837 0.566451 0.483808
Si Si5 0.910329 0.798583 0.621108
Si Si6 0.621457 0.792429 0.023137
O O1 0.415194 0.679280 0.042561
O O2 0.097075 0.734913 0.775681
O O3 0.086442 0.681257 0.052942
O O4 0.300914 0.001421 0.930296
O O5 0.831906 0.253695 0.691168
O O6 0.203591 0.316361 0.877052
O O7 0.000000 0.000000 0.000000
O O8 0.394891 0.636428 0.624560
O O9 0.775239 0.823055 0.686225
O O10 0.579897 0.844780 0.831383
O O11 0.500000 0.000000 0.500000
O O12 0.215632 0.374651 0.462966
O O13 0.000000 0.500000 0.500000
O O14 0.000000 0.000000 0.500000
#
# Coordination Sequence:
#
# PCOD9012620 Si02
#       6
#     2   2   2   2   2   2
#     4  10  21  41  72 106 139 189 253 294 374 438
#     4  10  22  44  74 103 145 193 239 310 366 438
#     4  12  24  47  74 109 150 199 249 310 383 447
#     4  12  28  48  74 113 152 196 256 307 377 455
#     4  12  27  46  75 107 154 202 248 314 375 447
#     4  10  21  40  72 106 139 192 242 305 364 448
#
# _framework density 25.993870000000001
#
# number of rings (size 3 to 8) (size 9 to 14) (size 15 to 20)
#    0.000    1.000    1.667    5.500    7.000    2.000 
#    3.000    1.667    0.000    0.000    0.000    0.000 
#    0.000    0.000    0.000    0.000    0.000    0.000 
#
# Total GULP energy -67230.311412 kJ/mol
# GULP energy per Si atom -5602.525951 kJ/mol
# Density = 2.593471 g / cm^3
# Si number density = 25.993870 Si / 1000 Ang^3
#
#
#
# Elastic Constant Matrix: (Units=GPa)
#
#
# Indices 1 2 3 4 5 6 
#
# 1 173.5192 4.0011 6.3565 -15.3449 7.1641 18.1758
# 2 4.0011 121.3858 36.8452 10.7018 2.1717 9.1270
# 3 6.3565 36.8452 109.7938 -5.1550 18.3776 12.3902
# 4 -15.3449 10.7018 -5.1550 42.6436 4.6894 3.9446
# 5 7.1641 2.1717 18.3776 4.6894 43.9412 10.0756
# 6 18.1758 9.1270 12.3902 3.9446 10.0756 27.2170
#
#
#
# Elastic Compliance Matrix: (Units=1/GPa)
#
#
# Indices 1 2 3 4 5 6 
#
# 1 0.006530 -0.000251 0.000459 0.002958 -0.000473 -0.004739
# 2 -0.000251 0.009655 -0.003460 -0.002963 0.001717 -0.001702
# 3 0.000459 -0.003460 0.011478 0.003194 -0.004302 -0.003242
# 4 0.002958 -0.002963 0.003194 0.026478 -0.003343 -0.005036
# 5 -0.000473 0.001717 -0.004302 -0.003343 0.026669 -0.007690
# 6 -0.004739 -0.001702 -0.003242 -0.005036 -0.007690 0.045530
#
#
# Mechanical properties :
#
#
# Convention : Reuss Voigt Hill
#
# Bulk Modulus (GPa) = 47.25957 55.45603 51.35780
# Shear Modulus (GPa) = 35.74068 46.59344 41.16706
#
# Velocity S-wave (km/s) = 3.71208 4.23836 3.98392
# Velocity P-wave (km/s) = 6.04923 6.73292 6.40021
#
# Compressibility (1/GPa) = 0.02115973
#
# Stress axis : x y z
#
# Youngs Moduli (GPa) = 153.14930 103.57135 87.11952
#
# Poissons Ratio (x) = 0.02595 -0.03999
# Poissons Ratio (y) = 0.03837 0.30145
# Poissons Ratio (z) = -0.07029 0.35837
#
# Static dielectric constant tensor:
#      x y z
#    x 2.089250 0.007110 -0.025110 
#    y 0.007110 2.164200 -0.040420 
#    z -0.025110 -0.040420 2.008290 
# 
# From -- ./inp_files/157016.got.cif
#   From: 2010.05.17/outbox.cif.g08.bks.cpg/sg2_79_cif.got.tgz:157016.got - 2010.06.03 11:33:40.
