data_PCOD9012863
_publ_section_title
;
Structure prediction by ZEFSAII (Michael W. Deem and Ramdas Pophale) SiO2 
 PCOD9012863
Probable space group: P -1
;
_chemical_formula_sum "Si O2"
_cell_formula_units_Z 12
_cell_length_a 12.818916
_cell_length_b 24.695038
_cell_length_c 5.485033
_cell_angle_alpha 67.253773
_cell_angle_beta 110.642730
_cell_angle_gamma 161.471404
_cell_volume 508.277085
_symmetry_space_group_name_H-M "P -1"
_symmetry_group_IT_number 2
_symmetry_cell_setting 'triclinic'
loop_
_space_group_symop_operation_xyz
x,y,z
-x,-y,-z
loop_
_atom_site_type_symbol
_atom_site_label
_atom_site_fract_x
_atom_site_fract_y
_atom_site_fract_z
Si Si1 0.898339 0.247416 0.330567
Si Si2 0.607203 0.813877 0.012345
Si Si3 0.736105 0.668661 0.809845
Si Si4 0.280949 0.527992 0.378115
Si Si5 0.274880 0.686109 0.449920
Si Si6 0.737489 0.084534 0.864349
O O1 0.916016 0.229266 0.644755
O O2 0.018583 0.248989 0.290570
O O3 0.144972 0.423541 0.217941
O O4 0.522395 0.074782 0.253117
O O5 0.429015 0.662772 0.176075
O O6 0.488839 0.793045 0.190601
O O7 0.481751 0.774749 0.712817
O O8 0.000000 0.000000 0.000000
O O9 0.552623 0.626259 0.577111
O O10 0.500000 0.500000 0.000000
O O11 0.976069 0.812884 0.965596
O O12 0.961791 0.378034 0.551124
O O13 0.000000 0.500000 0.500000
O O14 0.500000 0.000000 0.000000
#
# Coordination Sequence:
#
# PCOD9012863 Si02
#       6
#     2   2   2   2   2   2
#     4  10  21  41  61  94 136 180 224 273 326 412
#     4  11  25  51  74 105 139 177 238 309 347 418
#     4  11  22  38  63  99 138 180 227 275 326 419
#     4  11  23  42  70 101 133 190 226 278 364 408
#     4  10  23  48  74 101 138 180 235 297 356 419
#     4   9  20  41  60  85 141 171 222 282 322 384
#
# _framework density 23.609169999999999
#
# number of rings (size 3 to 8) (size 9 to 14) (size 15 to 20)
#    0.000    1.667    1.667    3.000    0.000    4.000 
#    9.000    0.000    0.000    0.000    0.000    0.000 
#    0.000    0.000    0.000    0.000    0.000    0.000 
#
# Total GULP energy -66932.555698 kJ/mol
# GULP energy per Si atom -5577.712975 kJ/mol
# Density = 2.355543 g / cm^3
# Si number density = 23.609170 Si / 1000 Ang^3
#
#
#
# Elastic Constant Matrix: (Units=GPa)
#
#
# Indices 1 2 3 4 5 6 
#
# 1 74.8015 39.2873 39.6669 17.2953 8.2735 12.0630
# 2 39.2873 141.1432 58.6300 44.0497 5.3720 17.8803
# 3 39.6669 58.6300 98.7649 26.5164 -8.9421 5.2540
# 4 17.2953 44.0497 26.5164 55.7764 6.6671 -2.2515
# 5 8.2735 5.3720 -8.9421 6.6671 31.1429 -10.4099
# 6 12.0630 17.8803 5.2540 -2.2515 -10.4099 33.3425
#
#
#
# Elastic Compliance Matrix: (Units=1/GPa)
#
#
# Indices 1 2 3 4 5 6 
#
# 1 0.021039 -0.000323 -0.008357 -0.001387 -0.010845 -0.009601
# 2 -0.000323 0.012960 -0.005655 -0.007182 -0.004895 -0.007955
# 3 -0.008357 -0.005655 0.018224 -0.002680 0.011172 0.006492
# 4 -0.001387 -0.007182 -0.002680 0.025869 -0.002813 0.005644
# 5 -0.010845 -0.004895 0.011172 -0.002813 0.045982 0.018954
# 6 -0.009601 -0.007955 0.006492 0.005644 0.018954 0.043008
#
#
# Mechanical properties :
#
#
# Convention : Reuss Voigt Hill
#
# Bulk Modulus (GPa) = 42.45834 65.54201 54.00017
# Shear Modulus (GPa) = 24.55777 35.86070 30.20924
#
# Velocity S-wave (km/s) = 3.22868 3.90157 3.58097
# Velocity P-wave (km/s) = 5.64996 6.93671 6.32613
#
# Compressibility (1/GPa) = 0.02355250
#
# Stress axis : x y z
#
# Youngs Moduli (GPa) = 47.53188 77.16244 54.87196
#
# Poissons Ratio (x) = 0.02489 0.45856
# Poissons Ratio (y) = 0.01533 0.31032
# Poissons Ratio (z) = 0.39722 0.43639
#
# Static dielectric constant tensor:
#      x y z
#    x 3.399990 0.291330 -2.758740 
#    y 0.291330 1.959990 -0.568910 
#    z -2.758740 -0.568910 7.072150 
# 
# From -- ./inp_files/84261.got.cif
#   From: 2010.05.17/outbox.cif.g08.bks.cpg/sg2_43_cif.got.tgz:84261.got - 2010.06.03 11:33:40.
