data_PCOD9012641
_publ_section_title
;
Structure prediction by ZEFSAII (Michael W. Deem and Ramdas Pophale) SiO2 
 PCOD9012641
Probable space group: P -1
;
_chemical_formula_sum "Si O2"
_cell_formula_units_Z 16
_cell_length_a 15.476659
_cell_length_b 8.746334
_cell_length_c 5.280899
_cell_angle_alpha 71.096981
_cell_angle_beta 100.988597
_cell_angle_gamma 86.090424
_cell_volume 657.361725
_symmetry_space_group_name_H-M "P -1"
_symmetry_group_IT_number 2
_symmetry_cell_setting 'triclinic'
loop_
_space_group_symop_operation_xyz
x,y,z
-x,-y,-z
loop_
_atom_site_type_symbol
_atom_site_label
_atom_site_fract_x
_atom_site_fract_y
_atom_site_fract_z
Si Si1 0.865873 0.556996 0.258819
Si Si2 0.726808 0.096491 0.493037
Si Si3 0.653877 0.356685 0.671831
Si Si4 0.300891 0.187573 0.038753
Si Si5 0.965601 0.274757 0.759119
Si Si6 0.600288 0.538136 0.039651
Si Si7 0.585727 0.085894 0.038359
Si Si8 0.887909 0.211513 0.249121
O O1 0.902770 0.449562 0.580622
O O2 0.861096 0.409303 0.139775
O O3 0.938847 0.672036 0.166244
O O4 0.773771 0.671442 0.173385
O O5 0.734743 0.913844 0.699461
O O6 0.730611 0.226419 0.656663
O O7 0.803085 0.128308 0.324549
O O8 0.626533 0.137220 0.299039
O O9 0.659310 0.443803 0.898047
O O10 0.580266 0.239935 0.765368
O O11 0.630786 0.486024 0.368049
O O12 0.386663 0.275266 0.101941
O O13 0.333544 0.050223 0.928528
O O14 0.930858 0.176067 0.021051
O O15 0.957866 0.184866 0.535131
O O16 0.500000 0.500000 0.000000
O O17 0.500000 0.000000 0.000000
#
# Coordination Sequence:
#
# PCOD9012641 Si02
#       8
#     2   2   2   2   2   2   2   2
#     4   9  21  41  68 105 137 177 232 287 354 407
#     4  11  26  44  69 100 140 191 237 285 351 430
#     4  11  25  45  71  94 131 184 235 281 353 417
#     4  11  27  42  67 106 145 179 234 307 348 409
#     4   9  21  39  74 101 137 181 228 280 349 429
#     4  12  26  45  71 104 135 176 238 304 353 408
#     4  11  26  47  71  96 143 196 238 282 356 427
#     4  10  21  40  72  98 135 183 233 275 346 424
#
# _framework density 24.33972
#
# number of rings (size 3 to 8) (size 9 to 14) (size 15 to 20)
#    0.750    0.750    1.250    2.250    7.000    2.000 
#    0.000    1.250    0.000    0.000    0.000    0.000 
#    0.000    0.000    0.000    0.000    0.000    0.000 
#
# Total GULP energy -89339.019245 kJ/mol
# GULP energy per Si atom -5583.688703 kJ/mol
# Density = 2.428432 g / cm^3
# Si number density = 24.339720 Si / 1000 Ang^3
#
#
#
# Elastic Constant Matrix: (Units=GPa)
#
#
# Indices 1 2 3 4 5 6 
#
# 1 104.5005 3.2814 34.4283 -3.3445 -5.4678 32.1290
# 2 3.2814 55.4043 21.7627 4.3959 -6.4217 13.0966
# 3 34.4283 21.7627 106.4640 11.8400 -23.3930 -0.5730
# 4 -3.3445 4.3959 11.8400 31.7961 -2.1592 -1.4301
# 5 -5.4678 -6.4217 -23.3930 -2.1592 33.6019 -8.0413
# 6 32.1290 13.0966 -0.5730 -1.4301 -8.0413 37.0335
#
#
#
# Elastic Compliance Matrix: (Units=1/GPa)
#
#
# Indices 1 2 3 4 5 6 
#
# 1 0.017944 0.005948 -0.008893 0.003076 -0.006509 -0.019103
# 2 0.005948 0.023719 -0.007468 -0.000736 -0.003188 -0.014384
# 3 -0.008893 -0.007468 0.016985 -0.004846 0.011746 0.012983
# 4 0.003076 -0.000736 -0.004846 0.033533 -0.001206 -0.001450
# 5 -0.006509 -0.003188 0.011746 -0.001206 0.039919 0.015577
# 6 -0.019103 -0.014384 0.012983 -0.001450 0.015577 0.052189
#
#
# Mechanical properties :
#
#
# Convention : Reuss Voigt Hill
#
# Bulk Modulus (GPa) = 26.44051 42.81262 34.62657
# Shear Modulus (GPa) = 22.96488 34.27940 28.62214
#
# Velocity S-wave (km/s) = 3.07500 3.75690 3.43292
# Velocity P-wave (km/s) = 4.84708 6.03712 5.47454
#
# Compressibility (1/GPa) = 0.03782075
#
# Stress axis : x y z
#
# Youngs Moduli (GPa) = 55.73028 42.15967 58.87560
#
# Poissons Ratio (x) = -0.25075 0.52360
# Poissons Ratio (y) = -0.33146 0.43968
# Poissons Ratio (z) = 0.49563 0.31484
#
# Static dielectric constant tensor:
#      x y z
#    x 1.958230 -0.001630 0.032630 
#    y -0.001630 1.989160 0.045450 
#    z 0.032630 0.045450 1.973350 
# 
# From -- ./inp_files/89859.got.cif
#   From: 2010.05.17/outbox.cif.g08.bks.cpg/sg2_45_cif.got.tgz:89859.got - 2010.06.03 11:33:40.
