data_PCOD9012073
_publ_section_title
;
Structure prediction by ZEFSAII (Michael W. Deem and Ramdas Pophale) SiO2 
 PCOD9012073
Probable space group: P -1
;
_chemical_formula_sum "Si O2"
_cell_formula_units_Z 12
_cell_length_a 25.591141
_cell_length_b 8.974366
_cell_length_c 16.069677
_cell_angle_alpha 158.587801
_cell_angle_beta 162.380709
_cell_angle_gamma 25.371541
_cell_volume 403.402514
_symmetry_space_group_name_H-M "P -1"
_symmetry_group_IT_number 2
_symmetry_cell_setting 'triclinic'
loop_
_space_group_symop_operation_xyz
x,y,z
-x,-y,-z
loop_
_atom_site_type_symbol
_atom_site_label
_atom_site_fract_x
_atom_site_fract_y
_atom_site_fract_z
Si Si1 0.453788 0.740429 0.917665
Si Si2 0.803138 0.446056 0.680603
Si Si3 0.083125 0.606467 0.867415
Si Si4 0.721667 0.432716 0.268358
Si Si5 0.354592 0.424211 0.327029
Si Si6 0.319480 0.643945 0.096149
O O1 0.285576 0.891750 0.680504
O O2 0.324851 0.579749 0.711851
O O3 0.594128 0.581004 0.973111
O O4 0.605587 0.847376 0.269925
O O5 0.782659 0.377063 0.710607
O O6 0.694864 0.874890 0.705451
O O7 0.000000 0.500000 0.000000
O O8 0.921549 0.352412 0.500973
O O9 0.257334 0.452863 0.105336
O O10 0.139049 0.669428 0.890166
O O11 0.000000 0.000000 0.000000
O O12 0.632990 0.075662 0.904384
O O13 0.533848 0.493924 0.681407
#
# Coordination Sequence:
#
# PCOD9012073 Si02
#       6
#     2   2   2   2   2   2
#     4  10  21  40  68  94 129 178 219 265 323 398
#     4  11  20  38  69  97 128 174 228 266 321 402
#     4  12  27  41  66 105 139 169 214 285 339 379
#     4  11  22  42  72  96 132 174 231 265 322 398
#     4  11  22  44  72  94 126 185 225 262 322 413
#     4  11  22  44  66  98 135 170 221 276 336 385
#
# _framework density 29.746963000000001
#
# number of rings (size 3 to 8) (size 9 to 14) (size 15 to 20)
#    0.000    1.000    3.333    5.000    2.333    0.667 
#    0.000    0.833    3.667    0.000    0.000    0.000 
#    0.000    0.000    0.000    0.000    0.000    0.000 
#
# Total GULP energy -66822.031035 kJ/mol
# GULP energy per Si atom -5568.502586 kJ/mol
# Density = 2.967926 g / cm^3
# Si number density = 29.746963 Si / 1000 Ang^3
#
#
#
# Elastic Constant Matrix: (Units=GPa)
#
#
# Indices 1 2 3 4 5 6 
#
# 1 282.0687 46.1476 117.4966 12.9488 37.3225 32.8048
# 2 46.1476 169.2807 102.1327 38.5615 14.4893 44.0787
# 3 117.4966 102.1327 327.4568 71.3343 38.5649 29.6585
# 4 12.9488 38.5615 71.3343 85.2098 10.4057 21.5686
# 5 37.3225 14.4893 38.5649 10.4057 68.7487 -6.0748
# 6 32.8048 44.0787 29.6585 21.5686 -6.0748 71.8865
#
#
#
# Elastic Compliance Matrix: (Units=1/GPa)
#
#
# Indices 1 2 3 4 5 6 
#
# 1 0.004630 0.000091 -0.001548 0.001334 -0.002052 -0.002104
# 2 0.000091 0.008474 -0.001959 -0.001029 -0.000952 -0.004201
# 3 -0.001548 -0.001959 0.004943 -0.003074 -0.000991 0.000707
# 4 0.001334 -0.001029 -0.003074 0.015643 -0.001463 -0.003527
# 5 -0.002052 -0.000952 -0.000991 -0.001463 0.016974 0.003803
# 6 -0.002104 -0.004201 0.000707 -0.003527 0.003803 0.018535
#
#
# Mechanical properties :
#
#
# Convention : Reuss Voigt Hill
#
# Bulk Modulus (GPa) = 89.16263 145.59555 117.37909
# Shear Modulus (GPa) = 62.67999 79.37096 71.02547
#
# Velocity S-wave (km/s) = 4.59530 5.17107 4.89166
# Velocity P-wave (km/s) = 7.62853 9.20349 8.45277
#
# Compressibility (1/GPa) = 0.01121546
#
# Stress axis : x y z
#
# Youngs Moduli (GPa) = 215.97158 118.00379 202.31404
#
# Poissons Ratio (x) = -0.01080 0.31325
# Poissons Ratio (y) = -0.01976 0.39635
# Poissons Ratio (z) = 0.33440 0.23118
#
# Static dielectric constant tensor:
#      x y z
#    x 2.195580 -0.047450 0.105100 
#    y -0.047450 -2.823260 -0.876260 
#    z 0.105100 -0.876260 2.379690 
# 
# From -- ./inp_files/152416.got.cif
#   From: 2010.05.17/outbox.cif.g08.bks.cpg/sg2_77_cif.got.tgz:152416.got - 2010.06.03 11:33:40.
