data_PCOD9012285
_publ_section_title
;
Structure prediction by ZEFSAII (Michael W. Deem and Ramdas Pophale) SiO2 
 PCOD9012285
Probable space group: P -1
;
_chemical_formula_sum "Si O2"
_cell_formula_units_Z 16
_cell_length_a 8.868312
_cell_length_b 5.149864
_cell_length_c 16.525656
_cell_angle_alpha 64.357379
_cell_angle_beta 91.861711
_cell_angle_gamma 99.040761
_cell_volume 671.415658
_symmetry_space_group_name_H-M "P -1"
_symmetry_group_IT_number 2
_symmetry_cell_setting 'triclinic'
loop_
_space_group_symop_operation_xyz
x,y,z
-x,-y,-z
loop_
_atom_site_type_symbol
_atom_site_label
_atom_site_fract_x
_atom_site_fract_y
_atom_site_fract_z
Si Si1 0.735674 0.436999 0.396766
Si Si2 0.272140 0.964562 0.763312
Si Si3 0.542839 0.229345 0.852174
Si Si4 0.679777 0.790055 0.005713
Si Si5 0.518350 0.760452 0.695174
Si Si6 0.144229 0.724517 0.943890
Si Si7 0.024938 0.183620 0.393086
Si Si8 0.216797 0.740769 0.392885
O O1 0.561840 0.310821 0.383566
O O2 0.763482 0.373648 0.499647
O O3 0.864183 0.301124 0.365967
O O4 0.757942 0.778870 0.330902
O O5 0.367349 0.747348 0.749544
O O6 0.134042 0.825811 0.836752
O O7 0.398451 0.109426 0.810485
O O8 0.648599 0.986729 0.902197
O O9 0.610484 0.525204 0.768004
O O10 0.470459 0.276265 0.931914
O O11 0.726761 0.483476 0.026384
O O12 0.806988 0.999009 0.033831
O O13 0.622514 0.073488 0.655424
O O14 0.000000 0.500000 0.000000
O O15 0.151678 0.465350 0.374913
O O16 0.094819 0.966697 0.363901
O O17 0.000000 0.000000 0.500000
#
# Coordination Sequence:
#
# PCOD9012285 Si02
#       8
#     2   2   2   2   2   2   2   2
#     4  10  23  42  66  92 127 184 213 261 336 389
#     4  10  23  39  65  89 134 162 212 269 326 382
#     4   9  21  39  62  92 122 164 209 259 327 377
#     4  10  21  40  69  87 120 169 206 257 321 384
#     4  11  23  40  65  97 137 164 222 279 318 382
#     4  11  23  43  63  94 126 166 214 258 313 391
#     4  10  23  45  66  89 129 174 222 267 322 389
#     4  11  25  42  68  97 130 171 226 272 316 385
#
# _framework density 23.830244
#
# number of rings (size 3 to 8) (size 9 to 14) (size 15 to 20)
#    0.000    1.750    1.250    2.250   10.500    2.000 
#    4.500    0.000    0.000    0.000    0.000    0.000 
#    0.000    0.000    0.000    0.000    0.000    0.000 
#
# Total GULP energy -89438.528933 kJ/mol
# GULP energy per Si atom -5589.908058 kJ/mol
# Density = 2.377601 g / cm^3
# Si number density = 23.830244 Si / 1000 Ang^3
#
#
#
# Elastic Constant Matrix: (Units=GPa)
#
#
# Indices 1 2 3 4 5 6 
#
# 1 36.7294 11.1728 29.2403 -1.6770 0.2637 5.7132
# 2 11.1728 90.5498 25.0877 -15.6704 3.7918 7.5768
# 3 29.2403 25.0877 118.2833 -23.4964 7.9805 7.0265
# 4 -1.6770 -15.6704 -23.4964 29.6200 -2.0326 -1.9817
# 5 0.2637 3.7918 7.9805 -2.0326 41.6041 -13.4955
# 6 5.7132 7.5768 7.0265 -1.9817 -13.4955 39.1804
#
#
#
# Elastic Compliance Matrix: (Units=1/GPa)
#
#
# Indices 1 2 3 4 5 6 
#
# 1 0.035827 -0.002776 -0.009539 -0.007187 0.000474 -0.003177
# 2 -0.002776 0.012821 -0.000641 0.005874 -0.001441 -0.002159
# 3 -0.009539 -0.000641 0.012998 0.009198 -0.002295 -0.001142
# 4 -0.007187 0.005874 0.009198 0.043794 0.000045 0.000493
# 5 0.000474 -0.001441 -0.002295 0.000045 0.027930 0.010244
# 6 -0.003177 -0.002159 -0.001142 0.000493 0.010244 0.030162
#
#
# Mechanical properties :
#
#
# Convention : Reuss Voigt Hill
#
# Bulk Modulus (GPa) = 27.98309 41.84045 34.91177
# Shear Modulus (GPa) = 24.83178 34.08500 29.45839
#
# Velocity S-wave (km/s) = 3.23155 3.78607 3.51974
# Velocity P-wave (km/s) = 5.06873 6.05873 5.58571
#
# Compressibility (1/GPa) = 0.03573587
#
# Stress axis : x y z
#
# Youngs Moduli (GPa) = 27.91190 77.99535 76.93460
#
# Poissons Ratio (x) = 0.21648 0.73387
# Poissons Ratio (y) = 0.07747 0.04930
# Poissons Ratio (z) = 0.26625 0.04998
#
# Static dielectric constant tensor:
#      x y z
#    x 1.962520 -0.001040 -0.002270 
#    y -0.001040 1.945300 0.034230 
#    z -0.002270 0.034230 1.936020 
# 
# From -- ./inp_files/585079.got.cif
#   From: 2010.05.17/outbox.cif.g08.bks.cpg/sg2_293_cif.got.tgz:585079.got - 2010.06.03 11:33:40.
