data_PCOD9012394
_publ_section_title
;
Structure prediction by ZEFSAII (Michael W. Deem and Ramdas Pophale) SiO2 
 PCOD9012394
Probable space group: P -1
;
_chemical_formula_sum "Si O2"
_cell_formula_units_Z 16
_cell_length_a 16.712673
_cell_length_b 9.639629
_cell_length_c 8.651274
_cell_angle_alpha 111.861922
_cell_angle_beta 67.129698
_cell_angle_gamma 145.461902
_cell_volume 724.427780
_symmetry_space_group_name_H-M "P -1"
_symmetry_group_IT_number 2
_symmetry_cell_setting 'triclinic'
loop_
_space_group_symop_operation_xyz
x,y,z
-x,-y,-z
loop_
_atom_site_type_symbol
_atom_site_label
_atom_site_fract_x
_atom_site_fract_y
_atom_site_fract_z
Si Si1 0.244547 0.897166 0.374037
Si Si2 0.156511 0.694281 0.889285
Si Si3 0.828334 0.763072 0.031691
Si Si4 0.293236 0.113297 0.748608
Si Si5 0.030775 0.299716 0.594791
Si Si6 0.579979 0.597773 0.646519
Si Si7 0.831298 0.789730 0.689476
Si Si8 0.328866 0.765025 0.047554
O O1 0.275452 0.771044 0.248641
O O2 0.084790 0.741526 0.403551
O O3 0.285232 0.992747 0.557893
O O4 0.344210 0.138325 0.289930
O O5 0.143233 0.551779 0.707274
O O6 0.212174 0.922474 0.868332
O O7 0.263259 0.780432 0.972062
O O8 0.000000 0.500000 0.000000
O O9 0.782602 0.833557 0.208959
O O10 0.780914 0.736039 0.880560
O O11 0.748351 0.500448 0.023067
O O12 0.000000 0.000000 0.000000
O O13 0.456158 0.382059 0.767292
O O14 0.100638 0.280491 0.414450
O O15 0.949089 0.077191 0.682672
O O16 0.500000 0.500000 0.500000
O O17 0.706388 0.651759 0.601492
O O18 0.500000 0.000000 0.000000
#
# Coordination Sequence:
#
# PCOD9012394 Si02
#       8
#     2   2   2   2   2   2   2   2
#     4  10  22  44  72 100 137 182 237 284 350 420
#     4  12  25  44  68 100 140 184 233 289 349 420
#     4  12  26  44  68 102 142 180 239 289 352 417
#     4  11  25  42  73  98 138 186 234 279 354 424
#     4  10  21  40  69  98 137 180 229 285 350 411
#     4   9  21  42  67  99 136 180 229 286 351 422
#     4  10  22  39  68 101 135 178 235 289 342 419
#     4  12  28  46  70 104 150 182 230 301 364 410
#
# _framework density 22.086396000000001
#
# number of rings (size 3 to 8) (size 9 to 14) (size 15 to 20)
#    0.000    1.250    1.250    3.750    5.250    7.000 
#    0.000    1.250    0.000    0.000    0.000    0.000 
#    0.000    0.000    0.000    0.000    0.000    0.000 
#
# Total GULP energy -89423.954553 kJ/mol
# GULP energy per Si atom -5588.997160 kJ/mol
# Density = 2.203613 g / cm^3
# Si number density = 22.086396 Si / 1000 Ang^3
#
#
#
# Elastic Constant Matrix: (Units=GPa)
#
#
# Indices 1 2 3 4 5 6 
#
# 1 99.7425 59.4991 27.7538 5.9040 -9.8228 10.9417
# 2 59.4991 139.0386 35.6801 -4.8965 -10.0533 -2.6181
# 3 27.7538 35.6801 55.4219 4.9158 -7.7235 -10.1136
# 4 5.9040 -4.8965 4.9158 30.2977 -2.7092 1.7680
# 5 -9.8228 -10.0533 -7.7235 -2.7092 36.8837 5.2272
# 6 10.9417 -2.6181 -10.1136 1.7680 5.2272 38.7878
#
#
#
# Elastic Compliance Matrix: (Units=1/GPa)
#
#
# Indices 1 2 3 4 5 6 
#
# 1 0.015771 -0.005521 -0.004936 -0.002585 0.002366 -0.006309
# 2 -0.005521 0.010842 -0.004260 0.003530 0.000722 0.000920
# 3 -0.004936 -0.004260 0.025223 -0.004141 0.001414 0.007680
# 4 -0.002585 0.003530 -0.004141 0.035072 0.002269 -0.002017
# 5 0.002366 0.000722 0.001414 0.002269 0.029006 -0.004262
# 6 -0.006309 0.000920 0.007680 -0.002017 -0.004262 0.030292
#
#
# Mechanical properties :
#
#
# Convention : Reuss Voigt Hill
#
# Bulk Modulus (GPa) = 44.63659 60.00769 52.32214
# Shear Modulus (GPa) = 27.30656 32.61182 29.95919
#
# Velocity S-wave (km/s) = 3.51999 3.84677 3.68700
# Velocity P-wave (km/s) = 6.06419 6.85264 6.47043
#
# Compressibility (1/GPa) = 0.02240315
#
# Stress axis : x y z
#
# Youngs Moduli (GPa) = 63.40854 92.23553 39.64625
#
# Poissons Ratio (x) = 0.50923 0.19568
# Poissons Ratio (y) = 0.35008 0.16888
# Poissons Ratio (z) = 0.31296 0.39289
#
# Static dielectric constant tensor:
#      x y z
#    x 1.806370 0.000040 -0.002380 
#    y 0.000040 1.840250 -0.003300 
#    z -0.002380 -0.003300 1.849210 
# 
# From -- ./inp_files/299144.got.cif
#   From: 2010.05.17/outbox.cif.g08.bks.cpg/sg2_150_cif.got.tgz:299144.got - 2010.06.03 11:33:40.
