data_PCOD9012532
_publ_section_title
;
Structure prediction by ZEFSAII (Michael W. Deem and Ramdas Pophale) SiO2 
 PCOD9012532
Probable space group: P -1
;
_chemical_formula_sum "Si O2"
_cell_formula_units_Z 16
_cell_length_a 8.006796
_cell_length_b 22.181169
_cell_length_c 5.649898
_cell_angle_alpha 66.388607
_cell_angle_beta 121.809595
_cell_angle_gamma 128.563899
_cell_volume 662.827856
_symmetry_space_group_name_H-M "P -1"
_symmetry_group_IT_number 2
_symmetry_cell_setting 'triclinic'
loop_
_space_group_symop_operation_xyz
x,y,z
-x,-y,-z
loop_
_atom_site_type_symbol
_atom_site_label
_atom_site_fract_x
_atom_site_fract_y
_atom_site_fract_z
Si Si1 0.555430 0.209423 0.272384
Si Si2 0.104869 0.459714 0.789944
Si Si3 0.315720 0.712091 0.253000
Si Si4 0.833995 0.773208 0.596688
Si Si5 0.182804 0.259871 0.860254
Si Si6 0.532163 0.557452 0.225918
Si Si7 0.885942 0.935017 0.321657
Si Si8 0.353754 0.037695 0.272358
O O1 0.694624 0.256078 0.540972
O O2 0.451081 0.117605 0.364980
O O3 0.663291 0.239032 0.043404
O O4 0.341671 0.223085 0.066887
O O5 0.293312 0.448466 0.812949
O O6 0.000000 0.500000 0.500000
O O7 0.895685 0.373903 0.825422
O O8 0.267573 0.522464 0.006858
O O9 0.556444 0.712296 0.456770
O O10 0.952365 0.774842 0.432744
O O11 0.841813 0.853498 0.496726
O O12 0.923787 0.755223 0.931388
O O13 0.340545 0.351174 0.786734
O O14 0.500000 0.500000 0.500000
O O15 0.668049 0.934588 0.048943
O O16 0.000000 0.000000 0.500000
O O17 0.092808 0.966767 0.236582
O O18 0.500000 0.000000 0.500000
#
# Coordination Sequence:
#
# PCOD9012532 Si02
#       8
#     2   2   2   2   2   2   2   2
#     4  10  21  43  69  99 143 188 235 297 356 430
#     4  11  26  47  73 105 143 194 237 300 371 434
#     4  10  21  40  70  98 135 186 239 284 357 428
#     4  10  21  41  72 102 139 192 241 298 360 431
#     4  10  21  42  70  96 143 189 233 297 359 424
#     4  11  28  46  73 108 147 186 249 303 361 446
#     4  11  23  44  75 101 143 196 241 299 370 431
#     4  11  25  45  69 106 145 188 243 300 364 436
#
# _framework density 24.138995999999999
#
# number of rings (size 3 to 8) (size 9 to 14) (size 15 to 20)
#    0.000    1.500    2.500    3.000   10.500    1.000 
#    4.500    0.000    0.000    0.000    0.000    0.000 
#    0.000    0.000    0.000    0.000    0.000    0.000 
#
# Total GULP energy -89323.740372 kJ/mol
# GULP energy per Si atom -5582.733773 kJ/mol
# Density = 2.408405 g / cm^3
# Si number density = 24.138996 Si / 1000 Ang^3
#
#
#
# Elastic Constant Matrix: (Units=GPa)
#
#
# Indices 1 2 3 4 5 6 
#
# 1 50.7611 11.4463 28.8868 -5.5838 -3.5502 -0.2470
# 2 11.4463 123.0629 30.0857 -25.1035 -7.4052 -12.3267
# 3 28.8868 30.0857 174.1140 -5.8310 -10.2846 -11.4853
# 4 -5.5838 -25.1035 -5.8310 38.2509 -1.8904 -5.9564
# 5 -3.5502 -7.4052 -10.2846 -1.8904 54.3400 -2.0222
# 6 -0.2470 -12.3267 -11.4853 -5.9564 -2.0222 37.9912
#
#
#
# Elastic Compliance Matrix: (Units=1/GPa)
#
#
# Indices 1 2 3 4 5 6 
#
# 1 0.022136 -0.000826 -0.003472 0.002069 0.000718 -0.000811
# 2 -0.000826 0.010488 -0.001050 0.007353 0.001593 0.004318
# 3 -0.003472 -0.001050 0.006676 0.000139 0.000963 0.001728
# 4 0.002069 0.007353 0.000139 0.032618 0.002584 0.007693
# 5 0.000718 0.001593 0.000963 0.002584 0.019022 0.002230
# 6 -0.000811 0.004318 0.001728 0.007693 0.002230 0.029565
#
#
# Mechanical properties :
#
#
# Convention : Reuss Voigt Hill
#
# Bulk Modulus (GPa) = 34.95925 54.30840 44.63383
# Shear Modulus (GPa) = 35.52787 44.61770 40.07278
#
# Velocity S-wave (km/s) = 3.84057 4.30393 4.07883
# Velocity P-wave (km/s) = 5.84642 6.87353 6.38067
#
# Compressibility (1/GPa) = 0.02860473
#
# Stress axis : x y z
#
# Youngs Moduli (GPa) = 45.17554 95.34862 149.78482
#
# Poissons Ratio (x) = 0.07877 0.51998
# Poissons Ratio (y) = 0.03732 0.15727
# Poissons Ratio (z) = 0.15683 0.10011
#
# Static dielectric constant tensor:
#      x y z
#    x 2.023150 0.067110 -0.092030 
#    y 0.067110 2.119730 0.066830 
#    z -0.092030 0.066830 2.066590 
# 
# From -- ./inp_files/52804.got.cif
#   From: 2010.05.17/outbox.cif.g08.bks.cpg/sg2_27_cif.got.tgz:52804.got - 2010.06.03 11:33:40.
