data_PCOD9012489
_publ_section_title
;
Structure prediction by ZEFSAII (Michael W. Deem and Ramdas Pophale) SiO2 
 PCOD9012489
Probable space group: P -1
;
_chemical_formula_sum "Si O2"
_cell_formula_units_Z 16
_cell_length_a 21.886062
_cell_length_b 8.717642
_cell_length_c 9.344695
_cell_angle_alpha 121.283057
_cell_angle_beta 59.788720
_cell_angle_gamma 148.878118
_cell_volume 780.566944
_symmetry_space_group_name_H-M "P -1"
_symmetry_group_IT_number 2
_symmetry_cell_setting 'triclinic'
loop_
_space_group_symop_operation_xyz
x,y,z
-x,-y,-z
loop_
_atom_site_type_symbol
_atom_site_label
_atom_site_fract_x
_atom_site_fract_y
_atom_site_fract_z
Si Si1 0.479261 0.346940 0.806744
Si Si2 0.067062 0.280852 0.152718
Si Si3 0.006964 0.527450 0.835006
Si Si4 0.324530 0.644872 0.064046
Si Si5 0.475775 0.961258 0.761011
Si Si6 0.286431 0.151485 0.783416
Si Si7 0.068570 0.810766 0.496163
Si Si8 0.347728 0.349442 0.495373
O O1 0.349133 0.134069 0.800254
O O2 0.575623 0.589563 0.687788
O O3 0.491827 0.164276 0.740032
O O4 0.500000 0.500000 0.000000
O O5 0.197127 0.477735 0.134976
O O6 0.068181 0.463058 0.142032
O O7 0.988801 0.149263 0.323848
O O8 0.000000 0.000000 0.000000
O O9 0.963952 0.266575 0.669960
O O10 0.145084 0.845254 0.790631
O O11 0.000000 0.500000 0.000000
O O12 0.400718 0.839431 0.210497
O O13 0.394780 0.852439 0.940245
O O14 0.313460 0.406305 0.936821
O O15 0.411545 0.668449 0.612867
O O16 0.340883 0.239954 0.604054
O O17 0.000000 0.500000 0.500000
O O18 0.210367 0.093106 0.485963
#
# Coordination Sequence:
#
# PCOD9012489 Si02
#       8
#     2   2   2   2   2   2   2   2
#     4  12  26  40  69 101 134 175 219 280 341 382
#     4  11  20  41  72  94 128 183 220 266 338 399
#     4  11  25  42  67 100 135 168 226 286 329 388
#     4  10  21  40  70  94 138 175 221 269 324 407
#     4  10  23  43  63 103 135 175 221 271 335 393
#     4  11  22  45  66  98 135 177 227 268 333 404
#     4  10  22  44  68  97 129 173 228 270 331 403
#     4  11  23  46  69  92 139 176 222 280 329 411
#
# _framework density 20.497921999999999
#
# number of rings (size 3 to 8) (size 9 to 14) (size 15 to 20)
#    0.000    1.250    5.000    1.500    3.500    2.000 
#    0.000    0.625    0.000    0.000    0.000    0.000 
#    0.000    0.000    0.000    0.000    0.000    0.000 
#
# Total GULP energy -89397.486993 kJ/mol
# GULP energy per Si atom -5587.342937 kJ/mol
# Density = 2.045127 g / cm^3
# Si number density = 20.497922 Si / 1000 Ang^3
#
#
#
# Elastic Constant Matrix: (Units=GPa)
#
#
# Indices 1 2 3 4 5 6 
#
# 1 80.9007 33.4952 37.4983 -6.4102 12.7948 25.1761
# 2 33.4952 90.1585 34.3789 15.8876 6.1347 34.4935
# 3 37.4983 34.3789 136.1393 13.2533 16.5504 7.9505
# 4 -6.4102 15.8876 13.2533 26.3933 8.8498 3.2156
# 5 12.7948 6.1347 16.5504 8.8498 27.1744 -5.3922
# 6 25.1761 34.4935 7.9505 3.2156 -5.3922 37.0103
#
#
#
# Elastic Compliance Matrix: (Units=1/GPa)
#
#
# Indices 1 2 3 4 5 6 
#
# 1 0.025873 -0.002837 -0.004960 0.018820 -0.018258 -0.018185
# 2 -0.002837 0.021414 -0.002427 -0.009518 -0.002297 -0.017014
# 3 -0.004960 -0.002427 0.009647 -0.004847 -0.000641 0.003891
# 4 0.018820 -0.009518 -0.004847 0.060770 -0.025922 -0.011947
# 5 -0.018258 -0.002297 -0.000641 -0.025922 0.059840 0.025669
# 6 -0.018185 -0.017014 0.003891 -0.011947 0.025669 0.059188
#
#
# Mechanical properties :
#
#
# Convention : Reuss Voigt Hill
#
# Bulk Modulus (GPa) = 27.40879 57.54927 42.47903
# Shear Modulus (GPa) = 18.56372 31.57067 25.06719
#
# Velocity S-wave (km/s) = 3.01265 3.92878 3.50081
# Velocity P-wave (km/s) = 5.04994 6.97976 6.09176
#
# Compressibility (1/GPa) = 0.03648465
#
# Stress axis : x y z
#
# Youngs Moduli (GPa) = 38.65078 46.69889 103.65767
#
# Poissons Ratio (x) = 0.13250 0.51419
# Poissons Ratio (y) = 0.10967 0.25154
# Poissons Ratio (z) = 0.19173 0.11332
#
# Static dielectric constant tensor:
#      x y z
#    x 1.703270 -0.017310 0.003890 
#    y -0.017310 1.729460 0.005520 
#    z 0.003890 0.005520 1.755260 
# 
# From -- ./inp_files/178733.got.cif
#   From: 2010.05.17/outbox.cif.g08.bks.cpg/sg2_90_cif.got.tgz:178733.got - 2010.06.03 11:33:40.
