data_PCOD9012580
_publ_section_title
;
Structure prediction by ZEFSAII (Michael W. Deem and Ramdas Pophale) SiO2 
 PCOD9012580
Probable space group: P -1
;
_chemical_formula_sum "Si O2"
_cell_formula_units_Z 16
_cell_length_a 16.397193
_cell_length_b 9.618781
_cell_length_c 13.266542
_cell_angle_alpha 41.457956
_cell_angle_beta 43.013868
_cell_angle_gamma 29.255846
_cell_volume 657.396503
_symmetry_space_group_name_H-M "P -1"
_symmetry_group_IT_number 2
_symmetry_cell_setting 'triclinic'
loop_
_space_group_symop_operation_xyz
x,y,z
-x,-y,-z
loop_
_atom_site_type_symbol
_atom_site_label
_atom_site_fract_x
_atom_site_fract_y
_atom_site_fract_z
Si Si1 0.436849 0.741159 0.838448
Si Si2 0.084597 0.887454 0.323602
Si Si3 0.325946 0.364442 0.880861
Si Si4 0.729177 0.836644 0.784958
Si Si5 0.237814 0.723631 0.483100
Si Si6 0.743571 0.676154 0.629326
Si Si7 0.375194 0.754684 0.655184
Si Si8 0.813007 0.816423 0.025643
O O1 0.574079 0.756086 0.709547
O O2 0.419266 0.674244 0.777875
O O3 0.252149 0.059692 0.870332
O O4 0.500000 0.500000 0.000000
O O5 0.178703 0.702113 0.442552
O O6 0.100784 0.673286 0.350207
O O7 0.892220 0.197406 0.358736
O O8 0.188771 0.955095 0.151212
O O9 0.282102 0.664203 0.748053
O O10 0.309289 0.207474 0.896666
O O11 0.531101 0.125208 0.839359
O O12 0.218434 0.401899 0.050583
O O13 0.741838 0.735264 0.716234
O O14 0.806870 0.970686 0.648292
O O15 0.442145 0.442392 0.461973
O O16 0.735843 0.899362 0.452095
O O17 0.000000 0.500000 0.000000
#
# Coordination Sequence:
#
# PCOD9012580 Si02
#       8
#     2   2   2   2   2   2   2   2
#     4  12  23  44  70 100 134 177 232 271 332 400
#     4  11  24  41  64  99 136 175 216 271 342 400
#     4  10  22  43  67 100 130 176 232 271 331 395
#     4  10  21  40  71  95 132 181 225 275 324 403
#     4  10  22  41  67  93 135 174 217 268 336 397
#     4  12  24  40  67 102 135 173 222 278 337 392
#     4  11  25  42  70 102 131 176 224 284 325 391
#     4  12  26  43  70 101 133 176 225 281 334 394
#
# _framework density 24.338432000000001
#
# number of rings (size 3 to 8) (size 9 to 14) (size 15 to 20)
#    0.000    1.000    5.000    1.125    3.500    4.500 
#    0.000    0.625    0.000    0.000    0.000    0.000 
#    0.000    0.000    0.000    0.000    0.000    0.000 
#
# Total GULP energy -89491.176564 kJ/mol
# GULP energy per Si atom -5593.198535 kJ/mol
# Density = 2.428304 g / cm^3
# Si number density = 24.338432 Si / 1000 Ang^3
#
#
#
# Elastic Constant Matrix: (Units=GPa)
#
#
# Indices 1 2 3 4 5 6 
#
# 1 80.6161 18.4168 26.8883 3.3795 0.3243 29.6571
# 2 18.4168 106.9007 30.6535 8.2980 6.0631 19.5708
# 3 26.8883 30.6535 108.9253 -10.7081 -18.4805 15.6336
# 4 3.3795 8.2980 -10.7081 48.1313 6.7606 -2.5477
# 5 0.3243 6.0631 -18.4805 6.7606 35.6997 4.7947
# 6 29.6571 19.5708 15.6336 -2.5477 4.7947 38.0385
#
#
#
# Elastic Compliance Matrix: (Units=1/GPa)
#
#
# Indices 1 2 3 4 5 6 
#
# 1 0.018402 0.000315 -0.002839 -0.002792 0.000667 -0.013614
# 2 0.000315 0.011449 -0.003327 -0.002622 -0.002552 -0.004622
# 3 -0.002839 -0.003327 0.012498 0.002491 0.006845 -0.001908
# 4 -0.002792 -0.002622 0.002491 0.022651 -0.003122 0.004413
# 5 0.000667 -0.002552 0.006845 -0.003122 0.033439 -0.006444
# 6 -0.013614 -0.004622 -0.001908 0.004413 -0.006444 0.041173
#
#
# Mechanical properties :
#
#
# Convention : Reuss Voigt Hill
#
# Bulk Modulus (GPa) = 32.62963 49.81770 41.22366
# Shear Modulus (GPa) = 30.95435 39.07279 35.01357
#
# Velocity S-wave (km/s) = 3.57014 4.01108 3.79702
# Velocity P-wave (km/s) = 5.51636 6.47803 6.01644
#
# Compressibility (1/GPa) = 0.03064700
#
# Stress axis : x y z
#
# Youngs Moduli (GPa) = 54.34236 87.34551 80.01573
#
# Poissons Ratio (x) = -0.02750 0.22713
# Poissons Ratio (y) = -0.01711 0.26621
# Poissons Ratio (z) = 0.15425 0.29060
#
# Static dielectric constant tensor:
#      x y z
#    x 1.904630 -0.041020 0.018780 
#    y -0.041020 1.952080 -0.046750 
#    z 0.018780 -0.046750 1.990310 
# 
# From -- ./inp_files/389744.got.cif
#   From: 2010.05.17/outbox.cif.g08.bks.cpg/sg2_195_cif.got.tgz:389744.got - 2010.06.03 11:33:40.
