data_PCOD9012528
_publ_section_title
;
Structure prediction by ZEFSAII (Michael W. Deem and Ramdas Pophale) SiO2 
 PCOD9012528
Probable space group: P -1
;
_chemical_formula_sum "Si O2"
_cell_formula_units_Z 14
_cell_length_a 19.442450
_cell_length_b 14.098263
_cell_length_c 5.536175
_cell_angle_alpha 103.222477
_cell_angle_beta 102.573555
_cell_angle_gamma 21.060228
_cell_volume 530.813865
_symmetry_space_group_name_H-M "P -1"
_symmetry_group_IT_number 2
_symmetry_cell_setting 'triclinic'
loop_
_space_group_symop_operation_xyz
x,y,z
-x,-y,-z
loop_
_atom_site_type_symbol
_atom_site_label
_atom_site_fract_x
_atom_site_fract_y
_atom_site_fract_z
Si Si1 0.201669 0.850176 0.046272
Si Si2 0.521296 0.557224 0.359716
Si Si3 0.166769 0.208294 0.658283
Si Si4 0.676811 0.718238 0.853533
Si Si5 0.056067 0.316400 0.136950
Si Si6 0.441772 0.265350 0.493429
Si Si7 0.757504 0.418811 0.979683
O O1 0.348660 0.747707 0.157660
O O2 0.233484 0.708566 0.138614
O O3 0.270321 0.725483 0.764492
O O4 0.978471 0.161067 0.056225
O O5 0.500000 0.500000 0.500000
O O6 0.506253 0.684892 0.515090
O O7 0.992380 0.507301 0.753439
O O8 0.106611 0.218698 0.390999
O O9 0.341686 0.046719 0.594167
O O10 0.201152 0.121588 0.905515
O O11 0.659633 0.718000 0.560515
O O12 0.681288 0.589379 0.808097
O O13 0.867942 0.508300 0.996096
O O14 0.500000 0.000000 0.000000
O O15 0.374114 0.386460 0.781733
#
# Coordination Sequence:
#
# PCOD9012528 Si02
#       7
#     2   2   2   2   2   2   2
#     4   9  21  44  66 101 132 175 225 286 375 415
#     4  10  21  40  70  98 131 172 227 299 353 432
#     4  10  23  45  65 100 131 185 242 295 345 428
#     4  12  26  43  64 101 138 190 232 295 350 428
#     4  10  24  43  70  92 139 185 241 293 356 411
#     4  11  25  40  66 100 135 182 239 281 365 417
#     4  10  24  42  67  96 142 177 226 297 352 440
#
# _framework density 26.374593999999998
#
# number of rings (size 3 to 8) (size 9 to 14) (size 15 to 20)
#    0.000    1.714    1.429    0.857    6.000    4.000 
#    0.000    4.286    0.000    0.000    0.000    0.000 
#    0.000    0.000    0.000    0.000    0.000    0.000 
#
# Total GULP energy -77954.055230 kJ/mol
# GULP energy per Si atom -5568.146802 kJ/mol
# Density = 2.631456 g / cm^3
# Si number density = 26.374594 Si / 1000 Ang^3
#
#
#
# Elastic Constant Matrix: (Units=GPa)
#
#
# Indices 1 2 3 4 5 6 
#
# 1 114.3830 32.0166 46.0549 -4.7446 35.3309 -1.1864
# 2 32.0166 101.9378 48.7752 4.0489 -4.1216 -14.6385
# 3 46.0549 48.7752 125.2777 6.3225 21.1927 -19.7927
# 4 -4.7446 4.0489 6.3225 33.7230 -6.6967 0.6342
# 5 35.3309 -4.1216 21.1927 -6.6967 60.8254 -0.0329
# 6 -1.1864 -14.6385 -19.7927 0.6342 -0.0329 56.4723
#
#
#
# Elastic Compliance Matrix: (Units=1/GPa)
#
#
# Indices 1 2 3 4 5 6 
#
# 1 0.012802 -0.003312 -0.002613 0.001407 -0.006596 -0.001525
# 2 -0.003312 0.013428 -0.004427 -0.000423 0.004331 0.001867
# 3 -0.002613 -0.004427 0.011815 -0.002742 -0.003199 0.002967
# 4 0.001407 -0.000423 -0.002742 0.031145 0.003537 -0.001389
# 5 -0.006596 0.004331 -0.003199 0.003537 0.022069 -0.000164
# 6 -0.001525 0.001867 0.002967 -0.001389 -0.000164 0.019215
#
#
# Mechanical properties :
#
#
# Convention : Reuss Voigt Hill
#
# Bulk Modulus (GPa) = 57.66614 66.14355 61.90484
# Shear Modulus (GPa) = 36.50763 44.52093 40.51428
#
# Velocity S-wave (km/s) = 3.72452 4.11301 3.92358
# Velocity P-wave (km/s) = 6.35671 6.90571 6.63689
#
# Compressibility (1/GPa) = 0.01734120
#
# Stress axis : x y z
#
# Youngs Moduli (GPa) = 78.11554 74.46946 84.64038
#
# Poissons Ratio (x) = 0.24665 0.22115
# Poissons Ratio (y) = 0.25873 0.37468
# Poissons Ratio (z) = 0.20410 0.32966
#
# Static dielectric constant tensor:
#      x y z
#    x 2.223600 0.032920 -0.027660 
#    y 0.032920 2.230030 -0.143890 
#    z -0.027660 -0.143890 2.132760 
# 
# From -- ./inp_files/119490.got.cif
#   From: 2010.05.17/outbox.cif.g08.bks.cpg/sg2_60_cif.got.tgz:119490.got - 2010.06.03 11:33:40.
