data_PCOD9012281
_publ_section_title
;
Structure prediction by ZEFSAII (Michael W. Deem and Ramdas Pophale) SiO2 
 PCOD9012281
Probable space group: P -1
;
_chemical_formula_sum "Si O2"
_cell_formula_units_Z 12
_cell_length_a 7.880856
_cell_length_b 8.042650
_cell_length_c 7.591753
_cell_angle_alpha 70.426628
_cell_angle_beta 77.450588
_cell_angle_gamma 101.708842
_cell_volume 422.192857
_symmetry_space_group_name_H-M "P -1"
_symmetry_group_IT_number 2
_symmetry_cell_setting 'triclinic'
loop_
_space_group_symop_operation_xyz
x,y,z
-x,-y,-z
loop_
_atom_site_type_symbol
_atom_site_label
_atom_site_fract_x
_atom_site_fract_y
_atom_site_fract_z
Si Si1 0.927532 0.254843 0.458479
Si Si2 0.588196 0.201620 0.769205
Si Si3 0.832653 0.564225 0.941278
Si Si4 0.507381 0.542340 0.696977
Si Si5 0.133356 0.013920 0.130471
Si Si6 0.670214 0.935566 0.422838
O O1 0.748326 0.299229 0.555875
O O2 0.840661 0.104752 0.378316
O O3 0.089654 0.417024 0.286208
O O4 0.979158 0.142187 0.648622
O O5 0.565352 0.370886 0.828474
O O6 0.394229 0.119413 0.742149
O O7 0.682287 0.054242 0.879416
O O8 0.823282 0.773310 0.901236
O O9 0.000000 0.500000 0.000000
O O10 0.500000 0.500000 0.500000
O O11 0.333744 0.545164 0.853217
O O12 0.644818 0.747296 0.601120
O O13 0.000000 0.000000 0.000000
O O14 0.500000 0.000000 0.500000
#
# Coordination Sequence:
#
# PCOD9012281 Si02
#       6
#     2   2   2   2   2   2
#     4   9  21  44  75 103 140 183 244 292 361 423
#     4   8  19  40  71 100 143 184 239 287 363 418
#     4  12  24  43  71 108 144 184 242 299 356 432
#     4  10  21  40  69 108 148 181 232 298 366 433
#     4  10  24  46  70 102 145 196 241 291 356 431
#     4   9  16  37  71 104 139 183 226 302 359 424
#
# _framework density 28.423030000000001
#
# number of rings (size 3 to 8) (size 9 to 14) (size 15 to 20)
#    1.000    1.333    0.000    3.500    0.000    3.333 
#    3.000    1.667    0.000    1.000    0.000    0.000 
#    0.000    0.000    0.000    0.000    0.000    0.000 
#
# Total GULP energy -66864.478519 kJ/mol
# GULP energy per Si atom -5572.039877 kJ/mol
# Density = 2.835834 g / cm^3
# Si number density = 28.423030 Si / 1000 Ang^3
#
#
#
# Elastic Constant Matrix: (Units=GPa)
#
#
# Indices 1 2 3 4 5 6 
#
# 1 189.2085 38.3460 65.8305 -2.8737 2.9084 -7.0121
# 2 38.3460 88.9045 24.5787 -21.3364 14.0039 -1.7433
# 3 65.8305 24.5787 202.7138 -19.1964 6.5149 23.4919
# 4 -2.8737 -21.3364 -19.1964 38.7900 -8.4388 15.1752
# 5 2.9084 14.0039 6.5149 -8.4388 57.0671 -13.6782
# 6 -7.0121 -1.7433 23.4919 15.1752 -13.6782 66.9707
#
#
#
# Elastic Compliance Matrix: (Units=1/GPa)
#
#
# Indices 1 2 3 4 5 6 
#
# 1 0.006782 -0.003088 -0.002424 -0.003145 0.000788 0.002353
# 2 -0.003088 0.014934 0.000400 0.008572 -0.002911 -0.002612
# 3 -0.002424 0.000400 0.006572 0.004563 -0.000956 -0.003778
# 4 -0.003145 0.008572 0.004563 0.036502 0.000570 -0.009861
# 5 0.000788 -0.002911 -0.000956 0.000570 0.019391 0.004173
# 6 0.002353 -0.002612 -0.003778 -0.009861 0.004173 0.019522
#
#
# Mechanical properties :
#
#
# Convention : Reuss Voigt Hill
#
# Bulk Modulus (GPa) = 55.35606 82.03746 68.69676
# Shear Modulus (GPa) = 41.68495 56.03701 48.86098
#
# Velocity S-wave (km/s) = 3.83376 4.44501 4.15066
# Velocity P-wave (km/s) = 6.25420 7.43437 6.86968
#
# Compressibility (1/GPa) = 0.01806487
#
# Stress axis : x y z
#
# Youngs Moduli (GPa) = 147.45901 66.96257 152.15373
#
# Poissons Ratio (x) = 0.20675 0.36878
# Poissons Ratio (y) = 0.45529 -0.06085
# Poissons Ratio (z) = 0.35740 -0.02678
#
# Static dielectric constant tensor:
#      x y z
#    x 2.418110 0.108990 0.108070 
#    y 0.108990 2.323630 0.223830 
#    z 0.108070 0.223830 2.548420 
# 
# From -- ./inp_files/233909.got.cif
#   From: 2010.05.17/outbox.cif.g08.bks.cpg/sg2_117_cif.got.tgz:233909.got - 2010.06.03 11:33:40.
