data_PCOD9012114
_publ_section_title
;
Structure prediction by ZEFSAII (Michael W. Deem and Ramdas Pophale) SiO2 
 PCOD9012114
Probable space group: P -1
;
_chemical_formula_sum "Si O2"
_cell_formula_units_Z 16
_cell_length_a 8.971015
_cell_length_b 14.731785
_cell_length_c 14.701247
_cell_angle_alpha 51.215939
_cell_angle_beta 43.205994
_cell_angle_gamma 85.823354
_cell_volume 720.578176
_symmetry_space_group_name_H-M "P -1"
_symmetry_group_IT_number 2
_symmetry_cell_setting 'triclinic'
loop_
_space_group_symop_operation_xyz
x,y,z
-x,-y,-z
loop_
_atom_site_type_symbol
_atom_site_label
_atom_site_fract_x
_atom_site_fract_y
_atom_site_fract_z
Si Si1 0.436640 0.610325 0.482336
Si Si2 0.520067 0.985767 0.294621
Si Si3 0.912017 0.860307 0.695847
Si Si4 0.250841 0.687220 0.073825
Si Si5 0.295108 0.035546 0.591720
Si Si6 0.928324 0.335758 0.632867
Si Si7 0.367214 0.097985 0.892169
Si Si8 0.712558 0.742533 0.474611
O O1 0.500000 0.500000 0.500000
O O2 0.633044 0.769686 0.228717
O O3 0.525960 0.668007 0.510232
O O4 0.070016 0.493068 0.702633
O O5 0.714081 0.989077 0.280366
O O6 0.564223 0.948562 0.199942
O O7 0.148924 0.848918 0.568566
O O8 0.642533 0.165983 0.130549
O O9 0.539053 0.710380 0.946283
O O10 0.000000 0.000000 0.500000
O O11 0.008506 0.923066 0.718559
O O12 0.175716 0.722958 0.179995
O O13 0.426165 0.218618 0.415825
O O14 0.500000 0.000000 0.500000
O O15 0.649714 0.200934 0.773025
O O16 0.000000 0.500000 0.500000
O O17 0.219961 0.364715 0.460982
O O18 0.060729 0.927713 0.182809
#
# Coordination Sequence:
#
# PCOD9012114 Si02
#       8
#     2   2   2   2   2   2   2   2
#     4  12  23  40  60  93 140 171 211 268 342 392
#     4  10  21  40  68  96 126 168 229 276 320 393
#     4   9  21  40  67  93 126 170 220 268 328 382
#     4  11  22  42  61  95 134 177 212 271 338 393
#     4  10  22  41  67  99 126 165 228 279 317 384
#     4  12  24  41  61  97 142 170 211 275 342 397
#     4  12  23  39  66  96 128 170 227 274 324 402
#     4  12  24  39  68  97 129 176 227 271 328 393
#
# _framework density 22.204391000000001
#
# number of rings (size 3 to 8) (size 9 to 14) (size 15 to 20)
#    0.000    1.000    5.000    1.500    5.250    0.000 
#    2.250    0.625    0.000    6.750    0.000    0.000 
#    0.000    0.000    0.000    0.000    0.000    0.000 
#
# Total GULP energy -89293.769978 kJ/mol
# GULP energy per Si atom -5580.860624 kJ/mol
# Density = 2.215385 g / cm^3
# Si number density = 22.204391 Si / 1000 Ang^3
#
#
#
# Elastic Constant Matrix: (Units=GPa)
#
#
# Indices 1 2 3 4 5 6 
#
# 1 135.0970 39.3341 29.4033 -15.3504 -25.0923 7.7442
# 2 39.3341 101.1553 24.8657 -9.0816 -7.1172 -5.9241
# 3 29.4033 24.8657 55.8833 -14.1977 -23.3506 -5.7419
# 4 -15.3504 -9.0816 -14.1977 23.0180 -6.3050 -4.0058
# 5 -25.0923 -7.1172 -23.3506 -6.3050 31.3617 -11.8146
# 6 7.7442 -5.9241 -5.7419 -4.0058 -11.8146 50.0120
#
#
#
# Elastic Compliance Matrix: (Units=1/GPa)
#
#
# Indices 1 2 3 4 5 6 
#
# 1 0.012750 -0.003692 0.011895 0.022476 0.025272 0.006724
# 2 -0.003692 0.012263 -0.007852 -0.004642 -0.007319 -0.000978
# 3 0.011895 -0.007852 0.090605 0.098272 0.110638 0.041638
# 4 0.022476 -0.004642 0.098272 0.166183 0.144077 0.054599
# 5 0.025272 -0.007319 0.110638 0.144077 0.185640 0.063317
# 6 0.006724 -0.000978 0.041638 0.054599 0.063317 0.042949
#
#
# Mechanical properties :
#
#
# Convention : Reuss Voigt Hill
#
# Bulk Modulus (GPa) = 8.59698 53.26019 30.92859
# Shear Modulus (GPa) = 9.11641 34.11383 21.61512
#
# Velocity S-wave (km/s) = 2.02845 3.92389 3.12342
# Velocity P-wave (km/s) = 3.06044 6.67590 5.19297
#
# Compressibility (1/GPa) = 0.11631985
#
# Stress axis : x y z
#
# Youngs Moduli (GPa) = 78.42850 81.54881 11.03697
#
# Poissons Ratio (x) = 0.30110 -0.13129
# Poissons Ratio (y) = 0.28958 0.08666
# Poissons Ratio (z) = -0.93292 0.64031
#
# Static dielectric constant tensor:
#      x y z
#    x 1.859670 -0.070770 0.029090 
#    y -0.070770 1.901940 0.035990 
#    z 0.029090 0.035990 1.871650 
# 
# From -- ./inp_files/505356.got.cif
#   From: 2010.05.17/outbox.cif.g08.bks.cpg/sg2_253_cif.got.tgz:505356.got - 2010.06.03 11:33:40.
