data_PCOD9012245
_publ_section_title
;
Structure prediction by ZEFSAII (Michael W. Deem and Ramdas Pophale) SiO2 
 PCOD9012245
Probable space group: P -1
;
_chemical_formula_sum "Si O2"
_cell_formula_units_Z 16
_cell_length_a 9.372975
_cell_length_b 9.285158
_cell_length_c 24.668543
_cell_angle_alpha 126.274879
_cell_angle_beta 151.966847
_cell_angle_gamma 47.850476
_cell_volume 748.068388
_symmetry_space_group_name_H-M "P -1"
_symmetry_group_IT_number 2
_symmetry_cell_setting 'triclinic'
loop_
_space_group_symop_operation_xyz
x,y,z
-x,-y,-z
loop_
_atom_site_type_symbol
_atom_site_label
_atom_site_fract_x
_atom_site_fract_y
_atom_site_fract_z
Si Si1 0.596579 0.433886 0.269018
Si Si2 0.787094 0.055933 0.886655
Si Si3 0.762844 0.091554 0.100326
Si Si4 0.453530 0.498017 0.847833
Si Si5 0.794828 0.923754 0.651110
Si Si6 0.212247 0.284702 0.546929
Si Si7 0.680753 0.627832 0.613422
Si Si8 0.557383 0.231378 0.314933
O O1 0.413767 0.459624 0.156157
O O2 0.644672 0.636637 0.336837
O O3 0.440235 0.385205 0.259746
O O4 0.940103 0.238562 0.334422
O O5 0.630130 0.287159 0.883079
O O6 0.527603 0.951376 0.771218
O O7 0.016153 0.986416 0.895272
O O8 0.000000 0.000000 0.000000
O O9 0.578304 0.323941 0.085115
O O10 0.986277 0.048350 0.219973
O O11 0.500000 0.000000 0.000000
O O12 0.074468 0.526516 0.715786
O O13 0.582579 0.820004 0.586675
O O14 0.531628 0.131230 0.588958
O O15 0.000000 0.500000 0.500000
O O16 0.940851 0.195274 0.445338
O O17 0.500000 0.500000 0.500000
O O18 0.610863 0.680726 0.664798
#
# Coordination Sequence:
#
# PCOD9012245 Si02
#       8
#     2   2   2   2   2   2   2   2
#     4   9  21  41  67  95 134 173 226 262 330 402
#     4  12  27  45  66 101 137 172 229 286 331 394
#     4  10  23  47  69  94 130 174 232 279 333 402
#     4  10  23  46  67  95 134 178 224 269 338 413
#     4  10  21  41  65  95 130 175 220 265 331 408
#     4  10  22  39  61  96 138 173 214 265 325 403
#     4  10  21  40  69 102 134 173 215 272 343 399
#     4  11  22  42  63 103 139 169 223 283 329 389
#
# _framework density 21.388418999999999
#
# number of rings (size 3 to 8) (size 9 to 14) (size 15 to 20)
#    0.000    2.000    2.500    2.250    5.250    3.500 
#    9.000    0.000    0.000    0.000    0.000    0.000 
#    0.000    0.000    0.000    0.000    0.000    0.000 
#
# Total GULP energy -89228.333994 kJ/mol
# GULP energy per Si atom -5576.770875 kJ/mol
# Density = 2.133974 g / cm^3
# Si number density = 21.388419 Si / 1000 Ang^3
#
#
#
# Elastic Constant Matrix: (Units=GPa)
#
#
# Indices 1 2 3 4 5 6 
#
# 1 65.7317 22.1321 4.8045 1.3565 1.6530 0.3313
# 2 22.1321 156.9369 56.9264 7.8901 1.0382 -0.2630
# 3 4.8045 56.9264 50.3593 42.8441 4.9124 0.9184
# 4 1.3565 7.8901 42.8441 25.6750 18.4560 -5.8589
# 5 1.6530 1.0382 4.9124 18.4560 20.6678 9.3935
# 6 0.3313 -0.2630 0.9184 -5.8589 9.3935 27.7070
#
#
#
# Elastic Compliance Matrix: (Units=1/GPa)
#
#
# Indices 1 2 3 4 5 6 
#
# 1 0.016058 -0.002512 0.000578 0.001154 -0.002754 0.000943
# 2 -0.002512 0.007555 -0.001198 -0.009509 0.011167 -0.005655
# 3 0.000578 -0.001198 -0.000191 0.028538 -0.033292 0.017310
# 4 0.001154 -0.009509 0.028538 -0.023056 0.019959 -0.012692
# 5 -0.002754 0.011167 -0.033292 0.019959 0.042144 -0.008825
# 6 0.000943 -0.005655 0.017310 -0.012692 -0.008825 0.035761
#
#
# Mechanical properties :
#
#
# Convention : Reuss Voigt Hill
#
# Bulk Modulus (GPa) = 58.28166 48.97264 53.62715
# Shear Modulus (GPa) = 55.39856 27.42095 41.40976
#
# Velocity S-wave (km/s) = 5.09484 3.58445 4.40487
# Velocity P-wave (km/s) = 7.86881 6.33069 7.14128
#
# Compressibility (1/GPa) = 0.01715806
#
# Stress axis : x y z
#
# Youngs Moduli (GPa) = 62.27518 132.35517 -5226.64581
#
# Poissons Ratio (x) = 0.33254 3.02222
# Poissons Ratio (y) = 0.15647 -6.25968
# Poissons Ratio (z) = -0.03601 0.15851
#
# Static dielectric constant tensor:
#      x y z
#    x 1.816870 -0.016280 -0.033240 
#    y -0.016280 1.741610 -0.009940 
#    z -0.033240 -0.009940 1.869560 
# 
# From -- ./inp_files/606830.got.cif
#   From: 2010.05.17/outbox.cif.g08.bks.cpg/sg2_304_cif.got.tgz:606830.got - 2010.06.03 11:33:40.
