data_PCOD9012247
_publ_section_title
;
Structure prediction by ZEFSAII (Michael W. Deem and Ramdas Pophale) SiO2 
 PCOD9012247
Probable space group: P -1
;
_chemical_formula_sum "Si O2"
_cell_formula_units_Z 16
_cell_length_a 6.801898
_cell_length_b 15.371930
_cell_length_c 11.811409
_cell_angle_alpha 57.200967
_cell_angle_beta 129.597734
_cell_angle_gamma 132.428596
_cell_volume 688.723675
_symmetry_space_group_name_H-M "P -1"
_symmetry_group_IT_number 2
_symmetry_cell_setting 'triclinic'
loop_
_space_group_symop_operation_xyz
x,y,z
-x,-y,-z
loop_
_atom_site_type_symbol
_atom_site_label
_atom_site_fract_x
_atom_site_fract_y
_atom_site_fract_z
Si Si1 0.036868 0.812440 0.949012
Si Si2 0.126427 0.135964 0.542627
Si Si3 0.317059 0.961314 0.744686
Si Si4 0.189137 0.376193 0.368017
Si Si5 0.157299 0.221376 0.844076
Si Si6 0.145876 0.426649 0.558660
Si Si7 0.816161 0.991664 0.739703
Si Si8 0.864101 0.357405 0.041673
O O1 0.309256 0.904411 0.902765
O O2 0.990306 0.687422 0.969296
O O3 0.832613 0.872315 0.809205
O O4 0.015136 0.806457 0.080262
O O5 0.260817 0.275840 0.508488
O O6 0.998760 0.106771 0.389293
O O7 0.862973 0.059130 0.589805
O O8 0.356939 0.092177 0.680201
O O9 0.539112 0.958975 0.739090
O O10 0.064251 0.406381 0.410731
O O11 0.496780 0.489861 0.362424
O O12 0.955794 0.325516 0.217201
O O13 0.068248 0.303548 0.679406
O O14 0.074380 0.098455 0.835028
O O15 0.511213 0.293585 0.942632
O O16 0.000000 0.500000 0.500000
O O17 0.000000 0.500000 0.000000
#
# Coordination Sequence:
#
# PCOD9012247 Si02
#       8
#     2   2   2   2   2   2   2   2
#     4  11  26  43  71  98 142 187 231 287 354 415
#     4  10  21  40  69 102 135 184 228 288 352 412
#     4  10  22  42  66 105 141 177 230 291 352 416
#     4  11  24  48  73 100 141 185 237 291 351 418
#     4  12  27  46  71 106 143 189 238 289 354 421
#     4  11  27  47  73 106 138 184 238 294 353 416
#     4  11  24  45  69 107 139 185 241 292 350 422
#     4  12  27  49  71 103 146 188 237 292 348 426
#
# _framework density 23.231376999999998
#
# number of rings (size 3 to 8) (size 9 to 14) (size 15 to 20)
#    0.000    1.000    3.750    1.500    3.500    4.500 
#    0.000    0.000    0.000    0.000    0.000    0.000 
#    0.000    0.000    0.000    0.000    0.000    0.000 
#
# Total GULP energy -89353.001470 kJ/mol
# GULP energy per Si atom -5584.562592 kJ/mol
# Density = 2.317850 g / cm^3
# Si number density = 23.231377 Si / 1000 Ang^3
#
#
#
# Elastic Constant Matrix: (Units=GPa)
#
#
# Indices 1 2 3 4 5 6 
#
# 1 148.1928 30.0837 48.0848 -6.5339 -20.3991 -30.1767
# 2 30.0837 80.3482 18.3008 -14.5577 6.5848 -21.2032
# 3 48.0848 18.3008 71.0478 -8.5698 -13.4923 -2.3728
# 4 -6.5339 -14.5577 -8.5698 52.2586 -8.2847 1.8366
# 5 -20.3991 6.5848 -13.4923 -8.2847 35.2971 -4.4130
# 6 -30.1767 -21.2032 -2.3728 1.8366 -4.4130 44.5119
#
#
#
# Elastic Compliance Matrix: (Units=1/GPa)
#
#
# Indices 1 2 3 4 5 6 
#
# 1 0.011151 -0.001279 -0.005848 0.000700 0.005507 0.007156
# 2 -0.001279 0.016168 -0.003411 0.002999 -0.003584 0.006174
# 3 -0.005848 -0.003411 0.020028 0.002539 0.004992 -0.004132
# 4 0.000700 0.002999 0.002539 0.021373 0.006052 0.001757
# 5 0.005507 -0.003584 0.004992 0.006052 0.036215 0.005633
# 6 0.007156 0.006174 -0.004132 0.001757 0.005633 0.030524
#
#
# Mechanical properties :
#
#
# Convention : Reuss Voigt Hill
#
# Bulk Modulus (GPa) = 38.06704 54.72526 46.39615
# Shear Modulus (GPa) = 30.24916 39.95483 35.10199
#
# Velocity S-wave (km/s) = 3.61235 4.15162 3.89134
# Velocity P-wave (km/s) = 5.81553 6.82562 6.34072
#
# Compressibility (1/GPa) = 0.02626944
#
# Stress axis : x y z
#
# Youngs Moduli (GPa) = 89.67465 61.85030 49.92955
#
# Poissons Ratio (x) = 0.07912 0.29201
# Poissons Ratio (y) = 0.11471 0.17033
# Poissons Ratio (z) = 0.52446 0.21100
#
# Static dielectric constant tensor:
#      x y z
#    x 1.889880 -0.020420 0.018410 
#    y -0.020420 1.949050 -0.009790 
#    z 0.018410 -0.009790 1.892990 
# 
# From -- ./inp_files/367650.got.cif
#   From: 2010.05.17/outbox.cif.g08.bks.cpg/sg2_184_cif.got.tgz:367650.got - 2010.06.03 11:33:40.
