data_PCOD9013026
_publ_section_title
;
Structure prediction by ZEFSAII (Michael W. Deem and Ramdas Pophale) SiO2 
 PCOD9013026
Probable space group: P -1
;
_chemical_formula_sum "Si O2"
_cell_formula_units_Z 16
_cell_length_a 13.627983
_cell_length_b 8.305470
_cell_length_c 11.284054
_cell_angle_alpha 43.609848
_cell_angle_beta 63.806174
_cell_angle_gamma 59.629917
_cell_volume 753.944252
_symmetry_space_group_name_H-M "P -1"
_symmetry_group_IT_number 2
_symmetry_cell_setting 'triclinic'
loop_
_space_group_symop_operation_xyz
x,y,z
-x,-y,-z
loop_
_atom_site_type_symbol
_atom_site_label
_atom_site_fract_x
_atom_site_fract_y
_atom_site_fract_z
Si Si1 0.861618 0.722650 0.520710
Si Si2 0.527614 0.372920 0.930238
Si Si3 0.487529 0.239500 0.459719
Si Si4 0.233709 0.047437 0.979271
Si Si5 0.290312 0.849898 0.457782
Si Si6 0.373277 0.124000 0.058852
Si Si7 0.964354 0.175112 0.809015
Si Si8 0.249329 0.395599 0.596660
O O1 0.924071 0.470774 0.692176
O O2 0.791237 0.630837 0.502331
O O3 0.944090 0.841794 0.336688
O O4 0.791670 0.925729 0.542384
O O5 0.554864 0.531956 0.726365
O O6 0.642113 0.147952 0.005538
O O7 0.500000 0.500000 0.000000
O O8 0.402862 0.345495 0.984020
O O9 0.602241 0.253643 0.455313
O O10 0.386660 0.266678 0.592921
O O11 0.500000 0.000000 0.500000
O O12 0.143458 0.908276 0.134759
O O13 0.267866 0.197752 0.987089
O O14 0.194255 0.227033 0.794522
O O15 0.234317 0.653915 0.533340
O O16 0.344943 0.950723 0.263620
O O17 0.500000 0.000000 0.000000
O O18 0.000000 0.000000 0.000000
#
# Coordination Sequence:
#
# PCOD9013026 Si02
#       8
#     2   2   2   2   2   2   2   2
#     4  11  26  48  75 105 137 183 246 298 360 419
#     4  11  23  36  62 100 137 178 225 279 340 431
#     4  12  22  38  63 101 141 184 229 276 353 428
#     4  11  23  43  69  97 134 188 230 283 359 414
#     4  12  25  43  70 104 142 187 233 291 356 425
#     4  10  21  41  62  97 139 178 222 274 344 419
#     4  11  24  49  77 100 139 187 239 305 360 415
#     4  12  23  44  70 100 146 185 226 294 355 419
#
# _framework density 21.221727999999999
#
# number of rings (size 3 to 8) (size 9 to 14) (size 15 to 20)
#    0.000    0.750    2.500    7.125    1.750    0.000 
#    2.250    6.250    0.000    0.000    0.000    0.000 
#    0.000    0.000    0.000    0.000    0.000    0.000 
#
# Total GULP energy -89196.011921 kJ/mol
# GULP energy per Si atom -5574.750745 kJ/mol
# Density = 2.117343 g / cm^3
# Si number density = 21.221728 Si / 1000 Ang^3
#
#
#
# Elastic Constant Matrix: (Units=GPa)
#
#
# Indices 1 2 3 4 5 6 
#
# 1 78.2300 36.6917 28.9416 -2.6099 -11.5267 6.1033
# 2 36.6917 116.6077 36.7031 1.7550 -2.9371 8.9230
# 3 28.9416 36.7031 154.5137 -3.2038 -9.5663 -6.6110
# 4 -2.6099 1.7550 -3.2038 21.6949 -1.4090 -3.7987
# 5 -11.5267 -2.9371 -9.5663 -1.4090 44.0466 -0.9134
# 6 6.1033 8.9230 -6.6110 -3.7987 -0.9134 29.5876
#
#
#
# Elastic Compliance Matrix: (Units=1/GPa)
#
#
# Indices 1 2 3 4 5 6 
#
# 1 0.016241 -0.004305 -0.001849 0.001892 0.003578 -0.002112
# 2 -0.004305 0.010812 -0.002005 -0.002303 -0.000980 -0.003147
# 3 -0.001849 -0.002005 0.007523 0.001634 0.001129 0.002912
# 4 0.001892 -0.002303 0.001634 0.048115 0.002379 0.006920
# 5 0.003578 -0.000980 0.001129 0.002379 0.023913 0.000853
# 6 -0.002112 -0.003147 0.002912 0.006920 0.000853 0.036748
#
#
# Mechanical properties :
#
#
# Convention : Reuss Voigt Hill
#
# Bulk Modulus (GPa) = 54.77088 61.55823 58.16456
# Shear Modulus (GPa) = 30.16460 35.53348 32.84904
#
# Velocity S-wave (km/s) = 3.77424 4.09637 3.93860
# Velocity P-wave (km/s) = 6.69762 7.17244 6.93909
#
# Compressibility (1/GPa) = 0.01825788
#
# Stress axis : x y z
#
# Youngs Moduli (GPa) = 61.57171 92.48731 132.92799
#
# Poissons Ratio (x) = 0.39818 0.24579
# Poissons Ratio (y) = 0.26508 0.26652
# Poissons Ratio (z) = 0.11385 0.18544
#
# Static dielectric constant tensor:
#      x y z
#    x 1.605530 -0.398510 -0.133770 
#    y -0.398510 1.015110 -0.253260 
#    z -0.133770 -0.253260 1.773840 
# 
# From -- ./inp_files/446610.got.cif
#   From: 2010.05.17/outbox.cif.g08.bks.cpg/sg2_224_cif.got.tgz:446610.got - 2010.06.03 11:33:40.
