data_PCOD9013952
_publ_section_title
;
Structure prediction by ZEFSAII (Michael W. Deem and Ramdas Pophale) SiO2 
 PCOD9013952
Probable space group: P -1
;
_chemical_formula_sum "Si O2"
_cell_formula_units_Z 14
_cell_length_a 18.807956
_cell_length_b 6.663532
_cell_length_c 6.986739
_cell_angle_alpha 112.443399
_cell_angle_beta 75.761072
_cell_angle_gamma 133.006938
_cell_volume 591.688006
_symmetry_space_group_name_H-M "P -1"
_symmetry_group_IT_number 2
_symmetry_cell_setting 'triclinic'
loop_
_space_group_symop_operation_xyz
x,y,z
-x,-y,-z
loop_
_atom_site_type_symbol
_atom_site_label
_atom_site_fract_x
_atom_site_fract_y
_atom_site_fract_z
Si Si1 0.206962 0.479901 0.017305
Si Si2 0.347635 0.601993 0.461349
Si Si3 0.183246 0.578365 0.487227
Si Si4 0.358320 0.164876 0.127381
Si Si5 0.516808 0.893190 0.758569
Si Si6 0.730343 0.883126 0.184588
Si Si7 0.915668 0.477741 0.136348
O O1 0.173392 0.441119 0.244671
O O2 0.290598 0.823188 0.066276
O O3 0.253066 0.338046 0.888131
O O4 0.114995 0.376429 0.916284
O O5 0.252990 0.557828 0.558876
O O6 0.420060 0.706372 0.627137
O O7 0.404157 0.843166 0.341648
O O8 0.319998 0.316554 0.289929
O O9 0.083821 0.440143 0.613804
O O10 0.246475 0.926372 0.574259
O O11 0.448770 0.270289 0.238473
O O12 0.363246 0.223886 0.916206
O O13 0.500000 0.000000 0.000000
O O14 0.821143 0.138031 0.085288
O O15 0.000000 0.500000 0.000000
#
# Coordination Sequence:
#
# PCOD9013952 Si02
#       7
#     2   2   2   2   2   2   2
#     4  11  21  42  66  90 129 167 208 263 317 376
#     4  11  23  41  62  94 126 163 226 255 309 389
#     4  10  21  41  66  92 124 170 212 257 318 376
#     4  11  20  41  62  89 129 165 212 264 306 374
#     4  11  24  40  61  91 131 169 208 268 318 360
#     4   9  21  39  64  93 127 163 214 257 307 390
#     4   9  23  42  63  99 130 160 213 261 317 383
#
# _framework density 23.661121000000001
#
# number of rings (size 3 to 8) (size 9 to 14) (size 15 to 20)
#    0.857    0.857    2.857    1.286    0.000    2.857 
#    2.571    0.714    0.000    0.000    0.000    0.000 
#    0.000    0.000    0.000    0.000    0.000    0.000 
#
# Total GULP energy -78130.702297 kJ/mol
# GULP energy per Si atom -5580.764450 kJ/mol
# Density = 2.360727 g / cm^3
# Si number density = 23.661121 Si / 1000 Ang^3
#
#
#
# Elastic Constant Matrix: (Units=GPa)
#
#
# Indices 1 2 3 4 5 6 
#
# 1 63.7129 29.3833 2.6728 -14.5229 -23.4341 -17.7865
# 2 29.3833 53.0600 10.4193 -2.6962 -13.2985 -15.7181
# 3 2.6728 10.4193 85.5612 2.9833 -20.3627 -13.1900
# 4 -14.5229 -2.6962 2.9833 39.8632 -7.7940 -8.3523
# 5 -23.4341 -13.2985 -20.3627 -7.7940 40.5879 -0.9019
# 6 -17.7865 -15.7181 -13.1900 -8.3523 -0.9019 31.7306
#
#
#
# Elastic Compliance Matrix: (Units=1/GPa)
#
#
# Indices 1 2 3 4 5 6 
#
# 1 0.057853 -0.007424 0.016334 0.038515 0.047605 0.047033
# 2 -0.007424 0.027401 -0.000423 0.002276 0.005139 0.009982
# 3 0.016334 -0.000423 0.019233 0.013180 0.021940 0.021035
# 4 0.038515 0.002276 0.013180 0.055567 0.041243 0.043994
# 5 0.047605 0.005139 0.021940 0.041243 0.073874 0.051307
# 6 0.047033 0.009982 0.021035 0.043994 0.051307 0.084606
#
#
# Mechanical properties :
#
#
# Convention : Reuss Voigt Hill
#
# Bulk Modulus (GPa) = 8.23300 31.92054 20.07677
# Shear Modulus (GPa) = 14.61791 33.09359 23.85575
#
# Velocity S-wave (km/s) = 2.48826 3.74391 3.17870
# Velocity P-wave (km/s) = 3.42671 5.67531 4.68783
#
# Compressibility (1/GPa) = 0.12146244
#
# Stress axis : x y z
#
# Youngs Moduli (GPa) = 17.28533 36.49494 51.99315
#
# Poissons Ratio (x) = 0.27093 -0.84926
# Poissons Ratio (y) = 0.12832 0.02197
# Poissons Ratio (z) = -0.28234 0.01542
#
# Static dielectric constant tensor:
#      x y z
#    x 1.951860 0.000100 0.047470 
#    y 0.000100 1.944460 -0.042980 
#    z 0.047470 -0.042980 1.929220 
# 
# From -- ./inp_files/323105.got.cif
#   From: 2010.05.17/outbox.cif.g08.bks.cpg/sg2_162_cif.got.tgz:323105.got - 2010.06.03 11:33:40.
