data_PCOD9013250
_publ_section_title
;
Structure prediction by ZEFSAII (Michael W. Deem and Ramdas Pophale) SiO2 
 PCOD9013250
Probable space group: P -1
;
_chemical_formula_sum "Si O2"
_cell_formula_units_Z 14
_cell_length_a 8.954830
_cell_length_b 8.814787
_cell_length_c 23.775829
_cell_angle_alpha 29.914202
_cell_angle_beta 41.011226
_cell_angle_gamma 52.515299
_cell_volume 608.202574
_symmetry_space_group_name_H-M "P -1"
_symmetry_group_IT_number 2
_symmetry_cell_setting 'triclinic'
loop_
_space_group_symop_operation_xyz
x,y,z
-x,-y,-z
loop_
_atom_site_type_symbol
_atom_site_label
_atom_site_fract_x
_atom_site_fract_y
_atom_site_fract_z
Si Si1 0.427410 0.330710 0.132810
Si Si2 0.443850 0.322569 0.438550
Si Si3 0.669686 0.551159 0.679226
Si Si4 0.147088 0.744507 0.436173
Si Si5 0.512634 0.104149 0.604886
Si Si6 0.738699 0.211537 0.875519
Si Si7 0.871587 0.167062 0.124180
O O1 0.312187 0.543608 0.141723
O O2 0.659869 0.233275 0.124400
O O3 0.245759 0.022842 0.277843
O O4 0.500000 0.500000 0.000000
O O5 0.486536 0.547514 0.299601
O O6 0.203244 0.423481 0.497595
O O7 0.565668 0.319935 0.465698
O O8 0.500000 0.000000 0.500000
O O9 0.781687 0.341027 0.758385
O O10 0.888912 0.757719 0.523341
O O11 0.535416 0.761417 0.688214
O O12 0.302545 0.802403 0.429546
O O13 0.256986 0.051443 0.720115
O O14 0.939369 0.017938 0.897431
O O15 0.500000 0.000000 0.000000
O O16 0.000000 0.500000 0.000000
#
# Coordination Sequence:
#
# PCOD9013250 Si02
#       7
#     2   2   2   2   2   2   2
#     4  11  27  47  68 104 137 178 229 286 341 395
#     4  10  23  38  61  96 132 173 221 273 332 401
#     4  11  22  41  68  98 132 176 228 275 344 395
#     4  11  22  42  67  95 140 174 220 283 340 401
#     4  10  21  41  63  99 134 173 218 280 341 398
#     4  12  24  44  74  96 136 184 228 279 336 412
#     4  11  22  43  71  96 132 184 228 270 340 410
#
# _framework density 23.018647000000001
#
# number of rings (size 3 to 8) (size 9 to 14) (size 15 to 20)
#    0.000    1.143    4.286    2.143    2.000    2.857 
#    5.143    1.429    0.000    0.000    0.000    0.000 
#    0.000    0.000    0.000    0.000    0.000    0.000 
#
# Total GULP energy -78001.973243 kJ/mol
# GULP energy per Si atom -5571.569517 kJ/mol
# Density = 2.296626 g / cm^3
# Si number density = 23.018647 Si / 1000 Ang^3
#
#
#
# Elastic Constant Matrix: (Units=GPa)
#
#
# Indices 1 2 3 4 5 6 
#
# 1 78.2104 31.4291 44.9862 10.0414 30.4069 -1.8362
# 2 31.4291 150.2026 25.5593 3.7631 4.9583 -26.1224
# 3 44.9862 25.5593 106.3946 9.9390 7.9547 6.7340
# 4 10.0414 3.7631 9.9390 26.7481 -0.3134 1.0596
# 5 30.4069 4.9583 7.9547 -0.3134 45.2307 8.9510
# 6 -1.8362 -26.1224 6.7340 1.0596 8.9510 43.0633
#
#
#
# Elastic Compliance Matrix: (Units=1/GPa)
#
#
# Indices 1 2 3 4 5 6 
#
# 1 0.026533 -0.002463 -0.009038 -0.006642 -0.016962 0.004740
# 2 -0.002463 0.008282 -0.001272 0.000029 -0.000042 0.005126
# 3 -0.009038 -0.001272 0.013561 -0.001245 0.004656 -0.004215
# 4 -0.006642 0.000029 -0.001245 0.040488 0.005395 -0.002189
# 5 -0.016962 -0.000042 0.004656 0.005395 0.034471 -0.008775
# 6 0.004740 0.005126 -0.004215 -0.002189 -0.008775 0.029070
#
#
# Mechanical properties :
#
#
# Convention : Reuss Voigt Hill
#
# Bulk Modulus (GPa) = 43.80434 59.86184 51.83309
# Shear Modulus (GPa) = 26.94513 38.53060 32.73787
#
# Velocity S-wave (km/s) = 3.42508 4.09575 3.77534
# Velocity P-wave (km/s) = 5.89176 6.95911 6.44756
#
# Compressibility (1/GPa) = 0.02282879
#
# Stress axis : x y z
#
# Youngs Moduli (GPa) = 37.68848 120.74901 73.73979
#
# Poissons Ratio (x) = 0.29744 0.66650
# Poissons Ratio (y) = 0.09284 0.09379
# Poissons Ratio (z) = 0.34065 0.15358
#
# Static dielectric constant tensor:
#      x y z
#    x 1.902630 0.012200 -0.038260 
#    y 0.012200 1.934430 -0.038690 
#    z -0.038260 -0.038690 1.773950 
# 
# From -- ./inp_files/200411.got.cif
#   From: 2010.05.17/outbox.cif.g08.bks.cpg/sg2_101_cif.got.tgz:200411.got - 2010.06.03 11:33:40.
