data_PCOD9013351
_publ_section_title
;
Structure prediction by ZEFSAII (Michael W. Deem and Ramdas Pophale) SiO2 
 PCOD9013351
Probable space group: P -1
;
_chemical_formula_sum "Si O2"
_cell_formula_units_Z 14
_cell_length_a 12.500978
_cell_length_b 20.430769
_cell_length_c 6.623164
_cell_angle_alpha 104.322679
_cell_angle_beta 88.010076
_cell_angle_gamma 156.344142
_cell_volume 571.966231
_symmetry_space_group_name_H-M "P -1"
_symmetry_group_IT_number 2
_symmetry_cell_setting 'triclinic'
loop_
_space_group_symop_operation_xyz
x,y,z
-x,-y,-z
loop_
_atom_site_type_symbol
_atom_site_label
_atom_site_fract_x
_atom_site_fract_y
_atom_site_fract_z
Si Si1 0.018773 0.214904 0.721518
Si Si2 0.400268 0.982721 0.692934
Si Si3 0.099318 0.693066 0.768133
Si Si4 0.561481 0.869332 0.740002
Si Si5 0.581437 0.742666 0.402791
Si Si6 0.021079 0.084734 0.169773
Si Si7 0.470368 0.380286 0.025768
O O1 0.277885 0.314507 0.837079
O O2 0.827700 0.094574 0.437098
O O3 0.192163 0.388791 0.824134
O O4 0.770675 0.055543 0.791200
O O5 0.201943 0.817768 0.725517
O O6 0.500000 0.000000 0.500000
O O7 0.698247 0.183378 0.946633
O O8 0.224904 0.700147 0.654702
O O9 0.739472 0.476093 0.657560
O O10 0.594379 0.827308 0.546772
O O11 0.711239 0.935402 0.992037
O O12 0.861782 0.866847 0.579909
O O13 0.554042 0.707969 0.141596
O O14 0.304216 0.286897 0.181301
O O15 0.000000 0.000000 0.000000
#
# Coordination Sequence:
#
# PCOD9013351 Si02
#       7
#     2   2   2   2   2   2   2
#     4  10  21  41  64  92 125 161 206 262 301 366
#     4  11  22  40  63  88 123 164 205 253 309 359
#     4  11  24  39  64  93 123 163 211 252 306 369
#     4  10  22  42  62  93 126 160 209 252 307 371
#     4  11  23  41  64  90 129 166 199 257 308 366
#     4   9  21  40  63  90 123 161 204 249 302 367
#     4  10  22  40  64  95 125 158 210 254 309 363
#
# _framework density 24.476970000000001
#
# number of rings (size 3 to 8) (size 9 to 14) (size 15 to 20)
#    0.000    1.714    1.429    2.143    4.000    5.143 
#    2.571    3.571    0.000    0.000    0.000    0.000 
#    0.000    0.000    0.000    0.000    0.000    0.000 
#
# Total GULP energy -78212.558786 kJ/mol
# GULP energy per Si atom -5586.611342 kJ/mol
# Density = 2.442126 g / cm^3
# Si number density = 24.476970 Si / 1000 Ang^3
#
#
#
# Elastic Constant Matrix: (Units=GPa)
#
#
# Indices 1 2 3 4 5 6 
#
# 1 50.5099 -10.0634 9.7832 0.8914 12.5495 -3.2174
# 2 -10.0634 69.4360 -12.6000 24.0324 -4.4590 -7.3827
# 3 9.7832 -12.6000 84.3763 3.6520 -0.4385 -11.0445
# 4 0.8914 24.0324 3.6520 33.0327 4.7643 0.5324
# 5 12.5495 -4.4590 -0.4385 4.7643 50.3998 2.6017
# 6 -3.2174 -7.3827 -11.0445 0.5324 2.6017 29.5728
#
#
#
# Elastic Compliance Matrix: (Units=1/GPa)
#
#
# Indices 1 2 3 4 5 6 
#
# 1 0.022409 0.003894 -0.001493 -0.002580 -0.005178 0.003354
# 2 0.003894 0.023046 0.004836 -0.017881 0.002384 0.008095
# 3 -0.001493 0.004836 0.013791 -0.005261 0.001097 0.006194
# 4 -0.002580 -0.017881 -0.005261 0.044747 -0.004849 -0.007088
# 5 -0.005178 0.002384 0.001097 -0.004849 0.021881 -0.001396
# 6 0.003354 0.008095 0.006194 -0.007088 -0.001396 0.038764
#
#
# Mechanical properties :
#
#
# Convention : Reuss Voigt Hill
#
# Bulk Modulus (GPa) = 13.56491 19.84021 16.70256
# Shear Modulus (GPa) = 28.61431 37.08122 32.84777
#
# Velocity S-wave (km/s) = 3.42282 3.89645 3.66729
# Velocity P-wave (km/s) = 4.60161 5.32601 4.97701
#
# Compressibility (1/GPa) = 0.07371963
#
# Stress axis : x y z
#
# Youngs Moduli (GPa) = 44.62560 43.39127 72.51094
#
# Poissons Ratio (x) = -0.16896 0.10825
# Poissons Ratio (y) = -0.17377 -0.35066
# Poissons Ratio (z) = 0.06662 -0.20984
#
# Static dielectric constant tensor:
#      x y z
#    x 2.001700 0.031660 -0.028190 
#    y 0.031660 1.974180 -0.039430 
#    z -0.028190 -0.039430 1.965560 
# 
# From -- ./inp_files/77691.got.cif
#   From: 2010.05.17/outbox.cif.g08.bks.cpg/sg2_39_cif.got.tgz:77691.got - 2010.06.03 11:33:40.
