data_PCOD9013586
_publ_section_title
;
Structure prediction by ZEFSAII (Michael W. Deem and Ramdas Pophale) SiO2 
 PCOD9013586
Probable space group: P -1
;
_chemical_formula_sum "Si O2"
_cell_formula_units_Z 14
_cell_length_a 7.401951
_cell_length_b 14.678879
_cell_length_c 23.070975
_cell_angle_alpha 16.942070
_cell_angle_beta 71.196053
_cell_angle_gamma 78.319948
_cell_volume 638.500579
_symmetry_space_group_name_H-M "P -1"
_symmetry_group_IT_number 2
_symmetry_cell_setting 'triclinic'
loop_
_space_group_symop_operation_xyz
x,y,z
-x,-y,-z
loop_
_atom_site_type_symbol
_atom_site_label
_atom_site_fract_x
_atom_site_fract_y
_atom_site_fract_z
Si Si1 0.972308 0.352855 0.281149
Si Si2 0.838923 0.581363 0.665026
Si Si3 0.165020 0.333278 0.161680
Si Si4 0.392016 0.400125 0.987288
Si Si5 0.400867 0.543936 0.766910
Si Si6 0.689453 0.379375 0.564393
Si Si7 0.846391 0.240067 0.753338
O O1 0.731045 0.264968 0.363372
O O2 0.099974 0.564865 0.193321
O O3 0.055199 0.491163 0.124188
O O4 0.000000 0.000000 0.500000
O O5 0.631757 0.642512 0.662155
O O6 0.805182 0.349577 0.754048
O O7 0.023436 0.936614 0.415690
O O8 0.223189 0.441043 0.023626
O O9 0.385671 0.411688 0.121117
O O10 0.358218 0.002924 0.222281
O O11 0.391371 0.550663 0.832906
O O12 0.264350 0.159475 0.997536
O O13 0.500000 0.500000 0.500000
O O14 0.744535 0.379743 0.626889
O O15 0.906974 0.622718 0.365713
#
# Coordination Sequence:
#
# PCOD9013586 Si02
#       7
#     2   2   2   2   2   2   2
#     4  10  24  42  63  94 130 169 212 263 319 383
#     4  11  22  44  63  94 134 167 211 268 316 387
#     4  10  21  41  65  89 131 167 213 263 314 378
#     4  10  21  42  65  96 125 169 219 261 316 384
#     4  11  24  40  70  93 127 171 216 263 323 378
#     4  10  22  41  68  94 133 165 207 272 323 372
#     4  10  23  41  64  99 127 166 218 261 320 386
#
# _framework density 21.926371
#
# number of rings (size 3 to 8) (size 9 to 14) (size 15 to 20)
#    0.000    1.714    2.857    0.429    2.000    4.571 
#    0.000    2.857    0.000    0.000    0.000    0.000 
#    0.000    0.000    0.000    0.000    0.000    0.000 
#
# Total GULP energy -78208.205731 kJ/mol
# GULP energy per Si atom -5586.300409 kJ/mol
# Density = 2.187647 g / cm^3
# Si number density = 21.926371 Si / 1000 Ang^3
#
#
#
# Elastic Constant Matrix: (Units=GPa)
#
#
# Indices 1 2 3 4 5 6 
#
# 1 131.6136 62.5907 36.1011 -15.3603 -27.9559 -2.2698
# 2 62.5907 186.4170 27.6989 11.9302 -9.0835 15.1155
# 3 36.1011 27.6989 65.0388 -8.6706 -29.7561 -0.5692
# 4 -15.3603 11.9302 -8.6706 10.2647 -5.6393 -8.9028
# 5 -27.9559 -9.0835 -29.7561 -5.6393 25.1998 3.4341
# 6 -2.2698 15.1155 -0.5692 -8.9028 3.4341 17.6101
#
#
#
# Elastic Compliance Matrix: (Units=1/GPa)
#
#
# Indices 1 2 3 4 5 6 
#
# 1 0.004252 0.002219 -0.012529 -0.023668 -0.013050 -0.011183
# 2 0.002219 0.002774 0.007112 0.018401 0.015372 0.004440
# 3 -0.012529 0.007112 0.012832 -0.041178 -0.001609 -0.027808
# 4 -0.023668 0.018401 -0.041178 -0.074349 -0.079116 -0.042335
# 5 -0.013050 0.015372 -0.001609 -0.079116 0.019136 -0.058658
# 6 -0.011183 0.004440 -0.027808 -0.042335 -0.058658 0.040671
#
#
# Mechanical properties :
#
#
# Convention : Reuss Voigt Hill
#
# Bulk Modulus (GPa) = 74.28071 70.65007 72.46539
# Shear Modulus (GPa) = 308.65649 27.72682 168.19165
#
# Velocity S-wave (km/s) = 11.87750 3.55990 8.76778
# Velocity P-wave (km/s) = 14.90138 7.01346 11.64559
#
# Compressibility (1/GPa) = 0.01346244
#
# Stress axis : x y z
#
# Youngs Moduli (GPa) = 235.17172 360.51052 77.93028
#
# Poissons Ratio (x) = -0.80014 0.97639
# Poissons Ratio (y) = -0.52196 -0.55422
# Poissons Ratio (z) = 2.94648 -2.56387
#
# Static dielectric constant tensor:
#      x y z
#    x 1.810010 0.009590 0.015150 
#    y 0.009590 1.848100 0.006490 
#    z 0.015150 0.006490 1.830340 
# 
# From -- ./inp_files/431803.got.cif
#   From: 2010.05.17/outbox.cif.g08.bks.cpg/sg2_216_cif.got.tgz:431803.got - 2010.06.03 11:33:40.
