data_PCOD9013637
_publ_section_title
;
Structure prediction by ZEFSAII (Michael W. Deem and Ramdas Pophale) SiO2 
 PCOD9013637
Probable space group: P -1
;
_chemical_formula_sum "Si O2"
_cell_formula_units_Z 16
_cell_length_a 8.613492
_cell_length_b 20.970740
_cell_length_c 16.901093
_cell_angle_alpha 151.488772
_cell_angle_beta 38.385014
_cell_angle_gamma 150.764726
_cell_volume 709.796776
_symmetry_space_group_name_H-M "P -1"
_symmetry_group_IT_number 2
_symmetry_cell_setting 'triclinic'
loop_
_space_group_symop_operation_xyz
x,y,z
-x,-y,-z
loop_
_atom_site_type_symbol
_atom_site_label
_atom_site_fract_x
_atom_site_fract_y
_atom_site_fract_z
Si Si1 0.769813 0.473597 0.285521
Si Si2 0.228513 0.066411 0.058112
Si Si3 0.703939 0.215459 0.307541
Si Si4 0.052294 0.632352 0.184622
Si Si5 0.760304 0.488774 0.478384
Si Si6 0.639470 0.893635 0.423323
Si Si7 0.246262 0.014985 0.699740
Si Si8 0.768119 0.786839 0.393999
O O1 0.001986 0.556491 0.209192
O O2 0.917294 0.521026 0.365363
O O3 0.569721 0.544731 0.438120
O O4 0.519669 0.267493 0.154928
O O5 0.019987 0.033041 0.183063
O O6 0.338235 0.948260 0.884321
O O7 0.000000 0.000000 0.000000
O O8 0.712255 0.327289 0.357260
O O9 0.442856 0.181294 0.436122
O O10 0.031797 0.348907 0.370358
O O11 0.783598 0.652332 0.288496
O O12 0.412912 0.804311 0.220659
O O13 0.000000 0.500000 0.000000
O O14 0.808908 0.958949 0.340969
O O15 0.649100 0.756878 0.317900
O O16 0.325447 0.881953 0.526174
O O17 0.864417 0.049545 0.564307
#
# Coordination Sequence:
#
# PCOD9013637 Si02
#       8
#     2   2   2   2   2   2   2   2
#     4  11  24  43  68 100 132 172 230 272 331 392
#     4  12  24  41  69 105 134 170 221 284 333 387
#     4  11  23  42  69  93 138 175 220 273 338 395
#     4  11  24  43  67  92 132 177 221 270 327 399
#     4  10  24  41  66  95 131 180 217 275 327 404
#     4   9  21  39  66  97 122 170 218 277 318 391
#     4  10  23  41  69  94 130 170 224 264 327 396
#     4  10  21  41  65  91 130 173 221 264 332 396
#
# _framework density 22.541663
#
# number of rings (size 3 to 8) (size 9 to 14) (size 15 to 20)
#    0.000    1.500    2.500    1.500    3.500    4.500 
#    2.250    0.625    0.000    0.000    0.000    0.000 
#    0.000    0.000    0.000    0.000    0.000    0.000 
#
# Total GULP energy -89354.405001 kJ/mol
# GULP energy per Si atom -5584.650313 kJ/mol
# Density = 2.249036 g / cm^3
# Si number density = 22.541663 Si / 1000 Ang^3
#
#
#
# Elastic Constant Matrix: (Units=GPa)
#
#
# Indices 1 2 3 4 5 6 
#
# 1 109.8986 24.3066 25.3169 6.9432 -1.2104 -33.3860
# 2 24.3066 100.8069 33.7211 1.1061 -3.2503 -20.1230
# 3 25.3169 33.7211 106.5487 2.1299 -3.9034 -20.9492
# 4 6.9432 1.1061 2.1299 35.3986 1.0691 6.3252
# 5 -1.2104 -3.2503 -3.9034 1.0691 24.5391 -4.1355
# 6 -33.3860 -20.1230 -20.9492 6.3252 -4.1355 39.8178
#
#
#
# Elastic Compliance Matrix: (Units=1/GPa)
#
#
# Indices 1 2 3 4 5 6 
#
# 1 0.013156 -0.000576 -0.000494 -0.004666 0.002635 0.011495
# 2 -0.000576 0.011919 -0.002662 -0.000960 0.001926 0.004492
# 3 -0.000494 -0.002662 0.011379 -0.001411 0.002285 0.004689
# 4 -0.004666 -0.000960 -0.001411 0.031267 -0.003712 -0.010493
# 5 0.002635 0.001926 0.002285 -0.003712 0.043257 0.009467
# 6 0.011495 0.004492 0.004689 -0.010493 0.009467 0.042140
#
#
# Mechanical properties :
#
#
# Convention : Reuss Voigt Hill
#
# Bulk Modulus (GPa) = 34.49499 53.77150 44.13324
# Shear Modulus (GPa) = 29.36927 35.54507 32.45717
#
# Velocity S-wave (km/s) = 3.61347 3.97528 3.79868
# Velocity P-wave (km/s) = 5.72237 6.70645 6.23386
#
# Compressibility (1/GPa) = 0.02898972
#
# Stress axis : x y z
#
# Youngs Moduli (GPa) = 76.00840 83.90112 87.88048
#
# Poissons Ratio (x) = 0.04835 0.04339
# Poissons Ratio (y) = 0.04381 0.23396
# Poissons Ratio (z) = 0.03753 0.22336
#
# Static dielectric constant tensor:
#      x y z
#    x 1.958730 -0.048010 -0.034440 
#    y -0.048010 1.927020 0.054880 
#    z -0.034440 0.054880 1.820610 
# 
# From -- ./inp_files/562939.got.cif
#   From: 2010.05.17/outbox.cif.g08.bks.cpg/sg2_282_cif.got.tgz:562939.got - 2010.06.03 11:33:40.
