data_PCOD9013167
_publ_section_title
;
Structure prediction by ZEFSAII (Michael W. Deem and Ramdas Pophale) SiO2 
 PCOD9013167
Probable space group: P -1
;
_chemical_formula_sum "Si O2"
_cell_formula_units_Z 16
_cell_length_a 7.758363
_cell_length_b 14.298558
_cell_length_c 8.033855
_cell_angle_alpha 123.410761
_cell_angle_beta 123.339749
_cell_angle_gamma 70.102227
_cell_volume 620.600432
_symmetry_space_group_name_H-M "P -1"
_symmetry_group_IT_number 2
_symmetry_cell_setting 'triclinic'
loop_
_space_group_symop_operation_xyz
x,y,z
-x,-y,-z
loop_
_atom_site_type_symbol
_atom_site_label
_atom_site_fract_x
_atom_site_fract_y
_atom_site_fract_z
Si Si1 0.144134 0.127300 0.443076
Si Si2 0.121847 0.488909 0.329755
Si Si3 0.217826 0.715116 0.739955
Si Si4 0.501586 0.695148 0.158473
Si Si5 0.619526 0.730192 0.741211
Si Si6 0.703308 0.465834 0.896157
Si Si7 0.342277 0.034877 0.155298
Si Si8 0.219346 0.087843 0.800482
O O1 0.237704 0.031993 0.275159
O O2 0.095333 0.086405 0.562596
O O3 0.958278 0.195409 0.321228
O O4 0.321231 0.218116 0.651176
O O5 0.126689 0.592678 0.559158
O O6 0.261495 0.383149 0.363944
O O7 0.896129 0.461062 0.120591
O O8 0.224944 0.527896 0.248767
O O9 0.308958 0.743363 0.995075
O O10 0.407885 0.715004 0.710941
O O11 0.422529 0.642769 0.236415
O O12 0.579925 0.582817 0.988445
O O13 0.593420 0.836049 0.707821
O O14 0.773910 0.782679 0.012139
O O15 0.545984 0.955203 0.166696
O O16 0.197407 0.024530 0.904507
#
# Coordination Sequence:
#
# PCOD9013167 Si02
#       8
#     2   2   2   2   2   2   2   2
#     4  12  23  43  69  98 133 176 215 268 339 386
#     4  11  22  39  62  94 126 183 211 260 322 388
#     4  12  25  39  62  98 135 179 216 265 327 390
#     4  11  23  42  56  94 136 170 215 278 303 395
#     4  10  21  41  63  93 133 169 218 271 322 383
#     4  10  23  38  61  87 133 176 222 258 320 380
#     4   9  22  41  76  95 122 178 218 272 342 382
#     4   9  20  45  71  95 132 163 221 285 325 387
#
# _framework density 25.781483000000001
#
# number of rings (size 3 to 8) (size 9 to 14) (size 15 to 20)
#    0.750    0.750    3.750    0.750    5.250    1.500 
#    0.000    1.250    0.000    0.000    0.000    0.000 
#    0.000    0.000    0.000    0.000    0.000    0.000 
#
# Total GULP energy -89611.037549 kJ/mol
# GULP energy per Si atom -5600.689847 kJ/mol
# Density = 2.572280 g / cm^3
# Si number density = 25.781483 Si / 1000 Ang^3
#
#
#
# Elastic Constant Matrix: (Units=GPa)
#
#
# Indices 1 2 3 4 5 6 
#
# 1 56.9859 22.7737 9.1136 5.7921 1.8764 20.2960
# 2 22.7737 123.4856 46.4310 -2.4311 14.9641 7.3928
# 3 9.1136 46.4310 115.8355 -20.4188 7.5901 0.5241
# 4 5.7921 -2.4311 -20.4188 43.3949 -6.8943 2.3793
# 5 1.8764 14.9641 7.5901 -6.8943 32.7351 2.0861
# 6 20.2960 7.3928 0.5241 2.3793 2.0861 36.3174
#
#
#
# Elastic Compliance Matrix: (Units=1/GPa)
#
#
# Indices 1 2 3 4 5 6 
#
# 1 0.023783 -0.003381 -0.001040 -0.003083 0.000566 -0.012419
# 2 -0.003381 0.010691 -0.004015 -0.001494 -0.004083 0.000104
# 3 -0.001040 -0.004015 0.011214 0.005195 0.000333 0.000877
# 4 -0.003083 -0.001494 0.005195 0.026660 0.005276 -0.000098
# 5 0.000566 -0.004083 0.000333 0.005276 0.033529 -0.001761
# 6 -0.012419 0.000104 0.000877 -0.000098 -0.001761 0.034549
#
#
# Mechanical properties :
#
#
# Convention : Reuss Voigt Hill
#
# Bulk Modulus (GPa) = 34.70380 50.32706 42.51543
# Shear Modulus (GPa) = 29.95730 37.02205 33.48968
#
# Velocity S-wave (km/s) = 3.41247 3.79356 3.60805
# Velocity P-wave (km/s) = 5.38670 6.22504 5.82098
#
# Compressibility (1/GPa) = 0.02881529
#
# Stress axis : x y z
#
# Youngs Moduli (GPa) = 42.04615 93.53981 89.17177
#
# Poissons Ratio (x) = 0.31624 0.09277
# Poissons Ratio (y) = 0.14215 0.35806
# Poissons Ratio (z) = 0.04374 0.37560
#
# Static dielectric constant tensor:
#      x y z
#    x 2.062190 0.055340 -0.008290 
#    y 0.055340 1.950560 0.002800 
#    z -0.008290 0.002800 2.073200 
# 
# From -- ./inp_files/213391.got.cif
#   From: 2010.05.17/outbox.cif.g08.bks.cpg/sg2_107_cif.got.tgz:213391.got - 2010.06.03 11:33:40.
