data_PCOD9013252
_publ_section_title
;
Structure prediction by ZEFSAII (Michael W. Deem and Ramdas Pophale) SiO2 
 PCOD9013252
Probable space group: P -1
;
_chemical_formula_sum "Si O2"
_cell_formula_units_Z 15
_cell_length_a 10.584825
_cell_length_b 9.328431
_cell_length_c 8.942944
_cell_angle_alpha 72.889971
_cell_angle_beta 127.429383
_cell_angle_gamma 99.466924
_cell_volume 670.058341
_symmetry_space_group_name_H-M "P -1"
_symmetry_group_IT_number 2
_symmetry_cell_setting 'triclinic'
loop_
_space_group_symop_operation_xyz
x,y,z
-x,-y,-z
loop_
_atom_site_type_symbol
_atom_site_label
_atom_site_fract_x
_atom_site_fract_y
_atom_site_fract_z
Si Si1 0.581418 0.464741 0.408765
Si Si2 0.920783 0.285424 0.156078
Si Si3 0.059415 0.831052 0.108714
Si Si4 0.379717 0.867414 0.481097
Si Si5 0.038743 0.552440 0.345082
Si Si6 0.650091 0.008059 0.272726
Si Si7 0.453572 0.757082 0.099323
Si Si8 0.000000 0.000000 0.500000
O O1 0.500000 0.500000 0.500000
O O2 0.539211 0.294910 0.386793
O O3 0.773230 0.466456 0.549728
O O4 0.528955 0.592116 0.214362
O O5 0.949766 0.446391 0.198299
O O6 0.995729 0.162320 0.359579
O O7 0.987076 0.256025 0.047701
O O8 0.732958 0.263677 0.008205
O O9 0.248431 0.846210 0.266496
O O10 0.000423 0.728242 0.234328
O O11 0.000000 0.000000 0.000000
O O12 0.288945 0.921160 0.550212
O O13 0.500000 0.000000 0.500000
O O14 0.000000 0.500000 0.500000
O O15 0.813664 0.972773 0.316487
O O16 0.545762 0.860092 0.253806
O O17 0.542002 0.137986 0.077225
#
# Coordination Sequence:
#
# PCOD9013252 Si02
#       8
#     2   2   2   2   2   2   2   1
#     4  11  24  44  70  97 139 187 233 279 358 421
#     4  11  23  42  70  99 141 183 236 288 357 415
#     4  11  25  43  69 102 139 180 240 283 349 424
#     4  11  24  42  67  93 137 174 230 278 344 403
#     4  11  27  47  71 104 145 184 236 299 357 424
#     4  10  21  41  63  99 136 178 224 283 342 411
#     4  10  22  40  65  98 133 176 230 279 342 417
#     4  10  22  36  74  94 140 182 228 276 364 406
#
# _framework density 22.386111
#
# number of rings (size 3 to 8) (size 9 to 14) (size 15 to 20)
#    0.000    1.333    0.000    5.200    9.333    2.667 
#    2.400    0.000    0.000    0.000    0.000    0.000 
#    0.000    0.000    0.000    0.000    0.000    0.000 
#
# Total GULP energy -83516.496131 kJ/mol
# GULP energy per Si atom -5567.766409 kJ/mol
# Density = 2.233516 g / cm^3
# Si number density = 22.386111 Si / 1000 Ang^3
#
#
#
# Elastic Constant Matrix: (Units=GPa)
#
#
# Indices 1 2 3 4 5 6 
#
# 1 56.4548 41.9030 11.8868 0.8700 -1.1112 16.0317
# 2 41.9030 179.8286 71.6016 -18.8843 -5.8019 21.1935
# 3 11.8868 71.6016 96.5506 -18.2141 12.6567 7.4258
# 4 0.8700 -18.8843 -18.2141 53.6584 -6.1106 -5.0312
# 5 -1.1112 -5.8019 12.6567 -6.1106 25.5675 -1.8871
# 6 16.0317 21.1935 7.4258 -5.0312 -1.8871 31.2227
#
#
#
# Elastic Compliance Matrix: (Units=1/GPa)
#
#
# Indices 1 2 3 4 5 6 
#
# 1 0.024238 -0.005547 0.001634 -0.002978 -0.002441 -0.009696
# 2 -0.005547 0.010358 -0.007316 0.001769 0.006022 -0.001793
# 3 0.001634 -0.007316 0.017266 0.002141 -0.009641 -0.000217
# 4 -0.002978 0.001769 0.002141 0.020865 0.004453 0.003450
# 5 -0.002441 0.006022 -0.009641 0.004453 0.046429 0.002983
# 6 -0.009696 -0.001793 -0.000217 0.003450 0.002983 0.039012
#
#
# Mechanical properties :
#
#
# Convention : Reuss Voigt Hill
#
# Bulk Modulus (GPa) = 34.01025 64.84632 49.42828
# Shear Modulus (GPa) = 26.25668 35.91922 31.08795
#
# Velocity S-wave (km/s) = 3.42848 4.01001 3.73059
# Velocity P-wave (km/s) = 5.55861 7.10424 6.37842
#
# Compressibility (1/GPa) = 0.02940290
#
# Stress axis : x y z
#
# Youngs Moduli (GPa) = 41.25783 96.54498 57.91679
#
# Poissons Ratio (x) = 0.53554 -0.09462
# Poissons Ratio (y) = 0.22886 0.42372
# Poissons Ratio (z) = -0.06740 0.70633
#
# Static dielectric constant tensor:
#      x y z
#    x 1.923000 -0.025820 -0.045430 
#    y -0.025820 1.842670 -0.029700 
#    z -0.045430 -0.029700 1.846900 
# 
# From -- ./inp_files/238027.got.cif
#   From: 2010.05.17/outbox.cif.g08.bks.cpg/sg2_120_cif.got.tgz:238027.got - 2010.06.03 11:33:40.
