data_PCOD9013812
_publ_section_title
;
Structure prediction by ZEFSAII (Michael W. Deem and Ramdas Pophale) SiO2 
 PCOD9013812
Probable space group: P -1
;
_chemical_formula_sum "Si O2"
_cell_formula_units_Z 12
_cell_length_a 9.434604
_cell_length_b 5.583469
_cell_length_c 18.264318
_cell_angle_alpha 65.900045
_cell_angle_beta 47.881992
_cell_angle_gamma 49.537369
_cell_volume 542.364359
_symmetry_space_group_name_H-M "P -1"
_symmetry_group_IT_number 2
_symmetry_cell_setting 'triclinic'
loop_
_space_group_symop_operation_xyz
x,y,z
-x,-y,-z
loop_
_atom_site_type_symbol
_atom_site_label
_atom_site_fract_x
_atom_site_fract_y
_atom_site_fract_z
Si Si1 0.136510 0.228685 0.907651
Si Si2 0.971509 0.701871 0.556999
Si Si3 0.853077 0.207766 0.236594
Si Si4 0.526911 0.110441 0.288200
Si Si5 0.716073 0.490188 0.394752
Si Si6 0.764418 0.215908 0.952676
O O1 0.148989 0.514068 0.839537
O O2 0.891944 0.302028 0.957494
O O3 0.327045 0.938884 0.827934
O O4 0.204290 0.097240 0.982545
O O5 0.723733 0.792144 0.657720
O O6 0.000000 0.500000 0.500000
O O7 0.149609 0.501656 0.583742
O O8 0.000000 0.000000 0.500000
O O9 0.598938 0.285892 0.296979
O O10 0.871207 0.209748 0.318028
O O11 0.070237 0.894528 0.162702
O O12 0.627425 0.788085 0.337403
O O13 0.500000 0.500000 0.500000
O O14 0.500000 0.500000 0.000000
#
# Coordination Sequence:
#
# PCOD9013812 Si02
#       6
#     2   2   2   2   2   2
#     4   9  21  41  63  95 134 174 229 278 347 416
#     4  12  27  44  68 102 137 185 237 291 354 420
#     4  10  22  41  69  96 135 188 226 287 353 412
#     4  10  23  42  66  96 134 182 229 284 347 412
#     4  11  23  43  67  94 136 178 235 286 346 411
#     4  10  21  41  65  98 134 176 227 285 346 416
#
# _framework density 22.125349
#
# number of rings (size 3 to 8) (size 9 to 14) (size 15 to 20)
#    0.000    1.667    1.667    1.500    4.667    6.000 
#    0.000    5.000    0.000    0.000    0.000    0.000 
#    0.000    0.000    0.000    0.000    0.000    0.000 
#
# Total GULP energy -66894.766210 kJ/mol
# GULP energy per Si atom -5574.563851 kJ/mol
# Density = 2.207499 g / cm^3
# Si number density = 22.125349 Si / 1000 Ang^3
#
#
#
# Elastic Constant Matrix: (Units=GPa)
#
#
# Indices 1 2 3 4 5 6 
#
# 1 150.8811 36.4835 69.0521 19.2838 -14.1885 -15.6637
# 2 36.4835 46.8968 33.7732 3.3807 -7.7666 -1.9473
# 3 69.0521 33.7732 134.7327 0.1218 1.1156 -7.5466
# 4 19.2838 3.3807 0.1218 23.8365 3.7841 -7.8942
# 5 -14.1885 -7.7666 1.1156 3.7841 53.1594 4.5521
# 6 -15.6637 -1.9473 -7.5466 -7.8942 4.5521 41.2671
#
#
#
# Elastic Compliance Matrix: (Units=1/GPa)
#
#
# Indices 1 2 3 4 5 6 
#
# 1 0.011306 -0.004264 -0.004671 -0.008574 0.002994 0.001265
# 2 -0.004264 0.029042 -0.005231 -0.001844 0.003512 -0.001945
# 3 -0.004671 -0.005231 0.011221 0.005349 -0.002744 0.001358
# 4 -0.008574 -0.001844 0.005349 0.053108 -0.007186 0.008589
# 5 0.002994 0.003512 -0.002744 -0.007186 0.020940 -0.002884
# 6 0.001265 -0.001945 0.001358 0.008589 -0.002884 0.026830
#
#
# Mechanical properties :
#
#
# Convention : Reuss Voigt Hill
#
# Bulk Modulus (GPa) = 43.03739 67.90315 55.47027
# Shear Modulus (GPa) = 26.52165 36.53272 31.52718
#
# Velocity S-wave (km/s) = 3.46598 4.06787 3.77893
# Velocity P-wave (km/s) = 5.95913 7.26775 6.64573
#
# Compressibility (1/GPa) = 0.02323561
#
# Stress axis : x y z
#
# Youngs Moduli (GPa) = 88.45192 34.43324 89.11577
#
# Poissons Ratio (x) = 0.14684 0.41630
# Poissons Ratio (y) = 0.37720 0.46613
# Poissons Ratio (z) = 0.41320 0.18011
#
# Static dielectric constant tensor:
#      x y z
#    x 1.739000 0.040740 0.066170 
#    y 0.040740 1.889880 0.072010 
#    z 0.066170 0.072010 1.887780 
# 
# From -- ./inp_files/4404.got.cif
#   From: 2010.05.17/outbox.cif.g08.bks.cpg/sg2_3_cif.got.tgz:4404.got - 2010.06.03 11:33:40.
