data_PCOD9013673
_publ_section_title
;
Structure prediction by ZEFSAII (Michael W. Deem and Ramdas Pophale) SiO2 
 PCOD9013673
Probable space group: P -1
;
_chemical_formula_sum "Si O2"
_cell_formula_units_Z 16
_cell_length_a 12.032601
_cell_length_b 25.536808
_cell_length_c 7.812624
_cell_angle_alpha 136.483962
_cell_angle_beta 138.437632
_cell_angle_gamma 23.741246
_cell_volume 633.884502
_symmetry_space_group_name_H-M "P -1"
_symmetry_group_IT_number 2
_symmetry_cell_setting 'triclinic'
loop_
_space_group_symop_operation_xyz
x,y,z
-x,-y,-z
loop_
_atom_site_type_symbol
_atom_site_label
_atom_site_fract_x
_atom_site_fract_y
_atom_site_fract_z
Si Si1 0.326661 0.281043 0.962812
Si Si2 0.500952 0.408918 0.293554
Si Si3 0.568549 0.021590 0.961516
Si Si4 0.996037 0.455439 0.691016
Si Si5 0.201833 0.751006 0.059680
Si Si6 0.078443 0.222262 0.652294
Si Si7 0.845271 0.379511 0.099957
Si Si8 0.710679 0.131524 0.367693
O O1 0.108051 0.418424 0.143258
O O2 0.624448 0.167956 0.149751
O O3 0.202624 0.241412 0.717113
O O4 0.289187 0.327986 0.836911
O O5 0.500000 0.500000 0.500000
O O6 0.255180 0.480416 0.314889
O O7 0.815864 0.269409 0.397462
O O8 0.533759 0.366434 0.038590
O O9 0.513015 0.132346 0.193581
O O10 0.345275 0.077724 0.694037
O O11 0.898691 0.895761 0.979503
O O12 0.500000 0.000000 0.000000
O O13 0.962359 0.415671 0.392962
O O14 0.320718 0.770018 0.373182
O O15 0.077423 0.719782 0.923706
O O16 0.938855 0.321764 0.882888
O O17 0.500000 0.500000 0.000000
O O18 0.000000 0.000000 0.500000
#
# Coordination Sequence:
#
# PCOD9013673 Si02
#       8
#     2   2   2   2   2   2   2   2
#     4  10  22  41  58  91 129 167 200 276 311 368
#     4  12  22  40  61  90 129 168 205 257 313 386
#     4  10  21  41  65  93 119 160 214 270 309 365
#     4  11  23  40  59  91 136 167 210 251 321 384
#     4  11  22  40  63  88 129 165 210 260 320 373
#     4  11  22  39  65  91 124 163 217 261 316 369
#     4  12  21  35  65  95 121 174 213 255 312 387
#     4   9  21  40  66  88 122 162 216 263 312 367
#
# _framework density 25.241191000000001
#
# number of rings (size 3 to 8) (size 9 to 14) (size 15 to 20)
#    0.000    1.250    5.000    0.750    0.000    1.000 
#    9.000    1.250    0.000    7.500    0.000    0.000 
#    0.000    0.000    0.000    0.000    0.000    0.000 
#
# Total GULP energy -89203.499555 kJ/mol
# GULP energy per Si atom -5575.218722 kJ/mol
# Density = 2.518374 g / cm^3
# Si number density = 25.241191 Si / 1000 Ang^3
#
#
#
# Elastic Constant Matrix: (Units=GPa)
#
#
# Indices 1 2 3 4 5 6 
#
# 1 73.7225 -2.3650 -17.5427 10.1727 5.9472 6.7891
# 2 -2.3650 101.7626 5.3773 -29.7278 -5.1444 0.9877
# 3 -17.5427 5.3773 82.8729 -9.5135 -8.5198 -1.2838
# 4 10.1727 -29.7278 -9.5135 49.6736 2.1150 -3.6424
# 5 5.9472 -5.1444 -8.5198 2.1150 28.6024 4.7554
# 6 6.7891 0.9877 -1.2838 -3.6424 4.7554 38.6109
#
#
#
# Elastic Compliance Matrix: (Units=1/GPa)
#
#
# Indices 1 2 3 4 5 6 
#
# 1 0.014985 -0.000775 0.002636 -0.003142 -0.001805 -0.002602
# 2 -0.000775 0.012029 0.000081 0.007321 0.001757 0.000305
# 3 0.002636 0.000081 0.013169 0.001872 0.003293 -0.000257
# 4 -0.003142 0.007321 0.001872 0.025716 0.000155 0.002834
# 5 -0.001805 0.001757 0.003293 0.000155 0.037321 -0.004200
# 6 -0.002602 0.000305 -0.000257 0.002834 -0.004200 0.027125
#
#
# Mechanical properties :
#
#
# Convention : Reuss Voigt Hill
#
# Bulk Modulus (GPa) = 22.69232 25.47749 24.08490
# Shear Modulus (GPa) = 35.42330 41.56995 38.49662
#
# Velocity S-wave (km/s) = 3.75025 4.06262 3.90955
# Velocity P-wave (km/s) = 5.26899 5.66763 5.47194
#
# Compressibility (1/GPa) = 0.04406778
#
# Stress axis : x y z
#
# Youngs Moduli (GPa) = 66.73137 83.13295 75.93679
#
# Poissons Ratio (x) = 0.06441 -0.20016
# Poissons Ratio (y) = 0.05170 -0.00617
# Poissons Ratio (z) = -0.17590 -0.00675
#
# Static dielectric constant tensor:
#      x y z
#    x 1.981600 0.055140 0.034760 
#    y 0.055140 2.291200 -0.085630 
#    z 0.034760 -0.085630 2.182920 
# 
# From -- ./inp_files/321102.got.cif
#   From: 2010.05.17/outbox.cif.g08.bks.cpg/sg2_161_cif.got.tgz:321102.got - 2010.06.03 11:33:40.
