data_PCOD9013429
_publ_section_title
;
Structure prediction by ZEFSAII (Michael W. Deem and Ramdas Pophale) SiO2 
 PCOD9013429
Probable space group: P -1
;
_chemical_formula_sum "Si O2"
_cell_formula_units_Z 14
_cell_length_a 18.613910
_cell_length_b 18.943926
_cell_length_c 9.425467
_cell_angle_alpha 37.163543
_cell_angle_beta 143.833792
_cell_angle_gamma 160.822102
_cell_volume 634.081591
_symmetry_space_group_name_H-M "P -1"
_symmetry_group_IT_number 2
_symmetry_cell_setting 'triclinic'
loop_
_space_group_symop_operation_xyz
x,y,z
-x,-y,-z
loop_
_atom_site_type_symbol
_atom_site_label
_atom_site_fract_x
_atom_site_fract_y
_atom_site_fract_z
Si Si1 0.658885 0.897154 0.890649
Si Si2 0.700110 0.364466 0.506932
Si Si3 0.473885 0.266934 0.590051
Si Si4 0.542484 0.992115 0.916788
Si Si5 0.926528 0.888601 0.715857
Si Si6 0.136951 0.699484 0.508580
Si Si7 0.632850 0.484916 0.754774
O O1 0.484397 0.754635 0.713397
O O2 0.744492 0.099891 0.711820
O O3 0.522501 0.736081 0.064001
O O4 0.857605 0.963256 0.081375
O O5 0.596608 0.334908 0.531529
O O6 0.945306 0.600178 0.464693
O O7 0.705385 0.227235 0.746097
O O8 0.269904 0.195618 0.387002
O O9 0.674837 0.475487 0.679575
O O10 0.371577 0.067724 0.818591
O O11 0.329995 0.813866 0.749681
O O12 0.500000 0.000000 0.000000
O O13 0.837516 0.687256 0.855508
O O14 0.000000 0.000000 0.500000
O O15 0.000000 0.500000 0.500000
O O16 0.500000 0.500000 0.500000
#
# Coordination Sequence:
#
# PCOD9013429 Si02
#       7
#     2   2   2   2   2   2   2
#     4  11  23  43  67  94 140 170 227 277 326 410
#     4  10  24  45  63  97 141 170 223 277 339 397
#     4  10  22  42  67  95 133 175 216 282 333 391
#     4   9  22  44  65  98 134 174 224 281 339 401
#     4  11  22  40  67 100 126 171 227 272 335 396
#     4  11  26  41  70 101 133 185 226 274 344 399
#     4  10  21  41  64  95 127 170 226 277 322 390
#
# _framework density 22.079179
#
# number of rings (size 3 to 8) (size 9 to 14) (size 15 to 20)
#    0.000    1.714    2.857    0.857    6.000    4.000 
#    7.714    6.429    0.000    0.000    0.000    0.000 
#    0.000    0.000    0.000    0.000    0.000    0.000 
#
# Total GULP energy -78003.625741 kJ/mol
# GULP energy per Si atom -5571.687553 kJ/mol
# Density = 2.202893 g / cm^3
# Si number density = 22.079179 Si / 1000 Ang^3
#
#
#
# Elastic Constant Matrix: (Units=GPa)
#
#
# Indices 1 2 3 4 5 6 
#
# 1 123.8896 29.8196 29.1031 -9.0037 -6.9027 -2.0760
# 2 29.8196 71.5837 25.6989 -10.8386 -2.6731 4.7299
# 3 29.1031 25.6989 93.8052 -4.8456 -6.3318 -1.3980
# 4 -9.0037 -10.8386 -4.8456 31.8373 7.6744 -1.9532
# 5 -6.9027 -2.6731 -6.3318 7.6744 25.6778 0.8196
# 6 -2.0760 4.7299 -1.3980 -1.9532 0.8196 28.5564
#
#
#
# Elastic Compliance Matrix: (Units=1/GPa)
#
#
# Indices 1 2 3 4 5 6 
#
# 1 0.009443 -0.003111 -0.001912 0.001055 0.001391 0.001140
# 2 -0.003111 0.017441 -0.003701 0.004607 -0.001216 -0.002946
# 3 -0.001912 -0.003701 0.012414 -0.000392 0.002247 0.000990
# 4 0.001055 0.004607 -0.000392 0.035774 -0.010090 0.002031
# 5 0.001391 -0.001216 0.002247 -0.010090 0.042810 -0.001506
# 6 0.001140 -0.002946 0.000990 0.002031 -0.001506 0.035820
#
#
# Mechanical properties :
#
#
# Convention : Reuss Voigt Hill
#
# Bulk Modulus (GPa) = 45.76685 50.94687 48.35686
# Shear Modulus (GPa) = 28.02190 30.85808 29.43999
#
# Velocity S-wave (km/s) = 3.56638 3.74252 3.65551
# Velocity P-wave (km/s) = 6.14266 6.46529 6.30604
#
# Compressibility (1/GPa) = 0.02184988
#
# Stress axis : x y z
#
# Youngs Moduli (GPa) = 105.89924 57.33608 80.55604
#
# Poissons Ratio (x) = 0.17837 0.15402
# Poissons Ratio (y) = 0.32944 0.29814
# Poissons Ratio (z) = 0.20248 0.21220
#
# Static dielectric constant tensor:
#      x y z
#    x 1.817830 -0.062640 -0.024350 
#    y -0.062640 1.972040 0.093710 
#    z -0.024350 0.093710 1.951220 
# 
# From -- ./inp_files/336683.got.cif
#   From: 2010.05.17/outbox.cif.g08.bks.cpg/sg2_169_cif.got.tgz:336683.got - 2010.06.03 11:33:40.
