data_PCOD9013292
_publ_section_title
;
Structure prediction by ZEFSAII (Michael W. Deem and Ramdas Pophale) SiO2 
 PCOD9013292
Probable space group: P -1
;
_chemical_formula_sum "Si O2"
_cell_formula_units_Z 10
_cell_length_a 9.402831
_cell_length_b 10.623257
_cell_length_c 6.969963
_cell_angle_alpha 136.325143
_cell_angle_beta 111.604333
_cell_angle_gamma 85.345593
_cell_volume 428.018127
_symmetry_space_group_name_H-M "P -1"
_symmetry_group_IT_number 2
_symmetry_cell_setting 'triclinic'
loop_
_space_group_symop_operation_xyz
x,y,z
-x,-y,-z
loop_
_atom_site_type_symbol
_atom_site_label
_atom_site_fract_x
_atom_site_fract_y
_atom_site_fract_z
Si Si1 0.835410 0.517691 0.025182
Si Si2 0.719284 0.252295 0.024817
Si Si3 0.498110 0.501045 0.233198
Si Si4 0.958126 0.155586 0.283212
Si Si5 0.367224 0.071420 0.118644
O O1 0.764093 0.336374 0.929448
O O2 0.892273 0.713851 0.388808
O O3 0.686952 0.532657 0.839762
O O4 0.000000 0.500000 0.000000
O O5 0.592582 0.349473 0.158699
O O6 0.882627 0.294870 0.275204
O O7 0.652290 0.027449 0.787138
O O8 0.592425 0.706047 0.587492
O O9 0.500000 0.500000 0.000000
O O10 0.801981 0.029860 0.180615
O O11 0.000000 0.000000 0.000000
O O12 0.500000 0.000000 0.000000
#
# Coordination Sequence:
#
# PCOD9013292 Si02
#       5
#     2   2   2   2   2
#     4  11  22  40  62  95 123 152 203 261 299 351
#     4   9  23  41  66  83 125 170 198 238 315 361
#     4  10  21  41  64  88 125 159 201 251 303 360
#     4  10  21  42  64  87 123 162 203 248 300 365
#     4  10  22  40  63  90 119 159 212 241 291 374
#
# _framework density 23.363495
#
# number of rings (size 3 to 8) (size 9 to 14) (size 15 to 20)
#    1.200    0.800    0.000    4.200    0.000    4.000 
#    3.600    1.000    0.000    0.000    0.000    0.000 
#    0.000    0.000    0.000    0.000    0.000    0.000 
#
# Total GULP energy -55767.321695 kJ/mol
# GULP energy per Si atom -5576.732170 kJ/mol
# Density = 2.331032 g / cm^3
# Si number density = 23.363495 Si / 1000 Ang^3
#
#
#
# Elastic Constant Matrix: (Units=GPa)
#
#
# Indices 1 2 3 4 5 6 
#
# 1 146.0828 38.4794 9.1683 15.3913 11.6321 -12.6415
# 2 38.4794 73.2718 40.1253 8.0687 6.0219 -18.3436
# 3 9.1683 40.1253 31.2698 4.3661 -4.1215 -23.7943
# 4 15.3913 8.0687 4.3661 17.1540 -1.2814 -11.1655
# 5 11.6321 6.0219 -4.1215 -1.2814 32.6707 -2.0922
# 6 -12.6415 -18.3436 -23.7943 -11.1655 -2.0922 37.0513
#
#
#
# Elastic Compliance Matrix: (Units=1/GPa)
#
#
# Indices 1 2 3 4 5 6 
#
# 1 -0.005559 0.104450 -0.214814 -0.065760 -0.054061 -0.111008
# 2 0.104450 -0.804402 1.629982 0.445785 0.388012 0.840412
# 3 -0.214814 1.629982 -3.231976 -0.884275 -0.772156 -1.651966
# 4 -0.065760 0.445785 -0.884275 -0.162542 -0.204229 -0.430131
# 5 -0.054061 0.388012 -0.772156 -0.204229 -0.152210 -0.392364
# 6 -0.111008 0.840412 -1.651966 -0.430131 -0.392364 -0.807478
#
#
# Mechanical properties :
#
#
# Convention : Reuss Voigt Hill
#
# Bulk Modulus (GPa) = -0.99731 47.35228 23.17748
# Shear Modulus (GPa) = -0.58564 28.23197 13.82316
#
# Velocity S-wave (km/s) = -0.50121 3.47995 2.43504
# Velocity P-wave (km/s) = 0.87335 6.03807 4.22467
#
# Compressibility (1/GPa) = -1.00270021
#
# Stress axis : x y z
#
# Youngs Moduli (GPa) = -179.89704 -1.24316 -0.30941
#
# Poissons Ratio (x) = 0.12985 -0.06647
# Poissons Ratio (y) = 18.79021 0.50433
# Poissons Ratio (z) = -38.64436 2.02633
#
# Static dielectric constant tensor:
#      x y z
#    x 1.909060 0.077850 -0.000560 
#    y 0.077850 1.898130 0.009110 
#    z -0.000560 0.009110 1.821470 
# 
# From -- ./inp_files/15587.got.cif
#   From: 2010.05.17/outbox.cif.g08.bks.cpg/sg2_8_cif.got.tgz:15587.got - 2010.06.03 11:33:40.
