data_PCOD9013219
_publ_section_title
;
Structure prediction by ZEFSAII (Michael W. Deem and Ramdas Pophale) SiO2 
 PCOD9013219
Probable space group: P -1
;
_chemical_formula_sum "Si O2"
_cell_formula_units_Z 16
_cell_length_a 13.911406
_cell_length_b 7.811268
_cell_length_c 8.292375
_cell_angle_alpha 50.952691
_cell_angle_beta 112.542204
_cell_angle_gamma 104.762042
_cell_volume 646.236504
_symmetry_space_group_name_H-M "P -1"
_symmetry_group_IT_number 2
_symmetry_cell_setting 'triclinic'
loop_
_space_group_symop_operation_xyz
x,y,z
-x,-y,-z
loop_
_atom_site_type_symbol
_atom_site_label
_atom_site_fract_x
_atom_site_fract_y
_atom_site_fract_z
Si Si1 0.296977 0.735291 0.724695
Si Si2 0.928497 0.400337 0.735336
Si Si3 0.944005 0.174010 0.572651
Si Si4 0.756176 0.743664 0.975408
Si Si5 0.241032 0.334019 0.602981
Si Si6 0.437821 0.120058 0.751665
Si Si7 0.897425 0.715679 0.766699
Si Si8 0.408665 0.873052 0.421279
O O1 0.176355 0.793961 0.577802
O O2 0.359111 0.707477 0.614917
O O3 0.361012 0.930624 0.737909
O O4 0.298325 0.495217 0.948451
O O5 0.961348 0.204473 0.758690
O O6 0.809135 0.427745 0.588710
O O7 0.922784 0.460857 0.883926
O O8 0.994092 0.617606 0.587542
O O9 0.975067 0.927747 0.691443
O O10 0.844756 0.739682 0.895360
O O11 0.678821 0.945963 0.783011
O O12 0.787775 0.744838 0.186121
O O13 0.360226 0.295447 0.669844
O O14 0.182034 0.232914 0.465052
O O15 0.527446 0.214558 0.636406
O O16 0.500000 0.000000 0.000000
O O17 0.500000 0.000000 0.500000
#
# Coordination Sequence:
#
# PCOD9013219 Si02
#       8
#     2   2   2   2   2   2   2   2
#     4  11  22  41  68  91 130 179 219 275 349 394
#     4   9  22  38  69 100 135 171 232 276 335 416
#     4  11  18  41  73  94 135 185 210 287 348 386
#     4  12  22  42  69  94 135 176 226 280 334 407
#     4  10  21  41  63  96 135 169 222 284 325 405
#     4  11  21  39  60  93 130 170 226 277 331 403
#     4  10  21  41  66  95 138 178 216 281 338 393
#     4  10  22  40  64  90 129 170 224 276 333 397
#
# _framework density 24.758735999999999
#
# number of rings (size 3 to 8) (size 9 to 14) (size 15 to 20)
#    0.750    0.750    5.000    1.125    0.000    2.000 
#    6.750    1.875    0.000    0.000    0.000    0.000 
#    0.000    0.000    0.000    0.000    0.000    0.000 
#
# Total GULP energy -89099.355824 kJ/mol
# GULP energy per Si atom -5568.709739 kJ/mol
# Density = 2.470238 g / cm^3
# Si number density = 24.758736 Si / 1000 Ang^3
#
#
#
# Elastic Constant Matrix: (Units=GPa)
#
#
# Indices 1 2 3 4 5 6 
#
# 1 54.7473 -8.3734 -8.0768 -6.2647 -35.4996 3.6996
# 2 -8.3734 108.6357 0.3377 -5.4116 -1.3127 -7.7049
# 3 -8.0768 0.3377 50.5023 9.7358 -13.1395 -4.4862
# 4 -6.2647 -5.4116 9.7358 48.2045 0.6948 -2.6580
# 5 -35.4996 -1.3127 -13.1395 0.6948 35.7306 7.9410
# 6 3.6996 -7.7049 -4.4862 -2.6580 7.9410 36.4044
#
#
#
# Elastic Compliance Matrix: (Units=1/GPa)
#
#
# Indices 1 2 3 4 5 6 
#
# 1 0.173442 0.012141 0.078029 0.002224 0.212913 -0.051721
# 2 0.012141 0.010262 0.005300 0.001364 0.014699 -0.001515
# 3 0.078029 0.005300 0.058058 -0.003741 0.104176 -0.022651
# 4 0.002224 0.001364 -0.003741 0.022004 0.000197 0.001165
# 5 0.212913 0.014699 0.104176 0.000197 0.293877 -0.069778
# 6 -0.051721 -0.001515 -0.022651 0.001165 -0.069778 0.044919
#
#
# Mechanical properties :
#
#
# Convention : Reuss Voigt Hill
#
# Bulk Modulus (GPa) = 2.31106 20.18447 11.24777
# Shear Modulus (GPa) = 8.99511 39.40109 24.19810
#
# Velocity S-wave (km/s) = 1.90814 3.99357 3.12966
# Velocity P-wave (km/s) = 2.40627 5.42540 4.19673
#
# Compressibility (1/GPa) = 0.43270234
#
# Stress axis : x y z
#
# Youngs Moduli (GPa) = 5.76561 97.44220 17.22417
#
# Poissons Ratio (x) = -1.18306 -1.34398
# Poissons Ratio (y) = -0.07000 -0.09128
# Poissons Ratio (z) = -0.44988 -0.51642
#
# Static dielectric constant tensor:
#      x y z
#    x 2.087150 -0.055430 -0.056720 
#    y -0.055430 1.963270 -0.010110 
#    z -0.056720 -0.010110 2.012190 
# 
# From -- ./inp_files/294217.got.cif
#   From: 2010.05.17/outbox.cif.g08.bks.cpg/sg2_148_cif.got.tgz:294217.got - 2010.06.03 11:33:40.
