data_PCOD9013183
_publ_section_title
;
Structure prediction by ZEFSAII (Michael W. Deem and Ramdas Pophale) SiO2 
 PCOD9013183
Probable space group: P -1
;
_chemical_formula_sum "Si O2"
_cell_formula_units_Z 14
_cell_length_a 9.837348
_cell_length_b 12.723995
_cell_length_c 7.853397
_cell_angle_alpha 85.996425
_cell_angle_beta 134.272766
_cell_angle_gamma 74.381249
_cell_volume 628.732255
_symmetry_space_group_name_H-M "P -1"
_symmetry_group_IT_number 2
_symmetry_cell_setting 'triclinic'
loop_
_space_group_symop_operation_xyz
x,y,z
-x,-y,-z
loop_
_atom_site_type_symbol
_atom_site_label
_atom_site_fract_x
_atom_site_fract_y
_atom_site_fract_z
Si Si1 0.087180 0.627728 0.211256
Si Si2 0.090285 0.337188 0.565157
Si Si3 0.328654 0.461348 0.927330
Si Si4 0.747107 0.190330 0.795248
Si Si5 0.322982 0.376143 0.300570
Si Si6 0.747069 0.930391 0.259299
Si Si7 0.967929 0.010336 0.719946
O O1 0.025161 0.647639 0.353188
O O2 0.167804 0.718070 0.201428
O O3 0.256124 0.493931 0.337845
O O4 0.880039 0.642815 0.923999
O O5 0.902975 0.425435 0.269238
O O6 0.270618 0.379757 0.757899
O O7 0.188414 0.202454 0.613052
O O8 0.500000 0.500000 0.000000
O O9 0.401400 0.398399 0.180755
O O10 0.496460 0.265211 0.562521
O O11 0.863594 0.122926 0.073740
O O12 0.822042 0.083533 0.738605
O O13 0.814913 0.002237 0.444534
O O14 0.891139 0.925820 0.223679
O O15 0.500000 0.000000 0.000000
#
# Coordination Sequence:
#
# PCOD9013183 Si02
#       7
#     2   2   2   2   2   2   2
#     4  10  21  41  63  94 131 165 212 260 317 386
#     4  10  22  42  62  93 132 162 212 266 310 384
#     4  10  22  38  66  98 126 168 204 258 329 376
#     4  11  22  43  67  94 132 166 210 270 315 377
#     4  10  23  39  67  96 127 171 207 259 327 383
#     4  11  25  46  67  92 128 173 216 265 320 375
#     4  10  26  43  66  98 124 170 223 261 314 377
#
# _framework density 22.267032
#
# number of rings (size 3 to 8) (size 9 to 14) (size 15 to 20)
#    0.000    1.714    1.429    1.286    6.000    2.286 
#    7.714    2.857    0.000    0.000    0.000    0.000 
#    0.000    0.000    0.000    0.000    0.000    0.000 
#
# Total GULP energy -78330.154583 kJ/mol
# GULP energy per Si atom -5595.011042 kJ/mol
# Density = 2.221635 g / cm^3
# Si number density = 22.267032 Si / 1000 Ang^3
#
#
#
# Elastic Constant Matrix: (Units=GPa)
#
#
# Indices 1 2 3 4 5 6 
#
# 1 45.9856 2.3401 17.6129 11.1665 8.6218 8.5401
# 2 2.3401 67.7564 22.5491 -17.2805 17.2214 3.2944
# 3 17.6129 22.5491 112.3695 -18.2473 18.4531 2.3697
# 4 11.1665 -17.2805 -18.2473 30.9490 -0.1137 1.1348
# 5 8.6218 17.2214 18.4531 -0.1137 28.7474 -0.1022
# 6 8.5401 3.2944 2.3697 1.1348 -0.1022 27.8658
#
#
#
# Elastic Compliance Matrix: (Units=1/GPa)
#
#
# Indices 1 2 3 4 5 6 
#
# 1 0.029989 -0.001299 -0.005932 -0.014768 -0.004495 -0.007948
# 2 -0.001299 0.021204 0.000034 0.012381 -0.012296 -0.002661
# 3 -0.005932 0.000034 0.012348 0.009404 -0.006129 0.000358
# 4 -0.014768 0.012381 0.009404 0.050058 -0.008826 0.000192
# 5 -0.004495 -0.012296 -0.006129 -0.008826 0.047413 0.003886
# 6 -0.007948 -0.002661 0.000358 0.000192 0.003886 0.038613
#
#
# Mechanical properties :
#
#
# Convention : Reuss Voigt Hill
#
# Bulk Modulus (GPa) = 20.34699 34.56841 27.45770
# Shear Modulus (GPa) = 21.70125 29.75308 25.72716
#
# Velocity S-wave (km/s) = 3.12523 3.65936 3.40279
# Velocity P-wave (km/s) = 4.70960 5.78038 5.27224
#
# Compressibility (1/GPa) = 0.04914732
#
# Stress axis : x y z
#
# Youngs Moduli (GPa) = 33.34556 47.16029 80.98297
#
# Poissons Ratio (x) = 0.06127 0.48041
# Poissons Ratio (y) = 0.04332 -0.00278
# Poissons Ratio (z) = 0.19781 -0.00162
#
# Static dielectric constant tensor:
#      x y z
#    x 1.869150 -0.010230 -0.045240 
#    y -0.010230 1.792520 0.005270 
#    z -0.045240 0.005270 1.821670 
# 
# From -- ./inp_files/258662.got.cif
#   From: 2010.05.17/outbox.cif.g08.bks.cpg/sg2_130_cif.got.tgz:258662.got - 2010.06.03 11:33:40.
