data_PCOD9013870
_publ_section_title
;
Structure prediction by ZEFSAII (Michael W. Deem and Ramdas Pophale) SiO2 
 PCOD9013870
Probable space group: P -1
;
_chemical_formula_sum "Si O2"
_cell_formula_units_Z 14
_cell_length_a 11.062943
_cell_length_b 9.833158
_cell_length_c 17.295292
_cell_angle_alpha 141.375371
_cell_angle_beta 148.460499
_cell_angle_gamma 48.479869
_cell_volume 614.301497
_symmetry_space_group_name_H-M "P -1"
_symmetry_group_IT_number 2
_symmetry_cell_setting 'triclinic'
loop_
_space_group_symop_operation_xyz
x,y,z
-x,-y,-z
loop_
_atom_site_type_symbol
_atom_site_label
_atom_site_fract_x
_atom_site_fract_y
_atom_site_fract_z
Si Si1 0.062381 0.501185 0.698989
Si Si2 0.144536 0.324709 0.045796
Si Si3 0.038366 0.140881 0.324080
Si Si4 0.241314 0.874586 0.577812
Si Si5 0.100385 0.775204 0.987369
Si Si6 0.601096 0.156385 0.190355
Si Si7 0.598747 0.854077 0.349892
O O1 0.256952 0.342891 0.699075
O O2 0.977378 0.676340 0.668290
O O3 0.841556 0.367069 0.552425
O O4 0.165670 0.628395 0.885071
O O5 0.093223 0.335396 0.113282
O O6 0.414537 0.344378 0.181312
O O7 0.055186 0.086045 0.863032
O O8 0.000000 0.500000 0.000000
O O9 0.281597 0.115563 0.488517
O O10 0.856302 0.209450 0.322885
O O11 0.383979 0.953861 0.766036
O O12 0.361316 0.934875 0.589983
O O13 0.000000 0.000000 0.500000
O O14 0.327654 0.807082 0.177971
O O15 0.000000 0.000000 0.000000
O O16 0.500000 0.000000 0.000000
#
# Coordination Sequence:
#
# PCOD9013870 Si02
#       7
#     2   2   2   2   2   2   2
#     4  11  24  43  73 101 138 177 231 282 342 400
#     4  11  27  44  69 101 142 184 227 273 351 409
#     4  11  23  46  70 103 134 177 233 289 336 400
#     4  10  21  41  66 107 131 167 229 283 336 389
#     4  12  26  49  65 100 147 183 222 279 346 419
#     4  10  22  42  73  97 137 177 231 285 329 399
#     4  11  25  43  74 102 137 177 234 285 336 403
#
# _framework density 22.790112000000001
#
# number of rings (size 3 to 8) (size 9 to 14) (size 15 to 20)
#    0.000    1.143    4.286    1.714    6.000    1.714 
#    2.571    1.429    0.000    0.000    0.000    0.000 
#    0.000    0.000    0.000    0.000    0.000    0.000 
#
# Total GULP energy -78279.349267 kJ/mol
# GULP energy per Si atom -5591.382091 kJ/mol
# Density = 2.273824 g / cm^3
# Si number density = 22.790112 Si / 1000 Ang^3
#
#
#
# Elastic Constant Matrix: (Units=GPa)
#
#
# Indices 1 2 3 4 5 6 
#
# 1 71.6118 34.6148 2.7086 -8.7738 7.1092 4.9063
# 2 34.6148 128.3223 22.7386 -8.2574 -0.2107 22.7076
# 3 2.7086 22.7386 75.5207 -23.7954 -2.1458 -3.6897
# 4 -8.7738 -8.2574 -23.7954 46.7111 5.8130 2.3900
# 5 7.1092 -0.2107 -2.1458 5.8130 26.5727 -5.5615
# 6 4.9063 22.7076 -3.6897 2.3900 -5.5615 39.7765
#
#
#
# Elastic Compliance Matrix: (Units=1/GPa)
#
#
# Indices 1 2 3 4 5 6 
#
# 1 0.017210 -0.004678 0.001904 0.004067 -0.005436 -0.000280
# 2 -0.004678 0.010670 -0.003475 -0.000457 -0.000062 -0.005818
# 3 0.001904 -0.003475 0.016955 0.008289 -0.000402 0.002767
# 4 0.004067 -0.000457 0.008289 0.027268 -0.006819 -0.002064
# 5 -0.005436 -0.000062 -0.000402 -0.006819 0.042000 0.006951
# 6 -0.000280 -0.005818 0.002767 -0.002064 0.006951 0.029849
#
#
# Mechanical properties :
#
#
# Convention : Reuss Voigt Hill
#
# Bulk Modulus (GPa) = 30.92246 43.95319 37.43783
# Shear Modulus (GPa) = 29.89905 36.97158 33.43531
#
# Velocity S-wave (km/s) = 3.62599 4.03210 3.83443
# Velocity P-wave (km/s) = 5.57927 6.40352 6.00555
#
# Compressibility (1/GPa) = 0.03233895
#
# Stress axis : x y z
#
# Youngs Moduli (GPa) = 58.10513 93.71652 58.97995
#
# Poissons Ratio (x) = 0.43836 -0.11231
# Poissons Ratio (y) = 0.27179 0.20496
# Poissons Ratio (z) = -0.11065 0.32567
#
# Static dielectric constant tensor:
#      x y z
#    x 1.860820 -0.001450 -0.009970 
#    y -0.001450 1.790780 0.019800 
#    z -0.009970 0.019800 1.886120 
# 
# From -- ./inp_files/156858.got.cif
#   From: 2010.05.17/outbox.cif.g08.bks.cpg/sg2_79_cif.got.tgz:156858.got - 2010.06.03 11:33:40.
