data_PCOD9013046
_publ_section_title
;
Structure prediction by ZEFSAII (Michael W. Deem and Ramdas Pophale) SiO2 
 PCOD9013046
Probable space group: P -1
;
_chemical_formula_sum "Si O2"
_cell_formula_units_Z 16
_cell_length_a 17.543415
_cell_length_b 7.225603
_cell_length_c 17.526442
_cell_angle_alpha 80.804960
_cell_angle_beta 158.384705
_cell_angle_gamma 110.241919
_cell_volume 678.455367
_symmetry_space_group_name_H-M "P -1"
_symmetry_group_IT_number 2
_symmetry_cell_setting 'triclinic'
loop_
_space_group_symop_operation_xyz
x,y,z
-x,-y,-z
loop_
_atom_site_type_symbol
_atom_site_label
_atom_site_fract_x
_atom_site_fract_y
_atom_site_fract_z
Si Si1 0.105113 0.127585 0.505921
Si Si2 0.032717 0.529398 0.441240
Si Si3 0.184773 0.122154 0.240818
Si Si4 0.867939 0.413892 0.674010
Si Si5 0.660318 0.483803 0.982562
Si Si6 0.498569 0.829473 0.777988
Si Si7 0.252094 0.601992 0.273156
Si Si8 0.022053 0.117384 0.256420
O O1 0.041609 0.320183 0.432464
O O2 0.030238 0.029296 0.355060
O O3 0.400755 0.254249 0.769574
O O4 0.000000 0.000000 0.500000
O O5 0.295654 0.756200 0.658265
O O6 0.000000 0.500000 0.500000
O O7 0.812294 0.533984 0.198360
O O8 0.243320 0.372470 0.283313
O O9 0.470267 0.191161 0.499665
O O10 0.074842 0.033482 0.231063
O O11 0.000000 0.000000 0.000000
O O12 0.661919 0.220886 0.442471
O O13 0.820133 0.334244 0.719795
O O14 0.138625 0.493969 0.891485
O O15 0.817290 0.613968 0.607946
O O16 0.593264 0.662447 0.886210
O O17 0.746680 0.063841 0.994493
O O18 0.000000 0.500000 0.000000
#
# Coordination Sequence:
#
# PCOD9013046 Si02
#       8
#     2   2   2   2   2   2   2   2
#     4  11  25  40  61  93 126 166 215 254 313 376
#     4  10  23  41  60  87 125 161 210 267 312 364
#     4  10  23  43  65  95 133 168 211 268 324 380
#     4  10  21  43  62  92 126 163 211 263 313 377
#     4  10  21  41  63  83 128 165 206 266 311 369
#     4  10  22  40  62  91 123 164 212 254 317 374
#     4  10  23  39  68  94 127 169 211 264 327 387
#     4  11  22  42  64  91 129 166 209 262 311 376
#
# _framework density 23.582982000000001
#
# number of rings (size 3 to 8) (size 9 to 14) (size 15 to 20)
#    0.000    1.750    3.750    0.750    5.250    5.000 
#    2.250    0.000    0.000    0.000    0.000    0.000 
#    0.000    0.000    0.000    0.000    0.000    0.000 
#
# Total GULP energy -89068.486685 kJ/mol
# GULP energy per Si atom -5566.780418 kJ/mol
# Density = 2.352931 g / cm^3
# Si number density = 23.582982 Si / 1000 Ang^3
#
#
#
# Elastic Constant Matrix: (Units=GPa)
#
#
# Indices 1 2 3 4 5 6 
#
# 1 183.3257 -1.1346 103.1238 9.9918 -39.1391 28.2773
# 2 -1.1346 55.4319 27.7647 -1.7311 -31.5348 1.1750
# 3 103.1238 27.7647 179.5706 13.0362 27.4907 15.8997
# 4 9.9918 -1.7311 13.0362 35.3017 -9.2691 4.7691
# 5 -39.1391 -31.5348 27.4907 -9.2691 -37.9049 8.7209
# 6 28.2773 1.1750 15.8997 4.7691 8.7209 25.7541
#
#
#
# Elastic Compliance Matrix: (Units=1/GPa)
#
#
# Indices 1 2 3 4 5 6 
#
# 1 0.005793 -0.002184 -0.001723 -0.002175 -0.005553 -0.002914
# 2 -0.002184 0.013524 0.000017 -0.001341 -0.007600 0.004592
# 3 -0.001723 0.000017 0.006061 0.000133 0.005285 -0.003665
# 4 -0.002175 -0.001341 0.000133 0.028051 -0.003759 -0.001554
# 5 -0.005553 -0.007600 0.005285 -0.003759 -0.008053 0.006604
# 6 -0.002914 0.004592 -0.003665 -0.001554 0.006604 0.042133
#
#
# Mechanical properties :
#
#
# Convention : Reuss Voigt Hill
#
# Bulk Modulus (GPa) = 56.81988 75.31512 66.06750
# Shear Modulus (GPa) = 49.42917 23.86846 36.64881
#
# Velocity S-wave (km/s) = 4.58314 3.18481 3.94640
# Velocity P-wave (km/s) = 7.22169 6.74756 6.98865
#
# Compressibility (1/GPa) = 0.01759947
#
# Stress axis : x y z
#
# Youngs Moduli (GPa) = 172.62345 73.94171 164.97590
#
# Poissons Ratio (x) = 0.16146 0.28427
# Poissons Ratio (y) = 0.37695 -0.00284
# Poissons Ratio (z) = 0.29745 -0.00127
#
# Static dielectric constant tensor:
#      x y z
#    x 1.957440 -0.046820 0.006040 
#    y -0.046820 2.066410 -0.001610 
#    z 0.006040 -0.001610 2.025810 
# 
# From -- ./inp_files/575404.got.cif
#   From: 2010.05.17/outbox.cif.g08.bks.cpg/sg2_288_cif.got.tgz:575404.got - 2010.06.03 11:33:40.
