data_PCOD9013383
_publ_section_title
;
Structure prediction by ZEFSAII (Michael W. Deem and Ramdas Pophale) SiO2 
 PCOD9013383
Probable space group: P -1
;
_chemical_formula_sum "Si O2"
_cell_formula_units_Z 16
_cell_length_a 14.474913
_cell_length_b 8.211691
_cell_length_c 16.079077
_cell_angle_alpha 108.037797
_cell_angle_beta 26.771841
_cell_angle_gamma 92.132183
_cell_volume 678.958253
_symmetry_space_group_name_H-M "P -1"
_symmetry_group_IT_number 2
_symmetry_cell_setting 'triclinic'
loop_
_space_group_symop_operation_xyz
x,y,z
-x,-y,-z
loop_
_atom_site_type_symbol
_atom_site_label
_atom_site_fract_x
_atom_site_fract_y
_atom_site_fract_z
Si Si1 0.003661 0.325205 0.915607
Si Si2 0.438047 0.341370 0.987872
Si Si3 0.256186 0.723498 0.428598
Si Si4 0.136040 0.389208 0.487156
Si Si5 0.557837 0.419691 0.568688
Si Si6 0.297644 0.267842 0.513141
Si Si7 0.272082 0.938244 0.747866
Si Si8 0.841467 0.956358 0.684838
O O1 0.083058 0.308168 0.753826
O O2 0.210429 0.114658 0.760338
O O3 0.000000 0.500000 0.000000
O O4 0.723005 0.391479 0.158881
O O5 0.561966 0.283406 0.787820
O O6 0.568193 0.148583 0.916013
O O7 0.500000 0.500000 0.000000
O O8 0.147604 0.446961 0.233281
O O9 0.261181 0.512589 0.386337
O O10 0.337291 0.724716 0.456997
O O11 0.979582 0.911121 0.654614
O O12 0.264520 0.237893 0.439048
O O13 0.131116 0.253071 0.396907
O O14 0.710098 0.521175 0.447436
O O15 0.583230 0.282166 0.449122
O O16 0.557426 0.089039 0.316202
O O17 0.000000 0.000000 0.000000
O O18 0.000000 0.000000 0.500000
#
# Coordination Sequence:
#
# PCOD9013383 Si02
#       8
#     2   2   2   2   2   2   2   2
#     4  12  24  42  68  94 129 176 215 265 327 380
#     4  11  22  42  66  92 128 172 208 264 323 371
#     4  10  23  43  65  95 129 166 214 266 318 381
#     4  11  23  44  64  93 131 165 214 267 315 382
#     4  11  24  46  65  95 134 167 217 272 319 386
#     4  11  24  44  66  97 130 169 217 271 322 384
#     4  12  24  45  69  94 132 173 213 268 326 382
#     4  10  21  41  64  93 127 165 209 259 314 380
#
# _framework density 23.565514
#
# number of rings (size 3 to 8) (size 9 to 14) (size 15 to 20)
#    0.000    1.000    5.000    2.625    0.000    2.500 
#    9.000    0.000    0.000    0.000    0.000    0.000 
#    0.000    0.000    0.000    0.000    0.000    0.000 
#
# Total GULP energy -89576.418702 kJ/mol
# GULP energy per Si atom -5598.526169 kJ/mol
# Density = 2.351188 g / cm^3
# Si number density = 23.565514 Si / 1000 Ang^3
#
#
#
# Elastic Constant Matrix: (Units=GPa)
#
#
# Indices 1 2 3 4 5 6 
#
# 1 95.2989 -0.8448 18.6273 4.1364 -14.5082 -40.6375
# 2 -0.8448 70.9924 21.3642 -0.5982 -0.1406 -17.6458
# 3 18.6273 21.3642 106.3917 -9.6586 -23.5186 -17.0178
# 4 4.1364 -0.5982 -9.6586 32.0587 -7.6416 -6.1428
# 5 -14.5082 -0.1406 -23.5186 -7.6416 26.9574 5.4993
# 6 -40.6375 -17.6458 -17.0178 -6.1428 5.4993 50.8305
#
#
#
# Elastic Compliance Matrix: (Units=1/GPa)
#
#
# Indices 1 2 3 4 5 6 
#
# 1 0.018114 0.003962 0.000482 0.002711 0.007796 0.015503
# 2 0.003962 0.017198 -0.003400 -0.000229 -0.002491 0.008241
# 3 0.000482 -0.003400 0.014552 0.008413 0.014606 0.003513
# 4 0.002711 -0.000229 0.008413 0.039215 0.018352 0.007658
# 5 0.007796 -0.002491 0.014606 0.018352 0.057957 0.006205
# 6 0.015503 0.008241 0.003513 0.007658 0.006205 0.036359
#
#
# Mechanical properties :
#
#
# Convention : Reuss Voigt Hill
#
# Bulk Modulus (GPa) = 19.24865 38.99738 29.12302
# Shear Modulus (GPa) = 25.17313 37.53842 31.35577
#
# Velocity S-wave (km/s) = 3.27191 3.99549 3.65167
# Velocity P-wave (km/s) = 4.73917 6.15384 5.49224
#
# Compressibility (1/GPa) = 0.05195169
#
# Stress axis : x y z
#
# Youngs Moduli (GPa) = 55.20577 58.14622 68.71864
#
# Poissons Ratio (x) = -0.23038 -0.03313
# Poissons Ratio (y) = -0.21873 0.23367
# Poissons Ratio (z) = -0.02661 0.19772
#
# Static dielectric constant tensor:
#      x y z
#    x 1.873480 -0.036310 -0.019330 
#    y -0.036310 1.926320 -0.019320 
#    z -0.019330 -0.019320 1.886030 
# 
# From -- ./inp_files/529871.got.cif
#   From: 2010.05.17/outbox.cif.g08.bks.cpg/sg2_265_cif.got.tgz:529871.got - 2010.06.03 11:33:40.
