data_PCOD9013130
_publ_section_title
;
Structure prediction by ZEFSAII (Michael W. Deem and Ramdas Pophale) SiO2 
 PCOD9013130
Probable space group: P -1
;
_chemical_formula_sum "Si O2"
_cell_formula_units_Z 16
_cell_length_a 11.245794
_cell_length_b 11.537499
_cell_length_c 7.854079
_cell_angle_alpha 101.760378
_cell_angle_beta 71.844560
_cell_angle_gamma 52.269382
_cell_volume 651.839416
_symmetry_space_group_name_H-M "P -1"
_symmetry_group_IT_number 2
_symmetry_cell_setting 'triclinic'
loop_
_space_group_symop_operation_xyz
x,y,z
-x,-y,-z
loop_
_atom_site_type_symbol
_atom_site_label
_atom_site_fract_x
_atom_site_fract_y
_atom_site_fract_z
Si Si1 0.148891 0.506422 0.291270
Si Si2 0.627112 0.802500 0.682192
Si Si3 0.922625 0.898762 0.506310
Si Si4 0.263648 0.785236 0.477655
Si Si5 0.752603 0.932283 0.909702
Si Si6 0.128681 0.434080 0.757573
Si Si7 0.906876 0.191441 0.112873
Si Si8 0.324498 0.496083 0.887082
O O1 0.273956 0.386481 0.356866
O O2 0.000025 0.712338 0.424053
O O3 0.028648 0.474620 0.285394
O O4 0.282650 0.455562 0.066162
O O5 0.690125 0.860154 0.805931
O O6 0.709594 0.763736 0.444891
O O7 0.413173 0.934253 0.846024
O O8 0.112031 0.835440 0.435730
O O9 0.790145 0.000263 0.760725
O O10 0.806123 0.029602 0.440049
O O11 0.237104 0.733227 0.649010
O O12 0.464302 0.630984 0.273033
O O13 0.939915 0.818594 0.898533
O O14 0.243653 0.469324 0.765496
O O15 0.000000 0.500000 0.000000
O O16 0.800851 0.302950 0.024385
O O17 0.000000 0.000000 0.000000
#
# Coordination Sequence:
#
# PCOD9013130 Si02
#       8
#     2   2   2   2   2   2   2   2
#     4  11  22  39  67  94 125 170 215 266 325 379
#     4  11  22  40  70  98 128 172 221 264 318 397
#     4  10  21  41  63  91 129 165 215 276 315 369
#     4  10  23  40  62  89 126 172 220 263 318 383
#     4  10  23  40  65  97 131 173 221 266 324 383
#     4  10  23  40  65 100 132 166 210 269 333 388
#     4  11  24  41  62  91 134 176 212 269 329 383
#     4  11  24  41  63  94 133 167 218 262 327 394
#
# _framework density 24.545921
#
# number of rings (size 3 to 8) (size 9 to 14) (size 15 to 20)
#    0.000    1.500    1.250    3.000    5.250    1.500 
#    0.000    0.625    0.000    0.000    0.000    0.000 
#    0.000    0.000    0.000    0.000    0.000    0.000 
#
# Total GULP energy -89205.149973 kJ/mol
# GULP energy per Si atom -5575.321873 kJ/mol
# Density = 2.449005 g / cm^3
# Si number density = 24.545921 Si / 1000 Ang^3
#
#
#
# Elastic Constant Matrix: (Units=GPa)
#
#
# Indices 1 2 3 4 5 6 
#
# 1 58.1254 22.3629 35.4712 5.7778 -22.7019 4.4310
# 2 22.3629 71.8938 15.0701 0.2343 -15.6748 0.6433
# 3 35.4712 15.0701 184.0463 11.1382 -39.9143 -12.5486
# 4 5.7778 0.2343 11.1382 28.9759 -5.1663 4.8721
# 5 -22.7019 -15.6748 -39.9143 -5.1663 51.0096 8.3681
# 6 4.4310 0.6433 -12.5486 4.8721 8.3681 21.3977
#
#
#
# Elastic Compliance Matrix: (Units=1/GPa)
#
#
# Indices 1 2 3 4 5 6 
#
# 1 0.025490 -0.005224 -0.003244 -0.000469 0.008857 -0.010381
# 2 -0.005224 0.016169 0.000205 0.001526 0.003097 -0.000843
# 3 -0.003244 0.000205 0.007178 -0.002202 0.003346 0.004068
# 4 -0.000469 0.001526 -0.002202 0.038159 0.004307 -0.011613
# 5 0.008857 0.003097 0.003346 0.004307 0.029606 -0.012524
# 6 -0.010381 -0.000843 0.004068 -0.011613 -0.012524 0.058837
#
#
# Mechanical properties :
#
#
# Convention : Reuss Voigt Hill
#
# Bulk Modulus (GPa) = 30.94818 51.09710 41.02264
# Shear Modulus (GPa) = 24.66264 36.35406 30.50835
#
# Velocity S-wave (km/s) = 3.17323 3.85263 3.52932
# Velocity P-wave (km/s) = 5.10504 6.37593 5.77555
#
# Compressibility (1/GPa) = 0.03231208
#
# Stress axis : x y z
#
# Youngs Moduli (GPa) = 39.23044 61.84635 139.31498
#
# Poissons Ratio (x) = 0.32306 0.45189
# Poissons Ratio (y) = 0.20492 -0.02850
# Poissons Ratio (z) = 0.12725 -0.01265
#
# Static dielectric constant tensor:
#      x y z
#    x 2.037000 0.159140 0.074410 
#    y 0.159140 2.113600 -0.008490 
#    z 0.074410 -0.008490 2.061730 
# 
# From -- ./inp_files/262503.got.cif
#   From: 2010.05.17/outbox.cif.g08.bks.cpg/sg2_132_cif.got.tgz:262503.got - 2010.06.03 11:33:40.
