data_PCOD9013686
_publ_section_title
;
Structure prediction by ZEFSAII (Michael W. Deem and Ramdas Pophale) SiO2 
 PCOD9013686
Probable space group: P -1
;
_chemical_formula_sum "Si O2"
_cell_formula_units_Z 15
_cell_length_a 8.326945
_cell_length_b 9.263932
_cell_length_c 15.586866
_cell_angle_alpha 46.824782
_cell_angle_beta 127.226575
_cell_angle_gamma 128.911180
_cell_volume 648.963646
_symmetry_space_group_name_H-M "P -1"
_symmetry_group_IT_number 2
_symmetry_cell_setting 'triclinic'
loop_
_space_group_symop_operation_xyz
x,y,z
-x,-y,-z
loop_
_atom_site_type_symbol
_atom_site_label
_atom_site_fract_x
_atom_site_fract_y
_atom_site_fract_z
Si Si1 0.902224 0.277877 0.607058
Si Si2 0.252371 0.101828 0.867902
Si Si3 0.510753 0.267146 0.591509
Si Si4 0.751972 0.089147 0.229673
Si Si5 0.304751 0.501893 0.153401
Si Si6 0.124145 0.448344 0.930280
Si Si7 0.000000 0.000000 0.000000
Si Si8 0.766973 0.894251 0.598629
O O1 0.748492 0.290496 0.629169
O O2 0.000000 0.500000 0.500000
O O3 0.086180 0.203164 0.734442
O O4 0.769643 0.098877 0.568451
O O5 0.485511 0.286129 0.869611
O O6 0.247072 0.926225 0.866800
O O7 0.158811 0.002957 0.968453
O O8 0.500000 0.500000 0.500000
O O9 0.347465 0.140338 0.515345
O O10 0.436101 0.120082 0.710522
O O11 0.739683 0.314412 0.158475
O O12 0.981135 0.081410 0.338480
O O13 0.346950 0.316472 0.295481
O O14 0.107285 0.537401 0.125090
O O15 0.228078 0.420325 0.065871
O O16 0.110741 0.261814 0.937679
#
# Coordination Sequence:
#
# PCOD9013686 Si02
#       8
#     2   2   2   2   2   2   1   2
#     4  11  24  42  64  95 134 169 212 266 320 376
#     4  11  25  43  65  92 129 169 214 266 321 381
#     4  12  24  40  68  99 130 170 216 261 319 385
#     4  10  23  43  66  94 130 170 213 263 320 385
#     4  10  21  44  69  91 127 172 211 260 324 384
#     4  10  23  41  66  96 127 167 214 264 319 382
#     4  12  26  42  64  98 130 166 214 268 320 378
#     4  10  21  41  65  93 129 168 212 264 320 377
#
# _framework density 23.113776000000001
#
# number of rings (size 3 to 8) (size 9 to 14) (size 15 to 20)
#    0.000    1.333    0.000    7.200    0.000    9.067 
#    0.000    0.000    0.000    0.000    0.000    0.000 
#    0.000    0.000    0.000    0.000    0.000    0.000 
#
# Total GULP energy -83811.400870 kJ/mol
# GULP energy per Si atom -5587.426725 kJ/mol
# Density = 2.306117 g / cm^3
# Si number density = 23.113776 Si / 1000 Ang^3
#
#
#
# Elastic Constant Matrix: (Units=GPa)
#
#
# Indices 1 2 3 4 5 6 
#
# 1 68.3337 30.1621 30.0935 -0.7644 -4.2174 2.3315
# 2 30.1621 111.1538 24.1499 -16.1047 11.8373 -16.3851
# 3 30.0935 24.1499 61.0955 -17.5379 -11.4383 -4.2392
# 4 -0.7644 -16.1047 -17.5379 40.8021 3.8012 2.6466
# 5 -4.2174 11.8373 -11.4383 3.8012 27.2670 -13.6381
# 6 2.3315 -16.3851 -4.2392 2.6466 -13.6381 47.2643
#
#
#
# Elastic Compliance Matrix: (Units=1/GPa)
#
#
# Indices 1 2 3 4 5 6 
#
# 1 0.021494 -0.004905 -0.010524 -0.005860 0.000195 -0.003320
# 2 -0.004905 0.012507 -0.002396 0.004296 -0.006697 0.002190
# 3 -0.010524 -0.002396 0.027871 0.009338 0.012429 0.005252
# 4 -0.005860 0.004296 0.009338 0.030394 -0.003078 0.000026
# 5 0.000195 -0.006697 0.012429 -0.003078 0.052278 0.014041
# 6 -0.003320 0.002190 0.005252 0.000026 0.014041 0.026602
#
#
# Mechanical properties :
#
#
# Convention : Reuss Voigt Hill
#
# Bulk Modulus (GPa) = 38.13807 45.48822 41.81315
# Shear Modulus (GPa) = 23.19815 33.47850 28.33832
#
# Velocity S-wave (km/s) = 3.17148 3.80994 3.50528
# Velocity P-wave (km/s) = 5.47239 6.25117 5.87470
#
# Compressibility (1/GPa) = 0.02622052
#
# Stress axis : x y z
#
# Youngs Moduli (GPa) = 46.52533 79.95750 35.87994
#
# Poissons Ratio (x) = 0.39220 0.37760
# Poissons Ratio (y) = 0.22821 0.08597
# Poissons Ratio (z) = 0.48963 0.19158
#
# Static dielectric constant tensor:
#      x y z
#    x 1.856490 0.037080 0.009500 
#    y 0.037080 1.860360 0.011010 
#    z 0.009500 0.011010 1.861970 
# 
# From -- ./inp_files/327048.got.cif
#   From: 2010.05.17/outbox.cif.g08.bks.cpg/sg2_164_cif.got.tgz:327048.got - 2010.06.03 11:33:40.
