data_PCOD9013118
_publ_section_title
;
Structure prediction by ZEFSAII (Michael W. Deem and Ramdas Pophale) SiO2 
 PCOD9013118
Probable space group: P -1
;
_chemical_formula_sum "Si O2"
_cell_formula_units_Z 14
_cell_length_a 8.838446
_cell_length_b 9.553718
_cell_length_c 14.293806
_cell_angle_alpha 64.829844
_cell_angle_beta 51.652497
_cell_angle_gamma 99.410588
_cell_volume 683.995423
_symmetry_space_group_name_H-M "P -1"
_symmetry_group_IT_number 2
_symmetry_cell_setting 'triclinic'
loop_
_space_group_symop_operation_xyz
x,y,z
-x,-y,-z
loop_
_atom_site_type_symbol
_atom_site_label
_atom_site_fract_x
_atom_site_fract_y
_atom_site_fract_z
Si Si1 0.202031 0.922221 0.958550
Si Si2 0.198942 0.728439 0.673547
Si Si3 0.284255 0.390146 0.538829
Si Si4 0.175875 0.466618 0.886792
Si Si5 0.693512 0.951289 0.331978
Si Si6 0.465402 0.336931 0.819013
Si Si7 0.827287 0.346304 0.817732
O O1 0.277239 0.002183 0.801911
O O2 0.258711 0.109955 0.936177
O O3 0.310480 0.841758 0.007707
O O4 0.954796 0.710289 0.088053
O O5 0.319535 0.656322 0.714626
O O6 0.411196 0.855536 0.482916
O O7 0.961566 0.542072 0.772385
O O8 0.158904 0.855944 0.717207
O O9 0.500000 0.500000 0.500000
O O10 0.231853 0.181424 0.622606
O O11 0.390305 0.523807 0.366639
O O12 0.045833 0.362753 0.675537
O O13 0.342419 0.427646 0.888268
O O14 0.000000 0.500000 0.000000
O O15 0.650994 0.339830 0.813679
#
# Coordination Sequence:
#
# PCOD9013118 Si02
#       7
#     2   2   2   2   2   2   2
#     4  11  23  39  65  92 124 162 214 252 307 368
#     4  10  21  41  63  91 123 160 214 253 306 367
#     4  12  21  40  66  94 119 166 216 249 301 367
#     4  11  22  40  66  92 117 165 215 256 301 363
#     4  11  21  37  69  93 116 162 219 261 287 361
#     4  12  24  42  61  94 132 161 201 261 316 371
#     4  11  25  40  61  94 132 165 196 258 324 365
#
# _framework density 20.467974000000002
#
# number of rings (size 3 to 8) (size 9 to 14) (size 15 to 20)
#    0.000    0.857    5.714    2.143    2.000    0.000 
#    0.000    5.000    0.000    0.000    0.000    0.000 
#    0.000    0.000    0.000    0.000    0.000    0.000 
#
# Total GULP energy -77962.706550 kJ/mol
# GULP energy per Si atom -5568.764754 kJ/mol
# Density = 2.042139 g / cm^3
# Si number density = 20.467974 Si / 1000 Ang^3
#
#
#
# Elastic Constant Matrix: (Units=GPa)
#
#
# Indices 1 2 3 4 5 6 
#
# 1 125.0753 70.5950 35.2779 5.2505 16.5359 -31.3247
# 2 70.5950 165.4393 35.1749 -22.5879 0.0542 -18.1273
# 3 35.2779 35.1749 83.8011 -3.8087 18.8632 -11.8094
# 4 5.2505 -22.5879 -3.8087 33.3377 -8.4672 0.6152
# 5 16.5359 0.0542 18.8632 -8.4672 33.0752 -2.5139
# 6 -31.3247 -18.1273 -11.8094 0.6152 -2.5139 22.5327
#
#
#
# Elastic Compliance Matrix: (Units=1/GPa)
#
#
# Indices 1 2 3 4 5 6 
#
# 1 0.019032 -0.007465 -0.000226 -0.011172 -0.010756 0.019439
# 2 -0.007465 0.011038 -0.003177 0.010367 0.007986 -0.002555
# 3 -0.000226 -0.003177 0.015982 -0.002751 -0.009356 0.004538
# 4 -0.011172 0.010367 -0.002751 0.043072 0.017567 -0.007848
# 5 -0.010756 0.007986 -0.009356 0.017567 0.044754 -0.008919
# 6 0.019439 -0.002555 0.004538 -0.007848 -0.008919 0.070946
#
#
# Mechanical properties :
#
#
# Convention : Reuss Voigt Hill
#
# Bulk Modulus (GPa) = 41.12409 72.93458 57.02933
# Shear Modulus (GPa) = 21.30702 33.34030 27.32366
#
# Velocity S-wave (km/s) = 3.22994 4.04034 3.65766
# Velocity P-wave (km/s) = 5.83486 7.58134 6.76470
#
# Compressibility (1/GPa) = 0.02431665
#
# Stress axis : x y z
#
# Youngs Moduli (GPa) = 52.54419 90.59379 62.57037
#
# Poissons Ratio (x) = 0.67627 0.01412
# Poissons Ratio (y) = 0.39224 0.19879
# Poissons Ratio (z) = 0.01186 0.28782
#
# Static dielectric constant tensor:
#      x y z
#    x 1.751640 -0.002010 0.001340 
#    y -0.002010 1.790000 -0.004880 
#    z 0.001340 -0.004880 1.830190 
# 
# From -- ./inp_files/154711.got.cif
#   From: 2010.05.17/outbox.cif.g08.bks.cpg/sg2_78_cif.got.tgz:154711.got - 2010.06.03 11:33:40.
