data_PCOD9014612
_publ_section_title
;
Structure prediction by ZEFSAII (Michael W. Deem and Ramdas Pophale) SiO2 
 PCOD9014612
Probable space group: P -1
;
_chemical_formula_sum "Si O2"
_cell_formula_units_Z 14
_cell_length_a 11.839066
_cell_length_b 7.672971
_cell_length_c 7.781651
_cell_angle_alpha 79.665747
_cell_angle_beta 91.448624
_cell_angle_gamma 127.510818
_cell_volume 548.435758
_symmetry_space_group_name_H-M "P -1"
_symmetry_group_IT_number 2
_symmetry_cell_setting 'triclinic'
loop_
_space_group_symop_operation_xyz
x,y,z
-x,-y,-z
loop_
_atom_site_type_symbol
_atom_site_label
_atom_site_fract_x
_atom_site_fract_y
_atom_site_fract_z
Si Si1 0.825297 0.176573 0.897290
Si Si2 0.714732 0.044235 0.490863
Si Si3 0.697101 0.650999 0.419749
Si Si4 0.546348 0.699436 0.093141
Si Si5 0.003284 0.675640 0.757251
Si Si6 0.995674 0.041728 0.788933
Si Si7 0.573979 0.189286 0.677471
O O1 0.870554 0.416796 0.799089
O O2 0.897339 0.117453 0.769376
O O3 0.914034 0.251682 0.069626
O O4 0.678013 0.941302 0.985942
O O5 0.871847 0.244601 0.389552
O O6 0.657013 0.090045 0.648823
O O7 0.706987 0.822926 0.524931
O O8 0.592335 0.991265 0.357205
O O9 0.594418 0.636628 0.274402
O O10 0.641088 0.411724 0.527842
O O11 0.847701 0.767948 0.310222
O O12 0.431633 0.735741 0.144341
O O13 0.500000 0.500000 0.000000
O O14 0.947666 0.823534 0.719189
O O15 0.000000 0.000000 0.000000
#
# Coordination Sequence:
#
# PCOD9014612 Si02
#       7
#     2   2   2   2   2   2   2
#     4  10  17  30  48  78 103 130 170 213 269 290
#     4   9  16  30  50  79 103 123 170 231 256 289
#     4  10  18  34  55  81 100 132 179 221 259 293
#     4  11  21  35  51  76 117 144 165 205 262 332
#     4   9  16  27  50  77 100 124 167 235 255 285
#     4   9  15  29  50  80 101 120 168 230 258 286
#     4  10  19  32  53  77 101 140 177 212 257 301
#
# _framework density 25.527148
#
# number of rings (size 3 to 8) (size 9 to 14) (size 15 to 20)
#    0.000    2.286    5.714    2.571    0.000    0.000 
#    0.000    0.000    0.000   24.857    0.000    7.000 
#    0.000    0.000    0.000    0.000    0.000    0.000 
#
# Total GULP energy -78348.967600 kJ/mol
# GULP energy per Si atom -5596.354829 kJ/mol
# Density = 2.546905 g / cm^3
# Si number density = 25.527148 Si / 1000 Ang^3
#
#
#
# Elastic Constant Matrix: (Units=GPa)
#
#
# Indices 1 2 3 4 5 6 
#
# 1 134.4085 51.9834 47.0222 -11.5790 -49.1745 -16.8466
# 2 51.9834 169.9620 64.2981 -3.2570 -24.0606 -3.1126
# 3 47.0222 64.2981 104.3264 12.5215 -34.5552 -3.3751
# 4 -11.5790 -3.2570 12.5215 45.7929 -1.8185 -1.9684
# 5 -49.1745 -24.0606 -34.5552 -1.8185 62.7534 3.8690
# 6 -16.8466 -3.1126 -3.3751 -1.9684 3.8690 29.2024
#
#
#
# Elastic Compliance Matrix: (Units=1/GPa)
#
#
# Indices 1 2 3 4 5 6 
#
# 1 0.013065 -0.001712 -0.002541 0.004463 0.007923 0.006312
# 2 -0.001712 0.008070 -0.004619 0.001355 -0.000723 -0.000474
# 3 -0.002541 -0.004619 0.015759 -0.005136 0.004836 -0.001124
# 4 0.004463 0.001355 -0.005136 0.024687 0.001684 0.003566
# 5 0.007923 -0.000723 0.004836 0.001684 0.024460 0.001925
# 6 0.006312 -0.000474 -0.001124 0.003566 0.001925 0.037690
#
#
# Mechanical properties :
#
#
# Convention : Reuss Voigt Hill
#
# Bulk Modulus (GPa) = 52.21878 81.70047 66.95963
# Shear Modulus (GPa) = 33.81603 43.90929 38.86266
#
# Velocity S-wave (km/s) = 3.64360 4.15191 3.90603
# Velocity P-wave (km/s) = 6.18075 7.42019 6.82865
#
# Compressibility (1/GPa) = 0.01915020
#
# Stress axis : x y z
#
# Youngs Moduli (GPa) = 76.53876 123.91905 63.45429
#
# Poissons Ratio (x) = 0.21217 0.16123
# Poissons Ratio (y) = 0.13105 0.29311
# Poissons Ratio (z) = 0.19447 0.57240
#
# Static dielectric constant tensor:
#      x y z
#    x 2.135290 0.065160 0.089460 
#    y 0.065160 1.974750 0.091580 
#    z 0.089460 0.091580 2.054390 
# 
# From -- ./inp_files/298783.got.cif
#   From: 2010.05.17/outbox.cif.g08.bks.cpg/sg2_150_cif.got.tgz:298783.got - 2010.06.03 11:33:40.
