data_PCOD9014518
_publ_section_title
;
Structure prediction by ZEFSAII (Michael W. Deem and Ramdas Pophale) SiO2 
 PCOD9014518
Probable space group: P -1
;
_chemical_formula_sum "Si O2"
_cell_formula_units_Z 16
_cell_length_a 5.220300
_cell_length_b 11.609411
_cell_length_c 11.969149
_cell_angle_alpha 120.348153
_cell_angle_beta 73.492601
_cell_angle_gamma 104.704430
_cell_volume 594.831564
_symmetry_space_group_name_H-M "P -1"
_symmetry_group_IT_number 2
_symmetry_cell_setting 'triclinic'
loop_
_space_group_symop_operation_xyz
x,y,z
-x,-y,-z
loop_
_atom_site_type_symbol
_atom_site_label
_atom_site_fract_x
_atom_site_fract_y
_atom_site_fract_z
Si Si1 0.483412 0.361608 0.831309
Si Si2 0.271320 0.989389 0.895122
Si Si3 0.927003 0.472705 0.159616
Si Si4 0.300623 0.778944 0.070508
Si Si5 0.688139 0.179775 0.539532
Si Si6 0.557090 0.791466 0.657502
Si Si7 0.950833 0.976925 0.299379
Si Si8 0.860172 0.571366 0.452834
O O1 0.235377 0.433211 0.853512
O O2 0.503932 0.305229 0.925478
O O3 0.512501 0.233904 0.684898
O O4 0.759631 0.466160 0.840485
O O5 0.658678 0.160749 0.207928
O O6 0.522728 0.097823 0.954524
O O7 0.230407 0.037009 0.795450
O O8 0.000000 0.000000 0.000000
O O9 0.812635 0.484693 0.304242
O O10 0.869575 0.324707 0.041847
O O11 0.109601 0.847634 0.215538
O O12 0.532001 0.183005 0.444600
O O13 0.939853 0.297790 0.552707
O O14 0.798674 0.034949 0.451833
O O15 0.620982 0.640386 0.571576
O O16 0.822401 0.897127 0.697942
O O17 0.000000 0.500000 0.500000
#
# Coordination Sequence:
#
# PCOD9014518 Si02
#       8
#     2   2   2   2   2   2   2   2
#     4  11  24  44  75 105 148 199 237 304 365 432
#     4  10  23  45  68  98 140 189 243 309 370 426
#     4  11  25  46  70 108 154 191 239 300 368 433
#     4  11  25  42  72 104 144 191 250 293 362 449
#     4   9  19  41  66  95 142 181 232 301 363 422
#     4   9  18  41  66  93 137 183 231 305 365 426
#     4   9  21  41  65  97 136 181 240 297 357 435
#     4  10  21  41  68 103 140 186 243 298 367 441
#
# _framework density 26.89837
#
# number of rings (size 3 to 8) (size 9 to 14) (size 15 to 20)
#    0.000    2.000    1.250    0.750    3.500    3.000 
#    9.000    5.625    0.000    0.000    0.000    0.000 
#    0.000    0.000    0.000    0.000    0.000    0.000 
#
# Total GULP energy -89645.585779 kJ/mol
# GULP energy per Si atom -5602.849111 kJ/mol
# Density = 2.683715 g / cm^3
# Si number density = 26.898370 Si / 1000 Ang^3
#
#
#
# Elastic Constant Matrix: (Units=GPa)
#
#
# Indices 1 2 3 4 5 6 
#
# 1 101.7329 32.8941 54.7789 21.6037 -18.0030 -11.1834
# 2 32.8941 91.9201 67.3188 26.9688 -19.0119 2.4363
# 3 54.7789 67.3188 205.4626 44.2849 -17.5009 -7.2815
# 4 21.6037 26.9688 44.2849 53.8657 -4.7904 -0.3326
# 5 -18.0030 -19.0119 -17.5009 -4.7904 58.0311 8.7125
# 6 -11.1834 2.4363 -7.2815 -0.3326 8.7125 59.4196
#
#
#
# Elastic Compliance Matrix: (Units=1/GPa)
#
#
# Indices 1 2 3 4 5 6 
#
# 1 0.012608 -0.002014 -0.001969 -0.002223 0.002192 0.001880
# 2 -0.002014 0.016276 -0.003704 -0.003991 0.003568 -0.002046
# 3 -0.001969 -0.003704 0.007364 -0.003405 0.000016 0.000662
# 4 -0.002223 -0.003991 -0.003405 0.024165 -0.000970 -0.000394
# 5 0.002192 0.003568 0.000016 -0.000970 0.019393 -0.002581
# 6 0.001880 -0.002046 0.000662 -0.000394 -0.002581 0.017725
#
#
# Mechanical properties :
#
#
# Convention : Reuss Voigt Hill
#
# Bulk Modulus (GPa) = 47.90777 78.78880 63.34828
# Shear Modulus (GPa) = 41.71451 50.53820 46.12635
#
# Velocity S-wave (km/s) = 3.94232 4.33928 4.14555
# Velocity P-wave (km/s) = 6.21062 7.37975 6.82028
#
# Compressibility (1/GPa) = 0.02087344
#
# Stress axis : x y z
#
# Youngs Moduli (GPa) = 79.31633 61.44188 135.78942
#
# Poissons Ratio (x) = 0.12374 0.26738
# Poissons Ratio (y) = 0.15974 0.50297
# Poissons Ratio (z) = 0.15618 0.22758
#
# Static dielectric constant tensor:
#      x y z
#    x 2.240600 0.079780 -0.052750 
#    y 0.079780 2.131170 0.039150 
#    z -0.052750 0.039150 2.098600 
# 
# From -- ./inp_files/365216.got.cif
#   From: 2010.05.17/outbox.cif.g08.bks.cpg/sg2_183_cif.got.tgz:365216.got - 2010.06.03 11:33:40.
