data_PCOD9014794
_publ_section_title
;
Structure prediction by ZEFSAII (Michael W. Deem and Ramdas Pophale) SiO2 
 PCOD9014794
Probable space group: P -1
;
_chemical_formula_sum "Si O2"
_cell_formula_units_Z 16
_cell_length_a 7.744363
_cell_length_b 14.339969
_cell_length_c 8.184573
_cell_angle_alpha 92.135335
_cell_angle_beta 117.331088
_cell_angle_gamma 60.983561
_cell_volume 685.697717
_symmetry_space_group_name_H-M "P -1"
_symmetry_group_IT_number 2
_symmetry_cell_setting 'triclinic'
loop_
_space_group_symop_operation_xyz
x,y,z
-x,-y,-z
loop_
_atom_site_type_symbol
_atom_site_label
_atom_site_fract_x
_atom_site_fract_y
_atom_site_fract_z
Si Si1 0.851494 0.563416 0.150335
Si Si2 0.210414 0.621563 0.723701
Si Si3 0.607331 0.046472 0.429788
Si Si4 0.623288 0.254199 0.961677
Si Si5 0.085411 0.189654 0.607389
Si Si6 0.347382 0.766964 0.394178
Si Si7 0.450953 0.119943 0.025435
Si Si8 0.344075 0.437782 0.281450
O O1 0.842032 0.459074 0.204637
O O2 0.648129 0.660018 0.170922
O O3 0.107670 0.540598 0.257733
O O4 0.753387 0.590506 0.923629
O O5 0.438270 0.557592 0.696983
O O6 0.976112 0.715032 0.542804
O O7 0.278185 0.688717 0.880049
O O8 0.655624 0.122654 0.567069
O O9 0.500000 0.000000 0.500000
O O10 0.804674 0.933698 0.424098
O O11 0.446587 0.124923 0.218749
O O12 0.719335 0.232949 0.821096
O O13 0.635786 0.149345 0.045642
O O14 0.228391 0.189835 0.823274
O O15 0.840676 0.223989 0.566433
O O16 0.567172 0.655528 0.548048
O O17 0.500000 0.000000 0.000000
#
# Coordination Sequence:
#
# PCOD9014794 Si02
#       8
#     2   2   2   2   2   2   2   2
#     4  10  21  41  69  91 131 177 225 266 332 381
#     4  10  22  44  67  96 136 170 223 273 324 389
#     4  11  23  41  69  90 125 174 212 268 330 391
#     4  11  23  42  64  98 132 174 214 270 322 389
#     4  10  23  43  63  98 124 170 215 272 326 390
#     4  11  23  41  62  94 135 165 220 269 324 392
#     4  10  22  43  66  93 128 162 217 267 321 392
#     4   9  20  39  63  93 125 172 218 268 321 383
#
# _framework density 23.333897
#
# number of rings (size 3 to 8) (size 9 to 14) (size 15 to 20)
#    0.000    1.750    0.000    5.625    3.500    2.500 
#    9.000    6.875    0.000    0.000    0.000    0.000 
#    0.000    0.000    0.000    0.000    0.000    0.000 
#
# Total GULP energy -89297.697081 kJ/mol
# GULP energy per Si atom -5581.106068 kJ/mol
# Density = 2.328079 g / cm^3
# Si number density = 23.333897 Si / 1000 Ang^3
#
#
#
# Elastic Constant Matrix: (Units=GPa)
#
#
# Indices 1 2 3 4 5 6 
#
# 1 25.9665 10.9677 14.4166 -2.5042 -11.0958 5.8843
# 2 10.9677 59.6572 17.1760 -8.9147 -3.0545 12.3388
# 3 14.4166 17.1760 94.5235 -26.3752 -7.3638 2.2513
# 4 -2.5042 -8.9147 -26.3752 25.3104 1.6361 -6.8496
# 5 -11.0958 -3.0545 -7.3638 1.6361 38.3260 -9.9636
# 6 5.8843 12.3388 2.2513 -6.8496 -9.9636 42.9935
#
#
#
# Elastic Compliance Matrix: (Units=1/GPa)
#
#
# Indices 1 2 3 4 5 6 
#
# 1 0.050764 -0.007022 -0.007276 -0.006572 0.012305 -0.002747
# 2 -0.007022 0.019886 -0.001614 0.003521 -0.002101 -0.004587
# 3 -0.007276 -0.001614 0.016749 0.017055 0.001184 0.003574
# 4 -0.006572 0.003521 0.017055 0.060193 0.001402 0.008911
# 5 0.012305 -0.002101 0.001184 0.001402 0.031301 0.006334
# 6 -0.002747 -0.004587 0.003574 0.008911 0.006334 0.027652
#
#
# Mechanical properties :
#
#
# Convention : Reuss Voigt Hill
#
# Bulk Modulus (GPa) = 17.99416 29.47418 23.73417
# Shear Modulus (GPa) = 19.46331 30.49843 24.98087
#
# Velocity S-wave (km/s) = 2.89125 3.61923 3.27553
# Velocity P-wave (km/s) = 4.34443 5.48853 4.94965
#
# Compressibility (1/GPa) = 0.05557358
#
# Stress axis : x y z
#
# Youngs Moduli (GPa) = 19.69911 50.28775 59.70645
#
# Poissons Ratio (x) = 0.35310 0.43443
# Poissons Ratio (y) = 0.13832 0.09638
# Poissons Ratio (z) = 0.14333 0.08118
#
# Static dielectric constant tensor:
#      x y z
#    x 1.902140 -0.029650 0.014660 
#    y -0.029650 2.035760 0.028580 
#    z 0.014660 0.028580 1.889810 
# 
# From -- ./inp_files/207423.got.cif
#   From: 2010.05.17/outbox.cif.g08.bks.cpg/sg2_104_cif.got.tgz:207423.got - 2010.06.03 11:33:40.
