data_PCOD9014589
_publ_section_title
;
Structure prediction by ZEFSAII (Michael W. Deem and Ramdas Pophale) SiO2 
 PCOD9014589
Probable space group: P -1
;
_chemical_formula_sum "Si O2"
_cell_formula_units_Z 12
_cell_length_a 7.337849
_cell_length_b 7.502534
_cell_length_c 17.163452
_cell_angle_alpha 58.537322
_cell_angle_beta 138.155933
_cell_angle_gamma 103.808454
_cell_volume 518.612520
_symmetry_space_group_name_H-M "P -1"
_symmetry_group_IT_number 2
_symmetry_cell_setting 'triclinic'
loop_
_space_group_symop_operation_xyz
x,y,z
-x,-y,-z
loop_
_atom_site_type_symbol
_atom_site_label
_atom_site_fract_x
_atom_site_fract_y
_atom_site_fract_z
Si Si1 0.262094 0.385004 0.553683
Si Si2 0.543937 0.487101 0.842810
Si Si3 0.176328 0.522505 0.321441
Si Si4 0.742959 0.885555 0.163431
Si Si5 0.902396 0.543001 0.073607
Si Si6 0.584340 0.085199 0.220026
O O1 0.194407 0.396758 0.436954
O O2 0.514599 0.504760 0.609906
O O3 0.000000 0.500000 0.500000
O O4 0.385166 0.137748 0.675307
O O5 0.375592 0.319426 0.801232
O O6 0.708430 0.417016 0.993980
O O7 0.365963 0.731690 0.747918
O O8 0.797317 0.494050 0.864150
O O9 0.040143 0.775460 0.242922
O O10 0.961811 0.486489 0.195020
O O11 0.773579 0.021440 0.217806
O O12 0.500000 0.000000 0.000000
O O13 0.724749 0.791923 0.943091
#
# Coordination Sequence:
#
# PCOD9014589 Si02
#       6
#     2   2   2   2   2   2
#     4  11  24  43  65  96 136 179 226 271 326 394
#     4   9  22  40  64 102 139 164 222 275 334 394
#     4  11  24  39  66 102 130 171 231 268 324 404
#     4  12  22  36  68 103 132 171 214 281 335 391
#     4   9  20  41  66  96 130 170 222 280 320 396
#     4  10  21  41  68  93 130 181 214 274 336 381
#
# _framework density 23.138660999999999
#
# number of rings (size 3 to 8) (size 9 to 14) (size 15 to 20)
#    1.000    0.667    3.333    1.000    2.333    4.000 
#    0.000    1.667    0.000    0.000    0.000    0.000 
#    0.000    0.000    0.000    0.000    0.000    0.000 
#
# Total GULP energy -66960.109899 kJ/mol
# GULP energy per Si atom -5580.009158 kJ/mol
# Density = 2.308600 g / cm^3
# Si number density = 23.138661 Si / 1000 Ang^3
#
#
#
# Elastic Constant Matrix: (Units=GPa)
#
#
# Indices 1 2 3 4 5 6 
#
# 1 131.5454 35.9200 40.4592 -6.6540 13.2887 -5.5912
# 2 35.9200 71.6945 32.8853 -9.9589 1.0771 -9.0276
# 3 40.4592 32.8853 135.2194 10.6425 -33.7727 -1.0208
# 4 -6.6540 -9.9589 10.6425 30.0851 0.5482 -0.9892
# 5 13.2887 1.0771 -33.7727 0.5482 41.8497 3.8766
# 6 -5.5912 -9.0276 -1.0208 -0.9892 3.8766 35.3534
#
#
#
# Elastic Compliance Matrix: (Units=1/GPa)
#
#
# Indices 1 2 3 4 5 6 
#
# 1 0.010698 -0.002372 -0.004720 0.003446 -0.007362 0.001854
# 2 -0.002372 0.019834 -0.006048 0.008451 -0.005242 0.005326
# 3 -0.004720 -0.006048 0.014332 -0.008484 0.013666 -0.003613
# 4 0.003446 0.008451 -0.008484 0.040116 -0.009108 0.004579
# 5 -0.007362 -0.005242 0.013666 -0.009108 0.038122 -0.006543
# 6 0.001854 0.005326 -0.003613 0.004579 -0.006543 0.030680
#
#
# Mechanical properties :
#
#
# Convention : Reuss Voigt Hill
#
# Bulk Modulus (GPa) = 53.80975 61.88760 57.84867
# Shear Modulus (GPa) = 26.84444 36.73729 31.79086
#
# Velocity S-wave (km/s) = 3.40980 3.98892 3.71068
# Velocity P-wave (km/s) = 6.22962 6.92963 6.58893
#
# Compressibility (1/GPa) = 0.01858399
#
# Stress axis : x y z
#
# Youngs Moduli (GPa) = 93.47349 50.41826 69.77231
#
# Poissons Ratio (x) = 0.11961 0.32932
# Poissons Ratio (y) = 0.22175 0.42198
# Poissons Ratio (z) = 0.44119 0.30493
#
# Static dielectric constant tensor:
#      x y z
#    x 1.907380 -0.024220 -0.005830 
#    y -0.024220 1.876510 0.002600 
#    z -0.005830 0.002600 1.915390 
# 
# From -- ./inp_files/547816.got.cif
#   From: 2010.05.17/outbox.cif.g08.bks.cpg/sg2_274_cif.got.tgz:547816.got - 2010.06.03 11:33:40.
