data_PCOD9014873
_publ_section_title
;
Structure prediction by ZEFSAII (Michael W. Deem and Ramdas Pophale) SiO2 
 PCOD9014873
Probable space group: P -1
;
_chemical_formula_sum "Si O2"
_cell_formula_units_Z 14
_cell_length_a 9.180767
_cell_length_b 9.907109
_cell_length_c 10.091866
_cell_angle_alpha 121.239303
_cell_angle_beta 74.589774
_cell_angle_gamma 137.099070
_cell_volume 523.870341
_symmetry_space_group_name_H-M "P -1"
_symmetry_group_IT_number 2
_symmetry_cell_setting 'triclinic'
loop_
_space_group_symop_operation_xyz
x,y,z
-x,-y,-z
loop_
_atom_site_type_symbol
_atom_site_label
_atom_site_fract_x
_atom_site_fract_y
_atom_site_fract_z
Si Si1 0.251781 0.261279 0.972021
Si Si2 0.185104 0.635121 0.365004
Si Si3 0.738466 0.656483 0.414243
Si Si4 0.311354 0.708106 0.777160
Si Si5 0.121345 0.427871 0.897758
Si Si6 0.271044 0.369408 0.314320
Si Si7 0.378138 0.025018 0.724013
O O1 0.119882 0.305065 0.956840
O O2 0.245317 0.080661 0.822619
O O3 0.500000 0.500000 0.000000
O O4 0.216741 0.234089 0.124428
O O5 0.809538 0.768550 0.598060
O O6 0.173532 0.469341 0.370338
O O7 0.378684 0.755367 0.274515
O O8 0.258666 0.837358 0.540305
O O9 0.949393 0.474717 0.275890
O O10 0.909659 0.722442 0.296731
O O11 0.537638 0.590530 0.359285
O O12 0.339230 0.674475 0.905873
O O13 0.379616 0.596305 0.636752
O O14 0.403384 0.924715 0.790077
O O15 0.000000 0.500000 0.000000
#
# Coordination Sequence:
#
# PCOD9014873 Si02
#       7
#     2   2   2   2   2   2   2
#     4  12  22  41  70  97 142 185 223 285 355 402
#     4  11  21  41  74  97 138 185 231 283 347 404
#     4   9  21  37  70  98 133 181 233 274 344 412
#     4  10  22  43  71  97 138 178 230 286 338 402
#     4  10  21  41  69  97 138 183 222 287 349 400
#     4  11  20  40  70  99 135 189 221 280 353 403
#     4  11  24  39  71 107 132 181 240 279 337 430
#
# _framework density 26.724170999999998
#
# number of rings (size 3 to 8) (size 9 to 14) (size 15 to 20)
#    0.857    0.571    4.286    1.286    0.000    0.000 
#    0.000    6.429    3.143    0.000    0.000    0.000 
#    0.000    0.000    0.000    0.000    0.000    0.000 
#
# Total GULP energy -78070.505852 kJ/mol
# GULP energy per Si atom -5576.464704 kJ/mol
# Density = 2.666335 g / cm^3
# Si number density = 26.724171 Si / 1000 Ang^3
#
#
#
# Elastic Constant Matrix: (Units=GPa)
#
#
# Indices 1 2 3 4 5 6 
#
# 1 79.2939 18.9714 19.6828 4.5194 -21.0123 -18.4194
# 2 18.9714 106.1007 41.9995 -13.1762 3.1769 -12.8949
# 3 19.6828 41.9995 179.8624 -17.3092 -13.6575 -7.6233
# 4 4.5194 -13.1762 -17.3092 42.5950 -0.6728 -1.9002
# 5 -21.0123 3.1769 -13.6575 -0.6728 43.4144 0.3552
# 6 -18.4194 -12.8949 -7.6233 -1.9002 0.3552 46.7954
#
#
#
# Elastic Compliance Matrix: (Units=1/GPa)
#
#
# Indices 1 2 3 4 5 6 
#
# 1 0.017032 -0.002660 -0.000622 -0.002499 0.008157 0.005706
# 2 -0.002660 0.011466 -0.002234 0.002962 -0.002799 0.001890
# 3 -0.000622 -0.002234 0.006506 0.002062 0.001939 0.000269
# 4 -0.002499 0.002962 0.002062 0.025544 -0.000392 0.001208
# 5 0.008157 -0.002799 0.001939 -0.000392 0.027770 0.002529
# 6 0.005706 0.001890 0.000269 0.001208 0.002529 0.024210
#
#
# Mechanical properties :
#
#
# Convention : Reuss Voigt Hill
#
# Bulk Modulus (GPa) = 41.71466 58.50716 50.11091
# Shear Modulus (GPa) = 38.00819 45.53449 41.77134
#
# Velocity S-wave (km/s) = 3.77535 4.13227 3.95784
# Velocity P-wave (km/s) = 5.88622 6.68641 6.29903
#
# Compressibility (1/GPa) = 0.02397239
#
# Stress axis : x y z
#
# Youngs Moduli (GPa) = 58.71442 87.21280 153.69255
#
# Poissons Ratio (x) = 0.23201 0.09558
# Poissons Ratio (y) = 0.15620 0.34331
# Poissons Ratio (z) = 0.03652 0.19481
#
# Static dielectric constant tensor:
#      x y z
#    x 2.186850 -0.030820 0.155570 
#    y -0.030820 2.138100 -0.076700 
#    z 0.155570 -0.076700 2.375880 
# 
# From -- ./inp_files/377105.got.cif
#   From: 2010.05.17/outbox.cif.g08.bks.cpg/sg2_189_cif.got.tgz:377105.got - 2010.06.03 11:33:40.
