data_PCOD9014270
_publ_section_title
;
Structure prediction by ZEFSAII (Michael W. Deem and Ramdas Pophale) SiO2 
 PCOD9014270
Probable space group: P -1
;
_chemical_formula_sum "Si O2"
_cell_formula_units_Z 16
_cell_length_a 9.265735
_cell_length_b 11.720221
_cell_length_c 18.439041
_cell_angle_alpha 128.208133
_cell_angle_beta 28.741430
_cell_angle_gamma 115.175433
_cell_volume 719.459657
_symmetry_space_group_name_H-M "P -1"
_symmetry_group_IT_number 2
_symmetry_cell_setting 'triclinic'
loop_
_space_group_symop_operation_xyz
x,y,z
-x,-y,-z
loop_
_atom_site_type_symbol
_atom_site_label
_atom_site_fract_x
_atom_site_fract_y
_atom_site_fract_z
Si Si1 0.829018 0.648176 0.918235
Si Si2 0.017022 0.359443 0.526553
Si Si3 0.260934 0.727932 0.878862
Si Si4 0.789028 0.861611 0.348499
Si Si5 0.894093 0.300011 0.724059
Si Si6 0.558796 0.598397 0.304376
Si Si7 0.156673 0.990368 0.138941
Si Si8 0.103527 0.662932 0.645237
O O1 0.871698 0.466701 0.832578
O O2 0.011626 0.715840 0.923480
O O3 0.991717 0.668114 0.778557
O O4 0.449808 0.721490 0.120846
O O5 0.381715 0.288087 0.312845
O O6 0.942535 0.544837 0.633538
O O7 0.970624 0.307526 0.608197
O O8 0.758177 0.330921 0.575522
O O9 0.292785 0.575729 0.852717
O O10 0.135498 0.883102 0.039571
O O11 0.762648 0.711358 0.260836
O O12 0.838925 0.824414 0.396774
O O13 0.083925 0.908468 0.209592
O O14 0.500000 0.000000 0.500000
O O15 0.456440 0.585892 0.429269
O O16 0.952748 0.164753 0.287059
O O17 0.500000 0.000000 0.000000
#
# Coordination Sequence:
#
# PCOD9014270 Si02
#       8
#     2   2   2   2   2   2   2   2
#     4  10  22  41  69 101 136 178 223 287 340 393
#     4  10  23  41  73  98 134 178 227 288 329 394
#     4  11  24  39  71 104 132 179 231 282 331 402
#     4  12  26  44  72  96 133 188 224 276 343 410
#     4  10  23  44  66 101 139 174 227 283 342 400
#     4  11  22  43  68 103 132 175 241 277 327 408
#     4  12  25  42  65  97 138 178 223 277 342 401
#     4  10  21  41  67  91 137 175 223 267 344 395
#
# _framework density 22.238911000000002
#
# number of rings (size 3 to 8) (size 9 to 14) (size 15 to 20)
#    0.000    1.250    2.500    3.750    3.500    4.500 
#    0.000    0.625    0.000    0.000    0.000    0.000 
#    0.000    0.000    0.000    0.000    0.000    0.000 
#
# Total GULP energy -89296.102764 kJ/mol
# GULP energy per Si atom -5581.006423 kJ/mol
# Density = 2.218829 g / cm^3
# Si number density = 22.238911 Si / 1000 Ang^3
#
#
#
# Elastic Constant Matrix: (Units=GPa)
#
#
# Indices 1 2 3 4 5 6 
#
# 1 112.1354 43.9264 26.5349 -3.0211 -1.1353 -3.6890
# 2 43.9264 123.4997 29.0965 -9.7909 7.4942 -3.3119
# 3 26.5349 29.0965 54.2551 5.1221 7.1647 -9.9874
# 4 -3.0211 -9.7909 5.1221 37.7737 5.9602 1.7792
# 5 -1.1353 7.4942 7.1647 5.9602 28.5551 -2.9967
# 6 -3.6890 -3.3119 -9.9874 1.7792 -2.9967 27.3662
#
#
#
# Elastic Compliance Matrix: (Units=1/GPa)
#
#
# Indices 1 2 3 4 5 6 
#
# 1 0.011136 -0.003101 -0.004134 0.000306 0.002213 -0.000160
# 2 -0.003101 0.010655 -0.004415 0.003598 -0.002696 -0.001269
# 3 -0.004134 -0.004415 0.025207 -0.004719 -0.003503 0.008031
# 4 0.000306 0.003598 -0.004719 0.029237 -0.006253 -0.003831
# 5 0.002213 -0.002696 -0.003503 -0.006253 0.038346 0.003299
# 6 -0.000160 -0.001269 0.008031 -0.003831 0.003299 0.039908
#
#
# Mechanical properties :
#
#
# Convention : Reuss Voigt Hill
#
# Bulk Modulus (GPa) = 42.19620 54.33397 48.26508
# Shear Modulus (GPa) = 26.92683 31.42785 29.17734
#
# Velocity S-wave (km/s) = 3.48343 3.76332 3.62608
# Velocity P-wave (km/s) = 5.93247 6.58547 6.26748
#
# Compressibility (1/GPa) = 0.02369882
#
# Stress axis : x y z
#
# Youngs Moduli (GPa) = 89.79673 93.85140 39.67128
#
# Poissons Ratio (x) = 0.29107 0.16400
# Poissons Ratio (y) = 0.27849 0.17513
# Poissons Ratio (z) = 0.37121 0.41432
#
# Static dielectric constant tensor:
#      x y z
#    x 1.801160 0.026700 0.051740 
#    y 0.026700 1.751010 -0.109020 
#    z 0.051740 -0.109020 1.724550 
# 
# From -- ./inp_files/559891.got.cif
#   From: 2010.05.17/outbox.cif.g08.bks.cpg/sg2_280_cif.got.tgz:559891.got - 2010.06.03 11:33:40.
