data_PCOD9014034
_publ_section_title
;
Structure prediction by ZEFSAII (Michael W. Deem and Ramdas Pophale) SiO2 
 PCOD9014034
Probable space group: P -1
;
_chemical_formula_sum "Si O2"
_cell_formula_units_Z 16
_cell_length_a 9.540211
_cell_length_b 5.279959
_cell_length_c 19.332990
_cell_angle_alpha 125.931877
_cell_angle_beta 130.944012
_cell_angle_gamma 74.565234
_cell_volume 584.348526
_symmetry_space_group_name_H-M "P -1"
_symmetry_group_IT_number 2
_symmetry_cell_setting 'triclinic'
loop_
_space_group_symop_operation_xyz
x,y,z
-x,-y,-z
loop_
_atom_site_type_symbol
_atom_site_label
_atom_site_fract_x
_atom_site_fract_y
_atom_site_fract_z
Si Si1 0.030748 0.533668 0.126048
Si Si2 0.624999 0.749308 0.857044
Si Si3 0.467493 0.356804 0.544213
Si Si4 0.252609 0.243494 0.653097
Si Si5 0.852919 0.713593 0.742014
Si Si6 0.333548 0.277122 0.981897
Si Si7 0.889027 0.448914 0.558783
Si Si8 0.336552 0.167976 0.815374
O O1 0.172706 0.315669 0.110097
O O2 0.021665 0.443041 0.189247
O O3 0.819495 0.492370 0.022449
O O4 0.111893 0.905426 0.193577
O O5 0.470872 0.415686 0.752086
O O6 0.497702 0.970975 0.815964
O O7 0.663175 0.885034 0.969134
O O8 0.500000 0.500000 0.500000
O O9 0.636672 0.578824 0.675284
O O10 0.253983 0.367186 0.497888
O O11 0.500000 0.000000 0.500000
O O12 0.203727 0.162288 0.705443
O O13 0.109013 0.466179 0.616367
O O14 0.208913 0.918511 0.544326
O O15 0.880341 0.568280 0.653101
O O16 0.270936 0.083092 0.859803
O O17 0.545818 0.474960 0.078627
#
# Coordination Sequence:
#
# PCOD9014034 Si02
#       8
#     2   2   2   2   2   2   2   2
#     4  12  27  43  75 107 148 185 245 294 365 430
#     4  11  25  43  70 101 142 182 234 310 359 433
#     4  10  21  41  66  94 136 185 233 288 346 407
#     4  10  23  45  66 104 140 190 244 299 361 427
#     4  11  25  44  69 107 146 192 236 297 352 429
#     4  10  24  45  72 103 135 189 235 297 369 443
#     4  10  22  44  70  98 145 192 245 295 356 433
#     4  10  23  45  73  99 141 184 240 299 367 433
#
# _framework density 27.38092
#
# number of rings (size 3 to 8) (size 9 to 14) (size 15 to 20)
#    0.000    1.500    0.000    3.750    8.750    1.500 
#    6.750    1.250    0.000    0.000    0.000    0.000 
#    0.000    0.000    0.000    0.000    0.000    0.000 
#
# Total GULP energy -89562.840757 kJ/mol
# GULP energy per Si atom -5597.677547 kJ/mol
# Density = 2.731860 g / cm^3
# Si number density = 27.380920 Si / 1000 Ang^3
#
#
#
# Elastic Constant Matrix: (Units=GPa)
#
#
# Indices 1 2 3 4 5 6 
#
# 1 97.6256 34.7250 36.3673 0.1561 4.0326 -23.5893
# 2 34.7250 150.6980 27.6716 -10.8606 16.7192 -18.5641
# 3 36.3673 27.6716 103.3541 -1.2316 19.0697 8.0799
# 4 0.1561 -10.8606 -1.2316 42.2135 -14.6595 9.4118
# 5 4.0326 16.7192 19.0697 -14.6595 41.1795 -7.8388
# 6 -23.5893 -18.5641 8.0799 9.4118 -7.8388 52.2483
#
#
#
# Elastic Compliance Matrix: (Units=1/GPa)
#
#
# Indices 1 2 3 4 5 6 
#
# 1 0.014810 -0.001819 -0.005889 -0.001362 0.002985 0.007644
# 2 -0.001819 0.007753 -0.001238 0.000991 -0.001722 0.001688
# 3 -0.005889 -0.001238 0.013797 -0.000893 -0.006787 -0.006089
# 4 -0.001362 0.000991 -0.000893 0.028028 0.009406 -0.003762
# 5 0.002985 -0.001722 -0.006787 0.009406 0.032117 0.004910
# 6 0.007644 0.001688 -0.006089 -0.003762 0.004910 0.025546
#
#
# Mechanical properties :
#
#
# Convention : Reuss Voigt Hill
#
# Bulk Modulus (GPa) = 54.14900 61.02283 57.58592
# Shear Modulus (GPa) = 34.22355 43.98919 39.10637
#
# Velocity S-wave (km/s) = 3.53923 4.01254 3.78330
# Velocity P-wave (km/s) = 6.04324 6.61833 6.33731
#
# Compressibility (1/GPa) = 0.01846756
#
# Stress axis : x y z
#
# Youngs Moduli (GPa) = 67.52292 128.98789 72.48115
#
# Poissons Ratio (x) = 0.23463 0.42683
# Poissons Ratio (y) = 0.12282 0.08973
# Poissons Ratio (z) = 0.39763 0.15969
#
# Static dielectric constant tensor:
#      x y z
#    x 2.196420 -0.040210 0.054460 
#    y -0.040210 1.980710 0.079630 
#    z 0.054460 0.079630 2.062400 
# 
# From -- ./inp_files/609259.got.cif
#   From: 2010.05.17/outbox.cif.g08.bks.cpg/sg2_305_cif.got.tgz:609259.got - 2010.06.03 11:33:40.
