data_PCOD9014716
_publ_section_title
;
Structure prediction by ZEFSAII (Michael W. Deem and Ramdas Pophale) SiO2 
 PCOD9014716
Probable space group: P -1
;
_chemical_formula_sum "Si O2"
_cell_formula_units_Z 16
_cell_length_a 11.003131
_cell_length_b 5.834572
_cell_length_c 12.728096
_cell_angle_alpha 119.111110
_cell_angle_beta 88.408689
_cell_angle_gamma 100.825619
_cell_volume 699.270514
_symmetry_space_group_name_H-M "P -1"
_symmetry_group_IT_number 2
_symmetry_cell_setting 'triclinic'
loop_
_space_group_symop_operation_xyz
x,y,z
-x,-y,-z
loop_
_atom_site_type_symbol
_atom_site_label
_atom_site_fract_x
_atom_site_fract_y
_atom_site_fract_z
Si Si1 0.789719 0.613641 0.765289
Si Si2 0.230118 0.992029 0.431699
Si Si3 0.989500 0.560354 0.892628
Si Si4 0.015512 0.024174 0.308087
Si Si5 0.422205 0.195003 0.284630
Si Si6 0.568453 0.732499 0.125483
Si Si7 0.348646 0.408971 0.679690
Si Si8 0.813889 0.146068 0.195046
O O1 0.783351 0.328183 0.643470
O O2 0.659956 0.702442 0.780636
O O3 0.851048 0.585218 0.869495
O O4 0.886908 0.838025 0.751665
O O5 0.099271 0.076312 0.422864
O O6 0.330174 0.106183 0.364111
O O7 0.284585 0.130407 0.567653
O O8 0.090655 0.797474 0.892469
O O9 0.010807 0.293702 0.774092
O O10 0.000000 0.500000 0.000000
O O11 0.891545 0.116287 0.293105
O O12 0.537041 0.436297 0.358523
O O13 0.480611 0.947721 0.190533
O O14 0.597048 0.626171 0.215301
O O15 0.703299 0.894214 0.121329
O O16 0.500000 0.500000 0.000000
O O17 0.251500 0.602831 0.733137
#
# Coordination Sequence:
#
# PCOD9014716 Si02
#       8
#     2   2   2   2   2   2   2   2
#     4   9  20  39  63 100 131 165 215 271 337 388
#     4  10  21  41  69 100 135 167 221 280 330 392
#     4  10  21  43  66  97 130 169 224 278 328 390
#     4   9  20  42  62  98 132 162 215 268 338 391
#     4  10  22  42  67  96 130 175 225 273 332 387
#     4  11  26  48  63  94 138 180 226 268 326 395
#     4  11  24  43  65  96 134 180 224 270 330 392
#     4  10  23  44  67  94 133 176 221 268 335 397
#
# _framework density 22.880987000000001
#
# number of rings (size 3 to 8) (size 9 to 14) (size 15 to 20)
#    0.000    2.000    0.000    1.875    0.000   10.500 
#   29.250    8.750    0.000    0.000    0.000    0.000 
#    0.000    0.000    0.000    0.000    0.000    0.000 
#
# Total GULP energy -89442.946298 kJ/mol
# GULP energy per Si atom -5590.184144 kJ/mol
# Density = 2.282891 g / cm^3
# Si number density = 22.880987 Si / 1000 Ang^3
#
#
#
# Elastic Constant Matrix: (Units=GPa)
#
#
# Indices 1 2 3 4 5 6 
#
# 1 168.6440 60.7413 61.3066 0.2791 20.6876 -20.9887
# 2 60.7413 92.1738 38.8464 9.7239 7.3045 0.9646
# 3 61.3066 38.8464 100.7338 7.6878 26.5140 7.1306
# 4 0.2791 9.7239 7.6878 26.0745 9.5666 1.6828
# 5 20.6876 7.3045 26.5140 9.5666 25.1917 -2.9613
# 6 -20.9887 0.9646 7.1306 1.6828 -2.9613 63.1103
#
#
#
# Elastic Compliance Matrix: (Units=1/GPa)
#
#
# Indices 1 2 3 4 5 6 
#
# 1 0.010074 -0.005287 -0.003564 0.004220 -0.004176 0.003525
# 2 -0.005287 0.016351 -0.004215 -0.007167 0.006638 -0.001030
# 3 -0.003564 -0.004215 0.018115 0.002524 -0.016345 -0.004002
# 4 0.004220 -0.007167 0.002524 0.048614 -0.022638 -0.001131
# 5 -0.004176 0.006638 -0.016345 -0.022638 0.067486 0.004127
# 6 0.003525 -0.001030 -0.004002 -0.001131 0.004127 0.017709
#
#
# Mechanical properties :
#
#
# Convention : Reuss Voigt Hill
#
# Bulk Modulus (GPa) = 54.32948 75.92668 65.12808
# Shear Modulus (GPa) = 23.73989 36.25246 29.99617
#
# Velocity S-wave (km/s) = 3.22458 3.98476 3.62465
# Velocity P-wave (km/s) = 6.13676 7.37743 6.78551
#
# Compressibility (1/GPa) = 0.01840621
#
# Stress axis : x y z
#
# Youngs Moduli (GPa) = 99.26718 61.16004 55.20427
#
# Poissons Ratio (x) = 0.32338 0.19676
# Poissons Ratio (y) = 0.52487 0.23267
# Poissons Ratio (z) = 0.35381 0.25777
#
# Static dielectric constant tensor:
#      x y z
#    x 1.876570 0.012120 0.000060 
#    y 0.012120 1.845360 -0.021970 
#    z 0.000060 -0.021970 1.836980 
# 
# From -- ./inp_files/72011.got.cif
#   From: 2010.05.17/outbox.cif.g08.bks.cpg/sg2_37_cif.got.tgz:72011.got - 2010.06.03 11:33:40.
