data_PCOD9014091
_publ_section_title
;
Structure prediction by ZEFSAII (Michael W. Deem and Ramdas Pophale) SiO2 
 PCOD9014091
Probable space group: P -1
;
_chemical_formula_sum "Si O2"
_cell_formula_units_Z 16
_cell_length_a 5.849318
_cell_length_b 5.905262
_cell_length_c 27.505510
_cell_angle_alpha 123.608639
_cell_angle_beta 124.875564
_cell_angle_gamma 79.218537
_cell_volume 637.399784
_symmetry_space_group_name_H-M "P -1"
_symmetry_group_IT_number 2
_symmetry_cell_setting 'triclinic'
loop_
_space_group_symop_operation_xyz
x,y,z
-x,-y,-z
loop_
_atom_site_type_symbol
_atom_site_label
_atom_site_fract_x
_atom_site_fract_y
_atom_site_fract_z
Si Si1 0.796768 0.413947 0.536204
Si Si2 0.819876 0.639275 0.218232
Si Si3 0.725418 0.120390 0.394812
Si Si4 0.069798 0.581713 0.962392
Si Si5 0.839871 0.870856 0.723891
Si Si6 0.050650 0.375948 0.661176
Si Si7 0.415602 0.098923 0.097055
Si Si8 0.289912 0.935737 0.174312
O O1 0.500000 0.500000 0.500000
O O2 0.813696 0.193983 0.469568
O O3 0.828142 0.305364 0.581582
O O4 0.039844 0.683455 0.586591
O O5 0.707455 0.318897 0.153749
O O6 0.535484 0.772174 0.202603
O O7 0.994095 0.705572 0.297527
O O8 0.021756 0.808434 0.223593
O O9 0.430157 0.194972 0.351630
O O10 0.712841 0.795465 0.345899
O O11 0.831496 0.745335 0.933054
O O12 0.004548 0.288077 0.892872
O O13 0.000000 0.500000 0.000000
O O14 0.361606 0.807379 0.026632
O O15 0.067590 0.701903 0.709901
O O16 0.737156 0.829121 0.761803
O O17 0.369078 0.041113 0.141948
#
# Coordination Sequence:
#
# PCOD9014091 Si02
#       8
#     2   2   2   2   2   2   2   2
#     4  11  25  49  71 101 135 175 234 291 339 419
#     4  11  24  41  63 101 138 180 233 290 342 413
#     4  11  26  48  70  99 137 179 228 286 349 412
#     4   8  16  34  64 101 134 183 231 284 345 404
#     4  12  26  44  67 103 143 178 233 287 342 419
#     4  12  25  44  72  96 138 183 227 283 351 406
#     4   9  18  36  68  97 135 188 230 282 353 400
#     4  10  21  41  66  96 144 182 232 290 342 411
#
# _framework density 25.101984000000002
#
# number of rings (size 3 to 8) (size 9 to 14) (size 15 to 20)
#    0.000    1.500    2.500    1.875    1.750    3.500 
#    0.000    0.625    0.000   30.750    0.000    0.000 
#    0.000    0.000    0.000    0.000    0.000    0.000 
#
# Total GULP energy -89339.542050 kJ/mol
# GULP energy per Si atom -5583.721378 kJ/mol
# Density = 2.504485 g / cm^3
# Si number density = 25.101984 Si / 1000 Ang^3
#
#
#
# Elastic Constant Matrix: (Units=GPa)
#
#
# Indices 1 2 3 4 5 6 
#
# 1 50.4331 26.2767 34.1236 4.7119 20.2334 1.2423
# 2 26.2767 90.5417 50.3461 -7.3874 -0.3853 -2.9054
# 3 34.1236 50.3461 142.4159 -13.4784 -14.4951 13.2414
# 4 4.7119 -7.3874 -13.4784 60.3666 8.9139 4.2592
# 5 20.2334 -0.3853 -14.4951 8.9139 36.3963 -1.3740
# 6 1.2423 -2.9054 13.2414 4.2592 -1.3740 28.9630
#
#
#
# Elastic Compliance Matrix: (Units=1/GPa)
#
#
# Indices 1 2 3 4 5 6 
#
# 1 0.041246 -0.006248 -0.010778 -0.002580 -0.026594 0.001650
# 2 -0.006248 0.015243 -0.003933 0.000933 0.001974 0.003551
# 3 -0.010778 -0.003933 0.012760 0.002080 0.010312 -0.005583
# 4 -0.002580 0.000933 0.002080 0.017924 -0.002249 -0.003489
# 5 -0.026594 0.001974 0.010312 -0.002249 0.046907 -0.000820
# 6 0.001650 0.003551 -0.005583 -0.003489 -0.000820 0.037839
#
#
# Mechanical properties :
#
#
# Convention : Reuss Voigt Hill
#
# Bulk Modulus (GPa) = 36.58774 56.09817 46.34295
# Shear Modulus (GPa) = 22.42690 36.65480 29.54085
#
# Velocity S-wave (km/s) = 2.99228 3.82545 3.43422
# Velocity P-wave (km/s) = 5.15224 6.47369 5.85040
#
# Compressibility (1/GPa) = 0.02733156
#
# Stress axis : x y z
#
# Youngs Moduli (GPa) = 24.24480 65.60362 78.36985
#
# Poissons Ratio (x) = 0.40986 0.84471
# Poissons Ratio (y) = 0.15147 0.30821
# Poissons Ratio (z) = 0.26132 0.25800
#
# Static dielectric constant tensor:
#      x y z
#    x 1.909520 0.006620 0.014990 
#    y 0.006620 2.030730 0.031460 
#    z 0.014990 0.031460 1.975260 
# 
# From -- ./inp_files/614984.got.cif
#   From: 2010.05.17/outbox.cif.g08.bks.cpg/sg2_308_cif.got.tgz:614984.got - 2010.06.03 11:33:40.
