data_PCOD9014335
_publ_section_title
;
Structure prediction by ZEFSAII (Michael W. Deem and Ramdas Pophale) SiO2 
 PCOD9014335
Probable space group: P -1
;
_chemical_formula_sum "Si O2"
_cell_formula_units_Z 16
_cell_length_a 7.456105
_cell_length_b 7.999230
_cell_length_c 15.606783
_cell_angle_alpha 103.885532
_cell_angle_beta 125.134328
_cell_angle_gamma 104.756746
_cell_volume 642.193860
_symmetry_space_group_name_H-M "P -1"
_symmetry_group_IT_number 2
_symmetry_cell_setting 'triclinic'
loop_
_space_group_symop_operation_xyz
x,y,z
-x,-y,-z
loop_
_atom_site_type_symbol
_atom_site_label
_atom_site_fract_x
_atom_site_fract_y
_atom_site_fract_z
Si Si1 0.073442 0.352597 0.454050
Si Si2 0.198313 0.680580 0.416129
Si Si3 0.511166 0.056790 0.217164
Si Si4 0.125127 0.690803 0.999466
Si Si5 0.904020 0.036510 0.766111
Si Si6 0.268272 0.195040 0.022116
Si Si7 0.708357 0.903303 0.503920
Si Si8 0.212709 0.489654 0.846799
O O1 0.806906 0.179225 0.325676
O O2 0.000000 0.500000 0.500000
O O3 0.253579 0.518959 0.455727
O O4 0.204141 0.245945 0.526157
O O5 0.407299 0.782139 0.412084
O O6 0.919224 0.552938 0.287046
O O7 0.218306 0.881205 0.487413
O O8 0.421986 0.138152 0.123202
O O9 0.348150 0.045624 0.255237
O O10 0.402818 0.830683 0.131767
O O11 0.150624 0.633594 0.903656
O O12 0.944048 0.782997 0.980494
O O13 0.000000 0.500000 0.000000
O O14 0.055737 0.273727 0.820752
O O15 0.819142 0.940692 0.637140
O O16 0.115597 0.032608 0.885777
O O17 0.486820 0.402949 0.068814
#
# Coordination Sequence:
#
# PCOD9014335 Si02
#       8
#     2   2   2   2   2   2   2   2
#     4  12  26  44  69 102 140 182 235 291 361 418
#     4  10  23  47  67 105 133 182 244 284 353 419
#     4  11  24  43  61 102 141 172 231 287 346 426
#     4  11  23  39  66  99 135 181 226 276 348 414
#     4  10  21  41  67  94 135 184 221 282 351 409
#     4  11  23  40  63  97 141 175 226 283 342 420
#     4  10  24  44  74  96 136 185 236 293 351 420
#     4  11  22  41  69  98 137 180 228 284 342 427
#
# _framework density 24.914597000000001
#
# number of rings (size 3 to 8) (size 9 to 14) (size 15 to 20)
#    0.000    1.250    3.750    3.000    1.750    5.000 
#    0.000    0.000    0.000    0.000    0.000    0.000 
#    0.000    0.000    0.000    0.000    0.000    0.000 
#
# Total GULP energy -89312.075282 kJ/mol
# GULP energy per Si atom -5582.004705 kJ/mol
# Density = 2.485789 g / cm^3
# Si number density = 24.914597 Si / 1000 Ang^3
#
#
#
# Elastic Constant Matrix: (Units=GPa)
#
#
# Indices 1 2 3 4 5 6 
#
# 1 78.1127 31.5146 13.2043 4.8105 12.9827 2.2226
# 2 31.5146 114.0339 21.4629 22.0842 19.8805 0.8631
# 3 13.2043 21.4629 92.0548 11.8470 17.9915 2.0326
# 4 4.8105 22.0842 11.8470 43.2890 5.8906 5.5003
# 5 12.9827 19.8805 17.9915 5.8906 36.8761 0.1479
# 6 2.2226 0.8631 2.0326 5.5003 0.1479 40.8166
#
#
#
# Elastic Compliance Matrix: (Units=1/GPa)
#
#
# Indices 1 2 3 4 5 6 
#
# 1 0.014861 -0.003598 -0.000798 0.000919 -0.003047 -0.000806
# 2 -0.003598 0.011503 -0.000825 -0.004814 -0.003766 0.000656
# 3 -0.000798 -0.000825 0.012431 -0.002182 -0.004990 -0.000246
# 4 0.000919 -0.004814 -0.002182 0.026609 -0.000901 -0.003422
# 5 -0.003047 -0.003766 -0.004990 -0.000901 0.032797 0.000497
# 6 -0.000806 0.000656 -0.000246 -0.003422 0.000497 0.025001
#
#
# Mechanical properties :
#
#
# Convention : Reuss Voigt Hill
#
# Bulk Modulus (GPa) = 35.26783 46.28499 40.77641
# Shear Modulus (GPa) = 34.94196 38.73100 36.83648
#
# Velocity S-wave (km/s) = 3.74902 3.94706 3.84931
# Velocity P-wave (km/s) = 5.73815 6.27616 6.01317
#
# Compressibility (1/GPa) = 0.02835446
#
# Stress axis : x y z
#
# Youngs Moduli (GPa) = 67.28989 86.93699 80.44141
#
# Poissons Ratio (x) = 0.31277 0.06418
# Poissons Ratio (y) = 0.24208 0.06635
# Poissons Ratio (z) = 0.05369 0.07171
#
# Static dielectric constant tensor:
#      x y z
#    x 2.163780 0.258580 -0.167050 
#    y 0.258580 2.608880 -0.217880 
#    z -0.167050 -0.217880 2.021960 
# 
# From -- ./inp_files/557332.got.cif
#   From: 2010.05.17/outbox.cif.g08.bks.cpg/sg2_279_cif.got.tgz:557332.got - 2010.06.03 11:33:40.
