data_PCOD9014391
_publ_section_title
;
Structure prediction by ZEFSAII (Michael W. Deem and Ramdas Pophale) SiO2 
 PCOD9014391
Probable space group: P -1
;
_chemical_formula_sum "Si O2"
_cell_formula_units_Z 16
_cell_length_a 10.960754
_cell_length_b 11.185946
_cell_length_c 10.917942
_cell_angle_alpha 86.086842
_cell_angle_beta 71.596568
_cell_angle_gamma 141.190826
_cell_volume 675.810446
_symmetry_space_group_name_H-M "P -1"
_symmetry_group_IT_number 2
_symmetry_cell_setting 'triclinic'
loop_
_space_group_symop_operation_xyz
x,y,z
-x,-y,-z
loop_
_atom_site_type_symbol
_atom_site_label
_atom_site_fract_x
_atom_site_fract_y
_atom_site_fract_z
Si Si1 0.283402 0.816970 0.174464
Si Si2 0.988598 0.122011 0.932503
Si Si3 0.147229 0.120753 0.675443
Si Si4 0.590835 0.010607 0.625012
Si Si5 0.816847 0.110577 0.219764
Si Si6 0.761813 0.481754 0.296706
Si Si7 0.326822 0.444546 0.428673
Si Si8 0.102790 0.424196 0.299233
O O1 0.254543 0.663140 0.252555
O O2 0.028507 0.636783 0.203385
O O3 0.328804 0.941532 0.263773
O O4 0.500000 0.000000 0.000000
O O5 0.940786 0.036752 0.814367
O O6 0.207311 0.389557 0.823599
O O7 0.821913 0.065086 0.083197
O O8 0.000000 0.000000 0.000000
O O9 0.204668 0.222294 0.518965
O O10 0.387225 0.338918 0.664552
O O11 0.144230 0.976354 0.700178
O O12 0.412554 0.985484 0.678596
O O13 0.439523 0.775842 0.646797
O O14 0.836810 0.226885 0.457626
O O15 0.051343 0.367858 0.174739
O O16 0.730659 0.512490 0.440923
O O17 0.237510 0.426745 0.331276
#
# Coordination Sequence:
#
# PCOD9014391 Si02
#       8
#     2   2   2   2   2   2   2   2
#     4  12  27  42  64 102 146 183 223 281 347 418
#     4   9  21  42  68  94 132 192 229 282 346 411
#     4   9  20  40  67  92 129 186 236 282 343 396
#     4  12  25  42  72 106 142 184 226 285 356 416
#     4  11  22  38  67  99 139 179 232 275 352 413
#     4  11  23  43  71 100 142 176 240 282 346 418
#     4  10  21  41  67  96 132 181 232 289 338 401
#     4  12  25  42  67 106 144 179 230 288 350 421
#
# _framework density 23.675277000000001
#
# number of rings (size 3 to 8) (size 9 to 14) (size 15 to 20)
#    0.000    1.250    2.500    3.000    3.500    2.500 
#    0.000    0.625    0.000    0.000    0.000    0.000 
#    0.000    0.000    0.000    0.000    0.000    0.000 
#
# Total GULP energy -89252.331006 kJ/mol
# GULP energy per Si atom -5578.270688 kJ/mol
# Density = 2.362139 g / cm^3
# Si number density = 23.675277 Si / 1000 Ang^3
#
#
#
# Elastic Constant Matrix: (Units=GPa)
#
#
# Indices 1 2 3 4 5 6 
#
# 1 97.8063 30.1150 22.3368 -2.9995 3.8396 -6.7879
# 2 30.1150 101.3251 25.0267 -14.5919 2.6236 -3.8563
# 3 22.3368 25.0267 87.9482 -13.9201 -4.1916 -4.7971
# 4 -2.9995 -14.5919 -13.9201 26.2360 -7.7428 3.9331
# 5 3.8396 2.6236 -4.1916 -7.7428 33.7390 0.1658
# 6 -6.7879 -3.8563 -4.7971 3.9331 0.1658 40.2973
#
#
#
# Elastic Compliance Matrix: (Units=1/GPa)
#
#
# Indices 1 2 3 4 5 6 
#
# 1 0.011894 -0.003166 -0.002536 -0.002594 -0.002026 0.001660
# 2 -0.003166 0.012020 -0.001717 0.005578 0.000493 -0.000134
# 3 -0.002536 -0.001717 0.013835 0.007161 0.003783 0.000341
# 4 -0.002594 0.005578 0.007161 0.048835 0.011977 -0.003866
# 5 -0.002026 0.000493 0.003783 0.011977 0.033056 -0.001149
# 6 0.001660 -0.000134 0.000341 -0.003866 -0.001149 0.025505
#
#
# Mechanical properties :
#
#
# Convention : Reuss Voigt Hill
#
# Bulk Modulus (GPa) = 43.65036 49.11517 46.38277
# Shear Modulus (GPa) = 29.82930 34.02788 31.92859
#
# Velocity S-wave (km/s) = 3.55341 3.79525 3.67632
# Velocity P-wave (km/s) = 5.94245 6.32421 6.13630
#
# Compressibility (1/GPa) = 0.02290932
#
# Stress axis : x y z
#
# Youngs Moduli (GPa) = 84.07867 83.19590 72.27842
#
# Poissons Ratio (x) = 0.26343 0.18331
# Poissons Ratio (y) = 0.26622 0.12412
# Poissons Ratio (z) = 0.21324 0.14286
#
# Static dielectric constant tensor:
#      x y z
#    x 2.003010 -0.051850 -0.026200 
#    y -0.051850 1.922280 0.029200 
#    z -0.026200 0.029200 1.964740 
# 
# From -- ./inp_files/423674.got.cif
#   From: 2010.05.17/outbox.cif.g08.bks.cpg/sg2_212_cif.got.tgz:423674.got - 2010.06.03 11:33:40.
