data_PCOD9014129
_publ_section_title
;
Structure prediction by ZEFSAII (Michael W. Deem and Ramdas Pophale) SiO2 
 PCOD9014129
Probable space group: P -1
;
_chemical_formula_sum "Si O2"
_cell_formula_units_Z 14
_cell_length_a 8.389573
_cell_length_b 18.725519
_cell_length_c 5.070792
_cell_angle_alpha 133.637393
_cell_angle_beta 91.736810
_cell_angle_gamma 74.715921
_cell_volume 542.866054
_symmetry_space_group_name_H-M "P -1"
_symmetry_group_IT_number 2
_symmetry_cell_setting 'triclinic'
loop_
_space_group_symop_operation_xyz
x,y,z
-x,-y,-z
loop_
_atom_site_type_symbol
_atom_site_label
_atom_site_fract_x
_atom_site_fract_y
_atom_site_fract_z
Si Si1 0.648288 0.055927 0.981907
Si Si2 0.632154 0.287945 0.044562
Si Si3 0.925500 0.119263 0.900240
Si Si4 0.100903 0.405754 0.575885
Si Si5 0.240654 0.532735 0.495806
Si Si6 0.585624 0.667706 0.326294
Si Si7 0.707703 0.913572 0.119354
O O1 0.787259 0.111791 0.087553
O O2 0.457386 0.119686 0.036121
O O3 0.694476 0.956163 0.527361
O O4 0.663561 0.012202 0.165370
O O5 0.662351 0.392518 0.208096
O O6 0.540877 0.315614 0.393197
O O7 0.808321 0.197085 0.877215
O O8 0.505492 0.269024 0.774595
O O9 0.091116 0.145968 0.065883
O O10 0.000000 0.000000 0.500000
O O11 0.199508 0.453044 0.491542
O O12 0.239795 0.319794 0.529286
O O13 0.944489 0.385216 0.379203
O O14 0.000000 0.500000 0.000000
O O15 0.341392 0.455990 0.073360
#
# Coordination Sequence:
#
# PCOD9014129 Si02
#       7
#     2   2   2   2   2   2   2
#     4   9  18  35  63  86 113 154 210 262 326 378
#     4  12  26  38  65  98 129 172 227 262 337 385
#     4  10  23  44  65  91 132 175 222 279 324 385
#     4   9  20  38  69  94 134 174 209 256 339 392
#     4  10  21  41  66  98 135 171 210 269 325 402
#     4  11  23  42  63  97 129 170 212 272 320 405
#     4   9  18  35  62  87 111 157 208 265 324 373
#
# _framework density 25.789052999999999
#
# number of rings (size 3 to 8) (size 9 to 14) (size 15 to 20)
#    0.000    2.000    1.429    1.286    4.000    4.571 
#    2.571    0.000    0.000    3.429    0.000    0.000 
#    0.000    0.000    0.000    0.000    0.000    0.000 
#
# Total GULP energy -78214.724578 kJ/mol
# GULP energy per Si atom -5586.766041 kJ/mol
# Density = 2.573036 g / cm^3
# Si number density = 25.789053 Si / 1000 Ang^3
#
#
#
# Elastic Constant Matrix: (Units=GPa)
#
#
# Indices 1 2 3 4 5 6 
#
# 1 187.4802 52.0203 45.9560 3.5133 -19.7594 -28.4360
# 2 52.0203 108.6210 36.4798 7.5720 -14.6378 -46.7315
# 3 45.9560 36.4798 81.5792 -7.9395 -16.8451 -4.0843
# 4 3.5133 7.5720 -7.9395 38.6121 -11.5284 -10.9053
# 5 -19.7594 -14.6378 -16.8451 -11.5284 36.8553 11.2208
# 6 -28.4360 -46.7315 -4.0843 -10.9053 11.2208 56.5214
#
#
#
# Elastic Compliance Matrix: (Units=1/GPa)
#
#
# Indices 1 2 3 4 5 6 
#
# 1 0.006829 -0.001307 -0.002926 -0.000073 0.001207 0.001890
# 2 -0.001307 0.018025 -0.007060 -0.001402 -0.001390 0.013741
# 3 -0.002926 -0.007060 0.019047 0.006223 0.008217 -0.006363
# 4 -0.000073 -0.001402 0.006223 0.031694 0.011205 0.003145
# 5 0.001207 -0.001390 0.008217 0.011205 0.035990 -0.004932
# 6 0.001890 0.013741 -0.006363 0.003145 -0.004932 0.031130
#
#
# Mechanical properties :
#
#
# Convention : Reuss Voigt Hill
#
# Bulk Modulus (GPa) = 46.91257 71.84363 59.37810
# Shear Modulus (GPa) = 29.00141 42.61271 35.80706
#
# Velocity S-wave (km/s) = 3.35709 4.06933 3.73025
# Velocity P-wave (km/s) = 5.76690 7.07092 6.45194
#
# Compressibility (1/GPa) = 0.02131625
#
# Stress axis : x y z
#
# Youngs Moduli (GPa) = 146.43534 55.47728 52.50209
#
# Poissons Ratio (x) = 0.07252 0.15361
# Poissons Ratio (y) = 0.19141 0.37065
# Poissons Ratio (z) = 0.42843 0.39165
#
# Static dielectric constant tensor:
#      x y z
#    x 2.075160 -0.037340 -0.013280 
#    y -0.037340 2.028290 0.028730 
#    z -0.013280 0.028730 2.043570 
# 
# From -- ./inp_files/51959.got.cif
#   From: 2010.05.17/outbox.cif.g08.bks.cpg/sg2_26_cif.got.tgz:51959.got - 2010.06.03 11:33:40.
