data_PCOD9014712
_publ_section_title
;
Structure prediction by ZEFSAII (Michael W. Deem and Ramdas Pophale) SiO2 
 PCOD9014712
Probable space group: P -1
;
_chemical_formula_sum "Si O2"
_cell_formula_units_Z 16
_cell_length_a 14.030773
_cell_length_b 10.398412
_cell_length_c 14.226193
_cell_angle_alpha 28.278567
_cell_angle_beta 141.832623
_cell_angle_gamma 128.425827
_cell_volume 589.576403
_symmetry_space_group_name_H-M "P -1"
_symmetry_group_IT_number 2
_symmetry_cell_setting 'triclinic'
loop_
_space_group_symop_operation_xyz
x,y,z
-x,-y,-z
loop_
_atom_site_type_symbol
_atom_site_label
_atom_site_fract_x
_atom_site_fract_y
_atom_site_fract_z
Si Si1 0.143709 0.399100 0.273827
Si Si2 0.473485 0.616035 0.055843
Si Si3 0.319078 0.041413 0.799331
Si Si4 0.981196 0.100470 0.529188
Si Si5 0.191308 0.664902 0.492119
Si Si6 0.461025 0.072586 0.276625
Si Si7 0.128514 0.314871 0.846261
Si Si8 0.200883 0.235863 0.247009
O O1 0.256796 0.302188 0.510536
O O2 0.215340 0.487362 0.179167
O O3 0.119471 0.119351 0.370248
O O4 0.970598 0.578747 0.047404
O O5 0.639246 0.491174 0.317704
O O6 0.452409 0.358264 0.143342
O O7 0.493235 0.853382 0.841826
O O8 0.336457 0.773688 0.916223
O O9 0.161613 0.074635 0.720211
O O10 0.500000 0.000000 0.000000
O O11 0.000000 0.000000 0.500000
O O12 0.887574 0.412270 0.276499
O O13 0.163674 0.434836 0.694803
O O14 0.043951 0.738219 0.261307
O O15 0.192725 0.935075 0.381546
O O16 0.604903 0.832442 0.579620
O O17 0.277907 0.059994 0.147603
#
# Coordination Sequence:
#
# PCOD9014712 Si02
#       8
#     2   2   2   2   2   2   2   2
#     4  10  20  35  53  77 108 139 181 203 266 323
#     4   9  16  29  49  78  98 130 178 211 260 292
#     4  11  21  34  54  77 108 139 174 218 254 312
#     4  10  20  33  54  76 108 141 176 217 246 314
#     4   9  18  29  53  76 110 132 161 232 267 309
#     4   9  16  28  54  74 102 127 171 231 246 303
#     4  10  17  30  48  82 105 131 175 218 275 288
#     4  10  18  34  55  77 107 141 168 220 262 322
#
# _framework density 27.138127000000001
#
# number of rings (size 3 to 8) (size 9 to 14) (size 15 to 20)
#    0.000    2.250    2.500    3.000    0.000    0.000 
#    0.000    1.250    0.000   27.000    0.000    0.000 
#    0.000    0.000    0.000    0.000    0.000    0.000 
#
# Total GULP energy -89177.960468 kJ/mol
# GULP energy per Si atom -5573.622529 kJ/mol
# Density = 2.707636 g / cm^3
# Si number density = 27.138127 Si / 1000 Ang^3
#
#
#
# Elastic Constant Matrix: (Units=GPa)
#
#
# Indices 1 2 3 4 5 6 
#
# 1 85.1201 19.9918 63.2622 -2.2700 22.8112 -1.8861
# 2 19.9918 54.6100 38.5850 26.7954 11.7458 3.0678
# 3 63.2622 38.5850 210.8851 31.0731 44.6196 9.1205
# 4 -2.2700 26.7954 31.0731 50.7050 3.4069 14.4202
# 5 22.8112 11.7458 44.6196 3.4069 65.1241 5.4669
# 6 -1.8861 3.0678 9.1205 14.4202 5.4669 27.1914
#
#
#
# Elastic Compliance Matrix: (Units=1/GPa)
#
#
# Indices 1 2 3 4 5 6 
#
# 1 0.017418 -0.005989 -0.004694 0.006900 -0.002186 0.000238
# 2 -0.005989 0.029578 -0.000914 -0.016883 -0.002228 0.005955
# 3 -0.004694 -0.000914 0.007608 -0.004202 -0.003191 0.000096
# 4 0.006900 -0.016883 -0.004202 0.035822 0.002959 -0.015800
# 5 -0.002186 -0.002228 -0.003191 0.002959 0.018907 -0.004201
# 6 0.000238 0.005955 0.000096 -0.015800 -0.004201 0.045312
#
#
# Mechanical properties :
#
#
# Convention : Reuss Voigt Hill
#
# Bulk Modulus (GPa) = 31.83652 66.03256 48.93454
# Shear Modulus (GPa) = 26.55193 43.85584 35.20389
#
# Velocity S-wave (km/s) = 3.13133 4.02434 3.60559
# Velocity P-wave (km/s) = 4.98301 6.78075 5.95017
#
# Compressibility (1/GPa) = 0.03141047
#
# Stress axis : x y z
#
# Youngs Moduli (GPa) = 57.41024 33.80854 131.44854
#
# Poissons Ratio (x) = 0.20248 0.61702
# Poissons Ratio (y) = 0.34383 0.12013
# Poissons Ratio (z) = 0.26949 0.03090
#
# Static dielectric constant tensor:
#      x y z
#    x 2.308010 0.111560 -0.116310 
#    y 0.111560 2.268440 0.009480 
#    z -0.116310 0.009480 2.110640 
# 
# From -- ./inp_files/252199.got.cif
#   From: 2010.05.17/outbox.cif.g08.bks.cpg/sg2_127_cif.got.tgz:252199.got - 2010.06.03 11:33:40.
