data_PCOD9014236
_publ_section_title
;
Structure prediction by ZEFSAII (Michael W. Deem and Ramdas Pophale) SiO2 
 PCOD9014236
Probable space group: P -1
;
_chemical_formula_sum "Si O2"
_cell_formula_units_Z 16
_cell_length_a 8.447689
_cell_length_b 18.705700
_cell_length_c 22.229078
_cell_angle_alpha 161.302582
_cell_angle_beta 40.664250
_cell_angle_gamma 142.967680
_cell_volume 678.128010
_symmetry_space_group_name_H-M "P -1"
_symmetry_group_IT_number 2
_symmetry_cell_setting 'triclinic'
loop_
_space_group_symop_operation_xyz
x,y,z
-x,-y,-z
loop_
_atom_site_type_symbol
_atom_site_label
_atom_site_fract_x
_atom_site_fract_y
_atom_site_fract_z
Si Si1 0.206939 0.275669 0.171713
Si Si2 0.281609 0.433643 0.150814
Si Si3 0.847739 0.086855 0.428524
Si Si4 0.289487 0.963700 0.982461
Si Si5 0.537081 0.727868 0.628428
Si Si6 0.482523 0.784982 0.188394
Si Si7 0.575281 0.277212 0.480804
Si Si8 0.003098 0.816826 0.404303
O O1 0.182349 0.528403 0.397245
O O2 0.373208 0.357877 0.127797
O O3 0.292037 0.220853 0.168866
O O4 0.000000 0.000000 0.000000
O O5 0.443886 0.400172 0.021148
O O6 0.244965 0.686159 0.366774
O O7 0.986625 0.229723 0.070391
O O8 0.668320 0.890051 0.276465
O O9 0.858436 0.045828 0.464818
O O10 0.149034 0.152582 0.374922
O O11 0.401026 0.874808 0.821964
O O12 0.500000 0.000000 0.000000
O O13 0.500000 0.500000 0.500000
O O14 0.408860 0.710529 0.585657
O O15 0.527270 0.015241 0.314465
O O16 0.185534 0.685593 0.220519
O O17 0.305112 0.324809 0.608220
O O18 0.000000 0.000000 0.500000
#
# Coordination Sequence:
#
# PCOD9014236 Si02
#       8
#     2   2   2   2   2   2   2   2
#     4  10  22  40  59  92 131 165 207 264 310 378
#     4  11  23  40  60  96 128 161 216 257 314 388
#     4  11  22  41  67  92 129 166 209 263 318 379
#     4  11  22  38  58  88 130 164 211 261 301 377
#     4  11  21  37  61  91 122 172 211 245 322 378
#     4  11  22  42  67  91 125 168 212 266 324 367
#     4  10  21  41  67  88 128 171 210 266 316 373
#     4   9  22  42  69  93 121 166 217 264 317 375
#
# _framework density 23.594366000000001
#
# number of rings (size 3 to 8) (size 9 to 14) (size 15 to 20)
#    0.000    1.500    2.500    2.625    1.750    1.500 
#    0.000    5.000    2.750    0.000    0.000    0.000 
#    0.000    0.000    0.000    0.000    0.000    0.000 
#
# Total GULP energy -89223.881092 kJ/mol
# GULP energy per Si atom -5576.492568 kJ/mol
# Density = 2.354066 g / cm^3
# Si number density = 23.594366 Si / 1000 Ang^3
#
#
#
# Elastic Constant Matrix: (Units=GPa)
#
#
# Indices 1 2 3 4 5 6 
#
# 1 115.2691 32.5432 9.5042 -2.2648 12.8799 -26.0712
# 2 32.5432 92.4013 13.7291 -22.7580 4.8292 -3.5922
# 3 9.5042 13.7291 65.0488 -19.0268 1.5998 2.2679
# 4 -2.2648 -22.7580 -19.0268 50.0213 -4.5453 -9.7581
# 5 12.8799 4.8292 1.5998 -4.5453 34.4346 -6.8055
# 6 -26.0712 -3.5922 2.2679 -9.7581 -6.8055 46.8044
#
#
#
# Elastic Compliance Matrix: (Units=1/GPa)
#
#
# Indices 1 2 3 4 5 6 
#
# 1 0.011347 -0.003648 -0.001244 -0.000780 -0.002681 0.005548
# 2 -0.003648 0.013650 -0.000644 0.005892 0.000321 0.000322
# 3 -0.001244 -0.000644 0.017536 0.006333 0.000538 -0.000193
# 4 -0.000780 0.005892 0.006333 0.026523 0.003818 0.005796
# 5 -0.002681 0.000321 0.000538 0.003818 0.031237 0.003843
# 6 0.005548 0.000322 -0.000193 0.005796 0.003843 0.026257
#
#
# Mechanical properties :
#
#
# Convention : Reuss Voigt Hill
#
# Bulk Modulus (GPa) = 31.78363 42.69691 37.24027
# Shear Modulus (GPa) = 33.75915 40.71490 37.23702
#
# Velocity S-wave (km/s) = 3.78671 4.15856 3.97699
# Velocity P-wave (km/s) = 5.71131 6.41823 6.07506
#
# Compressibility (1/GPa) = 0.03146273
#
# Stress axis : x y z
#
# Youngs Moduli (GPa) = 88.12950 73.26176 57.02431
#
# Poissons Ratio (x) = 0.26725 0.07092
# Poissons Ratio (y) = 0.32149 0.03670
# Poissons Ratio (z) = 0.10961 0.04715
#
# Static dielectric constant tensor:
#      x y z
#    x 47.593530 -0.293430 5.988320 
#    y -0.293430 1.900060 -0.064020 
#    z 5.988320 -0.064020 2.678960 
# 
# From -- ./inp_files/456873.got.cif
#   From: 2010.05.17/outbox.cif.g08.bks.cpg/sg2_229_cif.got.tgz:456873.got - 2010.06.03 11:33:40.
