data_PCOD9015749
_publ_section_title
;
Structure prediction by ZEFSAII (Michael W. Deem and Ramdas Pophale) SiO2 
 PCOD9015749
Probable space group: P -1
;
_chemical_formula_sum "Si O2"
_cell_formula_units_Z 16
_cell_length_a 24.043904
_cell_length_b 5.333099
_cell_length_c 18.755650
_cell_angle_alpha 111.108425
_cell_angle_beta 17.331144
_cell_angle_gamma 103.250598
_cell_volume 608.920542
_symmetry_space_group_name_H-M "P -1"
_symmetry_group_IT_number 2
_symmetry_cell_setting 'triclinic'
loop_
_space_group_symop_operation_xyz
x,y,z
-x,-y,-z
loop_
_atom_site_type_symbol
_atom_site_label
_atom_site_fract_x
_atom_site_fract_y
_atom_site_fract_z
Si Si1 0.469366 0.016807 0.347824
Si Si2 0.579579 0.750001 0.319696
Si Si3 0.805227 0.299039 0.546415
Si Si4 0.178718 0.634189 0.782686
Si Si5 0.391964 0.210853 0.051179
Si Si6 0.864490 0.176690 0.300844
Si Si7 0.200307 0.799041 0.073899
Si Si8 0.221397 0.727925 0.196367
O O1 0.276135 0.291998 0.646513
O O2 0.361001 0.826779 0.426280
O O3 0.624035 0.896771 0.211324
O O4 0.603075 0.124231 0.145303
O O5 0.374703 0.708953 0.547661
O O6 0.500000 0.000000 0.500000
O O7 0.752764 0.421784 0.074172
O O8 0.708750 0.617955 0.734688
O O9 0.878012 0.292343 0.374485
O O10 0.625079 0.180192 0.757816
O O11 0.993922 0.079242 0.340202
O O12 0.108532 0.664947 0.788642
O O13 0.032718 0.847977 0.042603
O O14 0.272558 0.456622 0.160638
O O15 0.368869 0.901551 0.044957
O O16 0.207323 0.632141 0.122337
O O17 0.000000 0.000000 0.500000
#
# Coordination Sequence:
#
# PCOD9015749 Si02
#       8
#     2   2   2   2   2   2   2   2
#     4  10  22  41  68  92 137 191 239 294 359 451
#     4  10  24  41  64 102 141 182 244 312 366 436
#     4  11  26  46  71 110 148 192 245 319 378 445
#     4   9  21  40  63  95 133 191 238 288 364 439
#     4  11  28  53  76 114 153 198 246 318 387 441
#     4  10  21  42  64  99 137 185 241 293 366 448
#     4  11  26  44  71 107 136 199 246 299 380 449
#     4  12  26  52  82 108 152 198 254 308 376 465
#
# _framework density 26.276008000000001
#
# number of rings (size 3 to 8) (size 9 to 14) (size 15 to 20)
#    0.000    1.500    1.250    1.500   10.500    3.000 
#    4.500    0.000    0.000    0.000    0.000    0.000 
#    0.000    0.000    0.000    0.000    0.000    0.000 
#
# Total GULP energy -89381.357554 kJ/mol
# GULP energy per Si atom -5586.334847 kJ/mol
# Density = 2.621620 g / cm^3
# Si number density = 26.276008 Si / 1000 Ang^3
#
#
#
# Elastic Constant Matrix: (Units=GPa)
#
#
# Indices 1 2 3 4 5 6 
#
# 1 125.5792 24.9872 40.1177 10.9184 37.1390 2.8256
# 2 24.9872 82.2222 3.7749 14.1003 7.7646 5.1770
# 3 40.1177 3.7749 114.0476 18.4188 13.5715 2.4349
# 4 10.9184 14.1003 18.4188 36.7627 9.0233 3.1883
# 5 37.1390 7.7646 13.5715 9.0233 53.0612 5.3024
# 6 2.8256 5.1770 2.4349 3.1883 5.3024 23.9600
#
#
#
# Elastic Compliance Matrix: (Units=1/GPa)
#
#
# Indices 1 2 3 4 5 6 
#
# 1 0.011603 -0.002939 -0.003321 0.001001 -0.007116 0.001046
# 2 -0.002939 0.013947 0.001361 -0.005149 0.000773 -0.002291
# 3 -0.003321 0.001361 0.010660 -0.004909 0.000273 -0.000393
# 4 0.001001 -0.005149 -0.004909 0.032495 -0.004024 -0.001940
# 5 -0.007116 0.000773 0.000273 -0.004024 0.024758 -0.004299
# 6 0.001046 -0.002291 -0.000393 -0.001940 -0.004299 0.043357
#
#
# Mechanical properties :
#
#
# Convention : Reuss Voigt Hill
#
# Bulk Modulus (GPa) = 37.86299 51.06763 44.46531
# Shear Modulus (GPa) = 32.17003 39.62139 35.89571
#
# Velocity S-wave (km/s) = 3.50281 3.88737 3.70009
# Velocity P-wave (km/s) = 5.54983 6.29493 5.93409
#
# Compressibility (1/GPa) = 0.02641101
#
# Stress axis : x y z
#
# Youngs Moduli (GPa) = 86.18432 71.69875 93.80555
#
# Poissons Ratio (x) = 0.21074 0.31157
# Poissons Ratio (y) = 0.25331 -0.12765
# Poissons Ratio (z) = 0.28626 -0.09757
#
# Static dielectric constant tensor:
#      x y z
#    x 0.392320 1.434250 1.040490 
#    y 1.434250 0.956790 -0.866140 
#    z 1.040490 -0.866140 1.505650 
# 
# From -- ./inp_files/578757.got.cif
#   From: 2010.05.17/outbox.cif.g08.bks.cpg/sg2_290_cif.got.tgz:578757.got - 2010.06.03 11:33:40.
