data_PCOD9015227
_publ_section_title
;
Structure prediction by ZEFSAII (Michael W. Deem and Ramdas Pophale) SiO2 
 PCOD9015227
Probable space group: P -1
;
_chemical_formula_sum "Si O2"
_cell_formula_units_Z 14
_cell_length_a 9.151893
_cell_length_b 11.466848
_cell_length_c 11.868810
_cell_angle_alpha 34.543325
_cell_angle_beta 48.175602
_cell_angle_gamma 54.388312
_cell_volume 524.694937
_symmetry_space_group_name_H-M "P -1"
_symmetry_group_IT_number 2
_symmetry_cell_setting 'triclinic'
loop_
_space_group_symop_operation_xyz
x,y,z
-x,-y,-z
loop_
_atom_site_type_symbol
_atom_site_label
_atom_site_fract_x
_atom_site_fract_y
_atom_site_fract_z
Si Si1 0.085058 0.817166 0.755412
Si Si2 0.001037 0.441837 0.370705
Si Si3 0.607770 0.432309 0.318488
Si Si4 0.594513 0.423017 0.895167
Si Si5 0.767444 0.822409 0.730423
Si Si6 0.057526 0.966977 0.127827
Si Si7 0.368996 0.252985 0.757294
O O1 0.189964 0.605331 0.823997
O O2 0.884940 0.862434 0.752448
O O3 0.057218 0.865201 0.862132
O O4 0.234509 0.977371 0.506170
O O5 0.172724 0.581155 0.212667
O O6 0.090600 0.338437 0.290954
O O7 0.800852 0.582162 0.339781
O O8 0.971765 0.252957 0.622720
O O9 0.451250 0.422497 0.307806
O O10 0.560964 0.273253 0.567191
O O11 0.596376 0.648189 0.218293
O O12 0.500000 0.500000 0.000000
O O13 0.451920 0.242474 0.088584
O O14 0.278677 0.035179 0.974914
O O15 0.000000 0.000000 0.000000
#
# Coordination Sequence:
#
# PCOD9015227 Si02
#       7
#     2   2   2   2   2   2   2
#     4  10  21  41  73 100 138 171 231 288 330 414
#     4  10  22  46  68  97 142 181 224 283 342 411
#     4  11  24  44  68 106 132 176 237 280 338 409
#     4  10  22  39  63 100 137 172 227 274 345 404
#     4   9  19  40  70 103 130 176 227 283 347 396
#     4  11  25  43  68 102 136 184 226 274 352 405
#     4  11  25  47  72  97 141 182 228 288 338 401
#
# _framework density 26.682168000000001
#
# number of rings (size 3 to 8) (size 9 to 14) (size 15 to 20)
#    0.000    1.714    1.429    1.714    4.000    3.429 
#    7.714    5.714    0.000    0.000    0.000    0.000 
#    0.000    0.000    0.000    0.000    0.000    0.000 
#
# Total GULP energy -78336.240678 kJ/mol
# GULP energy per Si atom -5595.445763 kJ/mol
# Density = 2.662144 g / cm^3
# Si number density = 26.682168 Si / 1000 Ang^3
#
#
#
# Elastic Constant Matrix: (Units=GPa)
#
#
# Indices 1 2 3 4 5 6 
#
# 1 131.3762 44.9399 48.1869 5.7474 8.1151 23.0193
# 2 44.9399 156.2173 44.3413 43.7102 16.4451 13.3712
# 3 48.1869 44.3413 188.8910 11.8426 -5.7261 16.2408
# 4 5.7474 43.7102 11.8426 38.2163 13.6705 15.6495
# 5 8.1151 16.4451 -5.7261 13.6705 54.2830 9.1654
# 6 23.0193 13.3712 16.2408 15.6495 9.1654 37.9001
#
#
#
# Elastic Compliance Matrix: (Units=1/GPa)
#
#
# Indices 1 2 3 4 5 6 
#
# 1 0.010392 -0.003544 -0.001666 0.006096 -0.001076 -0.006605
# 2 -0.003544 0.011255 -0.001274 -0.013647 -0.000328 0.004442
# 3 -0.001666 -0.001274 0.006207 -0.000163 0.001587 -0.001515
# 4 0.006096 -0.013647 -0.000163 0.050672 -0.006487 -0.018172
# 5 -0.001076 -0.000328 0.001587 -0.006487 0.020868 -0.002279
# 6 -0.006605 0.004442 -0.001515 -0.018172 -0.002279 0.037533
#
#
# Mechanical properties :
#
#
# Convention : Reuss Voigt Hill
#
# Bulk Modulus (GPa) = 67.17831 83.49117 75.33474
# Shear Modulus (GPa) = 32.28783 48.68098 40.48441
#
# Velocity S-wave (km/s) = 3.48241 4.27602 3.89946
# Velocity P-wave (km/s) = 6.43440 7.46579 6.96920
#
# Compressibility (1/GPa) = 0.01488576
#
# Stress axis : x y z
#
# Youngs Moduli (GPa) = 96.22744 88.84644 161.11473
#
# Poissons Ratio (x) = 0.31485 0.26844
# Poissons Ratio (y) = 0.34101 0.20532
# Poissons Ratio (z) = 0.16033 0.11322
#
# Static dielectric constant tensor:
#      x y z
#    x 2.234230 -0.300320 -0.124250 
#    y -0.300320 2.621370 0.141740 
#    z -0.124250 0.141740 2.166980 
# 
# From -- ./inp_files/391806.got.cif
#   From: 2010.05.17/outbox.cif.g08.bks.cpg/sg2_196_cif.got.tgz:391806.got - 2010.06.03 11:33:40.
