data_PCOD9015957
_publ_section_title
;
Structure prediction by ZEFSAII (Michael W. Deem and Ramdas Pophale) SiO2 
 PCOD9015957
Probable space group: P -1
;
_chemical_formula_sum "Si O2"
_cell_formula_units_Z 14
_cell_length_a 12.072885
_cell_length_b 9.109360
_cell_length_c 7.344503
_cell_angle_alpha 48.210229
_cell_angle_beta 107.765473
_cell_angle_gamma 112.684440
_cell_volume 554.284567
_symmetry_space_group_name_H-M "P -1"
_symmetry_group_IT_number 2
_symmetry_cell_setting 'triclinic'
loop_
_space_group_symop_operation_xyz
x,y,z
-x,-y,-z
loop_
_atom_site_type_symbol
_atom_site_label
_atom_site_fract_x
_atom_site_fract_y
_atom_site_fract_z
Si Si1 0.326600 0.232170 0.136948
Si Si2 0.163165 0.139249 0.572597
Si Si3 0.734834 0.213115 0.564153
Si Si4 0.409538 0.667390 0.917570
Si Si5 0.887166 0.647861 0.275282
Si Si6 0.985375 0.712819 0.890947
Si Si7 0.644163 0.057754 0.043721
O O1 0.379752 0.425808 0.132398
O O2 0.230425 0.291683 0.910171
O O3 0.448510 0.231783 0.087245
O O4 0.268250 0.000715 0.358046
O O5 0.100834 0.248759 0.607372
O O6 0.137843 0.251040 0.284883
O O7 0.088759 0.904130 0.719508
O O8 0.295333 0.120740 0.711618
O O9 0.631990 0.288323 0.342757
O O10 0.851985 0.401890 0.458382
O O11 0.704876 0.156308 0.805689
O O12 0.335521 0.768309 0.935317
O O13 0.018345 0.277747 0.900080
O O14 0.000000 0.500000 0.000000
O O15 0.500000 0.000000 0.000000
#
# Coordination Sequence:
#
# PCOD9015957 Si02
#       7
#     2   2   2   2   2   2   2
#     4  10  21  42  66 100 143 191 242 284 368 421
#     4  11  27  49  76 107 147 191 243 301 364 433
#     4  11  24  41  68 104 144 192 235 286 368 426
#     4  10  23  41  65 100 148 194 238 298 345 432
#     4  11  25  45  72 104 143 186 238 308 362 431
#     4  11  29  50  76 108 138 194 254 299 370 424
#     4  12  25  45  75 111 147 193 241 291 359 439
#
# _framework density 25.257784999999998
#
# number of rings (size 3 to 8) (size 9 to 14) (size 15 to 20)
#    0.000    1.143    2.857    0.857    8.000    1.714 
#    0.000    7.143    0.000    0.000    0.000    0.000 
#    0.000    0.000    0.000    0.000    0.000    0.000 
#
# Total GULP energy -78329.588967 kJ/mol
# GULP energy per Si atom -5594.970640 kJ/mol
# Density = 2.520030 g / cm^3
# Si number density = 25.257785 Si / 1000 Ang^3
#
#
#
# Elastic Constant Matrix: (Units=GPa)
#
#
# Indices 1 2 3 4 5 6 
#
# 1 69.4184 13.6615 44.0310 -2.5041 9.7745 -11.7881
# 2 13.6615 116.1603 32.8011 -36.1295 -4.3368 -18.9263
# 3 44.0310 32.8011 144.6112 -4.3514 10.9798 -0.0954
# 4 -2.5041 -36.1295 -4.3514 56.8433 1.2041 -3.1059
# 5 9.7745 -4.3368 10.9798 1.2041 44.2097 -2.9564
# 6 -11.7881 -18.9263 -0.0954 -3.1059 -2.9564 46.0245
#
#
#
# Elastic Compliance Matrix: (Units=1/GPa)
#
#
# Indices 1 2 3 4 5 6 
#
# 1 0.019175 0.000371 -0.005702 0.000967 -0.002482 0.004958
# 2 0.000371 0.013116 -0.002992 0.008416 0.002132 0.006187
# 3 -0.005702 -0.002992 0.009396 -0.001559 -0.001516 -0.002874
# 4 0.000967 0.008416 -0.001559 0.023140 0.000724 0.005314
# 5 -0.002482 0.002132 -0.001516 0.000724 0.023856 0.001819
# 6 0.004958 0.006187 -0.002874 0.005314 0.001819 0.026011
#
#
# Mechanical properties :
#
#
# Convention : Reuss Voigt Hill
#
# Bulk Modulus (GPa) = 39.93517 56.79745 48.36631
# Shear Modulus (GPa) = 35.79416 45.39523 40.59469
#
# Velocity S-wave (km/s) = 3.76859 4.24403 4.01336
# Velocity P-wave (km/s) = 5.89761 6.82288 6.37704
#
# Compressibility (1/GPa) = 0.02504059
#
# Stress axis : x y z
#
# Youngs Moduli (GPa) = 52.15060 76.24490 106.42563
#
# Poissons Ratio (x) = -0.02828 0.60681
# Poissons Ratio (y) = -0.01934 0.31847
# Poissons Ratio (z) = 0.29735 0.22816
#
# Static dielectric constant tensor:
#      x y z
#    x 2.023870 -0.010120 0.027160 
#    y -0.010120 2.029700 0.005740 
#    z 0.027160 0.005740 1.972330 
# 
# From -- ./inp_files/291719.got.cif
#   From: 2010.05.17/outbox.cif.g08.bks.cpg/sg2_146_cif.got.tgz:291719.got - 2010.06.03 11:33:40.
