data_PCOD9015454
_publ_section_title
;
Structure prediction by ZEFSAII (Michael W. Deem and Ramdas Pophale) SiO2 
 PCOD9015454
Probable space group: P -1
;
_chemical_formula_sum "Si O2"
_cell_formula_units_Z 16
_cell_length_a 10.076869
_cell_length_b 15.729474
_cell_length_c 10.676058
_cell_angle_alpha 61.927625
_cell_angle_beta 76.049450
_cell_angle_gamma 129.059023
_cell_volume 718.733250
_symmetry_space_group_name_H-M "P -1"
_symmetry_group_IT_number 2
_symmetry_cell_setting 'triclinic'
loop_
_space_group_symop_operation_xyz
x,y,z
-x,-y,-z
loop_
_atom_site_type_symbol
_atom_site_label
_atom_site_fract_x
_atom_site_fract_y
_atom_site_fract_z
Si Si1 0.222125 0.716356 0.837450
Si Si2 0.537182 0.125809 0.840297
Si Si3 0.841497 0.119357 0.376472
Si Si4 0.872222 0.866355 0.838121
Si Si5 0.550984 0.447384 0.624202
Si Si6 0.004869 0.322197 0.445822
Si Si7 0.744965 0.890023 0.208565
Si Si8 0.576189 0.262544 0.991414
O O1 0.117254 0.758751 0.799913
O O2 0.524584 0.893184 0.581133
O O3 0.304340 0.746165 0.941048
O O4 0.000000 0.500000 0.000000
O O5 0.293218 0.023526 0.885539
O O6 0.583165 0.226992 0.874193
O O7 0.784880 0.261173 0.594656
O O8 0.500000 0.000000 0.000000
O O9 0.059562 0.171109 0.254827
O O10 0.876944 0.173989 0.474740
O O11 0.673523 0.700105 0.108738
O O12 0.723364 0.872971 0.822891
O O13 0.163933 0.065666 0.700797
O O14 0.500000 0.500000 0.500000
O O15 0.839918 0.631961 0.503812
O O16 0.516848 0.330413 0.627694
O O17 0.229068 0.525647 0.185701
O O18 0.000000 0.000000 0.000000
#
# Coordination Sequence:
#
# PCOD9015454 Si02
#       8
#     2   2   2   2   2   2   2   2
#     4  11  25  47  70 100 140 183 239 291 341 422
#     4  12  25  39  70  99 135 185 232 296 359 414
#     4  11  26  47  72 103 139 188 235 282 355 424
#     4  10  24  45  70  97 146 182 231 285 345 428
#     4  10  23  42  69 103 139 182 228 292 354 412
#     4  11  24  44  67 102 143 177 241 287 349 428
#     4  10  21  42  62  97 134 177 226 286 344 410
#     4  11  23  45  68 101 137 185 232 295 355 409
#
# _framework density 22.261386000000002
#
# number of rings (size 3 to 8) (size 9 to 14) (size 15 to 20)
#    0.000    1.250    5.000    1.125    8.750    3.500 
#    2.250    0.000    0.000    0.000    0.000    0.000 
#    0.000    0.000    0.000    0.000    0.000    0.000 
#
# Total GULP energy -89310.770035 kJ/mol
# GULP energy per Si atom -5581.923127 kJ/mol
# Density = 2.221072 g / cm^3
# Si number density = 22.261386 Si / 1000 Ang^3
#
#
#
# Elastic Constant Matrix: (Units=GPa)
#
#
# Indices 1 2 3 4 5 6 
#
# 1 147.8442 51.6582 23.3462 2.3551 -7.9752 16.7336
# 2 51.6582 112.2208 26.5771 -8.1609 -24.8847 -1.3999
# 3 23.3462 26.5771 39.0253 -10.1867 -5.4936 -5.3699
# 4 2.3551 -8.1609 -10.1867 29.1786 -12.0766 -2.5898
# 5 -7.9752 -24.8847 -5.4936 -12.0766 38.1670 5.1346
# 6 16.7336 -1.3999 -5.3699 -2.5898 5.1346 37.4600
#
#
#
# Elastic Compliance Matrix: (Units=1/GPa)
#
#
# Indices 1 2 3 4 5 6 
#
# 1 0.009604 -0.004137 -0.005369 -0.005277 -0.002427 -0.005247
# 2 -0.004137 0.014579 -0.003957 0.007366 0.010277 0.000926
# 3 -0.005369 -0.003957 0.037399 0.015352 0.005473 0.007923
# 4 -0.005277 0.007366 0.015352 0.051486 0.021467 0.005450
# 5 -0.002427 0.010277 0.005473 0.021467 0.040213 -0.001775
# 6 -0.005247 0.000926 0.007923 0.005450 -0.001775 0.030829
#
#
# Mechanical properties :
#
#
# Convention : Reuss Voigt Hill
#
# Bulk Modulus (GPa) = 28.85492 55.80593 42.33042
# Shear Modulus (GPa) = 22.46302 34.12837 28.29569
#
# Velocity S-wave (km/s) = 3.18001 3.91970 3.56907
# Velocity P-wave (km/s) = 5.14522 6.75339 6.00340
#
# Compressibility (1/GPa) = 0.03465614
#
# Stress axis : x y z
#
# Youngs Moduli (GPa) = 104.12127 68.59406 26.73871
#
# Poissons Ratio (x) = 0.28376 0.14357
# Poissons Ratio (y) = 0.43074 0.10579
# Poissons Ratio (z) = 0.55906 0.27140
#
# Static dielectric constant tensor:
#      x y z
#    x 1.806510 0.060540 0.065450 
#    y 0.060540 1.824410 -0.104530 
#    z 0.065450 -0.104530 1.787670 
# 
# From -- ./inp_files/398783.got.cif
#   From: 2010.05.17/outbox.cif.g08.bks.cpg/sg2_200_cif.got.tgz:398783.got - 2010.06.03 11:33:40.
