data_PCOD9015817
_publ_section_title
;
Structure prediction by ZEFSAII (Michael W. Deem and Ramdas Pophale) SiO2 
 PCOD9015817
Probable space group: P -1
;
_chemical_formula_sum "Si O2"
_cell_formula_units_Z 12
_cell_length_a 8.593436
_cell_length_b 7.452706
_cell_length_c 13.421845
_cell_angle_alpha 85.023928
_cell_angle_beta 44.237162
_cell_angle_gamma 109.440515
_cell_volume 491.565534
_symmetry_space_group_name_H-M "P -1"
_symmetry_group_IT_number 2
_symmetry_cell_setting 'triclinic'
loop_
_space_group_symop_operation_xyz
x,y,z
-x,-y,-z
loop_
_atom_site_type_symbol
_atom_site_label
_atom_site_fract_x
_atom_site_fract_y
_atom_site_fract_z
Si Si1 0.021284 0.628874 0.116880
Si Si2 0.311799 0.073822 0.540478
Si Si3 0.494846 0.973497 0.746922
Si Si4 0.089536 0.685476 0.306545
Si Si5 0.529385 0.646751 0.359013
Si Si6 0.185099 0.380426 0.173676
O O1 0.110032 0.753759 0.177863
O O2 0.035794 0.425622 0.151467
O O3 0.737645 0.593914 0.226433
O O4 0.234601 0.767509 0.927444
O O5 0.377513 0.094575 0.393087
O O6 0.998895 0.877233 0.710630
O O7 0.500000 0.000000 0.500000
O O8 0.404461 0.277597 0.558842
O O9 0.713736 0.113536 0.724785
O O10 0.426467 0.140264 0.725752
O O11 0.214608 0.452782 0.505870
O O12 0.163324 0.506640 0.271381
O O13 0.500000 0.500000 0.000000
#
# Coordination Sequence:
#
# PCOD9015817 Si02
#       6
#     2   2   2   2   2   2
#     4  10  23  41  66  98 126 169 214 264 317 382
#     4  10  21  42  65  91 131 170 207 258 321 377
#     4  11  21  40  67 101 126 165 215 262 317 382
#     4  10  22  40  68  91 130 168 216 254 323 375
#     4  11  22  42  69  93 131 169 210 263 321 379
#     4  10  23  42  66  89 131 171 212 258 321 374
#
# _framework density 24.411798000000001
#
# number of rings (size 3 to 8) (size 9 to 14) (size 15 to 20)
#    1.000    0.667    3.333    2.000    2.333    0.000 
#    0.000   10.833    0.000    0.000    0.000    0.000 
#    0.000    0.000    0.000    0.000    0.000    0.000 
#
# Total GULP energy -67141.324915 kJ/mol
# GULP energy per Si atom -5595.110410 kJ/mol
# Density = 2.435624 g / cm^3
# Si number density = 24.411798 Si / 1000 Ang^3
#
#
#
# Elastic Constant Matrix: (Units=GPa)
#
#
# Indices 1 2 3 4 5 6 
#
# 1 76.9560 47.8305 60.9190 11.5933 -25.8722 0.7407
# 2 47.8305 79.3877 38.1500 1.9438 -17.0994 1.1300
# 3 60.9190 38.1500 177.9794 -13.8898 -26.8643 8.7366
# 4 11.5933 1.9438 -13.8898 24.2836 1.6125 4.6996
# 5 -25.8722 -17.0994 -26.8643 1.6125 55.5730 -1.2074
# 6 0.7407 1.1300 8.7366 4.6996 -1.2074 43.0657
#
#
#
# Elastic Compliance Matrix: (Units=1/GPa)
#
#
# Indices 1 2 3 4 5 6 
#
# 1 0.036522 -0.014837 -0.010123 -0.023483 0.008326 0.004611
# 2 -0.014837 0.020813 0.001146 0.006319 -0.000159 -0.001217
# 3 -0.010123 0.001146 0.009845 0.010961 0.000015 -0.003049
# 4 -0.023483 0.006319 0.010961 0.060215 -0.005626 -0.008714
# 5 0.008326 -0.000159 0.000015 -0.005626 0.022016 0.001089
# 6 0.004611 -0.001217 -0.003049 -0.008714 0.001089 0.024773
#
#
# Mechanical properties :
#
#
# Convention : Reuss Voigt Hill
#
# Bulk Modulus (GPa) = 51.14374 69.79133 60.46753
# Shear Modulus (GPa) = 21.89826 37.07937 29.48882
#
# Velocity S-wave (km/s) = 2.99830 3.90155 3.47936
# Velocity P-wave (km/s) = 5.74303 6.99624 6.40038
#
# Compressibility (1/GPa) = 0.01955273
#
# Stress axis : x y z
#
# Youngs Moduli (GPa) = 27.38101 48.04661 101.57287
#
# Poissons Ratio (x) = 0.71286 1.02819
# Poissons Ratio (y) = 0.40625 -0.11640
# Poissons Ratio (z) = 0.27717 -0.05506
#
# Static dielectric constant tensor:
#      x y z
#    x 1.967600 -0.045010 0.048230 
#    y -0.045010 1.986260 -0.020110 
#    z 0.048230 -0.020110 1.919930 
# 
# From -- ./inp_files/378182.got.cif
#   From: 2010.05.17/outbox.cif.g08.bks.cpg/sg2_190_cif.got.tgz:378182.got - 2010.06.03 11:33:40.
