data_PCOD9015694
_publ_section_title
;
Structure prediction by ZEFSAII (Michael W. Deem and Ramdas Pophale) SiO2 
 PCOD9015694
Probable space group: P -1
;
_chemical_formula_sum "Si O2"
_cell_formula_units_Z 14
_cell_length_a 26.593928
_cell_length_b 5.448396
_cell_length_c 6.862163
_cell_angle_alpha 109.888723
_cell_angle_beta 138.581348
_cell_angle_gamma 64.134701
_cell_volume 591.740310
_symmetry_space_group_name_H-M "P -1"
_symmetry_group_IT_number 2
_symmetry_cell_setting 'triclinic'
loop_
_space_group_symop_operation_xyz
x,y,z
-x,-y,-z
loop_
_atom_site_type_symbol
_atom_site_label
_atom_site_fract_x
_atom_site_fract_y
_atom_site_fract_z
Si Si1 0.127458 0.899256 0.740203
Si Si2 0.412801 0.081664 0.859456
Si Si3 0.715139 0.942048 0.842564
Si Si4 0.651348 0.269163 0.133033
Si Si5 0.035854 0.223665 0.256633
Si Si6 0.796544 0.389989 0.784354
Si Si7 0.882756 0.553364 0.727940
O O1 0.120213 0.677630 0.500360
O O2 0.062913 0.164953 0.540358
O O3 0.213656 0.942170 0.984109
O O4 0.126688 0.803527 0.934421
O O5 0.387315 0.405386 0.924658
O O6 0.351879 0.038150 0.507664
O O7 0.403874 0.880143 0.952006
O O8 0.500000 0.000000 0.000000
O O9 0.756135 0.617219 0.889866
O O10 0.677098 0.101631 0.965910
O O11 0.731544 0.250148 0.483981
O O12 0.113731 0.209729 0.347636
O O13 0.965138 0.492837 0.073368
O O14 0.000000 0.000000 0.000000
O O15 0.818966 0.547376 0.705637
#
# Coordination Sequence:
#
# PCOD9015694 Si02
#       7
#     2   2   2   2   2   2   2
#     4  11  21  40  64  97 133 180 238 293 351 424
#     4  11  26  47  74 109 146 186 234 284 351 429
#     4  11  25  41  69 102 140 184 236 281 361 419
#     4  11  25  45  73 105 146 186 231 295 348 419
#     4   9  21  39  64  93 135 181 234 297 363 423
#     4  11  24  40  69 102 135 186 240 295 352 429
#     4  10  21  42  64  94 137 182 233 302 359 419
#
# _framework density 23.659025
#
# number of rings (size 3 to 8) (size 9 to 14) (size 15 to 20)
#    0.000    1.429    2.857    1.286    2.000    6.286 
#    0.000   10.000    0.000    0.000    0.000    0.000 
#    0.000    0.000    0.000    0.000    0.000    0.000 
#
# Total GULP energy -78262.484157 kJ/mol
# GULP energy per Si atom -5590.177440 kJ/mol
# Density = 2.360518 g / cm^3
# Si number density = 23.659025 Si / 1000 Ang^3
#
#
#
# Elastic Constant Matrix: (Units=GPa)
#
#
# Indices 1 2 3 4 5 6 
#
# 1 69.9047 22.4693 2.7104 34.0108 15.8370 11.7309
# 2 22.4693 77.7108 20.8546 23.9014 -11.0664 10.6149
# 3 2.7104 20.8546 44.4965 20.9283 0.9986 -6.2185
# 4 34.0108 23.9014 20.9283 35.9005 -11.1976 -2.5806
# 5 15.8370 -11.0664 0.9986 -11.1976 42.6409 8.6362
# 6 11.7309 10.6149 -6.2185 -2.5806 8.6362 40.7183
#
#
#
# Elastic Compliance Matrix: (Units=1/GPa)
#
#
# Indices 1 2 3 4 5 6 
#
# 1 0.377087 -0.042225 0.276195 -0.587626 -0.306169 -0.027755
# 2 -0.042225 0.023267 -0.036950 0.057795 0.038587 -0.004065
# 3 0.276195 -0.036950 0.237747 -0.449285 -0.233157 -0.012653
# 4 -0.587626 0.057795 -0.449285 0.963293 0.487988 0.043164
# 5 -0.306169 0.038587 -0.233157 0.487988 0.277840 0.014538
# 6 -0.027755 -0.004065 -0.012653 0.043164 0.014538 0.031335
#
#
# Mechanical properties :
#
#
# Convention : Reuss Voigt Hill
#
# Bulk Modulus (GPa) = 0.96886 31.57561 16.27224
# Shear Modulus (GPa) = 2.68734 33.59048 18.13891
#
# Velocity S-wave (km/s) = 1.06692 3.77208 2.77190
# Velocity P-wave (km/s) = 1.38859 5.68740 4.13973
#
# Compressibility (1/GPa) = 1.03214202
#
# Stress axis : x y z
#
# Youngs Moduli (GPa) = 2.65190 42.97861 4.20615
#
# Poissons Ratio (x) = 1.81477 -1.16172
# Poissons Ratio (y) = 0.11198 0.15542
# Poissons Ratio (z) = -0.73244 1.58806
#
# Static dielectric constant tensor:
#      x y z
#    x 1.921990 0.030290 -0.012730 
#    y 0.030290 2.099800 -0.066580 
#    z -0.012730 -0.066580 1.845590 
# 
# From -- ./inp_files/10405.got.cif
#   From: 2010.05.17/outbox.cif.g08.bks.cpg/sg2_6_cif.got.tgz:10405.got - 2010.06.03 11:33:40.
