data_PCOD9015114
_publ_section_title
;
Structure prediction by ZEFSAII (Michael W. Deem and Ramdas Pophale) SiO2 
 PCOD9015114
Probable space group: P -1
;
_chemical_formula_sum "Si O2"
_cell_formula_units_Z 16
_cell_length_a 5.060105
_cell_length_b 9.353947
_cell_length_c 15.015195
_cell_angle_alpha 78.403398
_cell_angle_beta 102.428090
_cell_angle_gamma 95.306080
_cell_volume 678.976952
_symmetry_space_group_name_H-M "P -1"
_symmetry_group_IT_number 2
_symmetry_cell_setting 'triclinic'
loop_
_space_group_symop_operation_xyz
x,y,z
-x,-y,-z
loop_
_atom_site_type_symbol
_atom_site_label
_atom_site_fract_x
_atom_site_fract_y
_atom_site_fract_z
Si Si1 0.040330 0.891089 0.156771
Si Si2 0.053180 0.671313 0.504094
Si Si3 0.418120 0.284532 0.174625
Si Si4 0.759590 0.904686 0.539856
Si Si5 0.667039 0.873791 0.980756
Si Si6 0.937527 0.125578 0.251446
Si Si7 0.331744 0.524455 0.687976
Si Si8 0.220442 0.668275 0.325080
O O1 0.240088 0.788084 0.233818
O O2 0.171172 0.023849 0.091968
O O3 0.896308 0.972580 0.216245
O O4 0.842874 0.811582 0.081145
O O5 0.255377 0.663127 0.603944
O O6 0.174287 0.733031 0.412337
O O7 0.000000 0.500000 0.500000
O O8 0.790356 0.751401 0.508848
O O9 0.451392 0.256807 0.074402
O O10 0.110500 0.242141 0.187484
O O11 0.514924 0.430581 0.215568
O O12 0.638427 0.174854 0.242296
O O13 0.863064 0.884342 0.649797
O O14 0.500000 0.000000 0.500000
O O15 0.000000 0.000000 0.500000
O O16 0.500000 0.000000 0.000000
O O17 0.524698 0.429723 0.653599
O O18 0.052582 0.433252 0.699656
#
# Coordination Sequence:
#
# PCOD9015114 Si02
#       8
#     2   2   2   2   2   2   2   2
#     4  10  23  41  65 102 130 166 221 278 346 399
#     4  10  24  44  69  95 137 191 232 268 333 407
#     4  11  22  40  67  92 124 168 224 262 328 401
#     4  12  26  41  63  99 138 174 224 287 337 387
#     4  10  21  41  71  94 127 171 214 279 348 415
#     4  11  22  39  65  91 128 171 209 275 328 401
#     4  11  24  43  67  94 132 186 226 267 327 400
#     4  11  25  42  67  97 136 174 228 281 321 397
#
# _framework density 23.564865000000001
#
# number of rings (size 3 to 8) (size 9 to 14) (size 15 to 20)
#    0.000    1.250    2.500    2.625    3.500    4.000 
#    0.000    1.250    0.000    0.000    0.000    0.000 
#    0.000    0.000    0.000    0.000    0.000    0.000 
#
# Total GULP energy -89314.921872 kJ/mol
# GULP energy per Si atom -5582.182617 kJ/mol
# Density = 2.351123 g / cm^3
# Si number density = 23.564865 Si / 1000 Ang^3
#
#
#
# Elastic Constant Matrix: (Units=GPa)
#
#
# Indices 1 2 3 4 5 6 
#
# 1 92.9862 19.1647 13.4515 -2.3337 10.3485 -21.6991
# 2 19.1647 85.0843 46.7449 23.9657 5.3688 -20.9881
# 3 13.4515 46.7449 117.5946 28.4286 11.0668 -15.7777
# 4 -2.3337 23.9657 28.4286 48.8895 -0.2122 5.8430
# 5 10.3485 5.3688 11.0668 -0.2122 25.2372 3.4778
# 6 -21.6991 -20.9881 -15.7777 5.8430 3.4778 38.5574
#
#
#
# Elastic Compliance Matrix: (Units=1/GPa)
#
#
# Indices 1 2 3 4 5 6 
#
# 1 0.013448 -0.000894 0.000567 -0.000228 -0.006670 0.007950
# 2 -0.000894 0.019059 -0.003795 -0.008377 -0.003458 0.009900
# 3 0.000567 -0.003795 0.012587 -0.006033 -0.005660 0.004828
# 4 -0.000228 -0.008377 -0.006033 0.029546 0.006453 -0.012217
# 5 -0.006670 -0.003458 -0.005660 0.006453 0.047452 -0.013210
# 6 0.007950 0.009900 0.004828 -0.012217 -0.013210 0.040817
#
#
# Mechanical properties :
#
#
# Convention : Reuss Voigt Hill
#
# Bulk Modulus (GPa) = 27.13799 50.48748 38.81273
# Shear Modulus (GPa) = 27.25729 36.95707 32.10718
#
# Velocity S-wave (km/s) = 3.40471 3.96449 3.69521
# Velocity P-wave (km/s) = 5.19590 6.51365 5.89173
#
# Compressibility (1/GPa) = 0.03684871
#
# Stress axis : x y z
#
# Youngs Moduli (GPa) = 74.35868 52.46792 79.44953
#
# Poissons Ratio (x) = 0.04692 -0.04502
# Poissons Ratio (y) = 0.06650 0.30152
# Poissons Ratio (z) = -0.04214 0.19912
#
# Static dielectric constant tensor:
#      x y z
#    x 1.917080 0.001460 0.007680 
#    y 0.001460 2.009890 0.082960 
#    z 0.007680 0.082960 1.939580 
# 
# From -- ./inp_files/480445.got.cif
#   From: 2010.05.17/outbox.cif.g08.bks.cpg/sg2_241_cif.got.tgz:480445.got - 2010.06.03 11:33:40.
