data_PCOD9015885
_publ_section_title
;
Structure prediction by ZEFSAII (Michael W. Deem and Ramdas Pophale) SiO2 
 PCOD9015885
Probable space group: P -1
;
_chemical_formula_sum "Si O2"
_cell_formula_units_Z 16
_cell_length_a 7.945200
_cell_length_b 8.422525
_cell_length_c 14.022958
_cell_angle_alpha 87.531696
_cell_angle_beta 71.872447
_cell_angle_gamma 130.544532
_cell_volume 637.399319
_symmetry_space_group_name_H-M "P -1"
_symmetry_group_IT_number 2
_symmetry_cell_setting 'triclinic'
loop_
_space_group_symop_operation_xyz
x,y,z
-x,-y,-z
loop_
_atom_site_type_symbol
_atom_site_label
_atom_site_fract_x
_atom_site_fract_y
_atom_site_fract_z
Si Si1 0.406675 0.984259 0.159781
Si Si2 0.039454 0.351689 0.452515
Si Si3 0.807218 0.083347 0.333001
Si Si4 0.453090 0.630364 0.946004
Si Si5 0.511468 0.262686 0.755354
Si Si6 0.726883 0.584547 0.209212
Si Si7 0.073171 0.203426 0.643696
Si Si8 0.049740 0.596395 0.863113
O O1 0.387454 0.107099 0.077549
O O2 0.686188 0.193337 0.141880
O O3 0.409997 0.794685 0.167377
O O4 0.190324 0.893874 0.273475
O O5 0.266326 0.496503 0.334031
O O6 0.103011 0.271737 0.528120
O O7 0.000000 0.500000 0.500000
O O8 0.802040 0.156805 0.436177
O O9 0.953057 0.295636 0.232859
O O10 0.565034 0.894419 0.317599
O O11 0.919948 0.979877 0.335115
O O12 0.469565 0.597070 0.830875
O O13 0.500000 0.500000 0.000000
O O14 0.173128 0.496600 0.027781
O O15 0.277694 0.230364 0.819523
O O16 0.723130 0.590870 0.325203
O O17 0.940627 0.586495 0.156016
#
# Coordination Sequence:
#
# PCOD9015885 Si02
#       8
#     2   2   2   2   2   2   2   2
#     4  10  21  42  65  95 139 167 223 280 333 404
#     4  12  24  42  70  99 140 184 233 274 345 411
#     4  10  24  43  66  97 144 176 232 287 331 404
#     4  11  24  44  72 101 132 183 225 276 351 407
#     4  10  24  44  65 102 139 183 228 282 342 394
#     4  10  23  42  68  95 138 174 225 282 336 404
#     4  11  23  43  64 103 134 180 226 284 341 402
#     4  10  22  44  67  98 132 182 224 276 344 404
#
# _framework density 25.102003
#
# number of rings (size 3 to 8) (size 9 to 14) (size 15 to 20)
#    0.000    1.500    1.250    3.375    5.250    2.500 
#    4.500   18.750    0.000    0.000    0.000    0.000 
#    0.000    0.000    0.000    0.000    0.000    0.000 
#
# Total GULP energy -89202.427568 kJ/mol
# GULP energy per Si atom -5575.151723 kJ/mol
# Density = 2.504487 g / cm^3
# Si number density = 25.102003 Si / 1000 Ang^3
#
#
#
# Elastic Constant Matrix: (Units=GPa)
#
#
# Indices 1 2 3 4 5 6 
#
# 1 136.1468 44.7960 51.4080 -20.2140 18.6514 -39.7604
# 2 44.7960 82.1643 35.9139 -2.0764 11.5616 -15.4485
# 3 51.4080 35.9139 96.1036 -9.2598 24.8736 -8.8478
# 4 -20.2140 -2.0764 -9.2598 41.6105 -4.9375 12.0309
# 5 18.6514 11.5616 24.8736 -4.9375 54.5699 -2.1050
# 6 -39.7604 -15.4485 -8.8478 12.0309 -2.1050 58.9215
#
#
#
# Elastic Compliance Matrix: (Units=1/GPa)
#
#
# Indices 1 2 3 4 5 6 
#
# 1 0.012538 -0.003592 -0.004217 0.003044 -0.001087 0.006225
# 2 -0.003592 0.016247 -0.004096 -0.002394 -0.000499 0.001692
# 3 -0.004217 -0.004096 0.015322 0.001192 -0.004645 -0.002028
# 4 0.003044 -0.002394 0.001192 0.026913 0.001210 -0.003846
# 5 -0.001087 -0.000499 -0.004645 0.001210 0.020988 -0.001059
# 6 0.006225 0.001692 -0.002028 -0.003846 -0.001059 0.022059
#
#
# Mechanical properties :
#
#
# Convention : Reuss Voigt Hill
#
# Bulk Modulus (GPa) = 49.26647 64.29451 56.78049
# Shear Modulus (GPa) = 34.56775 43.17351 38.87063
#
# Velocity S-wave (km/s) = 3.71494 4.15169 3.93938
# Velocity P-wave (km/s) = 6.17010 6.97503 6.58488
#
# Compressibility (1/GPa) = 0.02029778
#
# Stress axis : x y z
#
# Youngs Moduli (GPa) = 79.75694 61.54860 65.26501
#
# Poissons Ratio (x) = 0.22110 0.27521
# Poissons Ratio (y) = 0.28651 0.26731
# Poissons Ratio (z) = 0.33631 0.25209
#
# Static dielectric constant tensor:
#      x y z
#    x 2.062930 0.000300 0.030860 
#    y 0.000300 2.102300 0.035430 
#    z 0.030860 0.035430 1.974010 
# 
# From -- ./inp_files/495043.got.cif
#   From: 2010.05.17/outbox.cif.g08.bks.cpg/sg2_248_cif.got.tgz:495043.got - 2010.06.03 11:33:40.
