data_PCOD9015008
_publ_section_title
;
Structure prediction by ZEFSAII (Michael W. Deem and Ramdas Pophale) SiO2 
 PCOD9015008
Probable space group: P -1
;
_chemical_formula_sum "Si O2"
_cell_formula_units_Z 16
_cell_length_a 13.972672
_cell_length_b 5.154970
_cell_length_c 17.262179
_cell_angle_alpha 116.425166
_cell_angle_beta 44.434225
_cell_angle_gamma 93.821616
_cell_volume 714.255380
_symmetry_space_group_name_H-M "P -1"
_symmetry_group_IT_number 2
_symmetry_cell_setting 'triclinic'
loop_
_space_group_symop_operation_xyz
x,y,z
-x,-y,-z
loop_
_atom_site_type_symbol
_atom_site_label
_atom_site_fract_x
_atom_site_fract_y
_atom_site_fract_z
Si Si1 0.673636 0.513325 0.477860
Si Si2 0.628238 0.528659 0.176830
Si Si3 0.142616 0.861757 0.129087
Si Si4 0.611173 0.013366 0.372007
Si Si5 0.948459 0.367089 0.587730
Si Si6 0.442288 0.125812 0.267484
Si Si7 0.347631 0.085561 0.147285
Si Si8 0.041827 0.446739 0.713421
O O1 0.712276 0.166609 0.375363
O O2 0.499695 0.719213 0.586725
O O3 0.677006 0.577360 0.576122
O O4 0.785109 0.632331 0.385008
O O5 0.572155 0.250883 0.190078
O O6 0.672344 0.685470 0.246583
O O7 0.494517 0.820512 0.252051
O O8 0.758600 0.404960 0.022501
O O9 0.026129 0.760600 0.228154
O O10 0.253106 0.914634 0.136113
O O11 0.060190 0.180540 0.169499
O O12 0.500000 0.000000 0.500000
O O13 0.772123 0.550989 0.731554
O O14 0.000000 0.500000 0.500000
O O15 0.026253 0.410186 0.626016
O O16 0.000000 0.000000 0.500000
O O17 0.390054 0.022925 0.204444
O O18 0.500000 0.000000 0.000000
#
# Coordination Sequence:
#
# PCOD9015008 Si02
#       8
#     2   2   2   2   2   2   2   2
#     4  10  23  41  66 101 125 167 217 273 339 400
#     4  11  23  41  65  95 132 167 214 278 334 386
#     4  11  25  44  62  95 137 180 217 265 326 390
#     4  10  21  41  70  96 127 157 215 289 338 381
#     4  11  24  44  63  94 137 182 225 278 331 395
#     4  11  23  39  67  99 129 169 220 278 331 383
#     4  11  24  43  69 102 135 185 234 280 326 392
#     4  11  25  43  66  90 136 181 214 262 331 411
#
# _framework density 22.400950000000002
#
# number of rings (size 3 to 8) (size 9 to 14) (size 15 to 20)
#    0.000    1.250    2.500    3.000    3.500    5.500 
#    0.000    1.250    0.000    0.000    0.000    0.000 
#    0.000    0.000    0.000    0.000    0.000    0.000 
#
# Total GULP energy -89359.301600 kJ/mol
# GULP energy per Si atom -5584.956350 kJ/mol
# Density = 2.234996 g / cm^3
# Si number density = 22.400950 Si / 1000 Ang^3
#
#
#
# Elastic Constant Matrix: (Units=GPa)
#
#
# Indices 1 2 3 4 5 6 
#
# 1 43.7485 13.2319 53.6622 -4.4848 5.8749 1.0244
# 2 13.2319 92.4244 31.6786 -12.0541 -5.6935 3.7765
# 3 53.6622 31.6786 131.9920 1.1331 15.7040 25.3806
# 4 -4.4848 -12.0541 1.1331 41.0203 9.1384 -4.1467
# 5 5.8749 -5.6935 15.7040 9.1384 41.5996 -4.7240
# 6 1.0244 3.7765 25.3806 -4.1467 -4.7240 22.4732
#
#
#
# Elastic Compliance Matrix: (Units=1/GPa)
#
#
# Indices 1 2 3 4 5 6 
#
# 1 0.065838 0.003347 -0.036434 0.011796 0.007005 0.041233
# 2 0.003347 0.012920 -0.006043 0.004191 0.003335 0.005976
# 3 -0.036434 -0.006043 0.032366 -0.008138 -0.010378 -0.037560
# 4 0.011796 0.004191 -0.008138 0.029067 -0.002964 0.012690
# 5 0.007005 0.003335 -0.010378 -0.002964 0.029959 0.016591
# 6 0.041233 0.005976 -0.037560 0.012690 0.016591 0.089862
#
#
# Mechanical properties :
#
#
# Convention : Reuss Voigt Hill
#
# Bulk Modulus (GPa) = 30.42837 51.70114 41.06476
# Shear Modulus (GPa) = 14.31737 32.32474 23.32105
#
# Velocity S-wave (km/s) = 2.53087 3.80282 3.23007
# Velocity P-wave (km/s) = 4.70674 6.51244 5.68178
#
# Compressibility (1/GPa) = 0.03286407
#
# Stress axis : x y z
#
# Youngs Moduli (GPa) = 15.18871 77.40140 30.89673
#
# Poissons Ratio (x) = -0.25907 1.12568
# Poissons Ratio (y) = -0.05084 0.18672
# Poissons Ratio (z) = 0.55338 0.46777
#
# Static dielectric constant tensor:
#      x y z
#    x 1.908540 -0.004140 -0.003330 
#    y -0.004140 1.745810 -0.067420 
#    z -0.003330 -0.067420 1.712000 
# 
# From -- ./inp_files/84163.got.cif
#   From: 2010.05.17/outbox.cif.g08.bks.cpg/sg2_43_cif.got.tgz:84163.got - 2010.06.03 11:33:40.
