data_PCOD9015761
_publ_section_title
;
Structure prediction by ZEFSAII (Michael W. Deem and Ramdas Pophale) SiO2 
 PCOD9015761
Probable space group: P -1
;
_chemical_formula_sum "Si O2"
_cell_formula_units_Z 15
_cell_length_a 15.771523
_cell_length_b 12.866455
_cell_length_c 7.121435
_cell_angle_alpha 76.159078
_cell_angle_beta 62.575437
_cell_angle_gamma 129.705945
_cell_volume 616.045018
_symmetry_space_group_name_H-M "P -1"
_symmetry_group_IT_number 2
_symmetry_cell_setting 'triclinic'
loop_
_space_group_symop_operation_xyz
x,y,z
-x,-y,-z
loop_
_atom_site_type_symbol
_atom_site_label
_atom_site_fract_x
_atom_site_fract_y
_atom_site_fract_z
Si Si1 0.561348 0.456043 0.342540
Si Si2 0.491197 0.830140 0.920419
Si Si3 0.849650 0.809337 0.580737
Si Si4 0.000000 0.500000 0.500000
Si Si5 0.105716 0.377489 0.984152
Si Si6 0.751566 0.925043 0.417212
Si Si7 0.275710 0.740548 0.482415
Si Si8 0.066746 0.339421 0.466798
O O1 0.500000 0.500000 0.500000
O O2 0.715927 0.530596 0.253662
O O3 0.375878 0.207246 0.580918
O O4 0.662055 0.593672 0.986685
O O5 0.617535 0.849044 0.747148
O O6 0.615409 0.052825 0.626568
O O7 0.432863 0.813535 0.193836
O O8 0.284823 0.604635 0.130912
O O9 0.809961 0.863925 0.451038
O O10 0.921799 0.770389 0.426245
O O11 0.000000 0.000000 0.500000
O O12 0.863636 0.362374 0.503242
O O13 0.051802 0.677078 0.327123
O O14 0.165499 0.557662 0.818196
O O15 0.021901 0.279758 0.319311
O O16 0.939563 0.180351 0.099408
#
# Coordination Sequence:
#
# PCOD9015761 Si02
#       8
#     2   2   2   1   2   2   2   2
#     4  11  26  45  63 102 136 175 227 277 333 399
#     4  10  22  43  68  96 128 179 231 269 340 402
#     4  11  22  44  72  98 135 184 223 276 327 408
#     4  10  22  42  64  96 130 174 226 270 328 404
#     4  11  24  46  66 101 139 169 225 283 338 394
#     4  12  23  44  71  97 134 188 216 273 343 402
#     4  10  24  43  67  99 133 176 224 287 327 408
#     4  10  21  42  65 100 137 168 229 274 328 404
#
# _framework density 24.348868
#
# number of rings (size 3 to 8) (size 9 to 14) (size 15 to 20)
#    0.000    1.333    5.333    1.200    1.867    4.267 
#   12.000    0.000    0.000    0.000    0.000    0.000 
#    0.000    0.000    0.000    0.000    0.000    0.000 
#
# Total GULP energy -83602.926793 kJ/mol
# GULP energy per Si atom -5573.528453 kJ/mol
# Density = 2.429345 g / cm^3
# Si number density = 24.348868 Si / 1000 Ang^3
#
#
#
# Elastic Constant Matrix: (Units=GPa)
#
#
# Indices 1 2 3 4 5 6 
#
# 1 81.0456 11.9838 6.0775 1.6855 2.3746 -19.6101
# 2 11.9838 121.8170 14.7800 -17.0452 -20.6360 -24.3617
# 3 6.0775 14.7800 28.8796 -18.0785 -0.7347 4.4951
# 4 1.6855 -17.0452 -18.0785 48.4910 -2.3448 -13.3740
# 5 2.3746 -20.6360 -0.7347 -2.3448 29.8467 -15.9963
# 6 -19.6101 -24.3617 4.4951 -13.3740 -15.9963 45.5106
#
#
#
# Elastic Compliance Matrix: (Units=1/GPa)
#
#
# Indices 1 2 3 4 5 6 
#
# 1 0.014832 0.003035 -0.004859 0.002328 0.007271 0.011735
# 2 0.003035 0.021872 -0.006314 0.014755 0.031442 0.029027
# 3 -0.004859 -0.006314 0.048393 0.013323 -0.006330 -0.008563
# 4 0.002328 0.014755 0.013323 0.040342 0.029488 0.029805
# 5 0.007271 0.031442 -0.006330 0.029488 0.089333 0.060653
# 6 0.011735 0.029027 -0.008563 0.029805 0.060653 0.073491
#
#
# Mechanical properties :
#
#
# Convention : Reuss Voigt Hill
#
# Bulk Modulus (GPa) = 14.53041 33.04720 23.78881
# Shear Modulus (GPa) = 15.26815 38.02974 26.64894
#
# Velocity S-wave (km/s) = 2.50683 3.95634 3.31186
# Velocity P-wave (km/s) = 3.78939 5.87128 4.94123
#
# Compressibility (1/GPa) = 0.06882117
#
# Stress axis : x y z
#
# Youngs Moduli (GPa) = 67.41999 45.71960 20.66433
#
# Poissons Ratio (x) = -0.13874 0.10040
# Poissons Ratio (y) = -0.20460 0.13047
# Poissons Ratio (z) = 0.32758 0.28867
#
# Static dielectric constant tensor:
#      x y z
#    x 1.946340 -0.006220 -0.042430 
#    y -0.006220 1.937630 0.011480 
#    z -0.042430 0.011480 2.065560 
# 
# From -- ./inp_files/225328.got.cif
#   From: 2010.05.17/outbox.cif.g08.bks.cpg/sg2_113_cif.got.tgz:225328.got - 2010.06.03 11:33:40.
