data_PCOD9015087
_publ_section_title
;
Structure prediction by ZEFSAII (Michael W. Deem and Ramdas Pophale) SiO2 
 PCOD9015087
Probable space group: P -1
;
_chemical_formula_sum "Si O2"
_cell_formula_units_Z 16
_cell_length_a 12.690698
_cell_length_b 11.554359
_cell_length_c 9.380145
_cell_angle_alpha 98.922818
_cell_angle_beta 45.796443
_cell_angle_gamma 124.620274
_cell_volume 740.619629
_symmetry_space_group_name_H-M "P -1"
_symmetry_group_IT_number 2
_symmetry_cell_setting 'triclinic'
loop_
_space_group_symop_operation_xyz
x,y,z
-x,-y,-z
loop_
_atom_site_type_symbol
_atom_site_label
_atom_site_fract_x
_atom_site_fract_y
_atom_site_fract_z
Si Si1 0.032514 0.456907 0.809184
Si Si2 0.047753 0.896250 0.000793
Si Si3 0.993703 0.679123 0.754395
Si Si4 0.268191 0.954047 0.345446
Si Si5 0.463393 0.599569 0.462036
Si Si6 0.300607 0.909435 0.980437
Si Si7 0.712756 0.788904 0.496150
Si Si8 0.445199 0.493452 0.889654
O O1 0.051435 0.575800 0.708281
O O2 0.240041 0.504009 0.630302
O O3 0.854512 0.277556 0.915180
O O4 0.000000 0.500000 0.000000
O O5 0.243301 0.968044 0.917381
O O6 0.883553 0.806607 0.261528
O O7 0.031389 0.787913 0.873299
O O8 0.000000 0.000000 0.000000
O O9 0.107523 0.786401 0.531753
O O10 0.764414 0.559024 0.929164
O O11 0.275502 0.954481 0.168060
O O12 0.217676 0.056530 0.468777
O O13 0.479950 0.024680 0.217146
O O14 0.500000 0.500000 0.500000
O O15 0.564251 0.744319 0.498605
O O16 0.561702 0.627834 0.223091
O O17 0.601039 0.656299 0.695133
O O18 0.500000 0.500000 0.000000
#
# Coordination Sequence:
#
# PCOD9015087 Si02
#       8
#     2   2   2   2   2   2   2   2
#     4  12  23  43  76 102 135 183 234 295 348 416
#     4  12  25  45  73 106 140 183 242 292 351 425
#     4  12  26  45  69 109 138 183 244 292 352 426
#     4  11  27  48  68 101 145 190 234 288 365 427
#     4  10  21  41  71 103 135 180 233 286 348 416
#     4  11  26  48  71  99 143 190 234 290 364 422
#     4  11  23  45  72  99 142 186 228 293 350 425
#     4  11  25  43  69 104 142 181 240 292 352 416
#
# _framework density 21.603534
#
# number of rings (size 3 to 8) (size 9 to 14) (size 15 to 20)
#    0.000    0.750    3.750    4.500    3.500    3.500 
#    4.500    0.000    0.000    0.000    0.000    0.000 
#    0.000    0.000    0.000    0.000    0.000    0.000 
#
# Total GULP energy -89438.138228 kJ/mol
# GULP energy per Si atom -5589.883639 kJ/mol
# Density = 2.155436 g / cm^3
# Si number density = 21.603534 Si / 1000 Ang^3
#
#
#
# Elastic Constant Matrix: (Units=GPa)
#
#
# Indices 1 2 3 4 5 6 
#
# 1 113.4189 12.2487 15.4276 9.7069 4.0055 -5.4995
# 2 12.2487 59.5187 -18.0485 7.0908 8.4752 -12.3666
# 3 15.4276 -18.0485 72.5608 3.7902 -0.3871 -6.5933
# 4 9.7069 7.0908 3.7902 30.1554 2.0344 5.7802
# 5 4.0055 8.4752 -0.3871 2.0344 42.5876 2.0292
# 6 -5.4995 -12.3666 -6.5933 5.7802 2.0292 31.0945
#
#
#
# Elastic Compliance Matrix: (Units=1/GPa)
#
#
# Indices 1 2 3 4 5 6 
#
# 1 0.009641 -0.002201 -0.002401 -0.002408 -0.000413 0.000795
# 2 -0.002201 0.023907 0.007953 -0.008011 -0.004696 0.012601
# 3 -0.002401 0.007953 0.017166 -0.004567 -0.001331 0.007314
# 4 -0.002408 -0.008011 -0.004567 0.038621 0.000496 -0.011792
# 5 -0.000413 -0.004696 -0.001331 0.000496 0.024605 -0.003921
# 6 0.000795 0.012601 0.007314 -0.011792 -0.003921 0.041311
#
#
# Mechanical properties :
#
#
# Convention : Reuss Voigt Hill
#
# Bulk Modulus (GPa) = 17.41697 29.41712 23.41705
# Shear Modulus (GPa) = 29.81695 36.49219 33.15457
#
# Velocity S-wave (km/s) = 3.71912 4.11442 3.92175
# Velocity P-wave (km/s) = 5.14996 6.01811 5.60088
#
# Compressibility (1/GPa) = 0.05741526
#
# Stress axis : x y z
#
# Youngs Moduli (GPa) = 103.72903 41.82799 58.25336
#
# Poissons Ratio (x) = 0.09207 0.13989
# Poissons Ratio (y) = 0.22833 -0.46329
# Poissons Ratio (z) = 0.24909 -0.33266
#
# Static dielectric constant tensor:
#      x y z
#    x 2.227030 -0.184910 -0.127810 
#    y -0.184910 1.927130 0.020990 
#    z -0.127810 0.020990 1.814090 
# 
# From -- ./inp_files/262464.got.cif
#   From: 2010.05.17/outbox.cif.g08.bks.cpg/sg2_132_cif.got.tgz:262464.got - 2010.06.03 11:33:40.
