data_PCOD9015919
_publ_section_title
;
Structure prediction by ZEFSAII (Michael W. Deem and Ramdas Pophale) SiO2 
 PCOD9015919
Probable space group: P -1
;
_chemical_formula_sum "Si O2"
_cell_formula_units_Z 16
_cell_length_a 11.211203
_cell_length_b 7.988655
_cell_length_c 14.563607
_cell_angle_alpha 66.287574
_cell_angle_beta 88.717437
_cell_angle_gamma 135.417333
_cell_volume 735.163687
_symmetry_space_group_name_H-M "P -1"
_symmetry_group_IT_number 2
_symmetry_cell_setting 'triclinic'
loop_
_space_group_symop_operation_xyz
x,y,z
-x,-y,-z
loop_
_atom_site_type_symbol
_atom_site_label
_atom_site_fract_x
_atom_site_fract_y
_atom_site_fract_z
Si Si1 0.016526 0.187725 0.676312
Si Si2 0.433537 0.712999 0.340098
Si Si3 0.898154 0.789692 0.135483
Si Si4 0.982764 0.452210 0.865732
Si Si5 0.475126 0.760052 0.528973
Si Si6 0.899356 0.449643 0.662355
Si Si7 0.793068 0.900965 0.566073
Si Si8 0.249706 0.008697 0.867288
O O1 0.971825 0.066119 0.806630
O O2 0.246959 0.437570 0.605655
O O3 0.976974 0.356828 0.637726
O O4 0.880450 0.949209 0.651772
O O5 0.549553 0.830831 0.406969
O O6 0.311980 0.752108 0.327117
O O7 0.274492 0.361609 0.425076
O O8 0.556935 0.827602 0.221454
O O9 0.869528 0.540582 0.163312
O O10 0.746483 0.767671 0.167736
O O11 0.000000 0.000000 0.000000
O O12 0.901026 0.424686 0.777175
O O13 0.086428 0.738742 0.857504
O O14 0.817165 0.166300 0.997691
O O15 0.601717 0.795075 0.588509
O O16 0.500000 0.000000 0.500000
O O17 0.048307 0.786947 0.557291
#
# Coordination Sequence:
#
# PCOD9015919 Si02
#       8
#     2   2   2   2   2   2   2   2
#     4  11  23  42  67  95 130 180 222 274 334 393
#     4  12  26  39  62  97 138 174 218 281 336 400
#     4   9  20  40  68  96 126 171 223 271 332 395
#     4   9  21  40  71  91 125 180 219 281 332 391
#     4  12  24  41  65  91 128 177 221 269 328 399
#     4  11  22  41  62  90 135 172 221 269 330 401
#     4  12  24  41  62  97 136 170 220 277 333 398
#     4  10  21  42  65  98 128 168 232 272 336 395
#
# _framework density 21.763860999999999
#
# number of rings (size 3 to 8) (size 9 to 14) (size 15 to 20)
#    0.000    1.250    2.500    3.375    3.500    0.500 
#    2.250    0.000    0.000    4.500    0.000    0.000 
#    0.000    0.000    0.000    0.000    0.000    0.000 
#
# Total GULP energy -89317.064382 kJ/mol
# GULP energy per Si atom -5582.316524 kJ/mol
# Density = 2.171433 g / cm^3
# Si number density = 21.763861 Si / 1000 Ang^3
#
#
#
# Elastic Constant Matrix: (Units=GPa)
#
#
# Indices 1 2 3 4 5 6 
#
# 1 96.4009 2.7112 18.6410 -7.2842 -14.2352 13.2832
# 2 2.7112 64.6474 25.7336 18.5786 -4.7236 2.3963
# 3 18.6410 25.7336 103.0910 18.0809 -4.7992 4.7156
# 4 -7.2842 18.5786 18.0809 28.6012 1.9978 1.3427
# 5 -14.2352 -4.7236 -4.7992 1.9978 28.8202 3.7325
# 6 13.2832 2.3963 4.7156 1.3427 3.7325 34.8250
#
#
#
# Elastic Compliance Matrix: (Units=1/GPa)
#
#
# Indices 1 2 3 4 5 6 
#
# 1 0.012928 -0.000264 -0.002595 0.004921 0.006271 -0.005423
# 2 -0.000264 0.020229 -0.002742 -0.011688 0.003650 -0.000860
# 3 -0.002595 -0.002742 0.012049 -0.006537 0.000765 -0.000283
# 4 0.004921 -0.011688 -0.006537 0.048278 -0.003706 -0.001652
# 5 0.006271 0.003650 0.000765 -0.003706 0.039666 -0.006855
# 6 -0.005423 -0.000860 -0.000283 -0.001652 -0.006855 0.031680
#
#
# Mechanical properties :
#
#
# Convention : Reuss Voigt Hill
#
# Bulk Modulus (GPa) = 29.40950 39.81232 34.61091
# Shear Modulus (GPa) = 26.68574 32.91951 29.80263
#
# Velocity S-wave (km/s) = 3.50544 3.89341 3.70451
# Velocity P-wave (km/s) = 5.47051 6.20839 5.85109
#
# Compressibility (1/GPa) = 0.03400262
#
# Stress axis : x y z
#
# Youngs Moduli (GPa) = 77.35342 49.43418 82.99506
#
# Poissons Ratio (x) = 0.01306 0.21534
# Poissons Ratio (y) = 0.02044 0.22761
# Poissons Ratio (z) = 0.20071 0.13557
#
# Static dielectric constant tensor:
#      x y z
#    x 1.882330 -0.010350 -0.029620 
#    y -0.010350 1.780360 0.006610 
#    z -0.029620 0.006610 1.808480 
# 
# From -- ./inp_files/390334.got.cif
#   From: 2010.05.17/outbox.cif.g08.bks.cpg/sg2_196_cif.got.tgz:390334.got - 2010.06.03 11:33:40.
