data_PCOD9015410
_publ_section_title
;
Structure prediction by ZEFSAII (Michael W. Deem and Ramdas Pophale) SiO2 
 PCOD9015410
Probable space group: P -1
;
_chemical_formula_sum "Si O2"
_cell_formula_units_Z 16
_cell_length_a 15.686440
_cell_length_b 8.200453
_cell_length_c 6.816883
_cell_angle_alpha 78.732094
_cell_angle_beta 114.417118
_cell_angle_gamma 65.739420
_cell_volume 653.705172
_symmetry_space_group_name_H-M "P -1"
_symmetry_group_IT_number 2
_symmetry_cell_setting 'triclinic'
loop_
_space_group_symop_operation_xyz
x,y,z
-x,-y,-z
loop_
_atom_site_type_symbol
_atom_site_label
_atom_site_fract_x
_atom_site_fract_y
_atom_site_fract_z
Si Si1 0.001195 0.666491 0.240291
Si Si2 0.156665 0.452152 0.100051
Si Si3 0.993403 0.193099 0.369313
Si Si4 0.145885 0.981043 0.209816
Si Si5 0.658962 0.440976 0.490919
Si Si6 0.481869 0.331558 0.335548
Si Si7 0.606183 0.791878 0.082971
Si Si8 0.325330 0.062865 0.205810
O O1 0.916383 0.615105 0.073938
O O2 0.002313 0.687722 0.468280
O O3 0.113052 0.510631 0.265547
O O4 0.956825 0.889488 0.066719
O O5 0.119218 0.652925 0.897626
O O6 0.280862 0.258620 0.250760
O O7 0.097041 0.105859 0.335782
O O8 0.000000 0.000000 0.500000
O O9 0.213823 0.747048 0.367025
O O10 0.244247 0.991101 0.197915
O O11 0.569261 0.390940 0.339332
O O12 0.615635 0.499340 0.659630
O O13 0.647665 0.625038 0.324572
O O14 0.553517 0.128182 0.580111
O O15 0.432758 0.287277 0.113667
O O16 0.685482 0.852893 0.042823
O O17 0.500000 0.000000 0.000000
#
# Coordination Sequence:
#
# PCOD9015410 Si02
#       8
#     2   2   2   2   2   2   2   2
#     4   9  19  42  64  85 121 161 198 250 300 365
#     4   9  20  39  62  88 118 159 204 245 301 360
#     4  11  23  39  61  93 128 157 199 252 309 363
#     4   9  22  42  62  90 125 162 205 248 305 367
#     4  10  22  42  65  89 122 164 208 247 306 366
#     4  10  22  44  63  87 127 165 197 257 312 358
#     4  12  24  40  62  93 126 159 209 257 302 359
#     4  10  21  42  62  90 124 159 207 254 300 360
#
# _framework density 24.475867000000001
#
# number of rings (size 3 to 8) (size 9 to 14) (size 15 to 20)
#    0.000    2.000    1.250    1.875    1.750    3.000 
#   13.500    0.000    0.000    0.000    0.000    0.000 
#    0.000    0.000    0.000    0.000    0.000    0.000 
#
# Total GULP energy -89401.909202 kJ/mol
# GULP energy per Si atom -5587.619325 kJ/mol
# Density = 2.442016 g / cm^3
# Si number density = 24.475867 Si / 1000 Ang^3
#
#
#
# Elastic Constant Matrix: (Units=GPa)
#
#
# Indices 1 2 3 4 5 6 
#
# 1 72.3806 23.1282 30.6667 8.9773 -17.9680 10.2472
# 2 23.1282 155.7171 53.6721 -7.3652 -4.5235 -30.5975
# 3 30.6667 53.6721 96.4877 8.0284 -20.9777 -9.8052
# 4 8.9773 -7.3652 8.0284 61.8099 9.2710 -7.6987
# 5 -17.9680 -4.5235 -20.9777 9.2710 36.3394 -0.5416
# 6 10.2472 -30.5975 -9.8052 -7.6987 -0.5416 53.5121
#
#
#
# Elastic Compliance Matrix: (Units=1/GPa)
#
#
# Indices 1 2 3 4 5 6 
#
# 1 0.019912 -0.003329 -0.002784 -0.005138 0.009032 -0.006875
# 2 -0.003329 0.009853 -0.005044 0.003666 -0.004180 0.005832
# 3 -0.002784 -0.005044 0.016151 -0.003503 0.008216 0.000188
# 4 -0.005138 0.003666 -0.003503 0.019827 -0.009088 0.005199
# 5 0.009032 -0.004180 0.008216 -0.009088 0.038473 -0.003532
# 6 -0.006875 0.005832 0.000188 0.005199 -0.003532 0.024085
#
#
# Mechanical properties :
#
#
# Convention : Reuss Voigt Hill
#
# Bulk Modulus (GPa) = 42.36899 59.94658 51.15779
# Shear Modulus (GPa) = 31.54922 44.80682 38.17802
#
# Velocity S-wave (km/s) = 3.59415 4.28325 3.95374
# Velocity P-wave (km/s) = 5.87979 7.00050 6.46448
#
# Compressibility (1/GPa) = 0.02360216
#
# Stress axis : x y z
#
# Youngs Moduli (GPa) = 50.22095 101.49413 61.91484
#
# Poissons Ratio (x) = 0.33791 0.17237
# Poissons Ratio (y) = 0.16720 0.31227
# Poissons Ratio (z) = 0.13981 0.51189
#
# Static dielectric constant tensor:
#      x y z
#    x 2.082690 0.069320 -0.027980 
#    y 0.069320 2.001580 -0.041550 
#    z -0.027980 -0.041550 1.955080 
# 
# From -- ./inp_files/39291.got.cif
#   From: 2010.05.17/outbox.cif.g08.bks.cpg/sg2_20_cif.got.tgz:39291.got - 2010.06.03 11:33:40.
