data_PCOD9015288
_publ_section_title
;
Structure prediction by ZEFSAII (Michael W. Deem and Ramdas Pophale) SiO2 
 PCOD9015288
Probable space group: P -1
;
_chemical_formula_sum "Si O2"
_cell_formula_units_Z 10
_cell_length_a 9.579621
_cell_length_b 8.364516
_cell_length_c 8.953655
_cell_angle_alpha 63.328066
_cell_angle_beta 46.241222
_cell_angle_gamma 88.978791
_cell_volume 412.709973
_symmetry_space_group_name_H-M "P -1"
_symmetry_group_IT_number 2
_symmetry_cell_setting 'triclinic'
loop_
_space_group_symop_operation_xyz
x,y,z
-x,-y,-z
loop_
_atom_site_type_symbol
_atom_site_label
_atom_site_fract_x
_atom_site_fract_y
_atom_site_fract_z
Si Si1 0.352792 0.784997 0.770764
Si Si2 0.991400 0.107926 0.111159
Si Si3 0.899721 0.810842 0.544080
Si Si4 0.325847 0.786032 0.150248
Si Si5 0.606424 0.600029 0.116490
O O1 0.412273 0.614061 0.739823
O O2 0.115144 0.746152 0.905152
O O3 0.500000 0.000000 0.500000
O O4 0.353448 0.792901 0.947797
O O5 0.844204 0.916825 0.404316
O O6 0.223368 0.233233 0.967004
O O7 0.000000 0.000000 0.000000
O O8 0.085702 0.750977 0.383827
O O9 0.000000 0.000000 0.500000
O O10 0.284010 0.350987 0.150348
O O11 0.389737 0.624891 0.247601
O O12 0.500000 0.000000 0.000000
#
# Coordination Sequence:
#
# PCOD9015288 Si02
#       5
#     2   2   2   2   2
#     4  12  27  45  68 100 146 183 232 291 341 400
#     4  11  21  45  69 102 139 176 221 290 350 405
#     4  10  21  41  75  95 136 180 228 279 351 407
#     4  12  22  45  72 102 136 182 232 285 343 420
#     4  11  25  46  70 103 140 186 233 275 349 423
#
# _framework density 24.230090000000001
#
# number of rings (size 3 to 8) (size 9 to 14) (size 15 to 20)
#    0.000    0.800    6.000    2.400    2.800    0.800 
#    3.600    2.000    0.000    0.000    0.000    0.000 
#    0.000    0.000    0.000    0.000    0.000    0.000 
#
# Total GULP energy -55994.959031 kJ/mol
# GULP energy per Si atom -5599.495903 kJ/mol
# Density = 2.417494 g / cm^3
# Si number density = 24.230090 Si / 1000 Ang^3
#
#
#
# Elastic Constant Matrix: (Units=GPa)
#
#
# Indices 1 2 3 4 5 6 
#
# 1 174.3010 66.0521 24.2463 1.2833 7.4497 -23.6378
# 2 66.0521 139.0932 35.5835 -7.0514 5.5582 -28.3277
# 3 24.2463 35.5835 57.1511 -2.3628 8.9901 5.1084
# 4 1.2833 -7.0514 -2.3628 37.8339 -2.2830 8.8374
# 5 7.4497 5.5582 8.9901 -2.2830 39.8279 -0.5562
# 6 -23.6378 -28.3277 5.1084 8.8374 -0.5562 63.9340
#
#
#
# Elastic Compliance Matrix: (Units=1/GPa)
#
#
# Indices 1 2 3 4 5 6 
#
# 1 0.007262 -0.002754 -0.001468 -0.001303 -0.000693 0.001756
# 2 -0.002754 0.010921 -0.006046 0.000799 0.000460 0.004197
# 3 -0.001468 -0.006046 0.023055 0.001351 -0.004082 -0.005286
# 4 -0.001303 0.000799 0.001351 0.027739 0.001361 -0.004058
# 5 -0.000693 0.000460 -0.004082 0.001361 0.026177 0.000313
# 6 0.001756 0.004197 -0.005286 -0.004058 0.000313 0.019136
#
#
# Mechanical properties :
#
#
# Convention : Reuss Voigt Hill
#
# Bulk Modulus (GPa) = 48.30346 69.14544 58.72445
# Shear Modulus (GPa) = 35.27910 44.63006 39.95458
#
# Velocity S-wave (km/s) = 3.81990 4.29642 4.06515
# Velocity P-wave (km/s) = 6.27966 7.29461 6.80608
#
# Compressibility (1/GPa) = 0.02070245
#
# Stress axis : x y z
#
# Youngs Moduli (GPa) = 137.69506 91.56945 43.37444
#
# Poissons Ratio (x) = 0.25216 0.06369
# Poissons Ratio (y) = 0.37918 0.26223
# Poissons Ratio (z) = 0.20219 0.55360
#
# Static dielectric constant tensor:
#      x y z
#    x 1.959540 -0.015170 -0.038520 
#    y -0.015170 1.923490 -0.026890 
#    z -0.038520 -0.026890 1.939350 
# 
# From -- ./inp_files/145128.got.cif
#   From: 2010.05.17/outbox.cif.g08.bks.cpg/sg2_73_cif.got.tgz:145128.got - 2010.06.03 11:33:40.
