data_PCOD9015332
_publ_section_title
;
Structure prediction by ZEFSAII (Michael W. Deem and Ramdas Pophale) SiO2 
 PCOD9015332
Probable space group: P -1
;
_chemical_formula_sum "Si O2"
_cell_formula_units_Z 14
_cell_length_a 17.025539
_cell_length_b 5.166892
_cell_length_c 19.416609
_cell_angle_alpha 96.289259
_cell_angle_beta 161.531855
_cell_angle_gamma 82.891403
_cell_volume 536.749784
_symmetry_space_group_name_H-M "P -1"
_symmetry_group_IT_number 2
_symmetry_cell_setting 'triclinic'
loop_
_space_group_symop_operation_xyz
x,y,z
-x,-y,-z
loop_
_atom_site_type_symbol
_atom_site_label
_atom_site_fract_x
_atom_site_fract_y
_atom_site_fract_z
Si Si1 0.110508 0.663488 0.837861
Si Si2 0.137448 0.855314 0.003621
Si Si3 0.287184 0.064379 0.768190
Si Si4 0.952967 0.386740 0.372001
Si Si5 0.430207 0.721614 0.752743
Si Si6 0.223444 0.292495 0.199835
Si Si7 0.420578 0.562528 0.596480
O O1 0.139716 0.891755 0.924709
O O2 0.126678 0.710040 0.771991
O O3 0.838545 0.565271 0.622421
O O4 0.314238 0.433262 0.018869
O O5 0.860111 0.793765 0.797166
O O6 0.351219 0.629756 0.191679
O O7 0.198284 0.077788 0.113418
O O8 0.081712 0.860563 0.615337
O O9 0.392793 0.967178 0.779252
O O10 0.216535 0.369789 0.731587
O O11 0.500000 0.000000 0.000000
O O12 0.215193 0.518286 0.583122
O O13 0.402830 0.778958 0.649649
O O14 0.496598 0.373517 0.410501
O O15 0.000000 0.500000 0.000000
#
# Coordination Sequence:
#
# PCOD9015332 Si02
#       7
#     2   2   2   2   2   2   2
#     4  10  21  42  60  93 126 164 215 261 320 383
#     4   9  19  38  62  88 121 163 206 258 318 382
#     4  12  24  44  70  96 131 172 222 273 323 382
#     4  11  25  46  66  96 133 172 219 273 323 384
#     4  10  22  42  64  91 129 170 216 263 327 381
#     4   9  18  38  63  87 122 160 204 256 318 384
#     4   9  20  39  59  90 125 160 211 259 316 379
#
# _framework density 26.082915
#
# number of rings (size 3 to 8) (size 9 to 14) (size 15 to 20)
#    0.000    2.000    1.429    1.286    0.000    1.714 
#   20.571    6.429    0.000    0.000    0.000    0.000 
#    0.000    0.000    0.000    0.000    0.000    0.000 
#
# Total GULP energy -78301.933060 kJ/mol
# GULP energy per Si atom -5592.995219 kJ/mol
# Density = 2.602355 g / cm^3
# Si number density = 26.082915 Si / 1000 Ang^3
#
#
#
# Elastic Constant Matrix: (Units=GPa)
#
#
# Indices 1 2 3 4 5 6 
#
# 1 160.0830 65.7756 33.5028 -7.8154 3.4221 -31.1705
# 2 65.7756 115.7445 17.9686 -0.9302 -3.4587 -24.8474
# 3 33.5028 17.9686 73.4958 6.4514 20.9158 -11.0170
# 4 -7.8154 -0.9302 6.4514 30.4815 -8.4458 -4.0896
# 5 3.4221 -3.4587 20.9158 -8.4458 40.9719 11.5905
# 6 -31.1705 -24.8474 -11.0170 -4.0896 11.5905 51.7478
#
#
#
# Elastic Compliance Matrix: (Units=1/GPa)
#
#
# Indices 1 2 3 4 5 6 
#
# 1 0.009393 -0.004118 -0.003184 0.003471 0.000301 0.003210
# 2 -0.004118 0.011740 -0.000892 0.000149 0.001045 0.002745
# 3 -0.003184 -0.000892 0.020369 -0.008214 -0.013111 0.004278
# 4 0.003471 0.000149 -0.008214 0.038788 0.011666 0.000866
# 5 0.000301 0.001045 -0.013111 0.011666 0.036197 -0.009294
# 6 0.003210 0.002745 0.004278 0.000866 -0.009294 0.025637
#
#
# Mechanical properties :
#
#
# Convention : Reuss Voigt Hill
#
# Bulk Modulus (GPa) = 39.81829 64.86859 52.34344
# Shear Modulus (GPa) = 29.96106 40.11199 35.03653
#
# Velocity S-wave (km/s) = 3.39290 3.92582 3.66905
# Velocity P-wave (km/s) = 5.53609 6.74341 6.16935
#
# Compressibility (1/GPa) = 0.02511408
#
# Stress axis : x y z
#
# Youngs Moduli (GPa) = 106.46192 85.18019 49.09375
#
# Poissons Ratio (x) = 0.35074 0.15632
# Poissons Ratio (y) = 0.43837 0.04380
# Poissons Ratio (z) = 0.33899 0.07600
#
# Static dielectric constant tensor:
#      x y z
#    x 2.251200 -0.073760 0.164620 
#    y -0.073760 2.118190 0.002270 
#    z 0.164620 0.002270 2.286660 
# 
# From -- ./inp_files/598948.got.cif
#   From: 2010.05.17/outbox.cif.g08.bks.cpg/sg2_300_cif.got.tgz:598948.got - 2010.06.03 11:33:40.
