data_PCOD9015269
_publ_section_title
;
Structure prediction by ZEFSAII (Michael W. Deem and Ramdas Pophale) SiO2 
 PCOD9015269
Probable space group: P -1
;
_chemical_formula_sum "Si O2"
_cell_formula_units_Z 16
_cell_length_a 15.990680
_cell_length_b 8.909000
_cell_length_c 11.878727
_cell_angle_alpha 127.537340
_cell_angle_beta 119.046470
_cell_angle_gamma 104.130519
_cell_volume 735.722401
_symmetry_space_group_name_H-M "P -1"
_symmetry_group_IT_number 2
_symmetry_cell_setting 'triclinic'
loop_
_space_group_symop_operation_xyz
x,y,z
-x,-y,-z
loop_
_atom_site_type_symbol
_atom_site_label
_atom_site_fract_x
_atom_site_fract_y
_atom_site_fract_z
Si Si1 0.048831 0.791954 0.917247
Si Si2 0.141293 0.198613 0.770772
Si Si3 0.986164 0.037775 0.820868
Si Si4 0.371965 0.512995 0.686975
Si Si5 0.102642 0.701731 0.547865
Si Si6 0.602516 0.068633 0.245781
Si Si7 0.553232 0.099336 0.709827
Si Si8 0.611090 0.751868 0.595836
O O1 0.009817 0.521970 0.730485
O O2 0.007062 0.872718 0.826965
O O3 0.970940 0.739770 0.956763
O O4 0.225149 0.079745 0.189924
O O5 0.088870 0.210418 0.858753
O O6 0.155662 0.997867 0.714985
O O7 0.303902 0.542480 0.008047
O O8 0.000000 0.000000 0.500000
O O9 0.809850 0.777104 0.548269
O O10 0.405025 0.729475 0.715679
O O11 0.427026 0.397501 0.619084
O O12 0.463223 0.727254 0.951918
O O13 0.247906 0.793794 0.652325
O O14 0.000000 0.500000 0.500000
O O15 0.580640 0.051993 0.358123
O O16 0.500000 0.000000 0.500000
O O17 0.609920 0.973138 0.709694
O O18 0.500000 0.500000 0.500000
#
# Coordination Sequence:
#
# PCOD9015269 Si02
#       8
#     2   2   2   2   2   2   2   2
#     4  10  22  39  73 105 132 170 251 295 344 400
#     4  12  27  48  69 100 153 188 230 290 355 430
#     4  10  21  42  70 102 138 179 230 296 353 399
#     4  10  21  41  74 106 131 178 240 307 339 403
#     4  12  25  44  76 105 130 186 240 290 348 416
#     4  11  24  44  69 104 146 177 235 291 353 416
#     4  12  30  47  68 104 151 193 230 286 365 425
#     4  11  24  43  73 101 135 184 244 294 345 419
#
# _framework density 21.747332
#
# number of rings (size 3 to 8) (size 9 to 14) (size 15 to 20)
#    0.000    1.000    3.750    1.500    7.000    1.500 
#    4.500    3.125    0.000    0.000    0.000    0.000 
#    0.000    0.000    0.000    0.000    0.000    0.000 
#
# Total GULP energy -89331.576908 kJ/mol
# GULP energy per Si atom -5583.223557 kJ/mol
# Density = 2.169783 g / cm^3
# Si number density = 21.747332 Si / 1000 Ang^3
#
#
#
# Elastic Constant Matrix: (Units=GPa)
#
#
# Indices 1 2 3 4 5 6 
#
# 1 127.5013 51.6682 34.1349 8.2483 -9.1772 24.8775
# 2 51.6682 70.0154 30.7337 3.5014 -4.6078 21.4093
# 3 34.1349 30.7337 94.7317 11.0969 -11.6528 8.7666
# 4 8.2483 3.5014 11.0969 34.4003 -6.3537 -9.5979
# 5 -9.1772 -4.6078 -11.6528 -6.3537 33.5715 2.7277
# 6 24.8775 21.4093 8.7666 -9.5979 2.7277 37.8870
#
#
#
# Elastic Compliance Matrix: (Units=1/GPa)
#
#
# Indices 1 2 3 4 5 6 
#
# 1 0.012121 -0.006709 -0.001197 -0.002821 0.001828 -0.004737
# 2 -0.006709 0.023832 -0.004279 -0.001762 0.000312 -0.008540
# 3 -0.001197 -0.004279 0.013221 -0.003212 0.003139 -0.000895
# 4 -0.002821 -0.001762 -0.003212 0.035016 0.003507 0.012209
# 5 0.001828 0.000312 0.003139 0.003507 0.032371 -0.003545
# 6 -0.004737 -0.008540 -0.000895 0.012209 -0.003545 0.037886
#
#
# Mechanical properties :
#
#
# Convention : Reuss Voigt Hill
#
# Bulk Modulus (GPa) = 40.31816 58.36910 49.34363
# Shear Modulus (GPa) = 26.72583 32.88587 29.80585
#
# Velocity S-wave (km/s) = 3.50941 3.89289 3.70611
# Velocity P-wave (km/s) = 5.91615 6.86324 6.40722
#
# Compressibility (1/GPa) = 0.02480272
#
# Stress axis : x y z
#
# Youngs Moduli (GPa) = 82.50379 41.96010 75.63720
#
# Poissons Ratio (x) = 0.28152 0.09055
# Poissons Ratio (y) = 0.55354 0.32366
# Poissons Ratio (z) = 0.09877 0.17955
#
# Static dielectric constant tensor:
#      x y z
#    x 1.823560 -0.040380 -0.027780 
#    y -0.040380 1.761100 -0.017460 
#    z -0.027780 -0.017460 1.851010 
# 
# From -- ./inp_files/448224.got.cif
#   From: 2010.05.17/outbox.cif.g08.bks.cpg/sg2_225_cif.got.tgz:448224.got - 2010.06.03 11:33:40.
