data_PCOD9015847
_publ_section_title
;
Structure prediction by ZEFSAII (Michael W. Deem and Ramdas Pophale) SiO2 
 PCOD9015847
Probable space group: P -1
;
_chemical_formula_sum "Si O2"
_cell_formula_units_Z 15
_cell_length_a 8.693252
_cell_length_b 7.136531
_cell_length_c 19.466532
_cell_angle_alpha 37.259389
_cell_angle_beta 121.852235
_cell_angle_gamma 128.232408
_cell_volume 572.764616
_symmetry_space_group_name_H-M "P -1"
_symmetry_group_IT_number 2
_symmetry_cell_setting 'triclinic'
loop_
_space_group_symop_operation_xyz
x,y,z
-x,-y,-z
loop_
_atom_site_type_symbol
_atom_site_label
_atom_site_fract_x
_atom_site_fract_y
_atom_site_fract_z
Si Si1 0.982838 0.259431 0.259747
Si Si2 0.161322 0.968739 0.498839
Si Si3 0.660839 0.470305 0.177984
Si Si4 0.000000 0.500000 0.500000
Si Si5 0.133657 0.801881 0.037662
Si Si6 0.293417 0.504511 0.037919
Si Si7 0.660510 0.840958 0.210826
Si Si8 0.562290 0.355218 0.450308
O O1 0.806167 0.275671 0.260805
O O2 0.098842 0.055233 0.381596
O O3 0.119012 0.624602 0.159027
O O4 0.880114 0.060308 0.225655
O O5 0.374856 0.231220 0.492943
O O6 0.000000 0.000000 0.500000
O O7 0.116613 0.589351 0.577994
O O8 0.439502 0.318531 0.141691
O O9 0.649553 0.606220 0.211789
O O10 0.763478 0.802218 0.059355
O O11 0.784056 0.460025 0.496455
O O12 0.240902 0.638222 0.058414
O O13 0.913426 0.706727 0.984038
O O14 0.397064 0.850715 0.917866
O O15 0.551779 0.626665 0.313582
O O16 0.500000 0.000000 0.500000
#
# Coordination Sequence:
#
# PCOD9015847 Si02
#       8
#     2   2   2   1   2   2   2   2
#     4  11  24  40  66  95 131 168 216 264 318 392
#     4  11  26  44  68  97 129 168 221 267 330 393
#     4  11  23  39  65  93 133 170 211 267 309 384
#     4  10  22  50  70  92 130 158 214 282 328 376
#     4   9  19  39  59  94 128 169 214 259 317 373
#     4   9  20  38  65  91 130 171 213 261 313 383
#     4  10  21  42  65  93 131 166 218 264 326 376
#     4  10  23  43  72  95 123 174 212 271 331 386
#
# _framework density 26.188768
#
# number of rings (size 3 to 8) (size 9 to 14) (size 15 to 20)
#    0.000    1.867    1.333    2.800    7.467    2.667 
#    2.400    0.000    0.000    0.000    0.000    0.000 
#    0.000    0.000    0.000    0.000    0.000    0.000 
#
# Total GULP energy -83655.842415 kJ/mol
# GULP energy per Si atom -5577.056161 kJ/mol
# Density = 2.612916 g / cm^3
# Si number density = 26.188768 Si / 1000 Ang^3
#
#
#
# Elastic Constant Matrix: (Units=GPa)
#
#
# Indices 1 2 3 4 5 6 
#
# 1 135.5976 31.2909 16.0864 4.9893 4.8716 22.3685
# 2 31.2909 100.7990 6.8668 8.8081 2.5164 31.0542
# 3 16.0864 6.8668 68.1117 5.7333 20.4788 19.2398
# 4 4.9893 8.8081 5.7333 35.3602 12.1542 1.6610
# 5 4.8716 2.5164 20.4788 12.1542 43.9241 2.8126
# 6 22.3685 31.0542 19.2398 1.6610 2.8126 57.5867
#
#
#
# Elastic Compliance Matrix: (Units=1/GPa)
#
#
# Indices 1 2 3 4 5 6 
#
# 1 0.008265 -0.001904 -0.001225 -0.000407 -0.000011 -0.001763
# 2 -0.001904 0.012646 0.001182 -0.002815 0.000124 -0.006400
# 3 -0.001225 0.001182 0.019129 -0.000031 -0.008449 -0.006139
# 4 -0.000407 -0.002815 -0.000031 0.031980 -0.008705 0.001189
# 5 -0.000011 0.000124 -0.008449 -0.008705 0.029006 0.001594
# 6 -0.001763 -0.006400 -0.006139 0.001189 0.001594 0.023440
#
#
# Mechanical properties :
#
#
# Convention : Reuss Voigt Hill
#
# Bulk Modulus (GPa) = 27.66448 45.88849 36.77648
# Shear Modulus (GPa) = 35.61059 44.05849 39.83454
#
# Velocity S-wave (km/s) = 3.69150 4.10609 3.90430
# Velocity P-wave (km/s) = 5.36246 6.32773 5.86499
#
# Compressibility (1/GPa) = 0.03614744
#
# Stress axis : x y z
#
# Youngs Moduli (GPa) = 120.98544 79.07865 52.27723
#
# Poissons Ratio (x) = 0.15053 0.06402
# Poissons Ratio (y) = 0.23030 -0.06179
# Poissons Ratio (z) = 0.14817 -0.09347
#
# Static dielectric constant tensor:
#      x y z
#    x 2.284090 0.024200 -0.022370 
#    y 0.024200 1.889720 0.082860 
#    z -0.022370 0.082860 2.022150 
# 
# From -- ./inp_files/587167.got.cif
#   From: 2010.05.17/outbox.cif.g08.bks.cpg/sg2_294_cif.got.tgz:587167.got - 2010.06.03 11:33:40.
