data_PCOD9015780
_publ_section_title
;
Structure prediction by ZEFSAII (Michael W. Deem and Ramdas Pophale) SiO2 
 PCOD9015780
Probable space group: P -1
;
_chemical_formula_sum "Si O2"
_cell_formula_units_Z 14
_cell_length_a 18.172984
_cell_length_b 9.110549
_cell_length_c 21.300870
_cell_angle_alpha 39.807828
_cell_angle_beta 161.615624
_cell_angle_gamma 130.145378
_cell_volume 647.136639
_symmetry_space_group_name_H-M "P -1"
_symmetry_group_IT_number 2
_symmetry_cell_setting 'triclinic'
loop_
_space_group_symop_operation_xyz
x,y,z
-x,-y,-z
loop_
_atom_site_type_symbol
_atom_site_label
_atom_site_fract_x
_atom_site_fract_y
_atom_site_fract_z
Si Si1 0.115781 0.659728 0.687467
Si Si2 0.813322 0.794837 0.751722
Si Si3 0.718822 0.573424 0.313988
Si Si4 0.071741 0.991809 0.791594
Si Si5 0.229861 0.072102 0.181071
Si Si6 0.528159 0.826653 0.942167
Si Si7 0.813180 0.412415 0.085164
O O1 0.326442 0.388016 0.921551
O O2 0.859870 0.702677 0.428436
O O3 0.236987 0.853993 0.701176
O O4 0.096614 0.626711 0.756915
O O5 0.786896 0.890343 0.770051
O O6 0.947799 0.928406 0.773067
O O7 0.520361 0.869903 0.467056
O O8 0.000000 0.500000 0.000000
O O9 0.625599 0.717108 0.126373
O O10 0.477350 0.561760 0.156359
O O11 0.913046 0.286543 0.551604
O O12 0.364371 0.960951 0.050123
O O13 0.047126 0.821611 0.771263
O O14 0.186436 0.335030 0.026432
O O15 0.000000 0.000000 0.000000
#
# Coordination Sequence:
#
# PCOD9015780 Si02
#       7
#     2   2   2   2   2   2   2
#     4   9  19  36  62  90 126 163 215 253 313 378
#     4  11  24  47  70  94 131 171 217 269 336 389
#     4  10  21  42  65  86 129 176 207 261 321 379
#     4  11  21  40  65  91 128 168 209 266 319 383
#     4  11  26  44  70  96 130 169 219 277 326 390
#     4   9  20  39  63  91 127 170 215 255 317 382
#     4  11  23  40  61  96 126 164 215 264 322 383
#
# _framework density 21.633762000000001
#
# number of rings (size 3 to 8) (size 9 to 14) (size 15 to 20)
#    0.000    1.714    2.857    1.714    4.000    2.857 
#    0.000   12.143    0.000    0.000    0.000    0.000 
#    0.000    0.000    0.000    0.000    0.000    0.000 
#
# Total GULP energy -78296.376480 kJ/mol
# GULP energy per Si atom -5592.598320 kJ/mol
# Density = 2.158452 g / cm^3
# Si number density = 21.633762 Si / 1000 Ang^3
#
#
#
# Elastic Constant Matrix: (Units=GPa)
#
#
# Indices 1 2 3 4 5 6 
#
# 1 147.8012 74.0894 41.2401 17.1367 1.6695 12.1735
# 2 74.0894 140.1455 79.0678 24.3835 -1.7661 15.7940
# 3 41.2401 79.0678 99.0588 15.8684 1.8989 4.8244
# 4 17.1367 24.3835 15.8684 31.9856 -6.1818 10.7642
# 5 1.6695 -1.7661 1.8989 -6.1818 24.0906 8.6543
# 6 12.1735 15.7940 4.8244 10.7642 8.6543 44.4008
#
#
#
# Elastic Compliance Matrix: (Units=1/GPa)
#
#
# Indices 1 2 3 4 5 6 
#
# 1 0.009312 -0.004747 0.000216 -0.001666 -0.001359 -0.000219
# 2 -0.004747 0.016621 -0.010668 -0.003237 0.002705 -0.003194
# 3 0.000216 -0.010668 0.018980 -0.003365 -0.004356 0.003338
# 4 -0.001666 -0.003237 -0.003365 0.043114 0.015326 -0.011466
# 5 -0.001359 0.002705 -0.004356 0.015326 0.051028 -0.013778
# 6 -0.000219 -0.003194 0.003338 -0.011466 -0.013778 0.028821
#
#
# Mechanical properties :
#
#
# Convention : Reuss Voigt Hill
#
# Bulk Modulus (GPa) = 68.89663 86.20003 77.54833
# Shear Modulus (GPa) = 24.61679 32.93594 28.77636
#
# Velocity S-wave (km/s) = 3.37692 3.90607 3.65109
# Velocity P-wave (km/s) = 6.86445 7.76369 7.32788
#
# Compressibility (1/GPa) = 0.01451450
#
# Stress axis : x y z
#
# Youngs Moduli (GPa) = 107.39032 60.16352 52.68627
#
# Poissons Ratio (x) = 0.28562 -0.01139
# Poissons Ratio (y) = 0.50982 0.56208
# Poissons Ratio (z) = -0.02322 0.64185
#
# Static dielectric constant tensor:
#      x y z
#    x 1.772340 -0.014710 0.059720 
#    y -0.014710 1.790290 0.004340 
#    z 0.059720 0.004340 1.856120 
# 
# From -- ./inp_files/348303.got.cif
#   From: 2010.05.17/outbox.cif.g08.bks.cpg/sg2_175_cif.got.tgz:348303.got - 2010.06.03 11:33:40.
