data_PCOD9015376
_publ_section_title
;
Structure prediction by ZEFSAII (Michael W. Deem and Ramdas Pophale) SiO2 
 PCOD9015376
Probable space group: P -1
;
_chemical_formula_sum "Si O2"
_cell_formula_units_Z 15
_cell_length_a 10.537206
_cell_length_b 7.382819
_cell_length_c 12.265911
_cell_angle_alpha 96.375155
_cell_angle_beta 61.312305
_cell_angle_gamma 135.752408
_cell_volume 540.183638
_symmetry_space_group_name_H-M "P -1"
_symmetry_group_IT_number 2
_symmetry_cell_setting 'triclinic'
loop_
_space_group_symop_operation_xyz
x,y,z
-x,-y,-z
loop_
_atom_site_type_symbol
_atom_site_label
_atom_site_fract_x
_atom_site_fract_y
_atom_site_fract_z
Si Si1 0.917719 0.507505 0.661544
Si Si2 0.526254 0.864984 0.721615
Si Si3 0.952346 0.078385 0.783465
Si Si4 0.080199 0.281910 0.105377
Si Si5 0.251617 0.897327 0.943898
Si Si6 0.498505 0.499603 0.831956
Si Si7 0.224127 0.495605 0.504635
Si Si8 0.500000 0.000000 0.500000
O O1 0.877986 0.555780 0.796069
O O2 0.870411 0.598360 0.585421
O O3 0.170276 0.663393 0.572135
O O4 0.765476 0.185757 0.675476
O O5 0.525113 0.646133 0.721006
O O6 0.371066 0.820965 0.870386
O O7 0.454016 0.855408 0.631515
O O8 0.053021 0.028242 0.822452
O O9 0.730142 0.768533 0.811637
O O10 0.858746 0.158405 0.897995
O O11 0.106287 0.265725 0.629112
O O12 0.301411 0.412064 0.971202
O O13 0.940416 0.258515 0.074842
O O14 0.432807 0.226692 0.857376
O O15 0.483475 0.774835 0.428827
#
# Coordination Sequence:
#
# PCOD9015376 Si02
#       8
#     2   2   2   2   2   2   2   1
#     4  10  21  42  61  93 125 166 220 255 312 385
#     4  11  23  42  70  91 129 174 212 262 320 380
#     4  11  22  41  66  92 127 168 212 264 316 378
#     4  11  24  40  63  94 135 165 208 269 314 383
#     4  11  25  42  62 102 134 163 213 265 321 378
#     4  11  23  41  67  96 129 170 212 265 318 376
#     4  10  22  39  66  89 126 165 211 267 312 380
#     4  10  24  40  64  96 126 168 210 266 320 376
#
# _framework density 27.768336000000001
#
# number of rings (size 3 to 8) (size 9 to 14) (size 15 to 20)
#    0.000    1.333    1.333    5.600    5.600    2.133 
#    0.000    0.667    0.000    0.000    0.000    0.000 
#    0.000    0.000    0.000    0.000    0.000    0.000 
#
# Total GULP energy -83853.014797 kJ/mol
# GULP energy per Si atom -5590.200986 kJ/mol
# Density = 2.770513 g / cm^3
# Si number density = 27.768336 Si / 1000 Ang^3
#
#
#
# Elastic Constant Matrix: (Units=GPa)
#
#
# Indices 1 2 3 4 5 6 
#
# 1 72.9983 14.6515 13.8540 -5.4850 21.7167 -12.5603
# 2 14.6515 124.0010 25.9838 -2.7663 14.2748 10.4770
# 3 13.8540 25.9838 90.0082 0.5222 31.4579 12.5586
# 4 -5.4850 -2.7663 0.5222 54.9665 -6.5405 10.4613
# 5 21.7167 14.2748 31.4579 -6.5405 56.5205 -11.3801
# 6 -12.5603 10.4770 12.5586 10.4613 -11.3801 33.4152
#
#
#
# Elastic Compliance Matrix: (Units=1/GPa)
#
#
# Indices 1 2 3 4 5 6 
#
# 1 0.016510 -0.001693 -0.001548 -0.000026 -0.003846 0.006016
# 2 -0.001693 0.009054 -0.001268 0.000832 -0.001600 -0.003804
# 3 -0.001548 -0.001268 0.016769 0.000311 -0.010423 -0.010134
# 4 -0.000026 0.000832 0.000311 0.019498 0.000618 -0.006281
# 5 -0.003846 -0.001600 -0.010423 0.000618 0.027922 0.012289
# 6 0.006016 -0.003804 -0.010134 -0.006281 0.012289 0.043341
#
#
# Mechanical properties :
#
#
# Convention : Reuss Voigt Hill
#
# Bulk Modulus (GPa) = 30.01456 43.99843 37.00649
# Shear Modulus (GPa) = 32.63353 44.48164 38.55758
#
# Velocity S-wave (km/s) = 3.43185 4.00670 3.73036
# Velocity P-wave (km/s) = 5.15129 6.10607 5.64889
#
# Compressibility (1/GPa) = 0.03331717
#
# Stress axis : x y z
#
# Youngs Moduli (GPa) = 60.56979 110.44394 59.63283
#
# Poissons Ratio (x) = 0.18693 0.09228
# Poissons Ratio (y) = 0.10252 0.07562
# Poissons Ratio (z) = 0.09373 0.14005
#
# Static dielectric constant tensor:
#      x y z
#    x 3.148420 1.399210 -0.251230 
#    y 1.399210 4.443010 -0.409220 
#    z -0.251230 -0.409220 2.269140 
# 
# From -- ./inp_files/284014.got.cif
#   From: 2010.05.17/outbox.cif.g08.bks.cpg/sg2_143_cif.got.tgz:284014.got - 2010.06.03 11:33:40.
