data_PCOD9015746
_publ_section_title
;
Structure prediction by ZEFSAII (Michael W. Deem and Ramdas Pophale) SiO2 
 PCOD9015746
Probable space group: P -1
;
_chemical_formula_sum "Si O2"
_cell_formula_units_Z 16
_cell_length_a 15.008988
_cell_length_b 14.606542
_cell_length_c 8.431996
_cell_angle_alpha 84.873893
_cell_angle_beta 92.440892
_cell_angle_gamma 26.917937
_cell_volume 802.290591
_symmetry_space_group_name_H-M "P -1"
_symmetry_group_IT_number 2
_symmetry_cell_setting 'triclinic'
loop_
_space_group_symop_operation_xyz
x,y,z
-x,-y,-z
loop_
_atom_site_type_symbol
_atom_site_label
_atom_site_fract_x
_atom_site_fract_y
_atom_site_fract_z
Si Si1 0.094154 0.988810 0.393727
Si Si2 0.383653 0.794547 0.032696
Si Si3 0.641827 0.362515 0.792777
Si Si4 0.755790 0.565288 0.816416
Si Si5 0.576894 0.248220 0.333741
Si Si6 0.546082 0.832343 0.059407
Si Si7 0.135820 0.325505 0.900475
Si Si8 0.921090 0.231032 0.049229
O O1 0.240027 0.796949 0.315136
O O2 0.228266 0.936977 0.511116
O O3 0.000000 0.000000 0.500000
O O4 0.933652 0.190904 0.239429
O O5 0.463133 0.621289 0.117586
O O6 0.511123 0.760368 0.119311
O O7 0.373785 0.810558 0.839454
O O8 0.154164 0.015831 0.042173
O O9 0.500810 0.574815 0.686663
O O10 0.802759 0.263551 0.935569
O O11 0.607254 0.652717 0.666620
O O12 0.959960 0.426157 0.790774
O O13 0.618325 0.757790 0.890653
O O14 0.829513 0.413959 0.962289
O O15 0.731391 0.717904 0.169001
O O16 0.324864 0.086755 0.012583
O O17 0.000000 0.500000 0.000000
#
# Coordination Sequence:
#
# PCOD9015746 Si02
#       8
#     2   2   2   2   2   2   2   2
#     4  11  21  33  48  71 106 145 184 220 258 304
#     4  10  17  30  50  75 103 136 177 214 255 315
#     4  10  20  33  50  71 104 144 181 217 259 303
#     4   9  18  32  51  76 107 136 176 215 258 313
#     4  10  20  32  49  76 105 142 179 218 262 307
#     4   9  17  27  50  81 104 131 169 215 272 305
#     4   9  16  30  49  79 111 127 160 224 270 307
#     4  10  19  33  51  74 104 145 179 216 260 303
#
# _framework density 19.942898
#
# number of rings (size 3 to 8) (size 9 to 14) (size 15 to 20)
#    0.000    2.250    1.250    3.750    0.000    2.000 
#    0.000    0.000    0.000    0.000    0.000   17.500 
#    0.000    1.625    0.000    0.000    0.000    0.000 
#
# Total GULP energy -89147.072060 kJ/mol
# GULP energy per Si atom -5571.692004 kJ/mol
# Density = 1.989751 g / cm^3
# Si number density = 19.942898 Si / 1000 Ang^3
#
#
#
# Elastic Constant Matrix: (Units=GPa)
#
#
# Indices 1 2 3 4 5 6 
#
# 1 152.3798 25.1827 31.5044 -8.6715 28.4228 -23.3737
# 2 25.1827 87.8552 10.9740 -3.7774 7.6353 -11.5317
# 3 31.5044 10.9740 72.7375 -5.9398 17.2337 -15.8147
# 4 -8.6715 -3.7774 -5.9398 18.0569 -9.2032 7.8073
# 5 28.4228 7.6353 17.2337 -9.2032 16.9413 -5.8294
# 6 -23.3737 -11.5317 -15.8147 7.8073 -5.8294 35.3495
#
#
#
# Elastic Compliance Matrix: (Units=1/GPa)
#
#
# Indices 1 2 3 4 5 6 
#
# 1 0.010876 -0.001012 0.001031 -0.007857 -0.021194 0.005563
# 2 -0.001012 0.012315 -0.000083 -0.000859 -0.003213 0.002971
# 3 0.001031 -0.000083 0.019931 -0.008414 -0.023965 0.007478
# 4 -0.007857 -0.000859 -0.008414 0.089417 0.064381 -0.018371
# 5 -0.021194 -0.003213 -0.023965 0.064381 0.150141 -0.015243
# 6 0.005563 0.002971 0.007478 -0.018371 -0.015243 0.037826
#
#
# Mechanical properties :
#
#
# Convention : Reuss Voigt Hill
#
# Bulk Modulus (GPa) = 23.25844 49.81053 36.53448
# Shear Modulus (GPa) = 14.92702 30.42362 22.67532
#
# Velocity S-wave (km/s) = 2.73882 3.91005 3.37562
# Velocity P-wave (km/s) = 4.65718 6.73910 5.79244
#
# Compressibility (1/GPa) = 0.04299514
#
# Stress axis : x y z
#
# Youngs Moduli (GPa) = 91.94602 81.20153 50.17390
#
# Poissons Ratio (x) = 0.08218 -0.05175
# Poissons Ratio (y) = 0.09305 0.00415
# Poissons Ratio (z) = -0.09483 0.00671
#
# Static dielectric constant tensor:
#      x y z
#    x 1.799570 -0.005160 0.006150 
#    y -0.005160 1.752520 0.001260 
#    z 0.006150 0.001260 1.692290 
# 
# From -- ./inp_files/215723.got.cif
#   From: 2010.05.17/outbox.cif.g08.bks.cpg/sg2_108_cif.got.tgz:215723.got - 2010.06.03 11:33:40.
