data_PCOD9015824
_publ_section_title
;
Structure prediction by ZEFSAII (Michael W. Deem and Ramdas Pophale) SiO2 
 PCOD9015824
Probable space group: P -1
;
_chemical_formula_sum "Si O2"
_cell_formula_units_Z 16
_cell_length_a 9.793819
_cell_length_b 21.608615
_cell_length_c 24.208451
_cell_angle_alpha 18.387095
_cell_angle_beta 26.409619
_cell_angle_gamma 26.116493
_cell_volume 675.443967
_symmetry_space_group_name_H-M "P -1"
_symmetry_group_IT_number 2
_symmetry_cell_setting 'triclinic'
loop_
_space_group_symop_operation_xyz
x,y,z
-x,-y,-z
loop_
_atom_site_type_symbol
_atom_site_label
_atom_site_fract_x
_atom_site_fract_y
_atom_site_fract_z
Si Si1 0.908478 0.385987 0.848805
Si Si2 0.509839 0.875138 0.827507
Si Si3 0.064036 0.814800 0.178344
Si Si4 0.362854 0.353711 0.807418
Si Si5 0.205705 0.031908 0.254854
Si Si6 0.236229 0.401374 0.606042
Si Si7 0.869342 0.784712 0.665391
Si Si8 0.588854 0.190492 0.279983
O O1 0.642963 0.595252 0.791236
O O2 0.152235 0.281416 0.899561
O O3 0.106651 0.448210 0.675065
O O4 0.719210 0.251358 0.001858
O O5 0.786724 0.843901 0.708135
O O6 0.671512 0.819361 0.876521
O O7 0.255094 0.109514 0.730313
O O8 0.384739 0.790548 0.117971
O O9 0.044458 0.618093 0.317498
O O10 0.000000 0.000000 0.000000
O O11 0.597411 0.442845 0.610224
O O12 0.115412 0.552526 0.761208
O O13 0.486358 0.829082 0.301620
O O14 0.011765 0.934796 0.451503
O O15 0.959302 0.149362 0.196932
O O16 0.520688 0.801802 0.749897
O O17 0.500000 0.000000 0.500000
#
# Coordination Sequence:
#
# PCOD9015824 Si02
#       8
#     2   2   2   2   2   2   2   2
#     4  11  23  40  61  94 129 160 211 254 309 376
#     4  11  23  39  58  92 126 161 204 256 309 369
#     4  11  23  44  61  92 130 159 209 263 311 370
#     4  10  23  40  66  88 120 172 209 256 313 360
#     4   9  20  38  64  89 124 166 202 254 307 362
#     4  10  21  42  65  92 126 162 211 256 301 377
#     4   9  20  41  60  89 123 159 215 250 301 377
#     4   9  20  39  61  88 121 159 205 257 303 362
#
# _framework density 23.688124999999999
#
# number of rings (size 3 to 8) (size 9 to 14) (size 15 to 20)
#    0.000    2.000    1.250    1.875    0.000    7.000 
#    9.000    0.000    0.000    0.000    0.000    0.000 
#    0.000    0.000    0.000    0.000    0.000    0.000 
#
# Total GULP energy -89480.843767 kJ/mol
# GULP energy per Si atom -5592.552735 kJ/mol
# Density = 2.363421 g / cm^3
# Si number density = 23.688125 Si / 1000 Ang^3
#
#
#
# Elastic Constant Matrix: (Units=GPa)
#
#
# Indices 1 2 3 4 5 6 
#
# 1 115.2100 13.0751 26.4309 -12.5246 -17.8842 -26.7940
# 2 13.0751 30.5667 -5.5506 10.0431 5.7280 -10.9737
# 3 26.4309 -5.5506 69.6643 5.4362 -2.7693 -11.4275
# 4 -12.5246 10.0431 5.4362 24.8901 0.2621 -1.7179
# 5 -17.8842 5.7280 -2.7693 0.2621 41.5174 10.9802
# 6 -26.7940 -10.9737 -11.4275 -1.7179 10.9802 45.2278
#
#
#
# Elastic Compliance Matrix: (Units=1/GPa)
#
#
# Indices 1 2 3 4 5 6 
#
# 1 0.015065 -0.012706 -0.007097 0.014386 0.006906 0.002918
# 2 -0.012706 0.058617 0.013441 -0.031936 -0.015826 0.012720
# 3 -0.007097 0.013441 0.019709 -0.012925 -0.004759 0.004701
# 4 0.014386 -0.031936 -0.012925 0.062844 0.010015 -0.002536
# 5 0.006906 -0.015826 -0.004759 0.010015 0.031006 -0.008098
# 6 0.002918 0.012720 0.004701 -0.002536 -0.008098 0.029983
#
#
# Mechanical properties :
#
#
# Convention : Reuss Voigt Hill
#
# Bulk Modulus (GPa) = 12.39703 31.48355 21.94029
# Shear Modulus (GPa) = 19.46758 34.42608 26.94683
#
# Velocity S-wave (km/s) = 2.86987 3.81636 3.37644
# Velocity P-wave (km/s) = 4.02819 5.72182 4.94800
#
# Compressibility (1/GPa) = 0.08066445
#
# Stress axis : x y z
#
# Youngs Moduli (GPa) = 66.37992 17.05996 50.73897
#
# Poissons Ratio (x) = 0.21677 0.36011
# Poissons Ratio (y) = 0.84344 -0.68197
# Poissons Ratio (z) = 0.47112 -0.22930
#
# Static dielectric constant tensor:
#      x y z
#    x 1.926030 -0.024270 -0.036920 
#    y -0.024270 1.897480 0.059970 
#    z -0.036920 0.059970 1.954920 
# 
# From -- ./inp_files/608623.got.cif
#   From: 2010.05.17/outbox.cif.g08.bks.cpg/sg2_305_cif.got.tgz:608623.got - 2010.06.03 11:33:40.
