data_PCOD9016413
_publ_section_title
;
Structure prediction by ZEFSAII (Michael W. Deem and Ramdas Pophale) SiO2 
 PCOD9016413
Probable space group: P -1
;
_chemical_formula_sum "Si O2"
_cell_formula_units_Z 16
_cell_length_a 12.031685
_cell_length_b 8.922062
_cell_length_c 11.721183
_cell_angle_alpha 59.372590
_cell_angle_beta 57.885375
_cell_angle_gamma 46.457529
_cell_volume 751.180364
_symmetry_space_group_name_H-M "P -1"
_symmetry_group_IT_number 2
_symmetry_cell_setting 'triclinic'
loop_
_space_group_symop_operation_xyz
x,y,z
-x,-y,-z
loop_
_atom_site_type_symbol
_atom_site_label
_atom_site_fract_x
_atom_site_fract_y
_atom_site_fract_z
Si Si1 0.647163 0.913042 0.293052
Si Si2 0.857206 0.682474 0.583970
Si Si3 0.825308 0.416487 0.130551
Si Si4 0.579305 0.692922 0.615184
Si Si5 0.007767 0.464947 0.819764
Si Si6 0.884068 0.058678 0.378937
Si Si7 0.494016 0.125845 0.843961
Si Si8 0.751544 0.215695 0.632959
O O1 0.596223 0.794288 0.451482
O O2 0.835860 0.750998 0.231277
O O3 0.557940 0.946839 0.209179
O O4 0.587850 0.133823 0.300856
O O5 0.706633 0.678879 0.638946
O O6 0.000000 0.500000 0.500000
O O7 0.913791 0.625333 0.705294
O O8 0.829816 0.900560 0.475273
O O9 0.928736 0.439369 0.162534
O O10 0.840038 0.204683 0.237197
O O11 0.647085 0.625943 0.157816
O O12 0.898130 0.416937 0.969876
O O13 0.636277 0.456447 0.647104
O O14 0.797525 0.210688 0.477399
O O15 0.076357 0.914145 0.348261
O O16 0.657584 0.106554 0.741962
O O17 0.500000 0.000000 0.000000
#
# Coordination Sequence:
#
# PCOD9016413 Si02
#       8
#     2   2   2   2   2   2   2   2
#     4  10  22  40  65  96 131 176 216 271 336 380
#     4  12  22  41  68  99 134 173 220 262 338 396
#     4  10  24  40  69 100 131 169 227 276 326 379
#     4  11  23  41  67  98 132 173 218 280 324 395
#     4  10  21  42  67  97 133 175 220 272 326 400
#     4  11  23  40  70 102 127 173 220 284 317 388
#     4  11  26  44  66  98 134 180 220 270 332 399
#     4  11  23  41  67  99 133 165 232 270 327 382
#
# _framework density 21.299810000000001
#
# number of rings (size 3 to 8) (size 9 to 14) (size 15 to 20)
#    0.000    1.250    2.500    3.750    8.750    4.000 
#    0.000    1.250    2.750    0.000    0.000    0.000 
#    0.000    0.000    0.000    0.000    0.000    0.000 
#
# Total GULP energy -89550.153896 kJ/mol
# GULP energy per Si atom -5596.884618 kJ/mol
# Density = 2.125133 g / cm^3
# Si number density = 21.299810 Si / 1000 Ang^3
#
#
#
# Elastic Constant Matrix: (Units=GPa)
#
#
# Indices 1 2 3 4 5 6 
#
# 1 76.7227 21.3869 30.8447 -4.1547 0.1832 -6.8120
# 2 21.3869 144.7262 52.9895 5.4574 -0.6358 14.9559
# 3 30.8447 52.9895 117.9078 -0.3143 -1.0600 -4.3667
# 4 -4.1547 5.4574 -0.3143 35.9985 -1.4381 -1.5635
# 5 0.1832 -0.6358 -1.0600 -1.4381 26.6591 -5.4038
# 6 -6.8120 14.9559 -4.3667 -1.5635 -5.4038 11.1071
#
#
#
# Elastic Compliance Matrix: (Units=1/GPa)
#
#
# Indices 1 2 3 4 5 6 
#
# 1 0.016396 -0.003355 -0.002165 0.003185 0.003068 0.015663
# 2 -0.003355 0.011830 -0.005337 -0.003409 -0.004726 -0.022865
# 3 -0.002165 -0.005337 0.011925 0.001306 0.002893 0.012138
# 4 0.003185 -0.003409 0.001306 0.029419 0.004222 0.013252
# 5 0.003068 -0.004726 0.002893 0.004222 0.044090 0.031427
# 6 0.015663 -0.022865 0.012138 0.013252 0.031427 0.152353
#
#
# Mechanical properties :
#
#
# Convention : Reuss Voigt Hill
#
# Bulk Modulus (GPa) = 54.24256 61.08878 57.66567
# Shear Modulus (GPa) = 17.01412 30.36199 23.68806
#
# Velocity S-wave (km/s) = 2.82936 3.77962 3.33847
# Velocity P-wave (km/s) = 6.01624 6.91304 6.48017
#
# Compressibility (1/GPa) = 0.01843571
#
# Stress axis : x y z
#
# Youngs Moduli (GPa) = 60.99229 84.52928 83.85592
#
# Poissons Ratio (x) = 0.28363 0.18154
# Poissons Ratio (y) = 0.20466 0.44756
# Poissons Ratio (z) = 0.13204 0.45115
#
# Static dielectric constant tensor:
#      x y z
#    x 1.789090 -0.005700 -0.001730 
#    y -0.005700 1.786220 0.013260 
#    z -0.001730 0.013260 1.723300 
# 
# From -- ./inp_files/416493.got.cif
#   From: 2010.05.17/outbox.cif.g08.bks.cpg/sg2_209_cif.got.tgz:416493.got - 2010.06.03 11:33:40.
