data_PCOD9016889
_publ_section_title
;
Structure prediction by ZEFSAII (Michael W. Deem and Ramdas Pophale) SiO2 
 PCOD9016889
Probable space group: P -1
;
_chemical_formula_sum "Si O2"
_cell_formula_units_Z 16
_cell_length_a 8.776886
_cell_length_b 15.540275
_cell_length_c 9.555590
_cell_angle_alpha 78.161758
_cell_angle_beta 46.147373
_cell_angle_gamma 103.518115
_cell_volume 778.570613
_symmetry_space_group_name_H-M "P -1"
_symmetry_group_IT_number 2
_symmetry_cell_setting 'triclinic'
loop_
_space_group_symop_operation_xyz
x,y,z
-x,-y,-z
loop_
_atom_site_type_symbol
_atom_site_label
_atom_site_fract_x
_atom_site_fract_y
_atom_site_fract_z
Si Si1 0.673657 0.462711 0.833679
Si Si2 0.508352 0.451929 0.658560
Si Si3 0.902636 0.039134 0.423259
Si Si4 0.551261 0.262453 0.601064
Si Si5 0.431498 0.937539 0.918718
Si Si6 0.443820 0.220623 0.991669
Si Si7 0.083508 0.086198 0.801271
Si Si8 0.043627 0.434619 0.110898
O O1 0.720796 0.505973 0.628633
O O2 0.550023 0.338505 0.934969
O O3 0.885784 0.506456 0.803309
O O4 0.500000 0.500000 0.000000
O O5 0.500000 0.500000 0.500000
O O6 0.501770 0.350890 0.649603
O O7 0.265058 0.426416 0.908105
O O8 0.635447 0.017125 0.649147
O O9 0.866835 0.962833 0.347339
O O10 0.000000 0.000000 0.500000
O O11 0.139636 0.154421 0.202119
O O12 0.540848 0.214982 0.776143
O O13 0.332470 0.185801 0.663998
O O14 0.809294 0.321402 0.333732
O O15 0.471033 0.841470 0.943665
O O16 0.147248 0.899050 0.079891
O O17 0.500000 0.000000 0.000000
O O18 0.000000 0.000000 0.000000
O O19 0.000000 0.500000 0.000000
#
# Coordination Sequence:
#
# PCOD9016889 Si02
#       8
#     2   2   2   2   2   2   2   2
#     4   9  22  43  67  99 133 178 228 281 347 404
#     4  10  21  44  65  95 136 172 223 283 340 409
#     4  10  21  42  69  98 137 173 228 283 337 420
#     4  11  24  43  65  94 137 176 219 285 338 399
#     4  11  22  44  68  99 136 183 225 284 347 407
#     4  10  21  44  69  99 137 177 232 279 345 415
#     4  12  24  45  67 101 143 176 229 286 344 412
#     4  11  23  43  67  93 136 175 228 284 339 403
#
# _framework density 20.55048
#
# number of rings (size 3 to 8) (size 9 to 14) (size 15 to 20)
#    0.000    1.500    5.000    0.000    0.000    6.500 
#   15.750    0.000    0.000    0.000    0.000    0.000 
#    0.000    0.000    0.000    0.000    0.000    0.000 
#
# Total GULP energy -89198.499716 kJ/mol
# GULP energy per Si atom -5574.906232 kJ/mol
# Density = 2.050371 g / cm^3
# Si number density = 20.550480 Si / 1000 Ang^3
#
#
#
# Elastic Constant Matrix: (Units=GPa)
#
#
# Indices 1 2 3 4 5 6 
#
# 1 101.5376 38.7981 41.0771 -3.4054 13.2498 27.0674
# 2 38.7981 80.8541 24.9541 12.2940 -3.1479 22.2543
# 3 41.0771 24.9541 141.2552 11.3320 -3.4324 21.0040
# 4 -3.4054 12.2940 11.3320 36.8882 3.0636 -0.5731
# 5 13.2498 -3.1479 -3.4324 3.0636 39.1095 3.9539
# 6 27.0674 22.2543 21.0040 -0.5731 3.9539 45.2950
#
#
#
# Elastic Compliance Matrix: (Units=1/GPa)
#
#
# Indices 1 2 3 4 5 6 
#
# 1 0.015715 -0.006377 -0.003390 0.005062 -0.006118 -0.004087
# 2 -0.006377 0.018235 0.000182 -0.007209 0.004789 -0.005742
# 3 -0.003390 0.000182 0.008706 -0.003286 0.002422 -0.002353
# 4 0.005062 -0.007209 -0.003286 0.031477 -0.005343 0.002905
# 5 -0.006118 0.004789 0.002422 -0.005343 0.028902 -0.002411
# 6 -0.004087 -0.005742 -0.002353 0.002905 -0.002411 0.028679
#
#
# Mechanical properties :
#
#
# Convention : Reuss Voigt Hill
#
# Bulk Modulus (GPa) = 42.58352 59.25618 50.91985
# Shear Modulus (GPa) = 31.50333 38.84639 35.17486
#
# Velocity S-wave (km/s) = 3.91957 4.35246 4.14168
# Velocity P-wave (km/s) = 6.42265 7.35905 6.90674
#
# Compressibility (1/GPa) = 0.02348326
#
# Stress axis : x y z
#
# Youngs Moduli (GPa) = 63.63515 54.83955 114.86936
#
# Poissons Ratio (x) = 0.34973 0.38943
# Poissons Ratio (y) = 0.40582 -0.02086
# Poissons Ratio (z) = 0.21574 -0.00996
#
# Static dielectric constant tensor:
#      x y z
#    x 1.841410 -0.011210 0.017560 
#    y -0.011210 1.691920 -0.005510 
#    z 0.017560 -0.005510 1.754380 
# 
# From -- ./inp_files/217432.got.cif
#   From: 2010.05.17/outbox.cif.g08.bks.cpg/sg2_109_cif.got.tgz:217432.got - 2010.06.03 11:33:40.
