data_PCOD9016772
_publ_section_title
;
Structure prediction by ZEFSAII (Michael W. Deem and Ramdas Pophale) SiO2 
 PCOD9016772
Probable space group: P -1
;
_chemical_formula_sum "Si O2"
_cell_formula_units_Z 16
_cell_length_a 8.362391
_cell_length_b 8.263873
_cell_length_c 14.044027
_cell_angle_alpha 113.519681
_cell_angle_beta 52.477048
_cell_angle_gamma 85.633418
_cell_volume 634.161718
_symmetry_space_group_name_H-M "P -1"
_symmetry_group_IT_number 2
_symmetry_cell_setting 'triclinic'
loop_
_space_group_symop_operation_xyz
x,y,z
-x,-y,-z
loop_
_atom_site_type_symbol
_atom_site_label
_atom_site_fract_x
_atom_site_fract_y
_atom_site_fract_z
Si Si1 0.368289 0.149061 0.282317
Si Si2 0.802481 0.558755 0.761636
Si Si3 0.140622 0.530463 0.081539
Si Si4 0.905858 0.198904 0.505371
Si Si5 0.280705 0.506997 0.531890
Si Si6 0.243908 0.039841 0.613415
Si Si7 0.843828 0.312909 0.075291
Si Si8 0.777331 0.081104 0.199790
O O1 0.336624 0.269726 0.223599
O O2 0.327419 0.297339 0.420727
O O3 0.619273 0.999909 0.182362
O O4 0.165586 0.092850 0.353308
O O5 0.850711 0.347071 0.648668
O O6 0.712505 0.571202 0.903421
O O7 0.044433 0.566470 0.685733
O O8 0.940234 0.740744 0.240238
O O9 0.009411 0.406479 0.066389
O O10 0.266233 0.567007 0.952881
O O11 0.783089 0.355858 0.504374
O O12 0.817106 0.037119 0.480739
O O13 0.500000 0.500000 0.500000
O O14 0.500000 0.000000 0.500000
O O15 0.248214 0.914299 0.676669
O O16 0.732998 0.278328 0.202996
O O17 0.972342 0.087669 0.942199
#
# Coordination Sequence:
#
# PCOD9016772 Si02
#       8
#     2   2   2   2   2   2   2   2
#     4   9  19  34  58  92 122 161 202 248 314 373
#     4   9  20  35  57  92 132 166 189 246 329 376
#     4  10  22  41  63  89 128 162 206 265 307 358
#     4   9  20  36  52  89 136 163 192 238 320 395
#     4   9  17  29  55  90 122 159 202 242 292 384
#     4  11  25  38  63 102 125 159 206 254 320 374
#     4   9  22  43  68  88 115 168 227 264 293 345
#     4  10  21  42  69  90 117 163 219 263 299 367
#
# _framework density 25.230157999999999
#
# number of rings (size 3 to 8) (size 9 to 14) (size 15 to 20)
#    0.000    2.500    0.000    2.250   10.500    1.500 
#    0.000    1.875    0.000    0.000    0.000    0.000 
#    0.000    0.000    0.000    0.000    0.000    0.000 
#
# Total GULP energy -89249.210714 kJ/mol
# GULP energy per Si atom -5578.075670 kJ/mol
# Density = 2.517273 g / cm^3
# Si number density = 25.230158 Si / 1000 Ang^3
#
#
#
# Elastic Constant Matrix: (Units=GPa)
#
#
# Indices 1 2 3 4 5 6 
#
# 1 113.3008 16.0859 3.4118 -14.2213 15.6803 -1.5454
# 2 16.0859 66.2539 11.3856 -16.7512 21.2941 -12.4291
# 3 3.4118 11.3856 56.2898 -13.3748 22.8375 -5.6709
# 4 -14.2213 -16.7512 -13.3748 35.4914 -16.8795 12.5240
# 5 15.6803 21.2941 22.8375 -16.8795 39.2126 -9.3107
# 6 -1.5454 -12.4291 -5.6709 12.5240 -9.3107 47.0189
#
#
#
# Elastic Compliance Matrix: (Units=1/GPa)
#
#
# Indices 1 2 3 4 5 6 
#
# 1 0.009721 -0.001085 0.001494 0.002825 -0.003232 -0.001180
# 2 -0.001085 0.019368 0.000679 0.004269 -0.008064 0.002432
# 3 0.001494 0.000679 0.023781 0.003726 -0.013340 -0.000537
# 4 0.002825 0.004269 0.003726 0.039903 0.009897 -0.006998
# 5 -0.003232 -0.008064 -0.013340 0.009897 0.043719 0.002174
# 6 -0.001180 0.002432 -0.000537 -0.006998 0.002174 0.024102
#
#
# Mechanical properties :
#
#
# Convention : Reuss Voigt Hill
#
# Bulk Modulus (GPa) = 18.16677 33.06790 25.61733
# Shear Modulus (GPa) = 28.28599 38.00865 33.14732
#
# Velocity S-wave (km/s) = 3.35194 3.88555 3.62857
# Velocity P-wave (km/s) = 4.71134 5.76757 5.26601
#
# Compressibility (1/GPa) = 0.05504556
#
# Stress axis : x y z
#
# Youngs Moduli (GPa) = 102.87059 51.63280 42.05103
#
# Poissons Ratio (x) = 0.05603 -0.06282
# Poissons Ratio (y) = 0.11163 -0.02857
# Poissons Ratio (z) = -0.15369 -0.03508
#
# Static dielectric constant tensor:
#      x y z
#    x 2.049070 -0.022330 -0.047080 
#    y -0.022330 2.102910 0.034470 
#    z -0.047080 0.034470 2.118670 
# 
# From -- ./inp_files/381359.got.cif
#   From: 2010.05.17/outbox.cif.g08.bks.cpg/sg2_191_cif.got.tgz:381359.got - 2010.06.03 11:33:40.
