data_PCOD9016422
_publ_section_title
;
Structure prediction by ZEFSAII (Michael W. Deem and Ramdas Pophale) SiO2 
 PCOD9016422
Probable space group: P -1
;
_chemical_formula_sum "Si O2"
_cell_formula_units_Z 14
_cell_length_a 7.400133
_cell_length_b 12.259612
_cell_length_c 9.271293
_cell_angle_alpha 86.984286
_cell_angle_beta 46.386698
_cell_angle_gamma 66.409490
_cell_volume 525.488569
_symmetry_space_group_name_H-M "P -1"
_symmetry_group_IT_number 2
_symmetry_cell_setting 'triclinic'
loop_
_space_group_symop_operation_xyz
x,y,z
-x,-y,-z
loop_
_atom_site_type_symbol
_atom_site_label
_atom_site_fract_x
_atom_site_fract_y
_atom_site_fract_z
Si Si1 0.588456 0.208664 0.981920
Si Si2 0.295005 0.657832 0.524644
Si Si3 0.674347 0.912637 0.079520
Si Si4 0.954206 0.521828 0.694638
Si Si5 0.073234 0.109056 0.496043
Si Si6 0.753277 0.718891 0.281608
Si Si7 0.721072 0.174036 0.246518
O O1 0.340742 0.356306 0.100980
O O2 0.641556 0.189511 0.124232
O O3 0.458781 0.129619 0.975547
O O4 0.888319 0.170340 0.737853
O O5 0.582165 0.653713 0.306527
O O6 0.288180 0.702575 0.688592
O O7 0.209856 0.551973 0.585009
O O8 0.050881 0.775361 0.557106
O O9 0.804819 0.796321 0.128185
O O10 0.416953 0.028906 0.297362
O O11 0.947499 0.930262 0.895039
O O12 0.000000 0.500000 0.500000
O O13 0.001587 0.395578 0.754989
O O14 0.000000 0.000000 0.500000
O O15 0.520626 0.822454 0.514527
#
# Coordination Sequence:
#
# PCOD9016422 Si02
#       7
#     2   2   2   2   2   2   2
#     4  11  21  43  65  99 134 173 232 272 328 413
#     4  10  21  42  67  97 137 176 222 278 340 393
#     4  11  23  46  69  98 139 180 218 283 341 395
#     4  12  23  42  68  97 138 177 226 282 333 402
#     4  10  21  44  69  94 140 172 224 285 332 401
#     4  10  22  43  64  97 139 170 225 273 335 396
#     4  10  22  41  66 101 130 175 230 266 341 401
#
# _framework density 26.641874999999999
#
# number of rings (size 3 to 8) (size 9 to 14) (size 15 to 20)
#    0.857    0.571    5.714    0.429    0.000    2.857 
#    5.143    7.857    0.000    0.000    0.000    0.000 
#    0.000    0.000    0.000    0.000    0.000    0.000 
#
# Total GULP energy -78302.784817 kJ/mol
# GULP energy per Si atom -5593.056058 kJ/mol
# Density = 2.658124 g / cm^3
# Si number density = 26.641875 Si / 1000 Ang^3
#
#
#
# Elastic Constant Matrix: (Units=GPa)
#
#
# Indices 1 2 3 4 5 6 
#
# 1 92.8256 28.7957 47.5955 1.8251 20.7979 -2.0794
# 2 28.7957 127.4868 34.2864 1.7188 6.3482 -9.6898
# 3 47.5955 34.2864 173.2060 -5.8529 1.4299 -3.6381
# 4 1.8251 1.7188 -5.8529 38.4160 -9.0891 3.2240
# 5 20.7979 6.3482 1.4299 -9.0891 62.3729 4.8662
# 6 -2.0794 -9.6898 -3.6381 3.2240 4.8662 36.7352
#
#
#
# Elastic Compliance Matrix: (Units=1/GPa)
#
#
# Indices 1 2 3 4 5 6 
#
# 1 0.014386 -0.001945 -0.003591 -0.002377 -0.004926 0.000807
# 2 -0.001945 0.008808 -0.001185 -0.000790 -0.000510 0.002233
# 3 -0.003591 -0.001185 0.007035 0.001641 0.001407 -0.000149
# 4 -0.002377 -0.000790 0.001641 0.027929 0.005164 -0.003316
# 5 -0.004926 -0.000510 0.001407 0.005164 0.018697 -0.003204
# 6 0.000807 0.002233 -0.000149 -0.003316 -0.003204 0.028557
#
#
# Mechanical properties :
#
#
# Convention : Reuss Voigt Hill
#
# Bulk Modulus (GPa) = 59.56620 68.31929 63.94274
# Shear Modulus (GPa) = 40.17706 46.36086 43.26896
#
# Velocity S-wave (km/s) = 3.88756 4.17604 4.03438
# Velocity P-wave (km/s) = 6.52361 6.99654 6.76421
#
# Compressibility (1/GPa) = 0.01678804
#
# Stress axis : x y z
#
# Youngs Moduli (GPa) = 69.51268 113.53810 142.13876
#
# Poissons Ratio (x) = 0.22083 0.51039
# Poissons Ratio (y) = 0.13520 0.16838
# Poissons Ratio (z) = 0.24961 0.13450
#
# Static dielectric constant tensor:
#      x y z
#    x 2.196040 -0.041070 -0.067750 
#    y -0.041070 2.078400 0.030610 
#    z -0.067750 0.030610 2.089760 
# 
# From -- ./inp_files/207577.got.cif
#   From: 2010.05.17/outbox.cif.g08.bks.cpg/sg2_104_cif.got.tgz:207577.got - 2010.06.03 11:33:40.
