data_PCOD9016520
_publ_section_title
;
Structure prediction by ZEFSAII (Michael W. Deem and Ramdas Pophale) SiO2 
 PCOD9016520
Probable space group: P -1
;
_chemical_formula_sum "Si O2"
_cell_formula_units_Z 16
_cell_length_a 16.960993
_cell_length_b 7.594437
_cell_length_c 16.917902
_cell_angle_alpha 93.465385
_cell_angle_beta 17.908876
_cell_angle_gamma 101.958279
_cell_volume 583.956950
_symmetry_space_group_name_H-M "P -1"
_symmetry_group_IT_number 2
_symmetry_cell_setting 'triclinic'
loop_
_space_group_symop_operation_xyz
x,y,z
-x,-y,-z
loop_
_atom_site_type_symbol
_atom_site_label
_atom_site_fract_x
_atom_site_fract_y
_atom_site_fract_z
Si Si1 0.291351 0.854984 0.001936
Si Si2 0.080313 0.711845 0.819073
Si Si3 0.881804 0.831420 0.852965
Si Si4 0.295440 0.468739 0.427720
Si Si5 0.460123 0.709645 0.689073
Si Si6 0.261577 0.410925 0.293920
Si Si7 0.645608 0.739450 0.348066
Si Si8 0.820287 0.198121 0.590687
O O1 0.078919 0.947433 0.185951
O O2 0.514196 0.996460 0.860298
O O3 0.053729 0.623749 0.241515
O O4 0.451465 0.852550 0.769157
O O5 0.021258 0.773640 0.791056
O O6 0.414269 0.770875 0.517436
O O7 0.874134 0.465389 0.015626
O O8 0.943064 0.793942 0.019692
O O9 0.978469 0.783928 0.675794
O O10 0.529620 0.701590 0.199681
O O11 0.399925 0.415476 0.407356
O O12 0.350527 0.367395 0.293604
O O13 0.636499 0.820917 0.446047
O O14 0.200404 0.596372 0.376766
O O15 0.987940 0.214024 0.512987
O O16 0.500000 0.500000 0.000000
O O17 0.500000 0.500000 0.500000
#
# Coordination Sequence:
#
# PCOD9016520 Si02
#       8
#     2   2   2   2   2   2   2   2
#     4  12  26  44  69 110 146 190 246 310 359 450
#     4  10  24  40  77 105 147 203 256 300 384 437
#     4  11  25  47  71 105 150 193 243 307 372 445
#     4  11  25  43  74 103 138 195 238 294 381 440
#     4  10  24  38  70 102 148 188 249 299 371 441
#     4  11  23  45  76 103 140 186 244 300 368 446
#     4  10  21  42  68 113 147 198 251 317 362 450
#     4  11  24  44  73 102 145 189 234 310 368 437
#
# _framework density 27.399280999999998
#
# number of rings (size 3 to 8) (size 9 to 14) (size 15 to 20)
#    0.000    1.250    2.500    2.250   12.250    0.500 
#    0.000    5.625    0.000    0.000    0.000    0.000 
#    0.000    0.000    0.000    0.000    0.000    0.000 
#
# Total GULP energy -89666.007394 kJ/mol
# GULP energy per Si atom -5604.125462 kJ/mol
# Density = 2.733692 g / cm^3
# Si number density = 27.399281 Si / 1000 Ang^3
#
#
#
# Elastic Constant Matrix: (Units=GPa)
#
#
# Indices 1 2 3 4 5 6 
#
# 1 120.8037 3.9149 23.0207 6.1852 2.7976 24.1959
# 2 3.9149 103.7795 27.5731 14.7922 7.2662 25.5800
# 3 23.0207 27.5731 135.9442 0.2864 9.2291 9.4366
# 4 6.1852 14.7922 0.2864 52.6075 9.9127 7.7954
# 5 2.7976 7.2662 9.2291 9.9127 51.3684 5.5551
# 6 24.1959 25.5800 9.4366 7.7954 5.5551 41.0056
#
#
#
# Elastic Compliance Matrix: (Units=1/GPa)
#
#
# Indices 1 2 3 4 5 6 
#
# 1 0.009841 0.001715 -0.001591 -0.000745 0.000345 -0.006415
# 2 0.001715 0.012454 -0.002264 -0.002517 -0.000123 -0.007765
# 3 -0.001591 -0.002264 0.008137 0.000952 -0.001290 0.000472
# 4 -0.000745 -0.002517 0.000952 0.020722 -0.003594 -0.001662
# 5 0.000345 -0.000123 -0.001290 -0.003594 0.020601 -0.001938
# 6 -0.006415 -0.007765 0.000472 -0.001662 -0.001938 0.033486
#
#
# Mechanical properties :
#
#
# Convention : Reuss Voigt Hill
#
# Bulk Modulus (GPa) = 38.23770 52.17164 45.20467
# Shear Modulus (GPa) = 42.28789 49.39755 45.84272
#
# Velocity S-wave (km/s) = 3.93287 4.25064 4.09484
# Velocity P-wave (km/s) = 5.88297 6.57063 6.23628
#
# Compressibility (1/GPa) = 0.02615220
#
# Stress axis : x y z
#
# Youngs Moduli (GPa) = 101.62071 80.29656 122.89116
#
# Poissons Ratio (x) = -0.13768 0.19548
# Poissons Ratio (y) = -0.17425 0.27819
# Poissons Ratio (z) = 0.16165 0.18177
#
# Static dielectric constant tensor:
#      x y z
#    x 2.153810 0.033820 -0.039930 
#    y 0.033820 2.127750 -0.032670 
#    z -0.039930 -0.032670 2.150070 
# 
# From -- ./inp_files/575422.got.cif
#   From: 2010.05.17/outbox.cif.g08.bks.cpg/sg2_288_cif.got.tgz:575422.got - 2010.06.03 11:33:40.
