data_PCOD9016050
_publ_section_title
;
Structure prediction by ZEFSAII (Michael W. Deem and Ramdas Pophale) SiO2 
 PCOD9016050
Probable space group: P -1
;
_chemical_formula_sum "Si O2"
_cell_formula_units_Z 16
_cell_length_a 14.412193
_cell_length_b 20.545820
_cell_length_c 7.527621
_cell_angle_alpha 60.677508
_cell_angle_beta 65.423279
_cell_angle_gamma 21.025704
_cell_volume 691.196907
_symmetry_space_group_name_H-M "P -1"
_symmetry_group_IT_number 2
_symmetry_cell_setting 'triclinic'
loop_
_space_group_symop_operation_xyz
x,y,z
-x,-y,-z
loop_
_atom_site_type_symbol
_atom_site_label
_atom_site_fract_x
_atom_site_fract_y
_atom_site_fract_z
Si Si1 0.927325 0.882544 0.814156
Si Si2 0.497337 0.281957 0.743627
Si Si3 0.345177 0.814892 0.843366
Si Si4 0.185708 0.419183 0.327604
Si Si5 0.082597 0.372685 0.224251
Si Si6 0.312644 0.658869 0.087601
Si Si7 0.221472 0.750900 0.419078
Si Si8 0.211242 0.193036 0.047972
O O1 0.887166 0.824082 0.875858
O O2 0.120154 0.783292 0.639646
O O3 0.667632 0.107009 0.735833
O O4 0.041559 0.814131 0.013251
O O5 0.191840 0.475219 0.689196
O O6 0.605508 0.292767 0.613872
O O7 0.547451 0.236873 0.976381
O O8 0.550746 0.712205 0.680292
O O9 0.344251 0.726371 0.955585
O O10 0.051941 0.036744 0.737590
O O11 0.270458 0.289051 0.319782
O O12 0.000000 0.500000 0.500000
O O13 0.989626 0.613447 0.141141
O O14 0.215026 0.219212 0.211476
O O15 0.000000 0.500000 0.000000
O O16 0.338425 0.626250 0.321906
O O17 0.500000 0.500000 0.000000
O O18 0.500000 0.000000 0.000000
#
# Coordination Sequence:
#
# PCOD9016050 Si02
#       8
#     2   2   2   2   2   2   2   2
#     4  12  24  42  67  98 137 177 220 282 344 391
#     4  11  20  42  69  93 135 179 228 274 332 406
#     4  11  21  43  67  96 132 170 234 274 331 406
#     4  11  25  44  70  99 129 177 230 280 334 408
#     4  10  21  42  66  93 125 177 221 269 332 395
#     4  11  24  42  64  96 139 176 213 284 345 389
#     4  11  25  41  66 103 129 181 231 269 331 416
#     4  11  25  44  66  97 131 174 224 278 344 395
#
# _framework density 23.148253
#
# number of rings (size 3 to 8) (size 9 to 14) (size 15 to 20)
#    0.000    1.000    5.000    3.375    5.250    0.500 
#    4.500    0.625    0.000    0.000    0.000    0.000 
#    0.000    0.000    0.000    0.000    0.000    0.000 
#
# Total GULP energy -89331.993541 kJ/mol
# GULP energy per Si atom -5583.249596 kJ/mol
# Density = 2.309557 g / cm^3
# Si number density = 23.148253 Si / 1000 Ang^3
#
#
#
# Elastic Constant Matrix: (Units=GPa)
#
#
# Indices 1 2 3 4 5 6 
#
# 1 149.2290 36.3911 52.7515 8.9805 -26.5273 21.4176
# 2 36.3911 117.3400 9.0098 25.6205 -9.7313 18.7744
# 3 52.7515 9.0098 92.8781 18.5036 -11.1488 9.4628
# 4 8.9805 25.6205 18.5036 29.7663 -12.5354 1.2728
# 5 -26.5273 -9.7313 -11.1488 -12.5354 37.2041 13.2211
# 6 21.4176 18.7744 9.4628 1.2728 13.2211 48.4157
#
#
#
# Elastic Compliance Matrix: (Units=1/GPa)
#
#
# Indices 1 2 3 4 5 6 
#
# 1 0.011840 -0.003016 -0.006055 0.007445 0.010456 -0.005936
# 2 -0.003016 0.012296 0.003142 -0.011769 -0.000697 -0.003549
# 3 -0.006055 0.003142 0.016040 -0.011842 -0.002430 -0.000700
# 4 0.007445 -0.011769 -0.011842 0.056963 0.018974 -0.003094
# 5 0.010456 -0.000697 -0.002430 0.018974 0.045820 -0.016892
# 6 -0.005936 -0.003549 -0.000700 -0.003094 -0.016892 0.029487
#
#
# Mechanical properties :
#
#
# Convention : Reuss Voigt Hill
#
# Bulk Modulus (GPa) = 35.31243 61.75023 48.53133
# Shear Modulus (GPa) = 25.80764 40.49686 33.15225
#
# Velocity S-wave (km/s) = 3.34261 4.18719 3.78851
# Velocity P-wave (km/s) = 5.49413 7.07889 6.33625
#
# Compressibility (1/GPa) = 0.02831864
#
# Stress axis : x y z
#
# Youngs Moduli (GPa) = 84.46217 81.32873 62.34409
#
# Poissons Ratio (x) = 0.24526 0.37751
# Poissons Ratio (y) = 0.25471 -0.19592
# Poissons Ratio (z) = 0.51144 -0.25557
#
# Static dielectric constant tensor:
#      x y z
#    x 1.850850 -0.000400 0.089430 
#    y -0.000400 1.814880 0.060630 
#    z 0.089430 0.060630 1.943660 
# 
# From -- ./inp_files/186907.got.cif
#   From: 2010.05.17/outbox.cif.g08.bks.cpg/sg2_94_cif.got.tgz:186907.got - 2010.06.03 11:33:40.
