data_PCOD9016831
_publ_section_title
;
Structure prediction by ZEFSAII (Michael W. Deem and Ramdas Pophale) SiO2 
 PCOD9016831
Probable space group: P -1
;
_chemical_formula_sum "Si O2"
_cell_formula_units_Z 16
_cell_length_a 13.779483
_cell_length_b 15.225095
_cell_length_c 6.907491
_cell_angle_alpha 94.752066
_cell_angle_beta 104.077242
_cell_angle_gamma 144.095702
_cell_volume 717.639041
_symmetry_space_group_name_H-M "P -1"
_symmetry_group_IT_number 2
_symmetry_cell_setting 'triclinic'
loop_
_space_group_symop_operation_xyz
x,y,z
-x,-y,-z
loop_
_atom_site_type_symbol
_atom_site_label
_atom_site_fract_x
_atom_site_fract_y
_atom_site_fract_z
Si Si1 0.404786 0.080107 0.634473
Si Si2 0.432168 0.592463 0.478445
Si Si3 0.756327 0.468656 0.956721
Si Si4 0.192847 0.841882 0.818427
Si Si5 0.158238 0.618414 0.766480
Si Si6 0.376916 0.394237 0.723715
Si Si7 0.471181 0.148941 0.272128
Si Si8 0.033765 0.232202 0.616999
O O1 0.538805 0.259232 0.820416
O O2 0.503293 0.126056 0.490977
O O3 0.359487 0.971457 0.751499
O O4 0.186811 0.948206 0.448934
O O5 0.247709 0.495773 0.255443
O O6 0.401302 0.495951 0.609175
O O7 0.552100 0.635000 0.372004
O O8 0.532821 0.751280 0.658791
O O9 0.880966 0.480543 0.099350
O O10 0.829016 0.603230 0.151767
O O11 0.012146 0.746433 0.595958
O O12 0.827568 0.271201 0.135040
O O13 0.274050 0.966862 0.044429
O O14 0.352187 0.736149 0.766143
O O15 0.000000 0.500000 0.500000
O O16 0.149193 0.229552 0.636947
O O17 0.500000 0.500000 0.000000
#
# Coordination Sequence:
#
# PCOD9016831 Si02
#       8
#     2   2   2   2   2   2   2   2
#     4   9  23  42  63  97 130 181 224 269 339 388
#     4  10  25  41  68 105 126 181 223 266 359 397
#     4  11  20  43  66  91 147 166 222 283 322 399
#     4  10  23  41  65  95 136 182 225 275 333 390
#     4  12  22  40  67 102 130 185 232 268 336 402
#     4  11  22  42  74 102 133 172 221 285 344 402
#     4  11  23  43  68  89 145 177 215 292 329 393
#     4  10  21  42  69  95 133 180 221 279 332 404
#
# _framework density 22.295331000000001
#
# number of rings (size 3 to 8) (size 9 to 14) (size 15 to 20)
#    0.750    0.750    3.750    1.125    0.000    1.500 
#    4.500    5.625    0.000    0.000    0.000    0.000 
#    0.000    0.000    0.000    0.000    0.000    0.000 
#
# Total GULP energy -89185.944543 kJ/mol
# GULP energy per Si atom -5574.121534 kJ/mol
# Density = 2.224459 g / cm^3
# Si number density = 22.295331 Si / 1000 Ang^3
#
#
#
# Elastic Constant Matrix: (Units=GPa)
#
#
# Indices 1 2 3 4 5 6 
#
# 1 90.6494 15.2079 52.6294 1.9345 -11.9424 -6.1498
# 2 15.2079 52.4696 37.9550 -17.8687 0.5549 -1.7403
# 3 52.6294 37.9550 151.7816 -8.2221 -15.4257 -7.6936
# 4 1.9345 -17.8687 -8.2221 41.9479 -13.2922 4.7321
# 5 -11.9424 0.5549 -15.4257 -13.2922 34.3520 0.2398
# 6 -6.1498 -1.7403 -7.6936 4.7321 0.2398 33.5450
#
#
#
# Elastic Compliance Matrix: (Units=1/GPa)
#
#
# Indices 1 2 3 4 5 6 
#
# 1 0.014264 -0.001517 -0.004317 -0.001581 0.002421 0.001752
# 2 -0.001517 0.027325 -0.005723 0.011016 0.000736 -0.001732
# 3 -0.004317 -0.005723 0.009940 0.000631 0.003292 0.001079
# 4 -0.001581 0.011016 0.000631 0.033151 0.012414 -0.004339
# 5 0.002421 0.000736 0.003292 0.012414 0.036227 -0.000773
# 6 0.001752 -0.001732 0.001079 -0.004339 -0.000773 0.030907
#
#
# Mechanical properties :
#
#
# Convention : Reuss Voigt Hill
#
# Bulk Modulus (GPa) = 35.19447 56.27615 45.73531
# Shear Modulus (GPa) = 27.11487 34.57621 30.84554
#
# Velocity S-wave (km/s) = 3.49114 3.94233 3.72357
# Velocity P-wave (km/s) = 5.66309 6.78370 6.24857
#
# Compressibility (1/GPa) = 0.02841355
#
# Stress axis : x y z
#
# Youngs Moduli (GPa) = 70.10574 36.59682 100.60363
#
# Poissons Ratio (x) = 0.05552 0.43435
# Poissons Ratio (y) = 0.10636 0.57577
# Poissons Ratio (z) = 0.30268 0.20945
#
# Static dielectric constant tensor:
#      x y z
#    x 1.817540 0.045910 0.019750 
#    y 0.045910 1.914510 -0.018120 
#    z 0.019750 -0.018120 1.855040 
# 
# From -- ./inp_files/317173.got.cif
#   From: 2010.05.17/outbox.cif.g08.bks.cpg/sg2_159_cif.got.tgz:317173.got - 2010.06.03 11:33:40.
