data_PCOD9016473
_publ_section_title
;
Structure prediction by ZEFSAII (Michael W. Deem and Ramdas Pophale) SiO2 
 PCOD9016473
Probable space group: P -1
;
_chemical_formula_sum "Si O2"
_cell_formula_units_Z 13
_cell_length_a 11.085975
_cell_length_b 11.109836
_cell_length_c 20.121320
_cell_angle_alpha 156.653521
_cell_angle_beta 137.669905
_cell_angle_gamma 40.423288
_cell_volume 628.923696
_symmetry_space_group_name_H-M "P -1"
_symmetry_group_IT_number 2
_symmetry_cell_setting 'triclinic'
loop_
_space_group_symop_operation_xyz
x,y,z
-x,-y,-z
loop_
_atom_site_type_symbol
_atom_site_label
_atom_site_fract_x
_atom_site_fract_y
_atom_site_fract_z
Si Si1 0.803595 0.378190 0.569472
Si Si2 0.022874 0.744986 0.077546
Si Si3 0.470924 0.360984 0.523448
Si Si4 0.553451 0.284212 0.762748
Si Si5 0.890678 0.642608 0.218726
Si Si6 0.500000 0.500000 0.000000
Si Si7 0.376211 0.763768 0.818386
O O1 0.650508 0.384915 0.567861
O O2 0.693044 0.605507 0.581185
O O3 0.972041 0.468956 0.718751
O O4 0.876946 0.012587 0.388761
O O5 0.220358 0.812795 0.203157
O O6 0.030372 0.574639 0.922920
O O7 0.841558 0.052493 0.164084
O O8 0.000000 0.500000 0.000000
O O9 0.507281 0.027881 0.406403
O O10 0.406860 0.636913 0.691487
O O11 0.510733 0.493105 0.918386
O O12 0.452296 0.477901 0.756412
O O13 0.685041 0.624644 0.141105
O O14 0.500000 0.000000 0.000000
#
# Coordination Sequence:
#
# PCOD9016473 Si02
#       7
#     2   2   2   2   2   1   2
#     4  10  22  40  72  96 134 184 226 277 343 403
#     4  11  23  42  66  99 133 178 228 280 339 410
#     4  11  24  44  65 100 140 178 229 282 340 406
#     4  11  25  43  68  99 139 179 222 289 337 401
#     4  10  21  42  68 101 132 178 227 286 334 411
#     4  10  22  42  70  96 140 168 230 278 342 394
#     4  12  25  43  69  97 132 185 226 277 347 408
#
# _framework density 20.670234000000001
#
# number of rings (size 3 to 8) (size 9 to 14) (size 15 to 20)
#    0.000    1.231    3.077    2.308    2.154    3.077 
#    0.000    3.077    0.000    0.000    0.000    0.000 
#    0.000    0.000    0.000    0.000    0.000    0.000 
#
# Total GULP energy -72457.426700 kJ/mol
# GULP energy per Si atom -5573.648208 kJ/mol
# Density = 2.062319 g / cm^3
# Si number density = 20.670234 Si / 1000 Ang^3
#
#
#
# Elastic Constant Matrix: (Units=GPa)
#
#
# Indices 1 2 3 4 5 6 
#
# 1 60.2217 18.1399 28.3385 5.5565 -10.6461 11.0481
# 2 18.1399 95.1812 23.4831 -2.4897 -4.9367 5.3576
# 3 28.3385 23.4831 79.8551 -10.4402 -8.0800 -4.5506
# 4 5.5565 -2.4897 -10.4402 23.7402 -9.7381 -2.2294
# 5 -10.6461 -4.9367 -8.0800 -9.7381 33.8471 7.5910
# 6 11.0481 5.3576 -4.5506 -2.2294 7.5910 28.2953
#
#
#
# Elastic Compliance Matrix: (Units=1/GPa)
#
#
# Indices 1 2 3 4 5 6 
#
# 1 0.026561 -0.001643 -0.010434 -0.009861 0.005952 -0.014112
# 2 -0.001643 0.011717 -0.002779 0.000685 0.001242 -0.002303
# 3 -0.010434 -0.002779 0.019423 0.012582 0.002782 0.007969
# 4 -0.009861 0.000685 0.012582 0.056745 0.014935 0.006208
# 5 0.005952 0.001242 0.002782 0.014935 0.039123 -0.011431
# 6 -0.014112 -0.002303 0.007969 0.006208 -0.011431 0.046125
#
#
# Mechanical properties :
#
#
# Convention : Reuss Voigt Hill
#
# Bulk Modulus (GPa) = 35.72667 41.68679 38.70673
# Shear Modulus (GPa) = 20.94375 28.19626 24.57001
#
# Velocity S-wave (km/s) = 3.18658 3.69738 3.45144
# Velocity P-wave (km/s) = 5.55524 6.19990 5.88641
#
# Compressibility (1/GPa) = 0.02799029
#
# Stress axis : x y z
#
# Youngs Moduli (GPa) = 37.64930 85.34666 51.48496
#
# Poissons Ratio (x) = 0.14020 0.53719
# Poissons Ratio (y) = 0.06185 0.14306
# Poissons Ratio (z) = 0.39283 0.23715
#
# Static dielectric constant tensor:
#      x y z
#    x 1.703020 -0.016750 -0.010970 
#    y -0.016750 1.748930 0.011610 
#    z -0.010970 0.011610 1.734920 
# 
# From -- ./inp_files/567697.got.cif
#   From: 2010.05.17/outbox.cif.g08.bks.cpg/sg2_284_cif.got.tgz:567697.got - 2010.06.03 11:33:40.
