data_PCOD9016539
_publ_section_title
;
Structure prediction by ZEFSAII (Michael W. Deem and Ramdas Pophale) SiO2 
 PCOD9016539
Probable space group: P -1
;
_chemical_formula_sum "Si O2"
_cell_formula_units_Z 14
_cell_length_a 15.409658
_cell_length_b 16.817874
_cell_length_c 8.580188
_cell_angle_alpha 121.832296
_cell_angle_beta 133.175610
_cell_angle_gamma 23.570994
_cell_volume 609.368376
_symmetry_space_group_name_H-M "P -1"
_symmetry_group_IT_number 2
_symmetry_cell_setting 'triclinic'
loop_
_space_group_symop_operation_xyz
x,y,z
-x,-y,-z
loop_
_atom_site_type_symbol
_atom_site_label
_atom_site_fract_x
_atom_site_fract_y
_atom_site_fract_z
Si Si1 0.648256 0.442905 0.978567
Si Si2 0.125665 0.423836 0.342870
Si Si3 0.700547 0.172958 0.269959
Si Si4 0.497918 0.582248 0.453343
Si Si5 0.433657 0.196346 0.798338
Si Si6 0.046201 0.697235 0.519834
Si Si7 0.516677 0.942198 0.793160
O O1 0.453551 0.648886 0.856074
O O2 0.730088 0.297632 0.819789
O O3 0.500000 0.500000 0.000000
O O4 0.866597 0.347916 0.240668
O O5 0.366507 0.254260 0.592705
O O6 0.062409 0.575379 0.385300
O O7 0.852629 0.575185 0.236971
O O8 0.223398 0.297024 0.184782
O O9 0.552654 0.289248 0.376527
O O10 0.658206 0.102629 0.061471
O O11 0.000000 0.000000 0.500000
O O12 0.500000 0.500000 0.500000
O O13 0.762891 0.396835 0.478657
O O14 0.487358 0.049635 0.748653
O O15 0.739956 0.945102 0.399760
O O16 0.500000 0.000000 0.000000
#
# Coordination Sequence:
#
# PCOD9016539 Si02
#       7
#     2   2   2   2   2   2   2
#     4   9  19  42  63  88 127 171 216 257 328 402
#     4  10  22  44  67  95 128 174 224 268 329 390
#     4  11  23  40  64  99 129 169 219 273 337 390
#     4   9  21  39  62  91 130 172 207 269 331 386
#     4  10  23  43  67  92 135 173 214 275 332 390
#     4  10  21  42  68  91 129 177 214 268 337 392
#     4  11  26  39  64 103 127 166 224 277 332 397
#
# _framework density 22.974609000000001
#
# number of rings (size 3 to 8) (size 9 to 14) (size 15 to 20)
#    0.000    2.000    1.429    0.429    4.000    5.714 
#    2.571    1.429    0.000    0.000    0.000    0.000 
#    0.000    0.000    0.000    0.000    0.000    0.000 
#
# Total GULP energy -78053.059639 kJ/mol
# GULP energy per Si atom -5575.218546 kJ/mol
# Density = 2.292232 g / cm^3
# Si number density = 22.974609 Si / 1000 Ang^3
#
#
#
# Elastic Constant Matrix: (Units=GPa)
#
#
# Indices 1 2 3 4 5 6 
#
# 1 73.4153 8.3788 11.5393 1.5366 -2.2734 -3.9320
# 2 8.3788 53.3847 26.1739 8.5381 -4.0082 -8.1498
# 3 11.5393 26.1739 132.0605 0.7091 -6.4581 -12.8818
# 4 1.5366 8.5381 0.7091 35.7671 -3.9928 -1.4434
# 5 -2.2734 -4.0082 -6.4581 -3.9928 33.5215 2.1156
# 6 -3.9320 -8.1498 -12.8818 -1.4434 2.1156 27.3235
#
#
#
# Elastic Compliance Matrix: (Units=1/GPa)
#
#
# Indices 1 2 3 4 5 6 
#
# 1 0.014003 -0.001591 -0.000772 -0.000102 0.000527 0.001131
# 2 -0.001591 0.022361 -0.003798 -0.004911 0.000977 0.004315
# 3 -0.000772 -0.003798 0.008718 0.001006 0.001114 0.002833
# 4 -0.000102 -0.004911 0.001006 0.029473 0.003090 0.000312
# 5 0.000527 0.000977 0.001114 0.003090 0.030650 -0.001317
# 6 0.001131 0.004315 0.002833 0.000312 -0.001317 0.039503
#
#
# Mechanical properties :
#
#
# Convention : Reuss Voigt Hill
#
# Bulk Modulus (GPa) = 30.52386 39.00496 34.76441
# Shear Modulus (GPa) = 29.77094 33.50700 31.63897
#
# Velocity S-wave (km/s) = 3.60365 3.82309 3.71499
# Velocity P-wave (km/s) = 5.53442 6.04171 5.79362
#
# Compressibility (1/GPa) = 0.03276125
#
# Stress axis : x y z
#
# Youngs Moduli (GPa) = 71.41323 44.72019 114.70692
#
# Poissons Ratio (x) = 0.07115 0.08851
# Poissons Ratio (y) = 0.11362 0.43564
# Poissons Ratio (z) = 0.05510 0.16984
#
# Static dielectric constant tensor:
#      x y z
#    x 1.881300 0.016820 0.025540 
#    y 0.016820 1.893800 -0.025430 
#    z 0.025540 -0.025430 2.042490 
# 
# From -- ./inp_files/256050.got.cif
#   From: 2010.05.17/outbox.cif.g08.bks.cpg/sg2_129_cif.got.tgz:256050.got - 2010.06.03 11:33:40.
