data_PCOD9016015
_publ_section_title
;
Structure prediction by ZEFSAII (Michael W. Deem and Ramdas Pophale) SiO2 
 PCOD9016015
Probable space group: P -1
;
_chemical_formula_sum "Si O2"
_cell_formula_units_Z 10
_cell_length_a 9.631509
_cell_length_b 12.601205
_cell_length_c 15.515095
_cell_angle_alpha 26.906965
_cell_angle_beta 36.916632
_cell_angle_gamma 52.257459
_cell_volume 475.324082
_symmetry_space_group_name_H-M "P -1"
_symmetry_group_IT_number 2
_symmetry_cell_setting 'triclinic'
loop_
_space_group_symop_operation_xyz
x,y,z
-x,-y,-z
loop_
_atom_site_type_symbol
_atom_site_label
_atom_site_fract_x
_atom_site_fract_y
_atom_site_fract_z
Si Si1 0.242058 0.437660 0.761292
Si Si2 0.304896 0.732381 0.321928
Si Si3 0.950098 0.928953 0.717443
Si Si4 0.050762 0.750346 0.133833
Si Si5 0.365468 0.028758 0.310222
O O1 0.486350 0.370632 0.672841
O O2 0.316224 0.737305 0.520366
O O3 0.055202 0.339454 0.844702
O O4 0.118124 0.285427 0.020341
O O5 0.106069 0.832734 0.391852
O O6 0.116476 0.477538 0.555955
O O7 0.500000 0.000000 0.000000
O O8 0.766263 0.852599 0.780899
O O9 0.225255 0.010919 0.483138
O O10 0.342667 0.815933 0.946581
O O11 0.000000 0.000000 0.000000
#
# Coordination Sequence:
#
# PCOD9016015 Si02
#       5
#     2   2   2   2   2
#     4  11  22  44  67  91 136 169 211 272 319 381
#     4  10  21  42  66  90 131 168 211 268 321 375
#     4  10  23  43  64  96 133 172 206 270 328 373
#     4  12  23  40  71  97 125 173 222 262 320 387
#     4  11  23  43  67  94 133 171 214 263 324 389
#
# _framework density 21.038278999999999
#
# number of rings (size 3 to 8) (size 9 to 14) (size 15 to 20)
#    0.000    1.200    4.000    2.400    0.000    1.600 
#    7.200    6.000    0.000    0.000    0.000    0.000 
#    0.000    0.000    0.000    0.000    0.000    0.000 
#
# Total GULP energy -55675.616703 kJ/mol
# GULP energy per Si atom -5567.561670 kJ/mol
# Density = 2.099039 g / cm^3
# Si number density = 21.038279 Si / 1000 Ang^3
#
#
#
# Elastic Constant Matrix: (Units=GPa)
#
#
# Indices 1 2 3 4 5 6 
#
# 1 73.0603 -11.6655 51.2206 3.9638 6.6390 -1.6344
# 2 -11.6655 80.1763 33.6912 -1.6345 -3.8884 -7.1296
# 3 51.2206 33.6912 171.6551 -7.0867 -5.1106 -8.1422
# 4 3.9638 -1.6345 -7.0867 30.6502 -9.8975 -6.0745
# 5 6.6390 -3.8884 -5.1106 -9.8975 40.2322 4.9533
# 6 -1.6344 -7.1296 -8.1422 -6.0745 4.9533 25.5781
#
#
#
# Elastic Compliance Matrix: (Units=1/GPa)
#
#
# Indices 1 2 3 4 5 6 
#
# 1 0.020919 0.005958 -0.007806 -0.005886 -0.005334 0.000148
# 2 0.005958 0.015567 -0.004725 -0.000600 -0.000620 0.003193
# 3 -0.007806 -0.004725 0.009417 0.004178 0.002856 0.001621
# 4 -0.005886 -0.000600 0.004178 0.039191 0.010083 0.008142
# 5 -0.005334 -0.000620 0.002856 0.010083 0.028864 -0.002799
# 6 0.000148 0.003193 0.001621 0.008142 -0.002799 0.042987
#
#
# Mechanical properties :
#
#
# Convention : Reuss Voigt Hill
#
# Bulk Modulus (GPa) = 30.52834 52.37603 41.45218
# Shear Modulus (GPa) = 27.62299 36.06846 31.84572
#
# Velocity S-wave (km/s) = 3.62745 4.14505 3.89486
# Velocity P-wave (km/s) = 5.66453 6.91796 6.32238
#
# Compressibility (1/GPa) = 0.03275645
#
# Stress axis : x y z
#
# Youngs Moduli (GPa) = 47.80404 64.23998 106.19351
#
# Poissons Ratio (x) = -0.38277 0.82897
# Poissons Ratio (y) = -0.28484 0.50177
# Poissons Ratio (z) = 0.37317 0.30353
#
# Static dielectric constant tensor:
#      x y z
#    x 1.779240 0.057100 0.141700 
#    y 0.057100 1.768350 0.048930 
#    z 0.141700 0.048930 1.729840 
# 
# From -- ./inp_files/18069.got.cif
#   From: 2010.05.17/outbox.cif.g08.bks.cpg/sg2_10_cif.got.tgz:18069.got - 2010.06.03 11:33:40.
