data_PCOD9016336
_publ_section_title
;
Structure prediction by ZEFSAII (Michael W. Deem and Ramdas Pophale) SiO2 
 PCOD9016336
Probable space group: P -1
;
_chemical_formula_sum "Si O2"
_cell_formula_units_Z 16
_cell_length_a 8.109916
_cell_length_b 5.044557
_cell_length_c 18.661285
_cell_angle_alpha 84.485997
_cell_angle_beta 128.336777
_cell_angle_gamma 99.969941
_cell_volume 589.727864
_symmetry_space_group_name_H-M "P -1"
_symmetry_group_IT_number 2
_symmetry_cell_setting 'triclinic'
loop_
_space_group_symop_operation_xyz
x,y,z
-x,-y,-z
loop_
_atom_site_type_symbol
_atom_site_label
_atom_site_fract_x
_atom_site_fract_y
_atom_site_fract_z
Si Si1 0.300561 0.916793 0.521596
Si Si2 0.595757 0.313429 0.682075
Si Si3 0.806352 0.556214 0.595361
Si Si4 0.956524 0.353184 0.151028
Si Si5 0.705591 0.784947 0.117140
Si Si6 0.323491 0.103384 0.187417
Si Si7 0.754517 0.382228 0.351848
Si Si8 0.689968 0.595912 0.962788
O O1 0.332471 0.670819 0.484961
O O2 0.164205 0.782997 0.555383
O O3 0.511029 0.055445 0.615730
O O4 0.211826 0.147254 0.446694
O O5 0.732718 0.508144 0.657872
O O6 0.383549 0.414367 0.652108
O O7 0.709712 0.198522 0.784063
O O8 0.045506 0.503459 0.644229
O O9 0.890177 0.597103 0.173398
O O10 0.181895 0.260069 0.197546
O O11 0.809518 0.087554 0.149829
O O12 0.868919 0.434581 0.047001
O O13 0.504469 0.629863 0.108991
O O14 0.629009 0.753987 0.013668
O O15 0.574884 0.200884 0.261641
O O16 0.257176 0.181716 0.089113
#
# Coordination Sequence:
#
# PCOD9016336 Si02
#       8
#     2   2   2   2   2   2   2   2
#     4  11  24  46  77 106 131 180 236 288 335 409
#     4  11  27  45  68 105 145 180 228 282 352 408
#     4  12  26  45  77 101 134 185 233 282 341 407
#     4  10  21  42  67  94 127 174 223 277 330 399
#     4   9  21  39  70 100 121 163 242 274 335 397
#     4  11  26  43  61  99 144 177 223 282 339 412
#     4  11  27  46  67 107 142 181 228 284 348 407
#     4   9  21  41  68 100 127 175 227 284 329 403
#
# _framework density 27.131160999999999
#
# number of rings (size 3 to 8) (size 9 to 14) (size 15 to 20)
#    0.750    0.750    1.250    2.250    8.750    2.500 
#    2.250    0.000    0.000    0.000    0.000    0.000 
#    0.000    0.000    0.000    0.000    0.000    0.000 
#
# Total GULP energy -89552.463038 kJ/mol
# GULP energy per Si atom -5597.028940 kJ/mol
# Density = 2.706941 g / cm^3
# Si number density = 27.131161 Si / 1000 Ang^3
#
#
#
# Elastic Constant Matrix: (Units=GPa)
#
#
# Indices 1 2 3 4 5 6 
#
# 1 150.6805 38.5691 58.2673 -34.2827 -0.1032 14.6076
# 2 38.5691 140.7769 37.4962 -40.6485 -6.9978 -6.1959
# 3 58.2673 37.4962 88.1819 -41.0916 -2.9312 10.0031
# 4 -34.2827 -40.6485 -41.0916 51.9663 7.1828 0.9546
# 5 -0.1032 -6.9978 -2.9312 7.1828 53.7135 -8.5914
# 6 14.6076 -6.1959 10.0031 0.9546 -8.5914 34.9293
#
#
#
# Elastic Compliance Matrix: (Units=1/GPa)
#
#
# Indices 1 2 3 4 5 6 
#
# 1 0.009410 -0.000966 -0.004507 0.002105 -0.001140 -0.003154
# 2 -0.000966 0.009450 -0.000861 0.005925 0.000766 0.002353
# 3 -0.004507 -0.000861 0.021655 0.013797 -0.001623 -0.005246
# 4 0.002105 0.005925 0.013797 0.036884 -0.004340 -0.005856
# 5 -0.001140 0.000766 -0.001623 -0.004340 0.020192 0.006163
# 6 -0.003154 0.002353 -0.005246 -0.005856 0.006163 0.033544
#
#
# Mechanical properties :
#
#
# Convention : Reuss Voigt Hill
#
# Bulk Modulus (GPa) = 35.90860 72.03383 53.97121
# Shear Modulus (GPa) = 32.66202 44.47560 38.56881
#
# Velocity S-wave (km/s) = 3.47343 4.05320 3.77446
# Velocity P-wave (km/s) = 5.41758 6.96508 6.23949
#
# Compressibility (1/GPa) = 0.02784848
#
# Stress axis : x y z
#
# Youngs Moduli (GPa) = 106.26713 105.82398 46.17969
#
# Poissons Ratio (x) = 0.10218 0.20812
# Poissons Ratio (y) = 0.10260 0.03974
# Poissons Ratio (z) = 0.47893 0.09108
#
# Static dielectric constant tensor:
#      x y z
#    x 2.089960 0.039840 0.036000 
#    y 0.039840 2.193820 0.111350 
#    z 0.036000 0.111350 2.268880 
# 
# From -- ./inp_files/585232.got.cif
#   From: 2010.05.17/outbox.cif.g08.bks.cpg/sg2_293_cif.got.tgz:585232.got - 2010.06.03 11:33:40.
