data_PCOD9016552
_publ_section_title
;
Structure prediction by ZEFSAII (Michael W. Deem and Ramdas Pophale) SiO2 
 PCOD9016552
Probable space group: P -1
;
_chemical_formula_sum "Si O2"
_cell_formula_units_Z 16
_cell_length_a 13.608990
_cell_length_b 9.160342
_cell_length_c 9.589458
_cell_angle_alpha 132.321864
_cell_angle_beta 96.796988
_cell_angle_gamma 58.516782
_cell_volume 700.287920
_symmetry_space_group_name_H-M "P -1"
_symmetry_group_IT_number 2
_symmetry_cell_setting 'triclinic'
loop_
_space_group_symop_operation_xyz
x,y,z
-x,-y,-z
loop_
_atom_site_type_symbol
_atom_site_label
_atom_site_fract_x
_atom_site_fract_y
_atom_site_fract_z
Si Si1 0.491437 0.964456 0.740285
Si Si2 0.392430 0.468161 0.934716
Si Si3 0.071993 0.500459 0.647172
Si Si4 0.065828 0.203367 0.711743
Si Si5 0.796887 0.334786 0.715604
Si Si6 0.323999 0.138479 0.070179
Si Si7 0.713516 0.471642 0.340239
Si Si8 0.123460 0.088251 0.952619
O O1 0.568591 0.001247 0.889130
O O2 0.582079 0.685145 0.523874
O O3 0.446491 0.178672 0.759170
O O4 0.377733 0.022723 0.851493
O O5 0.321280 0.574040 0.845771
O O6 0.500000 0.500000 0.000000
O O7 0.292329 0.595609 0.124022
O O8 0.075527 0.338693 0.669769
O O9 0.207515 0.420741 0.583578
O O10 0.000000 0.500000 0.500000
O O11 0.997527 0.771740 0.881144
O O12 0.093805 0.231401 0.892900
O O13 0.928026 0.276185 0.740336
O O14 0.165162 0.913325 0.508527
O O15 0.726924 0.577637 0.763592
O O16 0.214483 0.123263 0.073598
O O17 0.805105 0.200639 0.248420
#
# Coordination Sequence:
#
# PCOD9016552 Si02
#       8
#     2   2   2   2   2   2   2   2
#     4  10  23  42  65  93 131 179 230 277 334 395
#     4  11  25  43  68  97 140 182 226 282 345 400
#     4  12  28  44  71 101 141 180 223 282 350 406
#     4  11  25  42  73  99 135 177 231 276 340 413
#     4  10  23  42  68  97 133 177 231 271 339 406
#     4  10  21  42  68  92 132 175 229 281 333 396
#     4  12  27  42  68 100 144 172 228 282 341 406
#     4  12  25  43  69 100 136 176 228 278 344 406
#
# _framework density 22.847745
#
# number of rings (size 3 to 8) (size 9 to 14) (size 15 to 20)
#    0.000    1.000    1.250    4.125   10.500    1.500 
#    0.000    0.000    0.000    0.000    0.000    0.000 
#    0.000    0.000    0.000    0.000    0.000    0.000 
#
# Total GULP energy -89478.311547 kJ/mol
# GULP energy per Si atom -5592.394472 kJ/mol
# Density = 2.279574 g / cm^3
# Si number density = 22.847745 Si / 1000 Ang^3
#
#
#
# Elastic Constant Matrix: (Units=GPa)
#
#
# Indices 1 2 3 4 5 6 
#
# 1 58.8510 7.6653 6.2896 -7.4027 -6.6123 -0.2043
# 2 7.6653 107.3638 42.2426 -0.5956 -6.0995 -1.0443
# 3 6.2896 42.2426 96.6556 20.5422 -12.5313 5.3460
# 4 -7.4027 -0.5956 20.5422 36.1158 -15.6807 4.2405
# 5 -6.6123 -6.0995 -12.5313 -15.6807 33.4809 -1.4846
# 6 -0.2043 -1.0443 5.3460 4.2405 -1.4846 27.2966
#
#
#
# Elastic Compliance Matrix: (Units=1/GPa)
#
#
# Indices 1 2 3 4 5 6 
#
# 1 0.018974 -0.000159 -0.001968 0.007952 0.006690 -0.000350
# 2 -0.000159 0.011762 -0.005828 0.004197 0.001942 0.001044
# 3 -0.001968 -0.005828 0.014992 -0.008841 -0.000060 -0.001804
# 4 0.007952 0.004197 -0.008841 0.043128 0.019060 -0.003712
# 5 0.006690 0.001942 -0.000060 0.019060 0.040419 -0.000627
# 6 -0.000350 0.001044 -0.001804 -0.003712 -0.000627 0.037568
#
#
# Mechanical properties :
#
#
# Convention : Reuss Voigt Hill
#
# Bulk Modulus (GPa) = 33.53821 41.69613 37.61717
# Shear Modulus (GPa) = 25.94786 33.15686 29.55236
#
# Velocity S-wave (km/s) = 3.37365 3.81361 3.60035
# Velocity P-wave (km/s) = 5.46683 6.13846 5.81235
#
# Compressibility (1/GPa) = 0.02981674
#
# Stress axis : x y z
#
# Youngs Moduli (GPa) = 52.70402 85.01663 66.70100
#
# Poissons Ratio (x) = 0.01356 0.13128
# Poissons Ratio (y) = 0.00840 0.38875
# Poissons Ratio (z) = 0.10373 0.49550
#
# Static dielectric constant tensor:
#      x y z
#    x 1.790980 0.002430 -0.008480 
#    y 0.002430 1.862270 0.016320 
#    z -0.008480 0.016320 1.872650 
# 
# From -- ./inp_files/271400.got.cif
#   From: 2010.05.17/outbox.cif.g08.bks.cpg/sg2_136_cif.got.tgz:271400.got - 2010.06.03 11:33:40.
