data_PCOD9016992
_publ_section_title
;
Structure prediction by ZEFSAII (Michael W. Deem and Ramdas Pophale) SiO2 
 PCOD9016992
Probable space group: P -1
;
_chemical_formula_sum "Si O2"
_cell_formula_units_Z 14
_cell_length_a 11.402977
_cell_length_b 6.831117
_cell_length_c 9.344632
_cell_angle_alpha 119.042701
_cell_angle_beta 96.169037
_cell_angle_gamma 52.060847
_cell_volume 482.241520
_symmetry_space_group_name_H-M "P -1"
_symmetry_group_IT_number 2
_symmetry_cell_setting 'triclinic'
loop_
_space_group_symop_operation_xyz
x,y,z
-x,-y,-z
loop_
_atom_site_type_symbol
_atom_site_label
_atom_site_fract_x
_atom_site_fract_y
_atom_site_fract_z
Si Si1 0.728823 0.831768 0.737100
Si Si2 0.174116 0.237465 0.595958
Si Si3 0.232990 0.650498 0.229100
Si Si4 0.067495 0.164683 0.060055
Si Si5 0.381039 0.168584 0.835335
Si Si6 0.116934 0.949587 0.706662
Si Si7 0.453237 0.585705 0.690339
O O1 0.808677 0.742970 0.561629
O O2 0.770031 0.545280 0.720302
O O3 0.771837 0.991974 0.896452
O O4 0.546233 0.063087 0.785233
O O5 0.315118 0.172759 0.676752
O O6 0.155125 0.013361 0.582250
O O7 0.033988 0.545513 0.756582
O O8 0.382184 0.628343 0.277323
O O9 0.053035 0.955655 0.294929
O O10 0.279696 0.456746 0.021546
O O11 0.080841 0.189202 0.902339
O O12 0.000000 0.000000 0.000000
O O13 0.409397 0.898883 0.824449
O O14 0.284090 0.662388 0.693911
O O15 0.500000 0.500000 0.500000
#
# Coordination Sequence:
#
# PCOD9016992 Si02
#       7
#     2   2   2   2   2   2   2
#     4  11  22  40  66  98 134 169 224 279 326 394
#     4  11  22  42  68  98 128 173 227 269 330 405
#     4  11  21  42  76  96 126 187 232 258 329 415
#     4  12  25  42  63  98 133 170 221 284 331 384
#     4  10  21  42  70  94 127 184 229 260 326 416
#     4  11  23  45  73  91 133 183 226 262 328 418
#     4  10  23  39  61 106 136 163 217 285 334 377
#
# _framework density 29.031094
#
# number of rings (size 3 to 8) (size 9 to 14) (size 15 to 20)
#    0.000    1.143    2.857    5.571    0.000    2.857 
#    5.143    0.714    0.000    0.000    0.000    0.000 
#    0.000    0.000    0.000    0.000    0.000    0.000 
#
# Total GULP energy -78367.732942 kJ/mol
# GULP energy per Si atom -5597.695210 kJ/mol
# Density = 2.896502 g / cm^3
# Si number density = 29.031094 Si / 1000 Ang^3
#
#
#
# Elastic Constant Matrix: (Units=GPa)
#
#
# Indices 1 2 3 4 5 6 
#
# 1 197.2711 79.8709 55.1043 -13.7231 8.6954 -42.6277
# 2 79.8709 110.6944 30.8025 -0.5530 -2.5879 -26.0701
# 3 55.1043 30.8025 169.6273 -34.9981 -9.8675 -16.4407
# 4 -13.7231 -0.5530 -34.9981 54.7086 -14.8796 3.1436
# 5 8.6954 -2.5879 -9.8675 -14.8796 56.9982 -15.2212
# 6 -42.6277 -26.0701 -16.4407 3.1436 -15.2212 79.9474
#
#
#
# Elastic Compliance Matrix: (Units=1/GPa)
#
#
# Indices 1 2 3 4 5 6 
#
# 1 0.008001 -0.004884 -0.001416 0.000674 -0.000930 0.002179
# 2 -0.004884 0.013254 -0.000847 -0.001376 0.001336 0.001852
# 3 -0.001416 -0.000847 0.007941 0.005548 0.003269 0.001006
# 4 0.000674 -0.001376 0.005548 0.023921 0.007448 0.001529
# 5 -0.000930 0.001336 0.003269 0.007448 0.021432 0.004400
# 6 0.002179 0.001852 0.001006 0.001529 0.004400 0.015258
#
#
# Mechanical properties :
#
#
# Convention : Reuss Voigt Hill
#
# Bulk Modulus (GPa) = 67.10474 89.90534 78.50504
# Shear Modulus (GPa) = 45.84229 59.11851 52.48040
#
# Velocity S-wave (km/s) = 3.97807 4.51753 4.25635
# Velocity P-wave (km/s) = 6.65320 7.63195 7.15932
#
# Compressibility (1/GPa) = 0.01490208
#
# Stress axis : x y z
#
# Youngs Moduli (GPa) = 124.98663 75.44752 125.92090
#
# Poissons Ratio (x) = 0.36850 0.17833
# Poissons Ratio (y) = 0.61046 0.10664
# Poissons Ratio (z) = 0.17700 0.06390
#
# Static dielectric constant tensor:
#      x y z
#    x 2.318690 -0.133710 0.030260 
#    y -0.133710 2.483590 -0.056860 
#    z 0.030260 -0.056860 2.267060 
# 
# From -- ./inp_files/242600.got.cif
#   From: 2010.05.17/outbox.cif.g08.bks.cpg/sg2_122_cif.got.tgz:242600.got - 2010.06.03 11:33:40.
