data_PCOD9016528
_publ_section_title
;
Structure prediction by ZEFSAII (Michael W. Deem and Ramdas Pophale) SiO2 
 PCOD9016528
Probable space group: P -1
;
_chemical_formula_sum "Si O2"
_cell_formula_units_Z 16
_cell_length_a 21.567968
_cell_length_b 9.464987
_cell_length_c 9.545271
_cell_angle_alpha 94.776329
_cell_angle_beta 55.321759
_cell_angle_gamma 47.439006
_cell_volume 749.056874
_symmetry_space_group_name_H-M "P -1"
_symmetry_group_IT_number 2
_symmetry_cell_setting 'triclinic'
loop_
_space_group_symop_operation_xyz
x,y,z
-x,-y,-z
loop_
_atom_site_type_symbol
_atom_site_label
_atom_site_fract_x
_atom_site_fract_y
_atom_site_fract_z
Si Si1 0.861778 0.134459 0.259787
Si Si2 0.672278 0.769024 0.211716
Si Si3 0.679772 0.837883 0.516481
Si Si4 0.490884 0.166954 0.224424
Si Si5 0.021161 0.398147 0.613755
Si Si6 0.607932 0.181431 0.831064
Si Si7 0.026636 0.855252 0.319697
Si Si8 0.975271 0.666087 0.934776
O O1 0.683138 0.481452 0.482986
O O2 0.901837 0.081007 0.370189
O O3 0.000000 0.000000 0.000000
O O4 0.877583 0.950401 0.161744
O O5 0.727918 0.746081 0.283919
O O6 0.500000 0.000000 0.500000
O O7 0.627105 0.940982 0.150941
O O8 0.789987 0.442863 0.997045
O O9 0.559499 0.915297 0.730573
O O10 0.853767 0.544051 0.342910
O O11 0.603596 0.113630 0.679562
O O12 0.550723 0.157329 0.014256
O O13 0.923097 0.665242 0.865669
O O14 0.000000 0.500000 0.500000
O O15 0.975383 0.309616 0.660582
O O16 0.207264 0.089592 0.396653
O O17 0.500000 0.500000 0.000000
O O18 0.000000 0.000000 0.500000
O O19 0.000000 0.500000 0.000000
#
# Coordination Sequence:
#
# PCOD9016528 Si02
#       8
#     2   2   2   2   2   2   2   2
#     4  12  23  42  67 104 127 170 232 271 322 399
#     4  10  21  43  65  97 131 169 216 270 338 383
#     4  10  21  42  68  89 128 180 216 263 325 401
#     4  11  23  40  67  97 133 170 219 271 331 393
#     4  11  25  44  64  94 130 175 218 265 338 394
#     4  11  25  42  63  95 133 172 217 272 335 393
#     4  12  26  44  71  99 132 174 227 280 324 397
#     4  11  21  41  69  91 132 173 218 268 326 391
#
# _framework density 21.360194
#
# number of rings (size 3 to 8) (size 9 to 14) (size 15 to 20)
#    0.000    1.000    3.750    2.625    3.500    5.000 
#    2.250    0.625    0.000    0.000    0.000    0.000 
#    0.000    0.000    0.000    0.000    0.000    0.000 
#
# Total GULP energy -89272.929517 kJ/mol
# GULP energy per Si atom -5579.558095 kJ/mol
# Density = 2.131158 g / cm^3
# Si number density = 21.360194 Si / 1000 Ang^3
#
#
#
# Elastic Constant Matrix: (Units=GPa)
#
#
# Indices 1 2 3 4 5 6 
#
# 1 121.1817 37.0521 45.2094 10.6683 34.4208 13.1215
# 2 37.0521 79.7550 11.0925 6.4709 24.9584 -4.4286
# 3 45.2094 11.0925 87.8069 20.0479 25.9277 0.1389
# 4 10.6683 6.4709 20.0479 50.4321 5.1807 1.9801
# 5 34.4208 24.9584 25.9277 5.1807 62.8317 -2.2323
# 6 13.1215 -4.4286 0.1389 1.9801 -2.2323 28.5784
#
#
#
# Elastic Compliance Matrix: (Units=1/GPa)
#
#
# Indices 1 2 3 4 5 6 
#
# 1 0.013492 -0.004858 -0.005407 0.000566 -0.003534 -0.007237
# 2 -0.004858 0.016252 0.002101 -0.001621 -0.004367 0.004510
# 3 -0.005407 0.002101 0.016315 -0.005302 -0.004069 0.002779
# 4 0.000566 -0.001621 -0.005302 0.022037 0.000635 -0.001962
# 5 -0.003534 -0.004367 -0.004069 0.000635 0.021305 0.002586
# 6 -0.007237 0.004510 0.002779 -0.001962 0.002586 0.039337
#
#
# Mechanical properties :
#
#
# Convention : Reuss Voigt Hill
#
# Bulk Modulus (GPa) = 33.63605 52.82797 43.23201
# Shear Modulus (GPa) = 32.26288 41.39441 36.82865
#
# Velocity S-wave (km/s) = 3.89063 4.40696 4.15682
# Velocity P-wave (km/s) = 5.99699 7.11904 6.58197
#
# Compressibility (1/GPa) = 0.02973001
#
# Stress axis : x y z
#
# Youngs Moduli (GPa) = 74.11607 61.53193 61.29336
#
# Poissons Ratio (x) = 0.29892 0.33143
# Poissons Ratio (y) = 0.36005 -0.12876
# Poissons Ratio (z) = 0.40077 -0.12926
#
# Static dielectric constant tensor:
#      x y z
#    x 1.889550 -0.023500 -0.026810 
#    y -0.023500 1.790080 -0.030430 
#    z -0.026810 -0.030430 1.859870 
# 
# From -- ./inp_files/335783.got.cif
#   From: 2010.05.17/outbox.cif.g08.bks.cpg/sg2_168_cif.got.tgz:335783.got - 2010.06.03 11:33:40.
