data_PCOD9016163
_publ_section_title
;
Structure prediction by ZEFSAII (Michael W. Deem and Ramdas Pophale) SiO2 
 PCOD9016163
Probable space group: P -1
;
_chemical_formula_sum "Si O2"
_cell_formula_units_Z 14
_cell_length_a 5.757908
_cell_length_b 26.357570
_cell_length_c 8.640127
_cell_angle_alpha 30.710426
_cell_angle_beta 61.258037
_cell_angle_gamma 58.581652
_cell_volume 569.868958
_symmetry_space_group_name_H-M "P -1"
_symmetry_group_IT_number 2
_symmetry_cell_setting 'triclinic'
loop_
_space_group_symop_operation_xyz
x,y,z
-x,-y,-z
loop_
_atom_site_type_symbol
_atom_site_label
_atom_site_fract_x
_atom_site_fract_y
_atom_site_fract_z
Si Si1 0.297986 0.046905 0.754594
Si Si2 0.191406 0.741145 0.347154
Si Si3 0.701072 0.061879 0.364762
Si Si4 0.630778 0.843526 0.263865
Si Si5 0.168911 0.580509 0.283268
Si Si6 0.148184 0.777903 0.632215
Si Si7 0.741773 0.470010 0.253637
O O1 0.534209 0.094308 0.489495
O O2 0.255072 0.081740 0.854400
O O3 0.032291 0.106215 0.594410
O O4 0.414132 0.926331 0.018550
O O5 0.158440 0.748218 0.524921
O O6 0.330133 0.625309 0.563794
O O7 0.883573 0.767918 0.303999
O O8 0.297317 0.835219 0.998506
O O9 0.500000 0.000000 0.500000
O O10 0.000000 0.000000 0.500000
O O11 0.455046 0.777329 0.579856
O O12 0.457486 0.553550 0.164653
O O13 0.186954 0.570543 0.488227
O O14 0.000000 0.500000 0.500000
O O15 0.032197 0.696666 0.975886
O O16 0.000000 0.500000 0.000000
#
# Coordination Sequence:
#
# PCOD9016163 Si02
#       7
#     2   2   2   2   2   2   2
#     4  10  23  39  64  96 142 186 239 292 364 434
#     4  11  25  42  72 104 139 193 244 307 383 448
#     4  12  27  45  69 107 155 198 255 312 374 458
#     4  10  21  42  66  97 137 187 239 292 362 445
#     4  11  27  47  73 105 142 186 249 313 389 461
#     4  11  24  42  69  99 137 186 242 301 375 453
#     4  11  26  50  75 103 145 189 248 322 387 460
#
# _framework density 24.567049000000001
#
# number of rings (size 3 to 8) (size 9 to 14) (size 15 to 20)
#    0.000    1.143    1.429    3.000    6.000    5.714 
#    0.000    0.000    0.000    0.000    0.000    0.000 
#    0.000    0.000    0.000    0.000    0.000    0.000 
#
# Total GULP energy -78035.230819 kJ/mol
# GULP energy per Si atom -5573.945059 kJ/mol
# Density = 2.451113 g / cm^3
# Si number density = 24.567049 Si / 1000 Ang^3
#
#
#
# Elastic Constant Matrix: (Units=GPa)
#
#
# Indices 1 2 3 4 5 6 
#
# 1 74.3259 26.8289 35.9512 -3.9872 -14.3169 -3.5571
# 2 26.8289 92.3820 14.9209 8.6739 3.7781 -0.8315
# 3 35.9512 14.9209 134.8262 7.6488 -6.2379 1.7495
# 4 -3.9872 8.6739 7.6488 37.7359 -4.1723 -9.9481
# 5 -14.3169 3.7781 -6.2379 -4.1723 33.3500 4.3070
# 6 -3.5571 -0.8315 1.7495 -9.9481 4.3070 40.9458
#
#
#
# Elastic Compliance Matrix: (Units=1/GPa)
#
#
# Indices 1 2 3 4 5 6 
#
# 1 0.019983 -0.005960 -0.004632 0.006016 0.008837 0.002345
# 2 -0.005960 0.013112 0.000193 -0.004402 -0.004447 -0.000861
# 3 -0.004632 0.000193 0.008779 -0.002737 -0.000532 -0.001382
# 4 0.006016 -0.004402 -0.002737 0.031309 0.005507 0.007577
# 5 0.008837 -0.004447 -0.000532 0.005507 0.035086 -0.001652
# 6 0.002345 -0.000861 -0.001382 0.007577 -0.001652 0.026683
#
#
# Mechanical properties :
#
#
# Convention : Reuss Voigt Hill
#
# Bulk Modulus (GPa) = 47.44562 50.77069 49.10815
# Shear Modulus (GPa) = 30.71741 37.32855 34.02298
#
# Velocity S-wave (km/s) = 3.53987 3.90225 3.72547
# Velocity P-wave (km/s) = 6.00518 6.40425 6.20792
#
# Compressibility (1/GPa) = 0.02107676
#
# Stress axis : x y z
#
# Youngs Moduli (GPa) = 50.04171 76.26733 113.90610
#
# Poissons Ratio (x) = 0.45459 0.52758
# Poissons Ratio (y) = 0.29827 -0.02203
# Poissons Ratio (z) = 0.23178 -0.01475
#
# Static dielectric constant tensor:
#      x y z
#    x 2.094700 -0.017920 0.037950 
#    y -0.017920 2.012460 0.069780 
#    z 0.037950 0.069780 1.995380 
# 
# From -- ./inp_files/143037.got.cif
#   From: 2010.05.17/outbox.cif.g08.bks.cpg/sg2_72_cif.got.tgz:143037.got - 2010.06.03 11:33:40.
