data_PCOD9016071
_publ_section_title
;
Structure prediction by ZEFSAII (Michael W. Deem and Ramdas Pophale) SiO2 
 PCOD9016071
Probable space group: P -1
;
_chemical_formula_sum "Si O2"
_cell_formula_units_Z 12
_cell_length_a 16.289668
_cell_length_b 12.847816
_cell_length_c 9.220402
_cell_angle_alpha 141.957665
_cell_angle_beta 45.417964
_cell_angle_gamma 153.338446
_cell_volume 533.591075
_symmetry_space_group_name_H-M "P -1"
_symmetry_group_IT_number 2
_symmetry_cell_setting 'triclinic'
loop_
_space_group_symop_operation_xyz
x,y,z
-x,-y,-z
loop_
_atom_site_type_symbol
_atom_site_label
_atom_site_fract_x
_atom_site_fract_y
_atom_site_fract_z
Si Si1 0.059789 0.443694 0.493530
Si Si2 0.561613 0.037655 0.304519
Si Si3 0.547052 0.229029 0.275375
Si Si4 0.203634 0.052090 0.499315
Si Si5 0.950172 0.626226 0.127109
Si Si6 0.784615 0.558823 0.969962
O O1 0.219426 0.718219 0.690673
O O2 0.148993 0.397440 0.229548
O O3 0.000000 0.500000 0.500000
O O4 0.907868 0.193168 0.514930
O O5 0.512254 0.146104 0.394049
O O6 0.500000 0.000000 0.500000
O O7 0.429379 0.740345 0.083770
O O8 0.407861 0.217117 0.400087
O O9 0.761741 0.489198 0.274074
O O10 0.500000 0.000000 0.000000
O O11 0.197470 0.230558 0.768237
O O12 0.106814 0.923530 0.322422
O O13 0.901148 0.580165 0.966349
O O14 0.000000 0.500000 0.000000
#
# Coordination Sequence:
#
# PCOD9016071 Si02
#       6
#     2   2   2   2   2   2
#     4  11  23  44  72  95 131 184 229 269 331 415
#     4  10  21  42  66  94 127 175 232 263 321 413
#     4  12  23  42  70  95 132 183 229 267 330 409
#     4  12  25  44  67 102 143 169 220 293 336 387
#     4  12  23  44  71  97 135 183 230 268 328 417
#     4  11  25  43  67 105 135 173 224 286 345 378
#
# _framework density 22.489129999999999
#
# number of rings (size 3 to 8) (size 9 to 14) (size 15 to 20)
#    0.000    0.667    5.000    4.000    0.000    0.667 
#    3.000    4.167    0.000    0.000    0.000    0.000 
#    0.000    0.000    0.000    0.000    0.000    0.000 
#
# Total GULP energy -66969.497094 kJ/mol
# GULP energy per Si atom -5580.791425 kJ/mol
# Density = 2.243794 g / cm^3
# Si number density = 22.489130 Si / 1000 Ang^3
#
#
#
# Elastic Constant Matrix: (Units=GPa)
#
#
# Indices 1 2 3 4 5 6 
#
# 1 115.6024 50.2999 41.3848 12.0673 11.9152 23.7883
# 2 50.2999 88.9128 21.7727 -2.7506 -3.2922 16.7333
# 3 41.3848 21.7727 105.1264 10.1108 2.2895 12.4978
# 4 12.0673 -2.7506 10.1108 45.3299 -1.3105 12.0352
# 5 11.9152 -3.2922 2.2895 -1.3105 43.0716 -9.1447
# 6 23.7883 16.7333 12.4978 12.0352 -9.1447 48.4399
#
#
#
# Elastic Compliance Matrix: (Units=1/GPa)
#
#
# Indices 1 2 3 4 5 6 
#
# 1 0.014571 -0.006873 -0.003443 -0.002549 -0.005357 -0.004271
# 2 -0.006873 0.015972 -0.000737 0.003664 0.002776 -0.002338
# 3 -0.003443 -0.000737 0.011226 -0.001480 0.000136 -0.000558
# 4 -0.002549 0.003664 -0.001480 0.024818 0.000612 -0.005683
# 5 -0.005357 0.002776 0.000136 0.000612 0.026292 0.006448
# 6 -0.004271 -0.002338 -0.000558 -0.005683 0.006448 0.026322
#
#
# Mechanical properties :
#
#
# Convention : Reuss Voigt Hill
#
# Bulk Modulus (GPa) = 50.85900 59.61737 55.23819
# Shear Modulus (GPa) = 33.81540 40.44723 37.13132
#
# Velocity S-wave (km/s) = 3.88188 4.24550 4.06775
# Velocity P-wave (km/s) = 6.53881 7.11332 6.83211
#
# Compressibility (1/GPa) = 0.01966220
#
# Stress axis : x y z
#
# Youngs Moduli (GPa) = 68.63119 62.60944 89.07847
#
# Poissons Ratio (x) = 0.43033 0.30669
# Poissons Ratio (y) = 0.47172 0.06566
# Poissons Ratio (z) = 0.23629 0.04615
#
# Static dielectric constant tensor:
#      x y z
#    x 1.914340 0.056560 0.047040 
#    y 0.056560 1.964440 0.007800 
#    z 0.047040 0.007800 1.883640 
# 
# From -- ./inp_files/186846.got.cif
#   From: 2010.05.17/outbox.cif.g08.bks.cpg/sg2_94_cif.got.tgz:186846.got - 2010.06.03 11:33:40.
