data_PCOD9016796
_publ_section_title
;
Structure prediction by ZEFSAII (Michael W. Deem and Ramdas Pophale) SiO2 
 PCOD9016796
Probable space group: P -1
;
_chemical_formula_sum "Si O2"
_cell_formula_units_Z 16
_cell_length_a 9.263982
_cell_length_b 11.828917
_cell_length_c 17.696911
_cell_angle_alpha 30.994148
_cell_angle_beta 48.913991
_cell_angle_gamma 57.743757
_cell_volume 750.493540
_symmetry_space_group_name_H-M "P -1"
_symmetry_group_IT_number 2
_symmetry_cell_setting 'triclinic'
loop_
_space_group_symop_operation_xyz
x,y,z
-x,-y,-z
loop_
_atom_site_type_symbol
_atom_site_label
_atom_site_fract_x
_atom_site_fract_y
_atom_site_fract_z
Si Si1 0.068245 0.774521 0.642635
Si Si2 0.393347 0.785073 0.193589
Si Si3 0.560659 0.406623 0.450916
Si Si4 0.998004 0.753235 0.378385
Si Si5 0.669347 0.188848 0.321727
Si Si6 0.740005 0.016822 0.232239
Si Si7 0.711567 0.460409 0.919158
Si Si8 0.320186 0.438297 0.299736
O O1 0.223068 0.662691 0.598714
O O2 0.177653 0.814979 0.661817
O O3 0.883419 0.605121 0.817754
O O4 0.000000 0.000000 0.500000
O O5 0.513035 0.606011 0.297206
O O6 0.213017 0.833617 0.281374
O O7 0.301292 0.661960 0.222513
O O8 0.500000 0.000000 0.000000
O O9 0.500000 0.500000 0.500000
O O10 0.425759 0.182660 0.605841
O O11 0.000000 0.500000 0.500000
O O12 0.930850 0.893909 0.250716
O O13 0.828024 0.742941 0.504873
O O14 0.544810 0.398558 0.251827
O O15 0.500000 0.000000 0.500000
O O16 0.728894 0.158924 0.231936
O O17 0.736312 0.200090 0.064655
O O18 0.727528 0.546212 0.779396
O O19 0.500000 0.500000 0.000000
#
# Coordination Sequence:
#
# PCOD9016796 Si02
#       8
#     2   2   2   2   2   2   2   2
#     4  12  27  47  76 110 149 196 251 306 376 443
#     4  11  25  45  69 102 140 187 251 301 367 444
#     4  12  27  46  71 109 151 192 244 311 378 448
#     4  10  21  42  69  93 128 194 238 278 361 449
#     4  12  20  44  78 102 139 194 241 298 366 450
#     4  12  24  45  72 103 149 190 244 301 372 441
#     4  12  28  45  69 114 150 188 249 314 370 433
#     4  11  22  46  72  97 147 189 242 296 370 446
#
# _framework density 21.319303000000001
#
# number of rings (size 3 to 8) (size 9 to 14) (size 15 to 20)
#    0.000    0.500    7.500    1.500    5.250    0.500 
#    2.250    3.125    0.000    0.000    0.000    0.000 
#    0.000    0.000    0.000    0.000    0.000    0.000 
#
# Total GULP energy -89257.447491 kJ/mol
# GULP energy per Si atom -5578.590468 kJ/mol
# Density = 2.127078 g / cm^3
# Si number density = 21.319303 Si / 1000 Ang^3
#
#
#
# Elastic Constant Matrix: (Units=GPa)
#
#
# Indices 1 2 3 4 5 6 
#
# 1 123.8347 46.4013 53.7846 0.2766 -3.4161 -12.2124
# 2 46.4013 108.0582 27.0037 5.2875 -10.9093 -14.0590
# 3 53.7846 27.0037 135.0952 -16.1163 -9.9936 -17.9697
# 4 0.2766 5.2875 -16.1163 25.9305 -4.1863 8.0292
# 5 -3.4161 -10.9093 -9.9936 -4.1863 36.5187 -2.8490
# 6 -12.2124 -14.0590 -17.9697 8.0292 -2.8490 53.6701
#
#
#
# Elastic Compliance Matrix: (Units=1/GPa)
#
#
# Indices 1 2 3 4 5 6 
#
# 1 0.011263 -0.003800 -0.004030 -0.002224 -0.001402 0.000476
# 2 -0.003800 0.011836 -0.000668 -0.003144 0.002843 0.002634
# 3 -0.004030 -0.000668 0.010373 0.006653 0.003146 0.001553
# 4 -0.002224 -0.003144 0.006653 0.046016 0.005504 -0.005694
# 5 -0.001402 0.002843 0.003146 0.005504 0.029768 0.002236
# 6 0.000476 0.002634 0.001553 -0.005694 0.002236 0.020921
#
#
# Mechanical properties :
#
#
# Convention : Reuss Voigt Hill
#
# Bulk Modulus (GPa) = 60.69099 69.04081 64.86590
# Shear Modulus (GPa) = 32.75146 39.21044 35.98095
#
# Velocity S-wave (km/s) = 3.92374 4.29324 4.11264
# Velocity P-wave (km/s) = 7.00407 7.55185 7.28311
#
# Compressibility (1/GPa) = 0.01647691
#
# Stress axis : x y z
#
# Youngs Moduli (GPa) = 88.78801 84.48527 96.40328
#
# Poissons Ratio (x) = 0.32104 0.38851
# Poissons Ratio (y) = 0.33740 0.06436
# Poissons Ratio (z) = 0.35782 0.05640
#
# Static dielectric constant tensor:
#      x y z
#    x 1.800030 -0.067800 -0.025740 
#    y -0.067800 1.824740 -0.020340 
#    z -0.025740 -0.020340 1.772900 
# 
# From -- ./inp_files/559520.got.cif
#   From: 2010.05.17/outbox.cif.g08.bks.cpg/sg2_280_cif.got.tgz:559520.got - 2010.06.03 11:33:40.
