data_PCOD9016606
_publ_section_title
;
Structure prediction by ZEFSAII (Michael W. Deem and Ramdas Pophale) SiO2 
 PCOD9016606
Probable space group: P -1
;
_chemical_formula_sum "Si O2"
_cell_formula_units_Z 16
_cell_length_a 8.548296
_cell_length_b 8.578307
_cell_length_c 12.199385
_cell_angle_alpha 87.490060
_cell_angle_beta 81.809183
_cell_angle_gamma 59.241441
_cell_volume 760.452890
_symmetry_space_group_name_H-M "P -1"
_symmetry_group_IT_number 2
_symmetry_cell_setting 'triclinic'
loop_
_space_group_symop_operation_xyz
x,y,z
-x,-y,-z
loop_
_atom_site_type_symbol
_atom_site_label
_atom_site_fract_x
_atom_site_fract_y
_atom_site_fract_z
Si Si1 0.385779 0.447060 0.332942
Si Si2 0.728878 0.093065 0.239718
Si Si3 0.130240 0.549653 0.553362
Si Si4 0.469725 0.833313 0.977193
Si Si5 0.838541 0.589370 0.840123
Si Si6 0.062304 0.133016 0.276626
Si Si7 0.788374 0.711923 0.242585
Si Si8 0.409002 0.766614 0.213499
O O1 0.561656 0.245870 0.323437
O O2 0.293911 0.515799 0.457663
O O3 0.236885 0.445100 0.265423
O O4 0.440139 0.581766 0.266570
O O5 0.647277 0.121780 0.124009
O O6 0.900932 0.120212 0.233699
O O7 0.789206 0.889847 0.274735
O O8 0.018854 0.750921 0.608112
O O9 0.196876 0.416155 0.654749
O O10 0.000000 0.500000 0.500000
O O11 0.671467 0.659096 0.938792
O O12 0.372270 0.789899 0.086506
O O13 0.500000 0.000000 0.000000
O O14 0.872825 0.754474 0.807907
O O15 0.034619 0.410748 0.847797
O O16 0.237374 0.935298 0.283617
O O17 0.593396 0.774487 0.206326
#
# Coordination Sequence:
#
# PCOD9016606 Si02
#       8
#     2   2   2   2   2   2   2   2
#     4  11  23  45  67  97 136 173 224 280 324 397
#     4  11  25  43  69 100 141 171 226 277 328 397
#     4  11  24  45  72  95 133 180 221 273 344 391
#     4  11  22  46  70  98 134 184 217 271 340 392
#     4  10  21  42  68  95 139 171 221 279 324 395
#     4  11  23  42  67 101 135 173 223 281 326 397
#     4  11  23  42  67 102 133 178 223 276 333 394
#     4  12  25  43  70  99 139 176 225 274 332 397
#
# _framework density 21.040092999999999
#
# number of rings (size 3 to 8) (size 9 to 14) (size 15 to 20)
#    0.000    1.000    5.000    3.000    0.000    6.000 
#    0.000    0.000    0.000    0.000    0.000    0.000 
#    0.000    0.000    0.000    0.000    0.000    0.000 
#
# Total GULP energy -89470.979861 kJ/mol
# GULP energy per Si atom -5591.936241 kJ/mol
# Density = 2.099220 g / cm^3
# Si number density = 21.040093 Si / 1000 Ang^3
#
#
#
# Elastic Constant Matrix: (Units=GPa)
#
#
# Indices 1 2 3 4 5 6 
#
# 1 108.9752 22.9668 1.3502 12.8408 13.4740 -0.0876
# 2 22.9668 93.1934 30.0427 33.0606 -9.7072 -11.5385
# 3 1.3502 30.0427 90.1829 20.8955 -12.5143 -2.2019
# 4 12.8408 33.0606 20.8955 28.5319 1.2768 -4.3989
# 5 13.4740 -9.7072 -12.5143 1.2768 24.9143 -7.7409
# 6 -0.0876 -11.5385 -2.2019 -4.3989 -7.7409 35.1005
#
#
#
# Elastic Compliance Matrix: (Units=1/GPa)
#
#
# Indices 1 2 3 4 5 6 
#
# 1 0.011085 -0.003708 0.000022 -0.000818 -0.008361 -0.003136
# 2 -0.003708 0.022599 0.000361 -0.024260 0.014603 0.007623
# 3 0.000022 0.000361 0.014863 -0.011465 0.008655 0.001523
# 4 -0.000818 -0.024260 -0.011465 0.072189 -0.019710 -0.003996
# 5 -0.008361 0.014603 0.008655 -0.019710 0.060756 0.016251
# 6 -0.003136 0.007623 0.001523 -0.003996 0.016251 0.034166
#
#
# Mechanical properties :
#
#
# Convention : Reuss Voigt Hill
#
# Bulk Modulus (GPa) = 23.86869 44.56343 34.21606
# Shear Modulus (GPa) = 21.16177 33.57546 27.36862
#
# Velocity S-wave (km/s) = 3.17485 3.99906 3.61055
# Velocity P-wave (km/s) = 4.98082 6.52300 5.80337
#
# Compressibility (1/GPa) = 0.04189590
#
# Stress axis : x y z
#
# Youngs Moduli (GPa) = 90.20971 44.24972 67.28215
#
# Poissons Ratio (x) = 0.16408 -0.00148
# Poissons Ratio (y) = 0.33451 -0.02426
# Poissons Ratio (z) = -0.00198 -0.01596
#
# Static dielectric constant tensor:
#      x y z
#    x 1.761560 -0.021890 0.016170 
#    y -0.021890 1.744480 0.011340 
#    z 0.016170 0.011340 1.765990 
# 
# From -- ./inp_files/382272.got.cif
#   From: 2010.05.17/outbox.cif.g08.bks.cpg/sg2_192_cif.got.tgz:382272.got - 2010.06.03 11:33:40.
