data_PCOD9016137
_publ_section_title
;
Structure prediction by ZEFSAII (Michael W. Deem and Ramdas Pophale) SiO2 
 PCOD9016137
Probable space group: P -1
;
_chemical_formula_sum "Si O2"
_cell_formula_units_Z 16
_cell_length_a 14.007763
_cell_length_b 7.318101
_cell_length_c 11.802084
_cell_angle_alpha 128.241575
_cell_angle_beta 51.400905
_cell_angle_gamma 126.737988
_cell_volume 696.924159
_symmetry_space_group_name_H-M "P -1"
_symmetry_group_IT_number 2
_symmetry_cell_setting 'triclinic'
loop_
_space_group_symop_operation_xyz
x,y,z
-x,-y,-z
loop_
_atom_site_type_symbol
_atom_site_label
_atom_site_fract_x
_atom_site_fract_y
_atom_site_fract_z
Si Si1 0.497407 0.832804 0.685339
Si Si2 0.989884 0.778077 0.339729
Si Si3 0.257038 0.071995 0.604634
Si Si4 0.768927 0.261438 0.287676
Si Si5 0.380989 0.600673 0.109100
Si Si6 0.110752 0.769465 0.030080
Si Si7 0.311457 0.543846 0.879475
Si Si8 0.123624 0.635948 0.382797
O O1 0.605112 0.804189 0.511057
O O2 0.370144 0.791530 0.687171
O O3 0.451172 0.650067 0.755393
O O4 0.554370 0.106852 0.801418
O O5 0.851161 0.555833 0.345280
O O6 0.051156 0.891924 0.217452
O O7 0.076879 0.641020 0.289864
O O8 0.000000 0.000000 0.500000
O O9 0.231056 0.287761 0.777779
O O10 0.250987 0.866343 0.625148
O O11 0.172908 0.914259 0.504136
O O12 0.848277 0.146941 0.096374
O O13 0.244993 0.533683 0.255759
O O14 0.500000 0.500000 0.000000
O O15 0.333375 0.527882 0.988732
O O16 0.237549 0.733933 0.978299
O O17 0.000000 0.500000 0.000000
O O18 0.000000 0.500000 0.500000
#
# Coordination Sequence:
#
# PCOD9016137 Si02
#       8
#     2   2   2   2   2   2   2   2
#     4  10  23  42  65  96 137 174 233 284 338 415
#     4  11  23  44  69  98 135 181 228 283 350 413
#     4  11  23  40  66  97 136 179 224 282 347 412
#     4  10  21  42  66  96 136 173 225 280 339 413
#     4  11  24  46  72  99 140 186 234 287 347 413
#     4   9  21  41  63  94 133 170 222 282 336 418
#     4  11  22  43  67  97 136 179 229 287 348 404
#     4  11  24  47  66 104 143 176 235 292 345 416
#
# _framework density 22.958020000000001
#
# number of rings (size 3 to 8) (size 9 to 14) (size 15 to 20)
#    0.000    1.500    2.500    1.875    5.250    1.000 
#    6.750    3.125    0.000    0.000    0.000    0.000 
#    0.000    0.000    0.000    0.000    0.000    0.000 
#
# Total GULP energy -89297.983104 kJ/mol
# GULP energy per Si atom -5581.123944 kJ/mol
# Density = 2.290577 g / cm^3
# Si number density = 22.958020 Si / 1000 Ang^3
#
#
#
# Elastic Constant Matrix: (Units=GPa)
#
#
# Indices 1 2 3 4 5 6 
#
# 1 85.6589 4.6708 32.3751 -11.2445 6.1098 21.8037
# 2 4.6708 70.7287 42.7536 -12.8145 -6.5037 24.7703
# 3 32.3751 42.7536 157.9866 -9.7524 4.9451 10.4411
# 4 -11.2445 -12.8145 -9.7524 46.0079 2.7607 2.7148
# 5 6.1098 -6.5037 4.9451 2.7607 40.1637 0.2035
# 6 21.8037 24.7703 10.4411 2.7148 0.2035 32.1641
#
#
#
# Elastic Compliance Matrix: (Units=1/GPa)
#
#
# Indices 1 2 3 4 5 6 
#
# 1 0.018917 0.009618 -0.004701 0.007516 -0.001160 -0.019331
# 2 0.009618 0.030411 -0.007793 0.010610 0.003835 -0.028330
# 3 -0.004701 -0.007793 0.008919 -0.001716 -0.001560 0.006448
# 4 0.007516 0.010610 -0.001716 0.027108 -0.001001 -0.014991
# 5 -0.001160 0.003835 -0.001560 -0.001001 0.025965 -0.001741
# 6 -0.019331 -0.028330 0.006448 -0.014991 -0.001741 0.065195
#
#
# Mechanical properties :
#
#
# Convention : Reuss Voigt Hill
#
# Bulk Modulus (GPa) = 19.05047 52.66368 35.85708
# Shear Modulus (GPa) = 25.02922 39.30545 32.16733
#
# Velocity S-wave (km/s) = 3.30543 4.14219 3.74724
# Velocity P-wave (km/s) = 4.78370 6.77244 5.86301
#
# Compressibility (1/GPa) = 0.05249215
#
# Stress axis : x y z
#
# Youngs Moduli (GPa) = 52.86382 32.88306 112.12302
#
# Poissons Ratio (x) = -0.31626 0.52712
# Poissons Ratio (y) = -0.50842 0.87381
# Poissons Ratio (z) = 0.24853 0.25627
#
# Static dielectric constant tensor:
#      x y z
#    x 1.898070 -0.011900 -0.035200 
#    y -0.011900 1.854280 0.005530 
#    z -0.035200 0.005530 1.918820 
# 
# From -- ./inp_files/448172.got.cif
#   From: 2010.05.17/outbox.cif.g08.bks.cpg/sg2_225_cif.got.tgz:448172.got - 2010.06.03 11:33:40.
