data_PCOD9016125
_publ_section_title
;
Structure prediction by ZEFSAII (Michael W. Deem and Ramdas Pophale) SiO2 
 PCOD9016125
Probable space group: P -1
;
_chemical_formula_sum "Si O2"
_cell_formula_units_Z 16
_cell_length_a 13.922609
_cell_length_b 6.570172
_cell_length_c 8.055785
_cell_angle_alpha 98.764563
_cell_angle_beta 92.151466
_cell_angle_gamma 106.123645
_cell_volume 697.162802
_symmetry_space_group_name_H-M "P -1"
_symmetry_group_IT_number 2
_symmetry_cell_setting 'triclinic'
loop_
_space_group_symop_operation_xyz
x,y,z
-x,-y,-z
loop_
_atom_site_type_symbol
_atom_site_label
_atom_site_fract_x
_atom_site_fract_y
_atom_site_fract_z
Si Si1 0.911948 0.168222 0.860920
Si Si2 0.767705 0.702249 0.281461
Si Si3 0.406856 0.858369 0.583607
Si Si4 0.964732 0.063328 0.325558
Si Si5 0.083201 0.566543 0.772114
Si Si6 0.473104 0.360997 0.249047
Si Si7 0.569270 0.760704 0.139400
Si Si8 0.717696 0.950090 0.619111
O O1 0.992128 0.358165 0.788706
O O2 0.804311 0.079629 0.759922
O O3 0.902028 0.272985 0.049316
O O4 0.957011 0.966458 0.811840
O O5 0.816779 0.505843 0.264414
O O6 0.668659 0.679774 0.161420
O O7 0.748934 0.791965 0.471368
O O8 0.858921 0.898985 0.247094
O O9 0.434926 0.652924 0.628987
O O10 0.500000 0.000000 0.500000
O O11 0.402530 0.999119 0.763795
O O12 0.314185 0.869114 0.467946
O O13 0.949479 0.297343 0.356796
O O14 0.000000 0.000000 0.500000
O O15 0.487023 0.609719 0.240090
O O16 0.374415 0.208227 0.307138
O O17 0.472469 0.268160 0.051475
#
# Coordination Sequence:
#
# PCOD9016125 Si02
#       8
#     2   2   2   2   2   2   2   2
#     4  10  22  45  64  99 126 170 216 256 318 378
#     4  10  23  41  62  98 129 168 216 257 316 383
#     4   9  20  39  63  89 123 166 207 258 313 373
#     4  11  22  43  66  94 132 167 207 265 316 374
#     4  10  24  43  69  92 133 170 210 261 317 381
#     4  10  22  42  66  91 127 170 207 270 315 374
#     4  10  22  42  63  95 127 164 217 257 322 375
#     4  10  21  42  66  96 131 166 215 266 315 375
#
# _framework density 22.950161999999999
#
# number of rings (size 3 to 8) (size 9 to 14) (size 15 to 20)
#    0.000    2.000    1.250    0.750    1.750    8.500 
#   11.250    1.250    0.000    0.000    0.000    0.000 
#    0.000    0.000    0.000    0.000    0.000    0.000 
#
# Total GULP energy -89360.331692 kJ/mol
# GULP energy per Si atom -5585.020731 kJ/mol
# Density = 2.289793 g / cm^3
# Si number density = 22.950162 Si / 1000 Ang^3
#
#
#
# Elastic Constant Matrix: (Units=GPa)
#
#
# Indices 1 2 3 4 5 6 
#
# 1 98.8454 38.3820 40.2223 -0.9106 15.2641 -6.5526
# 2 38.3820 71.5410 32.1582 -7.0007 3.8063 -20.5349
# 3 40.2223 32.1582 97.2210 -0.6410 5.5130 -9.7632
# 4 -0.9106 -7.0007 -0.6410 32.3368 3.4516 2.8142
# 5 15.2641 3.8063 5.5130 3.4516 30.6088 10.0307
# 6 -6.5526 -20.5349 -9.7632 2.8142 10.0307 32.5574
#
#
#
# Elastic Compliance Matrix: (Units=1/GPa)
#
#
# Indices 1 2 3 4 5 6 
#
# 1 0.014933 -0.006016 -0.003862 -0.000317 -0.005937 -0.000091
# 2 -0.006016 0.023251 -0.003613 0.004070 -0.004047 0.013266
# 3 -0.003862 -0.003613 0.013194 -0.000692 -0.000264 0.001041
# 4 -0.000317 0.004070 -0.000692 0.032153 -0.004105 0.000782
# 5 -0.005937 -0.004047 -0.000264 -0.004105 0.042025 -0.016419
# 6 -0.000091 0.013266 0.001041 0.000782 -0.016419 0.044367
#
#
# Mechanical properties :
#
#
# Convention : Reuss Voigt Hill
#
# Bulk Modulus (GPa) = 40.99437 54.34803 47.67120
# Shear Modulus (GPa) = 24.38554 29.55694 26.97124
#
# Velocity S-wave (km/s) = 3.26320 3.59259 3.43185
# Velocity P-wave (km/s) = 5.66561 6.39853 6.04319
#
# Compressibility (1/GPa) = 0.02439359
#
# Stress axis : x y z
#
# Youngs Moduli (GPa) = 66.96758 43.00805 75.79204
#
# Poissons Ratio (x) = 0.25876 0.29274
# Poissons Ratio (y) = 0.40291 0.27386
# Poissons Ratio (z) = 0.25865 0.15540
#
# Static dielectric constant tensor:
#      x y z
#    x 1.874830 -0.034830 -0.034210 
#    y -0.034830 1.906570 -0.014230 
#    z -0.034210 -0.014230 1.852540 
# 
# From -- ./inp_files/287257.got.cif
#   From: 2010.05.17/outbox.cif.g08.bks.cpg/sg2_144_cif.got.tgz:287257.got - 2010.06.03 11:33:40.
