data_PCOD9016295
_publ_section_title
;
Structure prediction by ZEFSAII (Michael W. Deem and Ramdas Pophale) SiO2 
 PCOD9016295
Probable space group: P -1
;
_chemical_formula_sum "Si O2"
_cell_formula_units_Z 12
_cell_length_a 12.202670
_cell_length_b 11.523085
_cell_length_c 11.320765
_cell_angle_alpha 144.915518
_cell_angle_beta 133.486971
_cell_angle_gamma 41.720877
_cell_volume 596.311748
_symmetry_space_group_name_H-M "P -1"
_symmetry_group_IT_number 2
_symmetry_cell_setting 'triclinic'
loop_
_space_group_symop_operation_xyz
x,y,z
-x,-y,-z
loop_
_atom_site_type_symbol
_atom_site_label
_atom_site_fract_x
_atom_site_fract_y
_atom_site_fract_z
Si Si1 0.808333 0.022746 0.625371
Si Si2 0.688051 0.461536 0.757462
Si Si3 0.638484 0.609176 0.592130
Si Si4 0.653023 0.266673 0.957024
Si Si5 0.108847 0.602353 0.597464
Si Si6 0.434079 0.106315 0.819756
O O1 0.802499 0.230739 0.716788
O O2 0.729421 0.121956 0.776494
O O3 0.689946 0.931880 0.395287
O O4 0.987756 0.818827 0.612562
O O5 0.734354 0.476103 0.668347
O O6 0.500707 0.472780 0.620218
O O7 0.668762 0.678548 0.996531
O O8 0.759901 0.574627 0.543313
O O9 0.531911 0.870643 0.763519
O O10 0.573289 0.150118 0.888146
O O11 0.500000 0.500000 0.000000
O O12 0.790182 0.321317 0.170731
O O13 0.000000 0.500000 0.500000
#
# Coordination Sequence:
#
# PCOD9016295 Si02
#       6
#     2   2   2   2   2   2
#     4  11  24  38  63  96 132 162 204 261 319 375
#     4  10  21  42  67  92 125 165 218 257 302 372
#     4  10  22  41  66  95 122 168 215 257 305 373
#     4  12  21  41  67  90 125 167 214 260 304 369
#     4  12  25  42  63  95 132 166 204 261 325 373
#     4  11  20  41  66  95 122 166 214 260 305 368
#
# _framework density 20.123701000000001
#
# number of rings (size 3 to 8) (size 9 to 14) (size 15 to 20)
#    0.000    1.000    3.333    4.500    0.000    0.667 
#    0.000    0.833    0.000    0.000    0.000    0.000 
#    0.000    0.000    0.000    0.000    0.000    0.000 
#
# Total GULP energy -67107.540775 kJ/mol
# GULP energy per Si atom -5592.295065 kJ/mol
# Density = 2.007790 g / cm^3
# Si number density = 20.123701 Si / 1000 Ang^3
#
#
#
# Elastic Constant Matrix: (Units=GPa)
#
#
# Indices 1 2 3 4 5 6 
#
# 1 62.3854 4.6559 34.7989 -8.0775 -3.3861 11.5498
# 2 4.6559 102.0433 46.8425 -5.9109 -2.7790 8.0721
# 3 34.7989 46.8425 133.9495 2.0722 -3.9286 3.7417
# 4 -8.0775 -5.9109 2.0722 27.9374 -3.4877 -4.9312
# 5 -3.3861 -2.7790 -3.9286 -3.4877 22.7304 -1.2860
# 6 11.5498 8.0721 3.7417 -4.9312 -1.2860 25.1874
#
#
#
# Elastic Compliance Matrix: (Units=1/GPa)
#
#
# Indices 1 2 3 4 5 6 
#
# 1 0.022095 0.003174 -0.006615 0.006381 0.003019 -0.008763
# 2 0.003174 0.012555 -0.005115 0.003430 0.001425 -0.003975
# 3 -0.006615 -0.005115 0.010956 -0.003402 -0.000105 0.002374
# 4 0.006381 0.003430 -0.003402 0.040360 0.007243 0.004752
# 5 0.003019 0.001425 -0.000105 0.007243 0.045821 0.001932
# 6 -0.008763 -0.003975 0.002374 0.004752 0.001932 0.045671
#
#
# Mechanical properties :
#
#
# Convention : Reuss Voigt Hill
#
# Bulk Modulus (GPa) = 35.09730 52.33032 43.71381
# Shear Modulus (GPa) = 24.50157 29.30976 26.90567
#
# Velocity S-wave (km/s) = 3.49312 3.82053 3.66049
# Velocity P-wave (km/s) = 5.80929 6.74705 6.29565
#
# Compressibility (1/GPa) = 0.02849222
#
# Stress axis : x y z
#
# Youngs Moduli (GPa) = 45.25935 79.64978 91.27322
#
# Poissons Ratio (x) = -0.25277 0.60379
# Poissons Ratio (y) = -0.14363 0.46688
# Poissons Ratio (z) = 0.29940 0.40742
#
# Static dielectric constant tensor:
#      x y z
#    x 1.717140 0.013780 -0.007620 
#    y 0.013780 1.728330 0.022000 
#    z -0.007620 0.022000 1.697390 
# 
# From -- ./inp_files/18798.got.cif
#   From: 2010.05.17/outbox.cif.g08.bks.cpg/sg2_10_cif.got.tgz:18798.got - 2010.06.03 11:33:40.
