data_PCOD9016779
_publ_section_title
;
Structure prediction by ZEFSAII (Michael W. Deem and Ramdas Pophale) SiO2 
 PCOD9016779
Probable space group: P -1
;
_chemical_formula_sum "Si O2"
_cell_formula_units_Z 16
_cell_length_a 8.902403
_cell_length_b 11.975529
_cell_length_c 14.681238
_cell_angle_alpha 40.187820
_cell_angle_beta 47.277889
_cell_angle_gamma 66.436828
_cell_volume 718.437329
_symmetry_space_group_name_H-M "P -1"
_symmetry_group_IT_number 2
_symmetry_cell_setting 'triclinic'
loop_
_space_group_symop_operation_xyz
x,y,z
-x,-y,-z
loop_
_atom_site_type_symbol
_atom_site_label
_atom_site_fract_x
_atom_site_fract_y
_atom_site_fract_z
Si Si1 0.210585 0.212463 0.181480
Si Si2 0.929986 0.478772 0.436924
Si Si3 0.608636 0.141854 0.148804
Si Si4 0.063863 0.868682 0.125431
Si Si5 0.076191 0.509660 0.160518
Si Si6 0.958969 0.115782 0.669827
Si Si7 0.426825 0.140854 0.507597
Si Si8 0.781661 0.507156 0.137962
O O1 0.376265 0.155489 0.213996
O O2 0.091779 0.326150 0.222352
O O3 0.079298 0.039246 0.291617
O O4 0.303592 0.349825 0.974618
O O5 0.828451 0.264854 0.609845
O O6 0.000000 0.500000 0.500000
O O7 0.888819 0.676138 0.318315
O O8 0.073272 0.483538 0.285595
O O9 0.616666 0.967072 0.311726
O O10 0.723079 0.153981 0.996102
O O11 0.731579 0.318185 0.044516
O O12 0.101740 0.944574 0.163892
O O13 0.000000 0.000000 0.000000
O O14 0.867699 0.555187 0.175032
O O15 0.213757 0.185933 0.529879
O O16 0.611804 0.319787 0.326334
O O17 0.500000 0.000000 0.500000
O O18 0.000000 0.500000 0.000000
#
# Coordination Sequence:
#
# PCOD9016779 Si02
#       8
#     2   2   2   2   2   2   2   2
#     4  11  24  40  66 106 136 173 224 278 348 393
#     4   9  22  39  67  96 126 178 229 267 331 393
#     4  11  24  41  69 100 132 180 231 276 336 402
#     4  10  21  45  71  91 132 183 231 270 341 400
#     4  10  21  42  69  91 143 179 217 278 343 401
#     4  11  24  43  69  97 140 178 223 284 330 401
#     4  12  24  39  67 100 138 175 229 273 338 408
#     4  10  23  42  61  95 140 178 216 267 342 406
#
# _framework density 22.270558999999999
#
# number of rings (size 3 to 8) (size 9 to 14) (size 15 to 20)
#    0.000    1.500    1.250    4.125    8.750    1.000 
#    0.000    0.000    0.000    8.250    0.000    0.000 
#    0.000    0.000    0.000    0.000    0.000    0.000 
#
# Total GULP energy -89077.860532 kJ/mol
# GULP energy per Si atom -5567.366283 kJ/mol
# Density = 2.221987 g / cm^3
# Si number density = 22.270559 Si / 1000 Ang^3
#
#
#
# Elastic Constant Matrix: (Units=GPa)
#
#
# Indices 1 2 3 4 5 6 
#
# 1 88.0052 25.4689 45.6421 -23.7865 8.1659 14.5959
# 2 25.4689 101.3704 20.2722 -13.3941 0.7029 25.9425
# 3 45.6421 20.2722 99.1386 -27.3972 10.7066 25.3368
# 4 -23.7865 -13.3941 -27.3972 39.2656 1.3977 6.8936
# 5 8.1659 0.7029 10.7066 1.3977 37.6698 -13.5054
# 6 14.5959 25.9425 25.3368 6.8936 -13.5054 21.9183
#
#
#
# Elastic Compliance Matrix: (Units=1/GPa)
#
#
# Indices 1 2 3 4 5 6 
#
# 1 0.014584 -0.006358 -0.011836 -0.004831 0.006632 0.017102
# 2 -0.006358 0.002455 -0.014160 -0.019802 0.018829 0.035528
# 3 -0.011836 -0.014160 -0.006646 -0.027610 0.026244 0.057179
# 4 -0.004831 -0.019802 -0.027610 -0.021095 0.042903 0.091642
# 5 0.006632 0.018829 0.026244 0.042903 -0.012298 -0.078111
# 6 0.017102 0.035528 0.057179 0.091642 -0.078111 -0.150865
#
#
# Mechanical properties :
#
#
# Convention : Reuss Voigt Hill
#
# Bulk Modulus (GPa) = -18.41042 52.36453 16.97705
# Shear Modulus (GPa) = -39.28940 32.91280 -3.18830
#
# Velocity S-wave (km/s) = -4.20478 3.84847 -1.19780
# Velocity P-wave (km/s) = 5.64431 6.58115 2.39305
#
# Compressibility (1/GPa) = -0.05431706
#
# Stress axis : x y z
#
# Youngs Moduli (GPa) = 68.56798 407.35113 -150.46600
#
# Poissons Ratio (x) = 2.59003 -1.78096
# Poissons Ratio (y) = 0.43597 -2.13067
# Poissons Ratio (z) = 0.81159 5.76829
#
# Static dielectric constant tensor:
#      x y z
#    x 1.882550 -0.051880 0.032330 
#    y -0.051880 1.918050 0.003720 
#    z 0.032330 0.003720 1.868290 
# 
# From -- ./inp_files/447504.got.cif
#   From: 2010.05.17/outbox.cif.g08.bks.cpg/sg2_224_cif.got.tgz:447504.got - 2010.06.03 11:33:40.
