data_PCOD9016824
_publ_section_title
;
Structure prediction by ZEFSAII (Michael W. Deem and Ramdas Pophale) SiO2 
 PCOD9016824
Probable space group: P -1
;
_chemical_formula_sum "Si O2"
_cell_formula_units_Z 14
_cell_length_a 11.045144
_cell_length_b 8.704494
_cell_length_c 10.006860
_cell_angle_alpha 117.734334
_cell_angle_beta 94.113426
_cell_angle_gamma 47.822077
_cell_volume 587.016983
_symmetry_space_group_name_H-M "P -1"
_symmetry_group_IT_number 2
_symmetry_cell_setting 'triclinic'
loop_
_space_group_symop_operation_xyz
x,y,z
-x,-y,-z
loop_
_atom_site_type_symbol
_atom_site_label
_atom_site_fract_x
_atom_site_fract_y
_atom_site_fract_z
Si Si1 0.285946 0.240058 0.423820
Si Si2 0.327808 0.080367 0.069722
Si Si3 0.526255 0.548658 0.875307
Si Si4 0.034963 0.974884 0.834139
Si Si5 0.943277 0.809155 0.534907
Si Si6 0.888811 0.382157 0.805063
Si Si7 0.570720 0.553943 0.411648
O O1 0.339853 0.085507 0.232045
O O2 0.212547 0.169171 0.486870
O O3 0.423433 0.246895 0.476993
O O4 0.113546 0.526330 0.483594
O O5 0.160586 0.364410 0.120549
O O6 0.500000 0.000000 0.000000
O O7 0.361314 0.845079 0.945443
O O8 0.699163 0.486132 0.845272
O O9 0.534689 0.386172 0.704365
O O10 0.500000 0.500000 0.000000
O O11 0.995005 0.209713 0.872793
O O12 0.229348 0.708367 0.708901
O O13 0.919400 0.971197 0.720514
O O14 0.000000 0.000000 0.000000
O O15 0.004772 0.801638 0.389045
O O16 0.500000 0.500000 0.500000
#
# Coordination Sequence:
#
# PCOD9016824 Si02
#       7
#     2   2   2   2   2   2   2
#     4   9  19  37  64  92 129 177 219 275 329 399
#     4   9  19  38  64  93 130 175 218 270 336 405
#     4  11  23  40  71  99 133 174 223 282 347 404
#     4  11  23  39  68 104 135 172 228 289 335 397
#     4   9  19  37  65  91 131 176 224 264 335 405
#     4  10  21  42  69  95 128 187 229 267 337 416
#     4  11  23  43  68 100 136 177 224 284 339 406
#
# _framework density 23.849395000000001
#
# number of rings (size 3 to 8) (size 9 to 14) (size 15 to 20)
#    0.000    2.000    0.000    4.714    4.000    0.000 
#    0.000    1.429    9.429    1.714    0.000    1.000 
#    0.000    0.000    0.000    0.000    0.000    0.000 
#
# Total GULP energy -78161.549762 kJ/mol
# GULP energy per Si atom -5582.967840 kJ/mol
# Density = 2.379511 g / cm^3
# Si number density = 23.849395 Si / 1000 Ang^3
#
#
#
# Elastic Constant Matrix: (Units=GPa)
#
#
# Indices 1 2 3 4 5 6 
#
# 1 117.6031 -1.3875 58.2717 -19.0465 -9.2573 24.9413
# 2 -1.3875 97.4940 29.8198 -9.7019 -8.3108 17.4359
# 3 58.2717 29.8198 127.1774 -19.3970 -15.1020 27.1686
# 4 -19.0465 -9.7019 -19.3970 40.5027 8.1880 -5.6558
# 5 -9.2573 -8.3108 -15.1020 8.1880 48.3882 -1.6233
# 6 24.9413 17.4359 27.1686 -5.6558 -1.6233 24.8739
#
#
#
# Elastic Compliance Matrix: (Units=1/GPa)
#
#
# Indices 1 2 3 4 5 6 
#
# 1 0.013567 0.003849 -0.004118 0.003604 0.000995 -0.010919
# 2 0.003849 0.013134 -0.002160 0.002185 0.001609 -0.010105
# 3 -0.004118 -0.002160 0.012369 0.002027 0.002115 -0.007268
# 4 0.003604 0.002185 0.002027 0.028357 -0.003138 -0.001117
# 5 0.000995 0.001609 0.002115 -0.003138 0.022200 -0.003701
# 6 -0.010919 -0.010105 -0.007268 -0.001117 -0.003701 0.065678
#
#
# Mechanical properties :
#
#
# Convention : Reuss Voigt Hill
#
# Bulk Modulus (GPa) = 29.22986 57.29806 43.26396
# Shear Modulus (GPa) = 29.14288 39.79099 34.46693
#
# Velocity S-wave (km/s) = 3.49944 4.08907 3.80569
# Velocity P-wave (km/s) = 5.34890 6.80963 6.12298
#
# Compressibility (1/GPa) = 0.03421159
#
# Stress axis : x y z
#
# Youngs Moduli (GPa) = 73.70905 76.13649 80.84424
#
# Poissons Ratio (x) = -0.29304 0.33294
# Poissons Ratio (y) = -0.28370 0.17463
# Poissons Ratio (z) = 0.30356 0.16447
#
# Static dielectric constant tensor:
#      x y z
#    x 3.491290 -0.453340 -0.794970 
#    y -0.453340 2.126500 0.262110 
#    z -0.794970 0.262110 2.337740 
# 
# From -- ./inp_files/245535.got.cif
#   From: 2010.05.17/outbox.cif.g08.bks.cpg/sg2_123_cif.got.tgz:245535.got - 2010.06.03 11:33:40.
