data_PCOD9016356
_publ_section_title
;
Structure prediction by ZEFSAII (Michael W. Deem and Ramdas Pophale) SiO2 
 PCOD9016356
Probable space group: P -1
;
_chemical_formula_sum "Si O2"
_cell_formula_units_Z 16
_cell_length_a 16.592140
_cell_length_b 7.164722
_cell_length_c 7.415682
_cell_angle_alpha 58.233033
_cell_angle_beta 63.002409
_cell_angle_gamma 67.833829
_cell_volume 656.600488
_symmetry_space_group_name_H-M "P -1"
_symmetry_group_IT_number 2
_symmetry_cell_setting 'triclinic'
loop_
_space_group_symop_operation_xyz
x,y,z
-x,-y,-z
loop_
_atom_site_type_symbol
_atom_site_label
_atom_site_fract_x
_atom_site_fract_y
_atom_site_fract_z
Si Si1 0.890803 0.915955 0.438502
Si Si2 0.392933 0.213379 0.825143
Si Si3 0.504470 0.728074 0.984568
Si Si4 0.889090 0.685376 0.039831
Si Si5 0.053393 0.714654 0.604045
Si Si6 0.215090 0.428366 0.113874
Si Si7 0.394622 0.106163 0.503079
Si Si8 0.220193 0.913674 0.875113
O O1 0.993474 0.779494 0.452261
O O2 0.880599 0.114332 0.497949
O O3 0.860624 0.026403 0.222521
O O4 0.822204 0.745428 0.633011
O O5 0.305758 0.319030 0.973402
O O6 0.374397 0.279468 0.601761
O O7 0.420473 0.940320 0.942047
O O8 0.474979 0.294665 0.811782
O O9 0.591195 0.804928 0.754627
O O10 0.500000 0.500000 0.000000
O O11 0.903119 0.542770 0.281531
O O12 0.858831 0.530421 0.994475
O O13 0.811853 0.901037 0.036670
O O14 0.980158 0.749637 0.829011
O O15 0.226039 0.663653 0.065079
O O16 0.500000 0.000000 0.500000
O O17 0.317458 0.952606 0.673455
#
# Coordination Sequence:
#
# PCOD9016356 Si02
#       8
#     2   2   2   2   2   2   2   2
#     4  10  22  42  66  96 133 172 222 277 335 406
#     4  10  22  43  65  95 134 174 223 281 345 398
#     4  10  23  43  66  99 132 172 227 286 341 418
#     4  10  21  42  67  94 136 175 221 272 342 406
#     4   9  20  44  65  95 137 175 217 282 337 411
#     4  11  23  43  65  95 134 177 218 282 336 397
#     4  10  23  44  65  98 134 173 232 276 340 412
#     4  12  24  43  66  99 130 178 229 279 336 416
#
# _framework density 24.367937000000001
#
# number of rings (size 3 to 8) (size 9 to 14) (size 15 to 20)
#    0.000    1.750    2.500    0.750    3.500    1.500 
#   15.750    0.000    0.000    0.000    0.000    0.000 
#    0.000    0.000    0.000    0.000    0.000    0.000 
#
# Total GULP energy -89276.934774 kJ/mol
# GULP energy per Si atom -5579.808423 kJ/mol
# Density = 2.431247 g / cm^3
# Si number density = 24.367937 Si / 1000 Ang^3
#
#
#
# Elastic Constant Matrix: (Units=GPa)
#
#
# Indices 1 2 3 4 5 6 
#
# 1 57.2836 -1.6885 1.1976 -5.9594 7.7106 5.7175
# 2 -1.6885 128.0083 18.1470 -26.2077 -17.6178 -5.4437
# 3 1.1976 18.1470 60.8015 -17.0875 -6.9780 -3.6305
# 4 -5.9594 -26.2077 -17.0875 32.0234 10.1264 -2.6538
# 5 7.7106 -17.6178 -6.9780 10.1264 40.9550 4.0431
# 6 5.7175 -5.4437 -3.6305 -2.6538 4.0431 27.8706
#
#
#
# Elastic Compliance Matrix: (Units=1/GPa)
#
#
# Indices 1 2 3 4 5 6 
#
# 1 0.018856 0.000589 0.000292 0.005292 -0.004300 -0.002587
# 2 0.000589 0.009765 -0.000495 0.007393 0.001966 0.002141
# 3 0.000292 -0.000495 0.019735 0.010400 0.000190 0.003377
# 4 0.005292 0.007393 0.010400 0.047089 -0.008420 0.007418
# 5 -0.004300 0.001966 0.000190 -0.008420 0.028547 -0.003652
# 6 -0.002587 0.002141 0.003377 0.007418 -0.003652 0.038505
#
#
# Mechanical properties :
#
#
# Convention : Reuss Voigt Hill
#
# Bulk Modulus (GPa) = 20.35486 31.26729 25.81108
# Shear Modulus (GPa) = 28.07401 35.39895 31.73648
#
# Velocity S-wave (km/s) = 3.39792 3.81555 3.61277
# Velocity P-wave (km/s) = 4.87502 5.68070 5.29321
#
# Compressibility (1/GPa) = 0.04912831
#
# Stress axis : x y z
#
# Youngs Moduli (GPa) = 53.03386 102.40479 50.67128
#
# Poissons Ratio (x) = -0.06031 -0.01480
# Poissons Ratio (y) = -0.03124 0.02508
# Poissons Ratio (z) = -0.01549 0.05069
#
# Static dielectric constant tensor:
#      x y z
#    x 2.056470 0.006690 0.010410 
#    y 0.006690 1.972730 -0.022210 
#    z 0.010410 -0.022210 2.015030 
# 
# From -- ./inp_files/323281.got.cif
#   From: 2010.05.17/outbox.cif.g08.bks.cpg/sg2_162_cif.got.tgz:323281.got - 2010.06.03 11:33:40.
