data_PCOD9016219
_publ_section_title
;
Structure prediction by ZEFSAII (Michael W. Deem and Ramdas Pophale) SiO2 
 PCOD9016219
Probable space group: P -1
;
_chemical_formula_sum "Si O2"
_cell_formula_units_Z 16
_cell_length_a 8.158652
_cell_length_b 9.528088
_cell_length_c 24.051764
_cell_angle_alpha 134.591208
_cell_angle_beta 42.386449
_cell_angle_gamma 103.091989
_cell_volume 712.420286
_symmetry_space_group_name_H-M "P -1"
_symmetry_group_IT_number 2
_symmetry_cell_setting 'triclinic'
loop_
_space_group_symop_operation_xyz
x,y,z
-x,-y,-z
loop_
_atom_site_type_symbol
_atom_site_label
_atom_site_fract_x
_atom_site_fract_y
_atom_site_fract_z
Si Si1 0.364352 0.281166 0.614413
Si Si2 0.278534 0.933495 0.175608
Si Si3 0.012453 0.945234 0.902745
Si Si4 0.300838 0.727774 0.365612
Si Si5 0.245921 0.625253 0.646476
Si Si6 0.744521 0.425517 0.852241
Si Si7 0.750006 0.487997 0.089204
Si Si8 0.500908 0.787920 0.820478
O O1 0.586398 0.283625 0.603083
O O2 0.316379 0.387448 0.594280
O O3 0.021507 0.424452 0.763173
O O4 0.500000 0.000000 0.500000
O O5 0.127569 0.842105 0.227029
O O6 0.410764 0.075321 0.204402
O O7 0.544814 0.666924 0.008765
O O8 0.054583 0.147850 0.247104
O O9 0.200211 0.776685 0.756073
O O10 0.235273 0.802496 0.858732
O O11 0.938751 0.207468 0.983674
O O12 0.672477 0.038423 0.033148
O O13 0.567694 0.659693 0.236097
O O14 0.265325 0.505128 0.306062
O O15 0.000000 0.000000 0.500000
O O16 0.500000 0.500000 0.500000
O O17 0.510980 0.461681 0.873795
O O18 0.000000 0.500000 0.000000
#
# Coordination Sequence:
#
# PCOD9016219 Si02
#       8
#     2   2   2   2   2   2   2   2
#     4  12  27  46  75  99 145 192 240 304 368 438
#     4  11  25  42  69 104 144 184 239 291 363 422
#     4  10  21  42  67 101 132 178 237 285 356 421
#     4  11  26  46  72 106 140 189 251 299 377 445
#     4  12  26  45  68 102 146 188 240 296 362 435
#     4  11  25  44  70 108 147 184 243 297 364 439
#     4  11  24  42  73 103 146 188 240 301 358 437
#     4  10  22  43  72  99 138 181 237 301 355 428
#
# _framework density 22.458653000000002
#
# number of rings (size 3 to 8) (size 9 to 14) (size 15 to 20)
#    0.000    1.000    2.500    3.000   12.250    2.000 
#    0.000    0.625    0.000    0.000    0.000    0.000 
#    0.000    0.000    0.000    0.000    0.000    0.000 
#
# Total GULP energy -89090.832897 kJ/mol
# GULP energy per Si atom -5568.177056 kJ/mol
# Density = 2.240754 g / cm^3
# Si number density = 22.458653 Si / 1000 Ang^3
#
#
#
# Elastic Constant Matrix: (Units=GPa)
#
#
# Indices 1 2 3 4 5 6 
#
# 1 58.6502 6.4793 -1.3705 9.6921 -7.3646 -12.8163
# 2 6.4793 159.2168 33.0008 24.3161 -9.9245 -9.7068
# 3 -1.3705 33.0008 109.9049 21.5772 5.7523 -1.7304
# 4 9.6921 24.3161 21.5772 51.7134 -5.2781 -2.5003
# 5 -7.3646 -9.9245 5.7523 -5.2781 30.9320 6.4315
# 6 -12.8163 -9.7068 -1.7304 -2.5003 6.4315 25.6500
#
#
#
# Elastic Compliance Matrix: (Units=1/GPa)
#
#
# Indices 1 2 3 4 5 6 
#
# 1 0.019916 0.000240 0.000910 -0.003562 0.002124 0.009223
# 2 0.000240 0.007248 -0.001763 -0.002428 0.001872 0.002038
# 3 0.000910 -0.001763 0.010618 -0.004055 -0.003205 0.000912
# 4 -0.003562 -0.002428 -0.004055 0.023109 0.003397 -0.001571
# 5 0.002124 0.001872 -0.003205 0.003397 0.036101 -0.007167
# 6 0.009223 0.002038 0.000912 -0.001571 -0.007167 0.046072
#
#
# Mechanical properties :
#
#
# Convention : Reuss Voigt Hill
#
# Bulk Modulus (GPa) = 27.35587 44.88791 36.12189
# Shear Modulus (GPa) = 31.95399 40.96989 36.46194
#
# Velocity S-wave (km/s) = 3.77608 4.27574 4.03366
# Velocity P-wave (km/s) = 5.58737 6.66380 6.14919
#
# Compressibility (1/GPa) = 0.03655522
#
# Stress axis : x y z
#
# Youngs Moduli (GPa) = 50.21115 137.96770 94.18368
#
# Poissons Ratio (x) = -0.03307 -0.08569
# Poissons Ratio (y) = -0.01204 0.16601
# Poissons Ratio (z) = -0.04568 0.24318
#
# Static dielectric constant tensor:
#      x y z
#    x 2.045070 0.005370 -0.028880 
#    y 0.005370 1.888320 -0.009190 
#    z -0.028880 -0.009190 1.873700 
# 
# From -- ./inp_files/606775.got.cif
#   From: 2010.05.17/outbox.cif.g08.bks.cpg/sg2_304_cif.got.tgz:606775.got - 2010.06.03 11:33:40.
