data_PCOD9016652
_publ_section_title
;
Structure prediction by ZEFSAII (Michael W. Deem and Ramdas Pophale) SiO2 
 PCOD9016652
Probable space group: P -1
;
_chemical_formula_sum "Si O2"
_cell_formula_units_Z 16
_cell_length_a 8.725679
_cell_length_b 15.616068
_cell_length_c 8.786084
_cell_angle_alpha 86.251207
_cell_angle_beta 45.472793
_cell_angle_gamma 59.120506
_cell_volume 642.071399
_symmetry_space_group_name_H-M "P -1"
_symmetry_group_IT_number 2
_symmetry_cell_setting 'triclinic'
loop_
_space_group_symop_operation_xyz
x,y,z
-x,-y,-z
loop_
_atom_site_type_symbol
_atom_site_label
_atom_site_fract_x
_atom_site_fract_y
_atom_site_fract_z
Si Si1 0.775998 0.026725 0.459709
Si Si2 0.448999 0.525929 0.211792
Si Si3 0.409985 0.675517 0.718970
Si Si4 0.891993 0.912573 0.949629
Si Si5 0.662251 0.876033 0.508035
Si Si6 0.687019 0.622172 0.197708
Si Si7 0.609698 0.817098 0.052518
Si Si8 0.200429 0.312430 0.366962
O O1 0.960934 0.050712 0.251061
O O2 0.472375 0.103824 0.566633
O O3 0.864618 0.904910 0.390977
O O4 0.690963 0.073105 0.684043
O O5 0.640045 0.410135 0.192070
O O6 0.512068 0.606421 0.207626
O O7 0.121397 0.590767 0.473259
O O8 0.500000 0.500000 0.000000
O O9 0.133454 0.808747 0.902839
O O10 0.538681 0.654362 0.462734
O O11 0.638463 0.648154 0.685877
O O12 0.798110 0.854165 0.924392
O O13 0.621382 0.026130 0.207244
O O14 0.805992 0.753406 0.482665
O O15 0.697542 0.715104 0.112320
O O16 0.000000 0.500000 0.000000
O O17 0.621936 0.776889 0.881234
#
# Coordination Sequence:
#
# PCOD9016652 Si02
#       8
#     2   2   2   2   2   2   2   2
#     4  10  21  42  68  97 135 178 243 278 329 401
#     4  12  27  45  69 105 142 180 221 286 359 407
#     4  12  24  44  72  99 134 183 231 284 334 413
#     4  11  22  43  74 100 135 178 246 276 335 401
#     4  10  23  42  70 102 134 186 228 291 329 407
#     4  12  23  44  71  98 132 182 240 281 331 406
#     4  11  24  42  66 101 140 177 221 292 341 404
#     4  12  25  45  65 101 149 176 225 282 353 415
#
# _framework density 24.919349
#
# number of rings (size 3 to 8) (size 9 to 14) (size 15 to 20)
#    0.000    0.750    2.500    4.875    0.000    5.000 
#    2.250    1.250    0.000    0.000    0.000    0.000 
#    0.000    0.000    0.000    0.000    0.000    0.000 
#
# Total GULP energy -89672.307023 kJ/mol
# GULP energy per Si atom -5604.519189 kJ/mol
# Density = 2.486263 g / cm^3
# Si number density = 24.919349 Si / 1000 Ang^3
#
#
#
# Elastic Constant Matrix: (Units=GPa)
#
#
# Indices 1 2 3 4 5 6 
#
# 1 90.5805 9.5264 37.4872 9.5177 0.5832 27.0381
# 2 9.5264 118.8973 4.0390 -10.0440 -17.6471 16.6001
# 3 37.4872 4.0390 105.7830 -0.2638 10.4737 14.4413
# 4 9.5177 -10.0440 -0.2638 38.2602 2.0504 -2.5317
# 5 0.5832 -17.6471 10.4737 2.0504 44.3023 -0.2339
# 6 27.0381 16.6001 14.4413 -2.5317 -0.2339 51.2271
#
#
#
# Elastic Compliance Matrix: (Units=1/GPa)
#
#
# Indices 1 2 3 4 5 6 
#
# 1 0.015559 -0.000354 -0.004647 -0.004509 0.000924 -0.007006
# 2 -0.000354 0.009572 -0.000235 0.002218 0.003756 -0.002722
# 3 -0.004647 -0.000235 0.011480 0.001281 -0.002809 -0.000657
# 4 -0.004509 0.002218 0.001281 0.028062 -0.000644 0.002684
# 5 0.000924 0.003756 -0.002809 -0.000644 0.024746 -0.000832
# 6 -0.007006 -0.002722 -0.000657 0.002684 -0.000832 0.024415
#
#
# Mechanical properties :
#
#
# Convention : Reuss Voigt Hill
#
# Bulk Modulus (GPa) = 38.25578 46.37401 42.31490
# Shear Modulus (GPa) = 37.58888 44.37179 40.98034
#
# Velocity S-wave (km/s) = 3.88805 4.22431 4.05967
# Velocity P-wave (km/s) = 5.96164 6.51484 6.24437
#
# Compressibility (1/GPa) = 0.02613984
#
# Stress axis : x y z
#
# Youngs Moduli (GPa) = 64.27005 104.47340 87.10808
#
# Poissons Ratio (x) = 0.03702 0.40476
# Poissons Ratio (y) = 0.02277 0.02044
# Poissons Ratio (z) = 0.29864 0.02452
#
# Static dielectric constant tensor:
#      x y z
#    x 2.005690 -0.014320 -0.021890 
#    y -0.014320 1.932820 -0.016460 
#    z -0.021890 -0.016460 1.956050 
# 
# From -- ./inp_files/207511.got.cif
#   From: 2010.05.17/outbox.cif.g08.bks.cpg/sg2_104_cif.got.tgz:207511.got - 2010.06.03 11:33:40.
