data_PCOD9017281
_publ_section_title
;
Structure prediction by ZEFSAII (Michael W. Deem and Ramdas Pophale) SiO2 
 PCOD9017281
Probable space group: P -1
;
_chemical_formula_sum "Si O2"
_cell_formula_units_Z 16
_cell_length_a 8.933710
_cell_length_b 9.094864
_cell_length_c 19.982235
_cell_angle_alpha 37.331479
_cell_angle_beta 49.544227
_cell_angle_gamma 70.857470
_cell_volume 684.159938
_symmetry_space_group_name_H-M "P -1"
_symmetry_group_IT_number 2
_symmetry_cell_setting 'triclinic'
loop_
_space_group_symop_operation_xyz
x,y,z
-x,-y,-z
loop_
_atom_site_type_symbol
_atom_site_label
_atom_site_fract_x
_atom_site_fract_y
_atom_site_fract_z
Si Si1 0.384158 0.700069 0.459468
Si Si2 0.194516 0.999531 0.490487
Si Si3 0.581241 0.401044 0.790551
Si Si4 0.964171 0.865326 0.745775
Si Si5 0.316342 0.807279 0.297027
Si Si6 0.155379 0.867945 0.109687
Si Si7 0.791587 0.279319 0.993783
Si Si8 0.145666 0.925509 0.816607
O O1 0.500000 0.500000 0.500000
O O2 0.250508 0.757820 0.536173
O O3 0.267633 0.670590 0.432857
O O4 0.599271 0.971678 0.297409
O O5 0.126503 0.958676 0.602479
O O6 0.380678 0.295879 0.319415
O O7 0.000000 0.000000 0.500000
O O8 0.730345 0.313156 0.827931
O O9 0.663521 0.376355 0.701154
O O10 0.340381 0.171205 0.951313
O O11 0.852451 0.067661 0.713882
O O12 0.795311 0.570194 0.882519
O O13 0.061321 0.840456 0.797843
O O14 0.550730 0.052808 0.143039
O O15 0.097695 0.782473 0.080941
O O16 0.949475 0.858406 0.213213
O O17 0.909510 0.259799 0.034867
#
# Coordination Sequence:
#
# PCOD9017281 Si02
#       8
#     2   2   2   2   2   2   2   2
#     4  11  28  48  70 100 146 185 227 289 359 418
#     4  12  27  46  70 104 139 187 235 285 344 425
#     4  10  23  42  71 105 139 173 246 282 337 409
#     4  12  24  41  71 101 139 186 237 285 345 415
#     4  10  22  45  69 101 133 191 228 295 338 411
#     4  10  21  42  73 102 134 188 224 297 342 403
#     4  10  23  41  66 102 143 177 236 289 350 408
#     4  11  25  44  66 103 137 186 231 288 361 401
#
# _framework density 23.386341999999999
#
# number of rings (size 3 to 8) (size 9 to 14) (size 15 to 20)
#    0.000    1.250    2.500    1.875    5.250    4.000 
#    0.000    0.000    0.000    0.000    0.000    0.000 
#    0.000    0.000    0.000    0.000    0.000    0.000 
#
# Total GULP energy -89450.761518 kJ/mol
# GULP energy per Si atom -5590.672595 kJ/mol
# Density = 2.333311 g / cm^3
# Si number density = 23.386342 Si / 1000 Ang^3
#
#
#
# Elastic Constant Matrix: (Units=GPa)
#
#
# Indices 1 2 3 4 5 6 
#
# 1 84.7199 37.8273 22.6923 11.5513 19.5500 11.9098
# 2 37.8273 126.8972 43.7587 7.0549 6.4476 2.3130
# 3 22.6923 43.7587 67.9974 -2.5336 13.2829 11.5581
# 4 11.5513 7.0549 -2.5336 45.5097 -3.1722 7.6580
# 5 19.5500 6.4476 13.2829 -3.1722 22.2688 10.1390
# 6 11.9098 2.3130 11.5581 7.6580 10.1390 38.2308
#
#
#
# Elastic Compliance Matrix: (Units=1/GPa)
#
#
# Indices 1 2 3 4 5 6 
#
# 1 0.017911 -0.004106 -0.000591 -0.004931 -0.014773 -0.000247
# 2 -0.004106 0.011380 -0.007009 -0.001223 0.003379 0.002058
# 3 -0.000591 -0.007009 0.021840 0.002621 -0.008117 -0.004367
# 4 -0.004931 -0.001223 0.002621 0.025408 0.009876 -0.006891
# 5 -0.014773 0.003379 -0.008117 0.009876 0.069294 -0.013504
# 6 -0.000247 0.002058 -0.004367 -0.006891 -0.013504 0.032391
#
#
# Mechanical properties :
#
#
# Convention : Reuss Voigt Hill
#
# Bulk Modulus (GPa) = 36.07551 54.24123 45.15837
# Shear Modulus (GPa) = 23.71060 32.89091 28.30075
#
# Velocity S-wave (km/s) = 3.18758 3.75429 3.48248
# Velocity P-wave (km/s) = 5.38581 6.48358 5.96002
#
# Compressibility (1/GPa) = 0.02771963
#
# Stress axis : x y z
#
# Youngs Moduli (GPa) = 55.83025 87.87290 45.78855
#
# Poissons Ratio (x) = 0.36084 0.02705
# Poissons Ratio (y) = 0.22926 0.32092
# Poissons Ratio (z) = 0.03298 0.61587
#
# Static dielectric constant tensor:
#      x y z
#    x 1.857140 -0.003170 0.011290 
#    y -0.003170 1.887920 -0.034130 
#    z 0.011290 -0.034130 1.968680 
# 
# From -- ./inp_files/556757.got.cif
#   From: 2010.05.17/outbox.cif.g08.bks.cpg/sg2_279_cif.got.tgz:556757.got - 2010.06.03 11:33:40.
