data_PCOD9017771
_publ_section_title
;
Structure prediction by ZEFSAII (Michael W. Deem and Ramdas Pophale) SiO2 
 PCOD9017771
Probable space group: P -1
;
_chemical_formula_sum "Si O2"
_cell_formula_units_Z 16
_cell_length_a 9.015934
_cell_length_b 18.301763
_cell_length_c 21.091359
_cell_angle_alpha 161.285765
_cell_angle_beta 144.438452
_cell_angle_gamma 38.013380
_cell_volume 646.580031
_symmetry_space_group_name_H-M "P -1"
_symmetry_group_IT_number 2
_symmetry_cell_setting 'triclinic'
loop_
_space_group_symop_operation_xyz
x,y,z
-x,-y,-z
loop_
_atom_site_type_symbol
_atom_site_label
_atom_site_fract_x
_atom_site_fract_y
_atom_site_fract_z
Si Si1 0.212913 0.918481 0.705140
Si Si2 0.870551 0.218448 0.570597
Si Si3 0.320070 0.848578 0.243158
Si Si4 0.095317 0.552264 0.450550
Si Si5 0.717997 0.928222 0.831884
Si Si6 0.168169 0.321911 0.869198
Si Si7 0.365682 0.209462 0.448804
Si Si8 0.324848 0.501661 0.845710
O O1 0.168746 0.752062 0.493053
O O2 0.466719 0.039282 0.873115
O O3 0.243188 0.764292 0.652251
O O4 0.948273 0.076756 0.753712
O O5 0.626249 0.312517 0.605035
O O6 0.100715 0.324235 0.772437
O O7 0.884155 0.939915 0.349815
O O8 0.539493 0.737506 0.275218
O O9 0.401117 0.060059 0.402382
O O10 0.267361 0.666221 0.020664
O O11 0.889448 0.627011 0.494666
O O12 0.912753 0.501942 0.286688
O O13 0.268725 0.333615 0.354285
O O14 0.677308 0.934935 0.748018
O O15 0.000000 0.000000 0.000000
O O16 0.451610 0.394967 0.031765
O O17 0.000000 0.500000 0.000000
#
# Coordination Sequence:
#
# PCOD9017771 Si02
#       8
#     2   2   2   2   2   2   2   2
#     4  10  24  43  66  97 132 175 226 281 345 403
#     4  10  22  39  60  93 137 176 226 282 333 398
#     4  10  22  41  64  95 140 173 224 270 339 404
#     4  11  24  42  70  96 133 180 223 277 347 403
#     4  11  24  46  72  95 130 171 228 293 339 408
#     4  11  22  37  61  94 136 184 231 271 333 406
#     4  10  21  43  66  93 129 174 226 279 342 403
#     4  11  23  38  64  99 141 176 223 270 333 419
#
# _framework density 24.745584000000001
#
# number of rings (size 3 to 8) (size 9 to 14) (size 15 to 20)
#    0.000    1.500    1.250    3.000    5.250    3.000 
#    2.250    6.875    0.000    0.000    0.000    0.000 
#    0.000    0.000    0.000    0.000    0.000    0.000 
#
# Total GULP energy -89506.533150 kJ/mol
# GULP energy per Si atom -5594.158322 kJ/mol
# Density = 2.468926 g / cm^3
# Si number density = 24.745584 Si / 1000 Ang^3
#
#
#
# Elastic Constant Matrix: (Units=GPa)
#
#
# Indices 1 2 3 4 5 6 
#
# 1 170.0152 34.7816 26.7969 4.7424 -10.5549 -21.7099
# 2 34.7816 92.6035 12.6190 8.3415 -10.6958 3.0165
# 3 26.7969 12.6190 44.1210 -3.1169 -4.3176 -3.9346
# 4 4.7424 8.3415 -3.1169 39.0012 -4.7446 3.3197
# 5 -10.5549 -10.6958 -4.3176 -4.7446 29.3638 4.2012
# 6 -21.7099 3.0165 -3.9346 3.3197 4.2012 39.3132
#
#
#
# Elastic Compliance Matrix: (Units=1/GPa)
#
#
# Indices 1 2 3 4 5 6 
#
# 1 0.007482 -0.002300 -0.003541 -0.000965 0.000607 0.003971
# 2 -0.002300 0.012638 -0.002250 -0.001948 0.003514 -0.002676
# 3 -0.003541 -0.002250 0.025929 0.003225 0.002198 0.000305
# 4 -0.000965 -0.001948 0.003225 0.027183 0.004212 -0.002806
# 5 0.000607 0.003514 0.002198 0.004212 0.037135 -0.004039
# 6 0.003971 -0.002676 0.000305 -0.002806 -0.004039 0.028534
#
#
# Mechanical properties :
#
#
# Convention : Reuss Voigt Hill
#
# Bulk Modulus (GPa) = 33.48193 50.57055 42.02624
# Shear Modulus (GPa) = 30.29585 37.03844 33.66715
#
# Velocity S-wave (km/s) = 3.50279 3.87301 3.69254
# Velocity P-wave (km/s) = 5.46984 6.36245 5.93296
#
# Compressibility (1/GPa) = 0.02986686
#
# Stress axis : x y z
#
# Youngs Moduli (GPa) = 133.65214 79.12838 38.56640
#
# Poissons Ratio (x) = 0.18200 0.13657
# Poissons Ratio (y) = 0.30740 0.08677
# Poissons Ratio (z) = 0.47328 0.17804
#
# Static dielectric constant tensor:
#      x y z
#    x 1.987880 -0.001600 0.049640 
#    y -0.001600 2.031820 0.029870 
#    z 0.049640 0.029870 2.010450 
# 
# From -- ./inp_files/591275.got.cif
#   From: 2010.05.17/outbox.cif.g08.bks.cpg/sg2_296_cif.got.tgz:591275.got - 2010.06.03 11:33:40.
