data_PCOD9017939
_publ_section_title
;
Structure prediction by ZEFSAII (Michael W. Deem and Ramdas Pophale) SiO2 
 PCOD9017939
Probable space group: P -1
;
_chemical_formula_sum "Si O2"
_cell_formula_units_Z 14
_cell_length_a 10.514763
_cell_length_b 8.005961
_cell_length_c 7.342359
_cell_angle_alpha 73.806205
_cell_angle_beta 80.187621
_cell_angle_gamma 82.032957
_cell_volume 582.163902
_symmetry_space_group_name_H-M "P -1"
_symmetry_group_IT_number 2
_symmetry_cell_setting 'triclinic'
loop_
_space_group_symop_operation_xyz
x,y,z
-x,-y,-z
loop_
_atom_site_type_symbol
_atom_site_label
_atom_site_fract_x
_atom_site_fract_y
_atom_site_fract_z
Si Si1 0.078833 0.084463 0.615997
Si Si2 0.318444 0.186198 0.001846
Si Si3 0.002903 0.641472 0.696018
Si Si4 0.346521 0.538235 0.049754
Si Si5 0.960007 0.749980 0.081043
Si Si6 0.397952 0.805068 0.245436
Si Si7 0.733717 0.241640 0.355123
O O1 0.001085 0.118618 0.812921
O O2 0.088671 0.273914 0.465336
O O3 0.208167 0.955789 0.644113
O O4 0.000000 0.000000 0.500000
O O5 0.296980 0.347697 0.100221
O O6 0.330254 0.997832 0.153149
O O7 0.196111 0.216407 0.889648
O O8 0.453590 0.198800 0.858244
O O9 0.987273 0.442873 0.806967
O O10 0.152042 0.664279 0.602315
O O11 0.991433 0.746383 0.860368
O O12 0.329475 0.659300 0.193408
O O13 0.500000 0.500000 0.000000
O O14 0.297061 0.653213 0.853391
O O15 0.383128 0.766810 0.473404
#
# Coordination Sequence:
#
# PCOD9017939 Si02
#       7
#     2   2   2   2   2   2   2
#     4  10  23  39  62  95 127 168 217 264 326 388
#     4  10  21  43  67  95 128 179 217 264 335 383
#     4  10  23  40  64  94 126 171 217 265 329 384
#     4  10  22  42  64  95 129 173 220 263 327 390
#     4  11  21  42  63  90 135 167 218 273 320 392
#     4  10  23  42  66  94 136 168 219 274 318 394
#     4  11  22  42  63  98 128 168 220 261 330 387
#
# _framework density 24.048210000000001
#
# number of rings (size 3 to 8) (size 9 to 14) (size 15 to 20)
#    0.000    1.714    1.429    2.143    0.000    6.857 
#    5.143   11.429    0.000    0.000    0.000    0.000 
#    0.000    0.000    0.000    0.000    0.000    0.000 
#
# Total GULP energy -78262.316973 kJ/mol
# GULP energy per Si atom -5590.165498 kJ/mol
# Density = 2.399348 g / cm^3
# Si number density = 24.048210 Si / 1000 Ang^3
#
#
#
# Elastic Constant Matrix: (Units=GPa)
#
#
# Indices 1 2 3 4 5 6 
#
# 1 57.0588 20.1685 6.0019 -0.8973 4.3951 -13.5461
# 2 20.1685 109.6701 44.1593 14.3447 10.3759 -14.0216
# 3 6.0019 44.1593 107.6499 15.2529 -16.1780 -16.0813
# 4 -0.8973 14.3447 15.2529 45.3933 -6.7148 15.0588
# 5 4.3951 10.3759 -16.1780 -6.7148 33.0776 -6.1805
# 6 -13.5461 -14.0216 -16.0813 15.0588 -6.1805 30.8226
#
#
#
# Elastic Compliance Matrix: (Units=1/GPa)
#
#
# Indices 1 2 3 4 5 6 
#
# 1 0.020723 -0.003061 0.002086 -0.002621 0.000602 0.010205
# 2 -0.003061 0.013390 -0.005290 -0.004444 -0.006759 0.002802
# 3 0.002086 -0.005290 0.015309 -0.005714 0.009813 0.011257
# 4 -0.002621 -0.004444 -0.005714 0.032780 0.001516 -0.021866
# 5 0.000602 -0.006759 0.009813 0.001516 0.039139 0.009417
# 6 0.010205 0.002802 0.011257 -0.021866 0.009417 0.056648
#
#
# Mechanical properties :
#
#
# Convention : Reuss Voigt Hill
#
# Bulk Modulus (GPa) = 27.10445 46.11535 36.60990
# Shear Modulus (GPa) = 24.65299 35.46198 30.05748
#
# Velocity S-wave (km/s) = 3.20527 3.84424 3.53921
# Velocity P-wave (km/s) = 4.99937 6.23876 5.65313
#
# Compressibility (1/GPa) = 0.03689430
#
# Stress axis : x y z
#
# Youngs Moduli (GPa) = 48.25499 74.68266 65.32132
#
# Poissons Ratio (x) = 0.22857 -0.13627
# Poissons Ratio (y) = 0.14768 0.34552
# Poissons Ratio (z) = -0.10067 0.39504
#
# Static dielectric constant tensor:
#      x y z
#    x 1.867080 -0.110670 -0.028200 
#    y -0.110670 1.725430 -0.033480 
#    z -0.028200 -0.033480 1.923040 
# 
# From -- ./inp_files/60393.got.cif
#   From: 2010.05.17/outbox.cif.g08.bks.cpg/sg2_31_cif.got.tgz:60393.got - 2010.06.03 11:33:40.
