data_PCOD9017319
_publ_section_title
;
Structure prediction by ZEFSAII (Michael W. Deem and Ramdas Pophale) SiO2 
 PCOD9017319
Probable space group: P -1
;
_chemical_formula_sum "Si O2"
_cell_formula_units_Z 14
_cell_length_a 8.889006
_cell_length_b 8.915190
_cell_length_c 9.468260
_cell_angle_alpha 90.313764
_cell_angle_beta 84.181357
_cell_angle_gamma 121.129758
_cell_volume 638.003551
_symmetry_space_group_name_H-M "P -1"
_symmetry_group_IT_number 2
_symmetry_cell_setting 'triclinic'
loop_
_space_group_symop_operation_xyz
x,y,z
-x,-y,-z
loop_
_atom_site_type_symbol
_atom_site_label
_atom_site_fract_x
_atom_site_fract_y
_atom_site_fract_z
Si Si1 0.906837 0.447654 0.157261
Si Si2 0.457403 0.230216 0.664391
Si Si3 0.859182 0.517186 0.607058
Si Si4 0.656724 0.061767 0.095524
Si Si5 0.193157 0.158873 0.436277
Si Si6 0.800946 0.727532 0.141970
Si Si7 0.152747 0.071280 0.127327
O O1 0.738824 0.255903 0.147801
O O2 0.856165 0.593685 0.191875
O O3 0.045458 0.445905 0.250989
O O4 0.000000 0.500000 0.000000
O O5 0.666042 0.343287 0.621557
O O6 0.343104 0.185706 0.532580
O O7 0.387178 0.328664 0.772951
O O8 0.405899 0.061606 0.762838
O O9 0.828122 0.672332 0.565692
O O10 0.000000 0.500000 0.500000
O O11 0.500000 0.000000 0.000000
O O12 0.790747 0.035172 0.983049
O O13 0.238592 0.127516 0.272789
O O14 0.000000 0.000000 0.500000
O O15 0.806761 0.761414 0.972347
O O16 0.947617 0.926056 0.178355
#
# Coordination Sequence:
#
# PCOD9017319 Si02
#       7
#     2   2   2   2   2   2   2
#     4  12  23  43  73 104 140 181 227 284 354 397
#     4  11  25  47  70  99 141 183 235 282 340 424
#     4  12  29  47  68 102 141 183 229 293 349 408
#     4  11  25  44  70 106 139 176 231 291 340 407
#     4  12  24  44  74 101 136 188 231 277 349 419
#     4  10  21  42  73  98 137 181 230 281 337 411
#     4  10  22  41  71 101 136 180 229 277 341 410
#
# _framework density 21.943449999999999
#
# number of rings (size 3 to 8) (size 9 to 14) (size 15 to 20)
#    0.000    0.857    2.857    3.857    2.000    2.286 
#    0.000    5.714    0.000    0.000    0.000    0.000 
#    0.000    0.000    0.000    0.000    0.000    0.000 
#
# Total GULP energy -78234.145307 kJ/mol
# GULP energy per Si atom -5588.153236 kJ/mol
# Density = 2.189351 g / cm^3
# Si number density = 21.943450 Si / 1000 Ang^3
#
#
#
# Elastic Constant Matrix: (Units=GPa)
#
#
# Indices 1 2 3 4 5 6 
#
# 1 113.6808 44.9908 51.3048 -3.4847 14.7520 25.8108
# 2 44.9908 100.8283 53.6392 -12.8855 15.6957 12.8648
# 3 51.3048 53.6392 166.3880 6.1497 34.7468 19.0799
# 4 -3.4847 -12.8855 6.1497 26.7609 4.1645 4.0898
# 5 14.7520 15.6957 34.7468 4.1645 56.0348 0.5719
# 6 25.8108 12.8648 19.0799 4.0898 0.5719 35.9228
#
#
#
# Elastic Compliance Matrix: (Units=1/GPa)
#
#
# Indices 1 2 3 4 5 6 
#
# 1 0.012830 -0.003403 -0.001813 0.001763 -0.001357 -0.007216
# 2 -0.003403 0.014804 -0.003448 0.008033 -0.001690 -0.001913
# 3 -0.001813 -0.003448 0.008774 -0.003067 -0.003752 -0.001714
# 4 0.001763 0.008033 -0.003067 0.043932 -0.004002 -0.007452
# 5 -0.001357 -0.001690 -0.003752 -0.004002 0.021263 0.003691
# 6 -0.007216 -0.001913 -0.001714 -0.007452 0.003691 0.035407
#
#
# Mechanical properties :
#
#
# Convention : Reuss Voigt Hill
#
# Bulk Modulus (GPa) = 52.40961 75.64073 64.02517
# Shear Modulus (GPa) = 31.11401 39.14119 35.12760
#
# Velocity S-wave (km/s) = 3.76961 4.22800 4.00537
# Velocity P-wave (km/s) = 6.54847 7.64070 7.11557
#
# Compressibility (1/GPa) = 0.01908047
#
# Stress axis : x y z
#
# Youngs Moduli (GPa) = 77.94083 67.54794 113.97231
#
# Poissons Ratio (x) = 0.22987 0.20666
# Poissons Ratio (y) = 0.26524 0.39294
# Poissons Ratio (z) = 0.14133 0.23289
#
# Static dielectric constant tensor:
#      x y z
#    x 1.758060 0.295900 -0.017430 
#    y 0.295900 0.764560 -0.019410 
#    z -0.017430 -0.019410 1.835530 
# 
# From -- ./inp_files/157855.got.cif
#   From: 2010.05.17/outbox.cif.g08.bks.cpg/sg2_79_cif.got.tgz:157855.got - 2010.06.03 11:33:40.
