data_PCOD9017837
_publ_section_title
;
Structure prediction by ZEFSAII (Michael W. Deem and Ramdas Pophale) SiO2 
 PCOD9017837
Probable space group: P -1
;
_chemical_formula_sum "Si O2"
_cell_formula_units_Z 16
_cell_length_a 11.562149
_cell_length_b 5.871561
_cell_length_c 28.452697
_cell_angle_alpha 81.839617
_cell_angle_beta 20.237091
_cell_angle_gamma 89.840328
_cell_volume 611.546742
_symmetry_space_group_name_H-M "P -1"
_symmetry_group_IT_number 2
_symmetry_cell_setting 'triclinic'
loop_
_space_group_symop_operation_xyz
x,y,z
-x,-y,-z
loop_
_atom_site_type_symbol
_atom_site_label
_atom_site_fract_x
_atom_site_fract_y
_atom_site_fract_z
Si Si1 0.065675 0.356142 0.024281
Si Si2 0.769892 0.346121 0.521500
Si Si3 0.069752 0.002798 0.581901
Si Si4 0.635790 0.506280 0.395525
Si Si5 0.192885 0.317823 0.219660
Si Si6 0.517267 0.789657 0.203511
Si Si7 0.295723 0.445812 0.773809
Si Si8 0.558341 0.244260 0.001828
O O1 0.416183 0.524228 0.914304
O O2 0.230843 0.180175 0.938537
O O3 0.000000 0.500000 0.000000
O O4 0.753525 0.333222 0.182578
O O5 0.440952 0.290392 0.611571
O O6 0.650540 0.465231 0.608166
O O7 0.152814 0.536122 0.349137
O O8 0.831097 0.089821 0.502580
O O9 0.378720 0.259993 0.472634
O O10 0.671640 0.012257 0.729260
O O11 0.042093 0.829176 0.642833
O O12 0.500000 0.500000 0.500000
O O13 0.022198 0.495154 0.254829
O O14 0.259638 0.142972 0.160352
O O15 0.704354 0.753186 0.180799
O O16 0.957800 0.342177 0.870181
O O17 0.500000 0.500000 0.000000
O O18 0.500000 0.000000 0.000000
#
# Coordination Sequence:
#
# PCOD9017837 Si02
#       8
#     2   2   2   2   2   2   2   2
#     4   9  19  41  65  88 124 164 220 272 330 402
#     4  11  22  40  65  93 136 170 220 284 344 421
#     4  11  23  37  64  99 128 171 221 281 345 407
#     4  11  22  37  61  95 130 168 224 284 342 409
#     4  11  21  40  66  97 127 179 226 279 349 407
#     4  10  21  43  66  97 133 170 230 284 341 415
#     4  10  23  42  69  97 131 184 224 282 353 410
#     4  11  27  49  69 101 143 186 233 291 349 421
#
# _framework density 26.163167999999999
#
# number of rings (size 3 to 8) (size 9 to 14) (size 15 to 20)
#    0.000    1.500    2.500    2.250    1.750    3.500 
#    2.250    5.625    0.000    0.000    0.000    0.000 
#    0.000    0.000    0.000    0.000    0.000    0.000 
#
# Total GULP energy -89277.237822 kJ/mol
# GULP energy per Si atom -5579.827364 kJ/mol
# Density = 2.610362 g / cm^3
# Si number density = 26.163168 Si / 1000 Ang^3
#
#
#
# Elastic Constant Matrix: (Units=GPa)
#
#
# Indices 1 2 3 4 5 6 
#
# 1 126.6412 48.3720 56.6364 25.4275 -12.7786 9.8612
# 2 48.3720 96.4969 58.5786 28.2293 5.7709 27.1260
# 3 56.6364 58.5786 144.0184 52.3058 22.3128 10.5273
# 4 25.4275 28.2293 52.3058 52.9538 8.3347 7.2977
# 5 -12.7786 5.7709 22.3128 8.3347 73.2325 22.1963
# 6 9.8612 27.1260 10.5273 7.2977 22.1963 41.4583
#
#
#
# Elastic Compliance Matrix: (Units=1/GPa)
#
#
# Indices 1 2 3 4 5 6 
#
# 1 0.011267 -0.003146 -0.003323 -0.000821 0.003830 -0.001684
# 2 -0.003146 0.018898 -0.005302 -0.002248 0.003373 -0.011681
# 3 -0.003323 -0.005302 0.014297 -0.009608 -0.004928 0.004958
# 4 -0.000821 -0.002248 -0.009608 0.030144 -0.000126 -0.001133
# 5 0.003830 0.003373 -0.004928 -0.000126 0.019258 -0.012155
# 6 -0.001684 -0.011681 0.004958 -0.001133 -0.012155 0.037612
#
#
# Mechanical properties :
#
#
# Convention : Reuss Voigt Hill
#
# Bulk Modulus (GPa) = 47.80063 77.14783 62.47423
# Shear Modulus (GPa) = 30.86610 47.10020 38.98315
#
# Velocity S-wave (km/s) = 3.43848 4.24754 3.86424
# Velocity P-wave (km/s) = 5.83730 7.32165 6.62120
#
# Compressibility (1/GPa) = 0.02092023
#
# Stress axis : x y z
#
# Youngs Moduli (GPa) = 88.75780 52.91593 69.94251
#
# Poissons Ratio (x) = 0.16647 0.23243
# Poissons Ratio (y) = 0.27922 0.37082
# Poissons Ratio (z) = 0.29496 0.28055
#
# Static dielectric constant tensor:
#      x y z
#    x 2.055410 -0.006020 0.054730 
#    y -0.006020 2.235370 0.062080 
#    z 0.054730 0.062080 2.106230 
# 
# From -- ./inp_files/622877.got.cif
#   From: 2010.05.17/outbox.cif.g08.bks.cpg/sg2_312_cif.got.tgz:622877.got - 2010.06.03 11:33:40.
