data_PCOD9017129
_publ_section_title
;
Structure prediction by ZEFSAII (Michael W. Deem and Ramdas Pophale) SiO2 
 PCOD9017129
Probable space group: P -1
;
_chemical_formula_sum "Si O2"
_cell_formula_units_Z 16
_cell_length_a 15.282826
_cell_length_b 17.960334
_cell_length_c 6.321392
_cell_angle_alpha 123.899366
_cell_angle_beta 63.744804
_cell_angle_gamma 153.001578
_cell_volume 646.899231
_symmetry_space_group_name_H-M "P -1"
_symmetry_group_IT_number 2
_symmetry_cell_setting 'triclinic'
loop_
_space_group_symop_operation_xyz
x,y,z
-x,-y,-z
loop_
_atom_site_type_symbol
_atom_site_label
_atom_site_fract_x
_atom_site_fract_y
_atom_site_fract_z
Si Si1 0.629387 0.997943 0.006804
Si Si2 0.150496 0.195824 0.720535
Si Si3 0.875769 0.065544 0.135632
Si Si4 0.601834 0.739102 0.198301
Si Si5 0.059701 0.633277 0.514491
Si Si6 0.643700 0.352822 0.383245
Si Si7 0.249815 0.442278 0.787396
Si Si8 0.879448 0.231423 0.731138
O O1 0.690634 0.074013 0.825325
O O2 0.410111 0.784905 0.888733
O O3 0.736068 0.995938 0.993726
O O4 0.741146 0.164790 0.283961
O O5 0.336097 0.291774 0.764778
O O6 0.177016 0.282441 0.629331
O O7 0.000000 0.000000 0.500000
O O8 0.061940 0.181693 0.989432
O O9 0.895771 0.161334 0.437100
O O10 0.774346 0.904779 0.118261
O O11 0.533372 0.767171 0.460790
O O12 0.413716 0.571863 0.994355
O O13 0.849254 0.516102 0.542841
O O14 0.000000 0.500000 0.500000
O O15 0.105001 0.668729 0.271244
O O16 0.658646 0.444803 0.343659
O O17 0.064358 0.360507 0.889730
#
# Coordination Sequence:
#
# PCOD9017129 Si02
#       8
#     2   2   2   2   2   2   2   2
#     4  11  20  43  71  95 134 183 220 267 337 405
#     4  12  26  43  62  92 135 182 229 284 340 383
#     4  11  22  42  65  92 127 179 234 272 326 399
#     4  12  24  41  63  97 131 173 231 285 328 385
#     4  10  25  44  69 108 138 165 220 278 335 412
#     4  11  24  44  71  97 134 181 226 274 338 404
#     4  11  24  41  62  92 131 175 225 283 332 390
#     4  10  21  42  71  90 130 181 218 266 341 399
#
# _framework density 24.733373
#
# number of rings (size 3 to 8) (size 9 to 14) (size 15 to 20)
#    0.000    1.000    3.750    3.000    3.500    1.500 
#    0.000    0.625    0.000    0.000    0.000    0.000 
#    0.000    0.000    0.000    0.000    0.000    0.000 
#
# Total GULP energy -89342.750442 kJ/mol
# GULP energy per Si atom -5583.921903 kJ/mol
# Density = 2.467708 g / cm^3
# Si number density = 24.733373 Si / 1000 Ang^3
#
#
#
# Elastic Constant Matrix: (Units=GPa)
#
#
# Indices 1 2 3 4 5 6 
#
# 1 101.1026 35.7907 38.1530 -8.2266 26.5637 -38.8887
# 2 35.7907 104.9870 33.4874 4.6082 8.7993 -36.7940
# 3 38.1530 33.4874 100.7340 21.5173 14.7756 -4.2676
# 4 -8.2266 4.6082 21.5173 40.6586 -2.2697 0.3350
# 5 26.5637 8.7993 14.7756 -2.2697 33.5682 -10.4698
# 6 -38.8887 -36.7940 -4.2676 0.3350 -10.4698 53.6489
#
#
#
# Elastic Compliance Matrix: (Units=1/GPa)
#
#
# Indices 1 2 3 4 5 6 
#
# 1 0.020369 0.000323 -0.007678 0.007577 -0.008351 0.012699
# 2 0.000323 0.014274 -0.004853 0.001006 0.001289 0.009883
# 3 -0.007678 -0.004853 0.016701 -0.009955 -0.003212 -0.008130
# 4 0.007577 0.001006 -0.009955 0.031347 0.001982 0.005582
# 5 -0.008351 0.001289 -0.003212 0.001982 0.038240 0.002026
# 6 0.012699 0.009883 -0.008130 0.005582 0.002026 0.034336
#
#
# Mechanical properties :
#
#
# Convention : Reuss Voigt Hill
#
# Bulk Modulus (GPa) = 37.13449 57.96509 47.54979
# Shear Modulus (GPa) = 26.50259 38.86798 32.68529
#
# Velocity S-wave (km/s) = 3.27698 3.96849 3.63920
# Velocity P-wave (km/s) = 5.41891 6.66974 6.07660
#
# Compressibility (1/GPa) = 0.02692914
#
# Stress axis : x y z
#
# Youngs Moduli (GPa) = 49.09362 70.05624 59.87507
#
# Poissons Ratio (x) = -0.02261 0.45971
# Poissons Ratio (y) = -0.01584 0.29056
# Poissons Ratio (z) = 0.37693 0.33997
#
# Static dielectric constant tensor:
#      x y z
#    x 1.974230 0.008630 -0.048180 
#    y 0.008630 1.981520 0.042290 
#    z -0.048180 0.042290 2.026020 
# 
# From -- ./inp_files/99876.got.cif
#   From: 2010.05.17/outbox.cif.g08.bks.cpg/sg2_50_cif.got.tgz:99876.got - 2010.06.03 11:33:40.
