data_PCOD9017052
_publ_section_title
;
Structure prediction by ZEFSAII (Michael W. Deem and Ramdas Pophale) SiO2 
 PCOD9017052
Probable space group: P -1
;
_chemical_formula_sum "Si O2"
_cell_formula_units_Z 14
_cell_length_a 7.846726
_cell_length_b 10.123462
_cell_length_c 14.970111
_cell_angle_alpha 40.985619
_cell_angle_beta 116.728486
_cell_angle_gamma 88.545576
_cell_volume 544.942951
_symmetry_space_group_name_H-M "P -1"
_symmetry_group_IT_number 2
_symmetry_cell_setting 'triclinic'
loop_
_space_group_symop_operation_xyz
x,y,z
-x,-y,-z
loop_
_atom_site_type_symbol
_atom_site_label
_atom_site_fract_x
_atom_site_fract_y
_atom_site_fract_z
Si Si1 0.289738 0.769772 0.264372
Si Si2 0.153885 0.953236 0.324914
Si Si3 0.951992 0.415557 0.439996
Si Si4 0.440522 0.390087 0.879326
Si Si5 0.319121 0.456932 0.275439
Si Si6 0.883604 0.452673 0.117905
Si Si7 0.541276 0.003176 0.230422
O O1 0.500000 0.500000 0.500000
O O2 0.113181 0.938096 0.218426
O O3 0.213052 0.687491 0.204909
O O4 0.414162 0.899494 0.204145
O O5 0.440820 0.806118 0.489485
O O6 0.116223 0.767772 0.460436
O O7 0.982857 0.236215 0.179115
O O8 0.213154 0.236478 0.544484
O O9 0.000000 0.500000 0.500000
O O10 0.726536 0.631142 0.217086
O O11 0.575208 0.479707 0.814422
O O12 0.243764 0.583773 0.810807
O O13 0.608212 0.125965 0.108853
O O14 0.109517 0.440185 0.208403
O O15 0.664477 0.748125 0.887317
#
# Coordination Sequence:
#
# PCOD9017052 Si02
#       7
#     2   2   2   2   2   2   2
#     4  10  22  40  66 101 134 176 236 283 343 419
#     4  10  23  41  68 103 138 182 240 281 351 425
#     4  11  23  41  71 101 139 188 226 295 350 406
#     4   9  24  44  68 103 138 177 241 279 351 420
#     4  10  21  42  70  98 137 187 229 291 351 405
#     4  10  24  44  67 104 138 186 230 288 355 411
#     4  10  24  43  66 105 138 184 228 295 349 414
#
# _framework density 25.690761999999999
#
# number of rings (size 3 to 8) (size 9 to 14) (size 15 to 20)
#    0.857    1.143    0.000    3.000    6.000    7.429 
#    2.571    0.000    0.000    0.000    0.000    0.000 
#    0.000    0.000    0.000    0.000    0.000    0.000 
#
# Total GULP energy -78352.315559 kJ/mol
# GULP energy per Si atom -5596.593968 kJ/mol
# Density = 2.563229 g / cm^3
# Si number density = 25.690762 Si / 1000 Ang^3
#
#
#
# Elastic Constant Matrix: (Units=GPa)
#
#
# Indices 1 2 3 4 5 6 
#
# 1 140.2285 61.7716 33.3037 -3.7728 2.5723 -12.7476
# 2 61.7716 160.3156 29.9271 -22.1517 7.1227 -18.8276
# 3 33.3037 29.9271 77.6571 -9.4852 6.6040 0.0393
# 4 -3.7728 -22.1517 -9.4852 29.7954 -3.2563 8.0969
# 5 2.5723 7.1227 6.6040 -3.2563 40.0462 1.1309
# 6 -12.7476 -18.8276 0.0393 8.0969 1.1309 42.1438
#
#
#
# Elastic Compliance Matrix: (Units=1/GPa)
#
#
# Indices 1 2 3 4 5 6 
#
# 1 0.009377 -0.003180 -0.003142 -0.002678 0.000209 0.001928
# 2 -0.003180 0.008662 -0.001299 0.005005 -0.000771 0.001968
# 3 -0.003142 -0.001299 0.015355 0.003951 -0.001714 -0.002258
# 4 -0.002678 0.005005 0.003951 0.040153 0.002075 -0.006348
# 5 0.000209 -0.000771 -0.001714 0.002075 0.025585 -0.001365
# 6 0.001928 0.001968 -0.002258 -0.006348 -0.001365 0.026449
#
#
# Mechanical properties :
#
#
# Convention : Reuss Voigt Hill
#
# Bulk Modulus (GPa) = 55.08593 69.80067 62.44330
# Shear Modulus (GPa) = 34.04284 39.27700 36.65992
#
# Velocity S-wave (km/s) = 3.64414 3.91428 3.78162
# Velocity P-wave (km/s) = 6.26058 6.90343 6.58985
#
# Compressibility (1/GPa) = 0.01815345
#
# Stress axis : x y z
#
# Youngs Moduli (GPa) = 106.63889 115.44351 65.12695
#
# Poissons Ratio (x) = 0.36706 0.20463
# Poissons Ratio (y) = 0.33907 0.08459
# Poissons Ratio (z) = 0.33507 0.14993
#
# Static dielectric constant tensor:
#      x y z
#    x 2.076390 -0.036520 0.000120 
#    y -0.036520 1.976930 0.016750 
#    z 0.000120 0.016750 2.051160 
# 
# From -- ./inp_files/590050.got.cif
#   From: 2010.05.17/outbox.cif.g08.bks.cpg/sg2_296_cif.got.tgz:590050.got - 2010.06.03 11:33:40.
