data_PCOD9017296
_publ_section_title
;
Structure prediction by ZEFSAII (Michael W. Deem and Ramdas Pophale) SiO2 
 PCOD9017296
Probable space group: P -1
;
_chemical_formula_sum "Si O2"
_cell_formula_units_Z 16
_cell_length_a 15.288983
_cell_length_b 9.213085
_cell_length_c 20.934070
_cell_angle_alpha 133.468936
_cell_angle_beta 161.154903
_cell_angle_gamma 47.057675
_cell_volume 685.505459
_symmetry_space_group_name_H-M "P -1"
_symmetry_group_IT_number 2
_symmetry_cell_setting 'triclinic'
loop_
_space_group_symop_operation_xyz
x,y,z
-x,-y,-z
loop_
_atom_site_type_symbol
_atom_site_label
_atom_site_fract_x
_atom_site_fract_y
_atom_site_fract_z
Si Si1 0.404667 0.233132 0.019408
Si Si2 0.669784 0.676101 0.149807
Si Si3 0.351381 0.929758 0.103555
Si Si4 0.424913 0.145190 0.632660
Si Si5 0.790169 0.033777 0.739888
Si Si6 0.295879 0.407802 0.205134
Si Si7 0.845117 0.237202 0.708133
Si Si8 0.250250 0.555584 0.577885
O O1 0.636376 0.326224 0.248288
O O2 0.331310 0.325524 0.927410
O O3 0.127829 0.259392 0.876783
O O4 0.500000 0.000000 0.000000
O O5 0.501621 0.876907 0.124900
O O6 0.966455 0.648541 0.378952
O O7 0.500000 0.500000 0.000000
O O8 0.519388 0.818983 0.244256
O O9 0.322957 0.171221 0.168970
O O10 0.046338 0.865258 0.876341
O O11 0.702403 0.129331 0.776764
O O12 0.233854 0.329024 0.523502
O O13 0.306829 0.932412 0.482076
O O14 0.900469 0.144390 0.788957
O O15 0.500000 0.000000 0.500000
O O16 0.324986 0.546944 0.329249
O O17 0.521826 0.446637 0.320793
O O18 0.000000 0.500000 0.000000
#
# Coordination Sequence:
#
# PCOD9017296 Si02
#       8
#     2   2   2   2   2   2   2   2
#     4  12  28  50  81 110 156 208 259 318 390 462
#     4  12  32  51  77 115 158 211 264 325 380 467
#     4  12  26  47  72 112 154 195 269 313 385 469
#     4  11  26  44  79 111 151 203 249 322 389 462
#     4  10  21  42  73 105 149 192 238 315 386 441
#     4  12  23  45  78 110 154 198 247 330 388 454
#     4  11  24  46  72 114 149 194 255 312 397 448
#     4  12  27  51  82 110 158 206 265 314 397 458
#
# _framework density 23.340440999999998
#
# number of rings (size 3 to 8) (size 9 to 14) (size 15 to 20)
#    0.000    0.500    3.750    2.625    8.750    2.500 
#    2.250    0.000    0.000    0.000    0.000    0.000 
#    0.000    0.000    0.000    0.000    0.000    0.000 
#
# Total GULP energy -89424.667235 kJ/mol
# GULP energy per Si atom -5589.041702 kJ/mol
# Density = 2.328732 g / cm^3
# Si number density = 23.340441 Si / 1000 Ang^3
#
#
#
# Elastic Constant Matrix: (Units=GPa)
#
#
# Indices 1 2 3 4 5 6 
#
# 1 118.7909 23.1786 53.6562 12.2161 -7.1296 2.4900
# 2 23.1786 100.8160 48.4735 3.8360 -1.3967 -14.4581
# 3 53.6562 48.4735 139.4477 -3.1700 -13.7156 -5.4559
# 4 12.2161 3.8360 -3.1700 22.9625 -4.4345 -4.4897
# 5 -7.1296 -1.3967 -13.7156 -4.4345 33.4914 0.3680
# 6 2.4900 -14.4581 -5.4559 -4.4897 0.3680 41.1317
#
#
#
# Elastic Compliance Matrix: (Units=1/GPa)
#
#
# Indices 1 2 3 4 5 6 
#
# 1 0.011271 -0.000512 -0.004439 -0.007023 -0.000346 -0.002215
# 2 -0.000512 0.012678 -0.004272 -0.002025 -0.001639 0.003714
# 3 -0.004439 -0.004272 0.010921 0.005522 0.004072 0.000782
# 4 -0.007023 -0.002025 0.005522 0.050971 0.007366 0.005944
# 5 -0.000346 -0.001639 0.004072 0.007366 0.032354 0.000499
# 6 -0.002215 0.003714 0.000782 0.005944 0.000499 0.026500
#
#
# Mechanical properties :
#
#
# Convention : Reuss Voigt Hill
#
# Bulk Modulus (GPa) = 60.88809 67.74123 64.31466
# Shear Modulus (GPa) = 29.65342 35.10022 32.37682
#
# Velocity S-wave (km/s) = 3.56824 3.88214 3.72849
# Velocity P-wave (km/s) = 6.56658 7.01290 6.79341
#
# Compressibility (1/GPa) = 0.01642357
#
# Stress axis : x y z
#
# Youngs Moduli (GPa) = 88.72241 78.87838 91.56875
#
# Poissons Ratio (x) = 0.04039 0.40649
# Poissons Ratio (y) = 0.04544 0.39116
# Poissons Ratio (z) = 0.39385 0.33695
#
# Static dielectric constant tensor:
#      x y z
#    x 1.812380 -0.118510 -0.008330 
#    y -0.118510 1.806240 0.087930 
#    z -0.008330 0.087930 1.964780 
# 
# From -- ./inp_files/597443.got.cif
#   From: 2010.05.17/outbox.cif.g08.bks.cpg/sg2_299_cif.got.tgz:597443.got - 2010.06.03 11:33:40.
