data_PCOD9017668
_publ_section_title
;
Structure prediction by ZEFSAII (Michael W. Deem and Ramdas Pophale) SiO2 
 PCOD9017668
Probable space group: P -1
;
_chemical_formula_sum "Si O2"
_cell_formula_units_Z 16
_cell_length_a 15.552980
_cell_length_b 8.762282
_cell_length_c 8.985837
_cell_angle_alpha 128.462540
_cell_angle_beta 108.084297
_cell_angle_gamma 105.455014
_cell_volume 717.023842
_symmetry_space_group_name_H-M "P -1"
_symmetry_group_IT_number 2
_symmetry_cell_setting 'triclinic'
loop_
_space_group_symop_operation_xyz
x,y,z
-x,-y,-z
loop_
_atom_site_type_symbol
_atom_site_label
_atom_site_fract_x
_atom_site_fract_y
_atom_site_fract_z
Si Si1 0.392485 0.366121 0.564066
Si Si2 0.577881 0.931464 0.062217
Si Si3 0.185891 0.264557 0.534295
Si Si4 0.791154 0.447318 0.022935
Si Si5 0.036101 0.737808 0.256889
Si Si6 0.599398 0.012992 0.474058
Si Si7 0.250530 0.955331 0.011566
Si Si8 0.037444 0.759002 0.617034
O O1 0.507944 0.640253 0.814046
O O2 0.284654 0.367973 0.530927
O O3 0.356769 0.208283 0.298550
O O4 0.394049 0.195113 0.582007
O O5 0.696720 0.083856 0.126757
O O6 0.500000 0.000000 0.000000
O O7 0.588503 0.981422 0.273395
O O8 0.073662 0.248479 0.433487
O O9 0.132285 0.983800 0.372002
O O10 0.249695 0.438787 0.819037
O O11 0.712952 0.281692 0.745108
O O12 0.795953 0.262082 0.021963
O O13 0.913813 0.684252 0.174383
O O14 0.070443 0.770317 0.468387
O O15 0.000000 0.500000 0.000000
O O16 0.500000 0.000000 0.500000
O O17 0.148138 0.955803 0.896797
O O18 0.000000 0.500000 0.500000
#
# Coordination Sequence:
#
# PCOD9017668 Si02
#       8
#     2   2   2   2   2   2   2   2
#     4  11  25  47  67  96 136 182 221 277 337 401
#     4  12  26  45  69 102 135 173 224 286 337 394
#     4  11  23  43  70  97 138 177 226 272 331 399
#     4  10  21  43  65  96 134 180 214 276 333 395
#     4  11  23  42  65  96 136 176 223 271 329 401
#     4  11  24  45  73  96 128 180 230 273 336 402
#     4  11  23  42  68  99 139 172 221 276 336 397
#     4  11  23  42  69  98 137 178 219 277 336 390
#
# _framework density 22.314461999999999
#
# number of rings (size 3 to 8) (size 9 to 14) (size 15 to 20)
#    0.000    1.000    2.500    6.750    3.500    0.500 
#    6.750    0.000    0.000    0.000    0.000    0.000 
#    0.000    0.000    0.000    0.000    0.000    0.000 
#
# Total GULP energy -89379.781570 kJ/mol
# GULP energy per Si atom -5586.236348 kJ/mol
# Density = 2.226367 g / cm^3
# Si number density = 22.314462 Si / 1000 Ang^3
#
#
#
# Elastic Constant Matrix: (Units=GPa)
#
#
# Indices 1 2 3 4 5 6 
#
# 1 83.4230 18.5157 -4.5233 -22.9171 -4.7771 5.7568
# 2 18.5157 54.6711 41.4844 -11.2439 1.9719 -0.8480
# 3 -4.5233 41.4844 134.5989 -21.3362 -0.2943 -3.6264
# 4 -22.9171 -11.2439 -21.3362 41.8633 0.8476 -3.1491
# 5 -4.7771 1.9719 -0.2943 0.8476 37.1655 1.6730
# 6 5.7568 -0.8480 -3.6264 -3.1491 1.6730 31.4136
#
#
#
# Elastic Compliance Matrix: (Units=1/GPa)
#
#
# Indices 1 2 3 4 5 6 
#
# 1 0.016512 -0.006945 0.004084 0.009059 0.002405 -0.001962
# 2 -0.006945 0.027198 -0.008722 -0.000814 -0.002433 0.001048
# 3 0.004084 -0.008722 0.011172 0.005630 0.000911 0.000822
# 4 0.009059 -0.000814 0.005630 0.031647 0.000435 0.002117
# 5 0.002405 -0.002433 0.000911 0.000435 0.027424 -0.001818
# 6 -0.001962 0.001048 0.000822 0.002117 -0.001818 0.032625
#
#
# Mechanical properties :
#
#
# Convention : Reuss Voigt Hill
#
# Bulk Modulus (GPa) = 31.53129 42.62739 37.07934
# Shear Modulus (GPa) = 27.72907 36.56956 32.14931
#
# Velocity S-wave (km/s) = 3.52895 4.05264 3.79982
# Velocity P-wave (km/s) = 5.54669 6.40648 5.99202
#
# Compressibility (1/GPa) = 0.03171453
#
# Stress axis : x y z
#
# Youngs Moduli (GPa) = 60.56383 36.76704 89.51315
#
# Poissons Ratio (x) = 0.25534 -0.36554
# Poissons Ratio (y) = 0.42061 0.78075
# Poissons Ratio (z) = -0.24732 0.32069
#
# Static dielectric constant tensor:
#      x y z
#    x 1.894940 -0.006360 -0.000410 
#    y -0.006360 1.810770 0.010670 
#    z -0.000410 0.010670 1.857020 
# 
# From -- ./inp_files/299784.got.cif
#   From: 2010.05.17/outbox.cif.g08.bks.cpg/sg2_150_cif.got.tgz:299784.got - 2010.06.03 11:33:40.
