data_PCOD9017436
_publ_section_title
;
Structure prediction by ZEFSAII (Michael W. Deem and Ramdas Pophale) SiO2 
 PCOD9017436
Probable space group: P -1
;
_chemical_formula_sum "Si O2"
_cell_formula_units_Z 16
_cell_length_a 5.229199
_cell_length_b 24.188752
_cell_length_c 15.925219
_cell_angle_alpha 162.097615
_cell_angle_beta 92.418231
_cell_angle_gamma 89.029478
_cell_volume 616.881351
_symmetry_space_group_name_H-M "P -1"
_symmetry_group_IT_number 2
_symmetry_cell_setting 'triclinic'
loop_
_space_group_symop_operation_xyz
x,y,z
-x,-y,-z
loop_
_atom_site_type_symbol
_atom_site_label
_atom_site_fract_x
_atom_site_fract_y
_atom_site_fract_z
Si Si1 0.675248 0.242202 0.639515
Si Si2 0.290878 0.633868 0.748423
Si Si3 0.996000 0.046093 0.750221
Si Si4 0.022004 0.694408 0.678278
Si Si5 0.333202 0.464652 0.252404
Si Si6 0.319113 0.167521 0.247975
Si Si7 0.608381 0.833811 0.312790
Si Si8 0.837039 0.777787 0.487411
O O1 0.596801 0.269906 0.775552
O O2 0.435960 0.296350 0.660492
O O3 0.927779 0.307621 0.682455
O O4 0.722716 0.025479 0.337176
O O5 0.275060 0.701954 0.750672
O O6 0.539589 0.633173 0.808375
O O7 0.185478 0.423660 0.439710
O O8 0.093189 0.756041 0.971200
O O9 0.847625 0.922332 0.498575
O O10 0.870908 0.976736 0.735733
O O11 0.079662 0.559364 0.408669
O O12 0.889743 0.851401 0.857029
O O13 0.516813 0.641785 0.487528
O O14 0.302714 0.315190 0.964599
O O15 0.186165 0.199470 0.381669
O O16 0.500000 0.000000 0.000000
O O17 0.500000 0.000000 0.500000
#
# Coordination Sequence:
#
# PCOD9017436 Si02
#       8
#     2   2   2   2   2   2   2   2
#     4   9  22  42  66 106 138 196 238 293 365 434
#     4  10  21  43  63 106 143 184 232 296 379 448
#     4   9  21  37  69 100 139 191 233 284 365 433
#     4  10  25  42  68 103 140 189 235 309 369 444
#     4  11  25  42  70 104 144 183 243 300 374 431
#     4  11  27  46  69 103 137 194 251 311 362 430
#     4  11  22  42  68 110 148 189 238 301 367 442
#     4   9  22  43  69 101 143 186 249 296 360 437
#
# _framework density 25.936917000000001
#
# number of rings (size 3 to 8) (size 9 to 14) (size 15 to 20)
#    0.750    1.250    1.250    0.375    7.000    3.000 
#    0.000    3.125    0.000    0.000    0.000    0.000 
#    0.000    0.000    0.000    0.000    0.000    0.000 
#
# Total GULP energy -89190.491935 kJ/mol
# GULP energy per Si atom -5574.405746 kJ/mol
# Density = 2.587788 g / cm^3
# Si number density = 25.936917 Si / 1000 Ang^3
#
#
#
# Elastic Constant Matrix: (Units=GPa)
#
#
# Indices 1 2 3 4 5 6 
#
# 1 123.0708 54.5637 18.8670 -12.4440 -24.9364 -10.2762
# 2 54.5637 177.8631 50.8321 -20.9513 -4.5308 -16.4475
# 3 18.8670 50.8321 90.5281 -13.5304 -22.4489 4.4779
# 4 -12.4440 -20.9513 -13.5304 39.4053 5.8258 -2.3565
# 5 -24.9364 -4.5308 -22.4489 5.8258 29.3762 1.6470
# 6 -10.2762 -16.4475 4.4779 -2.3565 1.6470 38.4958
#
#
#
# Elastic Compliance Matrix: (Units=1/GPa)
#
#
# Indices 1 2 3 4 5 6 
#
# 1 0.011914 -0.003936 0.002629 0.000950 0.011284 0.000768
# 2 -0.003936 0.008999 -0.005776 0.002852 -0.007154 0.003947
# 3 0.002629 -0.005776 0.017885 0.001424 0.014973 -0.004400
# 4 0.000950 0.002852 0.001424 0.028387 -0.003474 0.003193
# 5 0.011284 -0.007154 0.014973 -0.003474 0.054891 -0.004347
# 6 0.000768 0.003947 -0.004400 0.003193 -0.004347 0.028761
#
#
# Mechanical properties :
#
#
# Convention : Reuss Voigt Hill
#
# Bulk Modulus (GPa) = 40.59584 71.10973 55.85278
# Shear Modulus (GPa) = 28.86621 39.26873 34.06747
#
# Velocity S-wave (km/s) = 3.33969 3.89525 3.62812
# Velocity P-wave (km/s) = 5.52785 6.90699 6.25555
#
# Compressibility (1/GPa) = 0.02463307
#
# Stress axis : x y z
#
# Youngs Moduli (GPa) = 83.93582 111.12262 55.91377
#
# Poissons Ratio (x) = 0.43736 -0.14701
# Poissons Ratio (y) = 0.33036 0.32294
# Poissons Ratio (z) = -0.22068 0.64180
#
# Static dielectric constant tensor:
#      x y z
#    x 2.090440 0.055980 0.084480 
#    y 0.055980 2.059820 -0.006510 
#    z 0.084480 -0.006510 2.227340 
# 
# From -- ./inp_files/486026.got.cif
#   From: 2010.05.17/outbox.cif.g08.bks.cpg/sg2_244_cif.got.tgz:486026.got - 2010.06.03 11:33:40.
