data_PCOD9017885
_publ_section_title
;
Structure prediction by ZEFSAII (Michael W. Deem and Ramdas Pophale) SiO2 
 PCOD9017885
Probable space group: P -1
;
_chemical_formula_sum "Si O2"
_cell_formula_units_Z 8
_cell_length_a 12.017217
_cell_length_b 5.954641
_cell_length_c 14.605416
_cell_angle_alpha 61.352294
_cell_angle_beta 21.851859
_cell_angle_gamma 62.456291
_cell_volume 340.900304
_symmetry_space_group_name_H-M "P -1"
_symmetry_group_IT_number 2
_symmetry_cell_setting 'triclinic'
loop_
_space_group_symop_operation_xyz
x,y,z
-x,-y,-z
loop_
_atom_site_type_symbol
_atom_site_label
_atom_site_fract_x
_atom_site_fract_y
_atom_site_fract_z
Si Si1 0.201044 0.869413 0.789162
Si Si2 0.330837 0.303695 0.878723
Si Si3 0.115819 0.066401 0.500296
Si Si4 0.592481 0.402385 0.850324
O O1 0.299258 0.584098 0.803329
O O2 0.500000 0.000000 0.500000
O O3 0.964908 0.841760 0.892430
O O4 0.000000 0.000000 0.000000
O O5 0.371989 0.341753 0.948324
O O6 0.622429 0.149793 0.642420
O O7 0.256925 0.342103 0.351689
O O8 0.795265 0.148357 0.771043
O O9 0.000000 0.000000 0.500000
O O10 0.500000 0.500000 0.000000
#
# Coordination Sequence:
#
# PCOD9017885 Si02
#       4
#     2   2   2   2
#     4  11  26  53  74 107 144 192 256 308 364 425
#     4  10  23  46  74 107 142 196 239 304 366 436
#     4   9  20  42  62 102 141 183 235 284 362 434
#     4  10  21  43  67 108 145 182 234 294 367 443
#
# _framework density 23.467269999999999
#
# number of rings (size 3 to 8) (size 9 to 14) (size 15 to 20)
#    0.000    2.000    0.000    1.500    0.000    8.000 
#   58.500    0.000    0.000    0.000    0.000    0.000 
#    0.000    0.000    0.000    0.000    0.000    0.000 
#
# Total GULP energy -44582.827346 kJ/mol
# GULP energy per Si atom -5572.853418 kJ/mol
# Density = 2.341386 g / cm^3
# Si number density = 23.467270 Si / 1000 Ang^3
#
#
#
# Elastic Constant Matrix: (Units=GPa)
#
#
# Indices 1 2 3 4 5 6 
#
# 1 180.0952 60.8996 89.0378 7.3967 -33.3132 25.0539
# 2 60.8996 168.4115 71.9642 38.8171 -22.1831 3.1358
# 3 89.0378 71.9642 147.2048 15.2821 -26.3105 17.7833
# 4 7.3967 38.8171 15.2821 74.3600 12.2186 -6.9627
# 5 -33.3132 -22.1831 -26.3105 12.2186 40.7561 5.9384
# 6 25.0539 3.1358 17.7833 -6.9627 5.9384 42.6011
#
#
#
# Elastic Compliance Matrix: (Units=1/GPa)
#
#
# Indices 1 2 3 4 5 6 
#
# 1 0.009438 -0.000686 -0.003495 -0.001369 0.006244 -0.005135
# 2 -0.000686 0.008989 -0.002689 -0.004792 0.004104 -0.000491
# 3 -0.003495 -0.002689 0.011533 -0.001611 0.004102 -0.003396
# 4 -0.001369 -0.004792 -0.001611 0.018896 -0.011380 0.006505
# 5 0.006244 0.004104 0.004102 -0.011380 0.039842 -0.013100
# 6 -0.005135 -0.000491 -0.003396 0.006505 -0.013100 0.030837
#
#
# Mechanical properties :
#
#
# Convention : Reuss Voigt Hill
#
# Bulk Modulus (GPa) = 61.65365 104.39054 83.02209
# Shear Modulus (GPa) = 36.05391 49.79744 42.92567
#
# Velocity S-wave (km/s) = 3.92388 4.61151 4.28152
# Velocity P-wave (km/s) = 6.84531 8.54018 7.73928
#
# Compressibility (1/GPa) = 0.01621964
#
# Stress axis : x y z
#
# Youngs Moduli (GPa) = 105.95565 111.24320 86.71105
#
# Poissons Ratio (x) = 0.07629 0.30304
# Poissons Ratio (y) = 0.07267 0.23320
# Poissons Ratio (z) = 0.37029 0.29918
#
# Static dielectric constant tensor:
#      x y z
#    x 1.835480 -0.007270 -0.000100 
#    y -0.007270 1.638870 0.128450 
#    z -0.000100 0.128450 2.028280 
# 
# From -- ./inp_files/1357.got.cif
#   From: 2010.05.17/outbox.cif.g08.bks.cpg/sg2_1_cif.got.tgz:1357.got - 2010.06.03 11:33:40.
