data_PCOD9017896
_publ_section_title
;
Structure prediction by ZEFSAII (Michael W. Deem and Ramdas Pophale) SiO2 
 PCOD9017896
Probable space group: P -1
;
_chemical_formula_sum "Si O2"
_cell_formula_units_Z 15
_cell_length_a 8.254479
_cell_length_b 14.616371
_cell_length_c 8.539731
_cell_angle_alpha 67.584143
_cell_angle_beta 55.172679
_cell_angle_gamma 52.823326
_cell_volume 672.853814
_symmetry_space_group_name_H-M "P -1"
_symmetry_group_IT_number 2
_symmetry_cell_setting 'triclinic'
loop_
_space_group_symop_operation_xyz
x,y,z
-x,-y,-z
loop_
_atom_site_type_symbol
_atom_site_label
_atom_site_fract_x
_atom_site_fract_y
_atom_site_fract_z
Si Si1 0.650294 0.003164 0.772471
Si Si2 0.049401 0.750361 0.704839
Si Si3 0.646449 0.569921 0.765859
Si Si4 0.453321 0.740253 0.325540
Si Si5 0.694978 0.346838 0.830487
Si Si6 0.832509 0.734178 0.507480
Si Si7 0.980669 0.591554 0.079294
Si Si8 0.500000 0.000000 0.500000
O O1 0.639896 0.124208 0.708699
O O2 0.899321 0.887864 0.722757
O O3 0.552609 0.995931 0.663459
O O4 0.500000 0.000000 0.000000
O O5 0.945225 0.722570 0.625430
O O6 0.308600 0.715139 0.547532
O O7 0.025866 0.682259 0.905371
O O8 0.616195 0.478666 0.739679
O O9 0.754690 0.641341 0.592192
O O10 0.832290 0.482798 0.846561
O O11 0.420760 0.648281 0.942975
O O12 0.394245 0.708255 0.210396
O O13 0.724863 0.663478 0.241460
O O14 0.969597 0.279420 0.711195
O O15 0.617600 0.859883 0.525733
O O16 0.000000 0.500000 0.000000
#
# Coordination Sequence:
#
# PCOD9017896 Si02
#       8
#     2   2   2   2   2   2   2   1
#     4  11  23  46  76 100 139 189 231 296 358 416
#     4  10  22  41  66  99 134 178 234 286 348 418
#     4  11  23  41  65  94 139 176 229 289 339 411
#     4  11  23  42  69  97 137 184 229 291 352 414
#     4  10  23  40  64  95 128 179 228 271 354 412
#     4  10  21  43  67  89 139 181 216 292 343 403
#     4  12  22  39  65 100 133 181 237 282 346 425
#     4  10  26  44  70 110 134 176 250 278 348 436
#
# _framework density 22.293104
#
# number of rings (size 3 to 8) (size 9 to 14) (size 15 to 20)
#    0.000    1.333    4.000    0.800    3.733    1.600 
#    4.800    0.667    2.933    0.000    0.000    0.000 
#    0.000    0.000    0.000    0.000    0.000    0.000 
#
# Total GULP energy -83701.802926 kJ/mol
# GULP energy per Si atom -5580.120195 kJ/mol
# Density = 2.224236 g / cm^3
# Si number density = 22.293104 Si / 1000 Ang^3
#
#
#
# Elastic Constant Matrix: (Units=GPa)
#
#
# Indices 1 2 3 4 5 6 
#
# 1 73.4376 39.6180 52.1717 -1.2745 -0.2714 7.7562
# 2 39.6180 126.3599 51.1129 -3.0431 5.3540 16.2752
# 3 52.1717 51.1129 122.8145 -3.8023 -16.3612 -8.0137
# 4 -1.2745 -3.0431 -3.8023 32.9794 -0.7031 6.8821
# 5 -0.2714 5.3540 -16.3612 -0.7031 35.5745 2.8793
# 6 7.7562 16.2752 -8.0137 6.8821 2.8793 34.5696
#
#
#
# Elastic Compliance Matrix: (Units=1/GPa)
#
#
# Indices 1 2 3 4 5 6 
#
# 1 0.021988 -0.002266 -0.009188 0.000738 -0.003227 -0.005874
# 2 -0.002266 0.011424 -0.004575 0.001615 -0.003325 -0.005975
# 3 -0.009188 -0.004575 0.015355 -0.000370 0.007086 0.007258
# 4 0.000738 0.001615 -0.000370 0.032031 0.000829 -0.007458
# 5 -0.003227 -0.003325 0.007086 0.000829 0.031770 0.001121
# 6 -0.005874 -0.005975 0.007258 -0.007458 0.001121 0.036132
#
#
# Mechanical properties :
#
#
# Convention : Reuss Voigt Hill
#
# Bulk Modulus (GPa) = 59.84340 67.60192 63.72266
# Shear Modulus (GPa) = 26.83436 32.60532 29.71984
#
# Velocity S-wave (km/s) = 3.47321 3.82851 3.65518
# Velocity P-wave (km/s) = 6.55640 7.06635 6.81615
#
# Compressibility (1/GPa) = 0.01671028
#
# Stress axis : x y z
#
# Youngs Moduli (GPa) = 45.47907 87.53250 65.12442
#
# Poissons Ratio (x) = 0.19839 0.59834
# Poissons Ratio (y) = 0.10308 0.29792
# Poissons Ratio (z) = 0.41784 0.40043
#
# Static dielectric constant tensor:
#      x y z
#    x 1.861030 0.013800 -0.008680 
#    y 0.013800 1.801350 0.029040 
#    z -0.008680 0.029040 1.810470 
# 
# From -- ./inp_files/200076.got.cif
#   From: 2010.05.17/outbox.cif.g08.bks.cpg/sg2_101_cif.got.tgz:200076.got - 2010.06.03 11:33:40.
