data_PCOD9017110
_publ_section_title
;
Structure prediction by ZEFSAII (Michael W. Deem and Ramdas Pophale) SiO2 
 PCOD9017110
Probable space group: P -1
;
_chemical_formula_sum "Si O2"
_cell_formula_units_Z 14
_cell_length_a 10.830265
_cell_length_b 11.616412
_cell_length_c 12.093465
_cell_angle_alpha 54.761677
_cell_angle_beta 24.282869
_cell_angle_gamma 59.704982
_cell_volume 509.992014
_symmetry_space_group_name_H-M "P -1"
_symmetry_group_IT_number 2
_symmetry_cell_setting 'triclinic'
loop_
_space_group_symop_operation_xyz
x,y,z
-x,-y,-z
loop_
_atom_site_type_symbol
_atom_site_label
_atom_site_fract_x
_atom_site_fract_y
_atom_site_fract_z
Si Si1 0.827472 0.142061 0.552380
Si Si2 0.737874 0.601731 0.028167
Si Si3 0.555674 0.217560 0.399014
Si Si4 0.633843 0.573647 0.739334
Si Si5 0.884945 0.199969 0.715301
Si Si6 0.539563 0.977737 0.688078
Si Si7 0.818409 0.652653 0.177987
O O1 0.072513 0.263195 0.248787
O O2 0.722558 0.182713 0.738120
O O3 0.586816 0.098722 0.678144
O O4 0.000000 0.000000 0.500000
O O5 0.982453 0.481751 0.892359
O O6 0.464179 0.542012 0.209347
O O7 0.653799 0.628048 0.209293
O O8 0.504640 0.287555 0.283097
O O9 0.393060 0.317699 0.563539
O O10 0.428750 0.062301 0.625883
O O11 0.914099 0.224612 0.121551
O O12 0.957509 0.647231 0.467559
O O13 0.500000 0.500000 0.000000
O O14 0.147866 0.090912 0.551935
O O15 0.674067 0.144181 0.016485
#
# Coordination Sequence:
#
# PCOD9017110 Si02
#       7
#     2   2   2   2   2   2   2
#     4  10  21  42  71 105 137 181 231 292 351 405
#     4  10  21  43  73 103 142 180 231 295 347 418
#     4  11  24  45  75 104 140 181 236 294 348 411
#     4  11  25  47  71 102 147 190 233 278 357 426
#     4  11  25  46  69 102 145 187 230 284 347 422
#     4  11  24  45  73 102 138 183 239 292 343 405
#     4  10  23  43  70 110 134 177 236 296 351 398
#
# _framework density 27.451409000000002
#
# number of rings (size 3 to 8) (size 9 to 14) (size 15 to 20)
#    0.000    1.429    2.857    1.286    2.000    8.571 
#    2.571    3.571    0.000    0.000    0.000    0.000 
#    0.000    0.000    0.000    0.000    0.000    0.000 
#
# Total GULP energy -78501.081862 kJ/mol
# GULP energy per Si atom -5607.220133 kJ/mol
# Density = 2.738893 g / cm^3
# Si number density = 27.451409 Si / 1000 Ang^3
#
#
#
# Elastic Constant Matrix: (Units=GPa)
#
#
# Indices 1 2 3 4 5 6 
#
# 1 194.2804 54.5913 77.3641 -1.2293 20.4912 26.1059
# 2 54.5913 105.9521 38.2351 -1.9691 23.3353 15.0323
# 3 77.3641 38.2351 157.6194 -7.1756 22.2914 -2.7723
# 4 -1.2293 -1.9691 -7.1756 68.7346 0.7139 8.7507
# 5 20.4912 23.3353 22.2914 0.7139 52.2791 -4.4553
# 6 26.1059 15.0323 -2.7723 8.7507 -4.4553 51.6093
#
#
#
# Elastic Compliance Matrix: (Units=1/GPa)
#
#
# Indices 1 2 3 4 5 6 
#
# 1 0.007540 -0.002034 -0.003116 0.000209 -0.001022 -0.003513
# 2 -0.002034 0.012432 -0.001419 0.000619 -0.004424 -0.003156
# 3 -0.003116 -0.001419 0.008506 0.000525 -0.001590 0.002220
# 4 0.000209 0.000619 0.000525 0.015004 -0.001034 -0.002891
# 5 -0.001022 -0.004424 -0.001590 -0.001034 0.022523 0.003840
# 6 -0.003513 -0.003156 0.002220 -0.002891 0.003840 0.023013
#
#
# Mechanical properties :
#
#
# Convention : Reuss Voigt Hill
#
# Bulk Modulus (GPa) = 65.18320 88.69255 76.93788
# Shear Modulus (GPa) = 46.61224 53.70202 50.15713
#
# Velocity S-wave (km/s) = 4.12514 4.42776 4.27912
# Velocity P-wave (km/s) = 6.81803 7.64978 7.24585
#
# Compressibility (1/GPa) = 0.01534138
#
# Stress axis : x y z
#
# Youngs Moduli (GPa) = 132.61999 80.43910 117.56835
#
# Poissons Ratio (x) = 0.16358 0.36628
# Poissons Ratio (y) = 0.26969 0.16685
# Poissons Ratio (z) = 0.41318 0.11416
#
# Static dielectric constant tensor:
#      x y z
#    x 2.252460 -0.031560 -0.026100 
#    y -0.031560 2.221490 -0.022780 
#    z -0.026100 -0.022780 2.056860 
# 
# From -- ./inp_files/425373.got.cif
#   From: 2010.05.17/outbox.cif.g08.bks.cpg/sg2_213_cif.got.tgz:425373.got - 2010.06.03 11:33:40.
