data_PCOD9017909
_publ_section_title
;
Structure prediction by ZEFSAII (Michael W. Deem and Ramdas Pophale) SiO2 
 PCOD9017909
Probable space group: P -1
;
_chemical_formula_sum "Si O2"
_cell_formula_units_Z 16
_cell_length_a 14.717076
_cell_length_b 8.513534
_cell_length_c 10.847139
_cell_angle_alpha 66.893884
_cell_angle_beta 65.478567
_cell_angle_gamma 122.093490
_cell_volume 635.129043
_symmetry_space_group_name_H-M "P -1"
_symmetry_group_IT_number 2
_symmetry_cell_setting 'triclinic'
loop_
_space_group_symop_operation_xyz
x,y,z
-x,-y,-z
loop_
_atom_site_type_symbol
_atom_site_label
_atom_site_fract_x
_atom_site_fract_y
_atom_site_fract_z
Si Si1 0.216196 0.458152 0.111784
Si Si2 0.045694 0.346384 0.773101
Si Si3 0.950612 0.231893 0.130682
Si Si4 0.716195 0.786129 0.955825
Si Si5 0.549391 0.686815 0.531905
Si Si6 0.947977 0.514065 0.655572
Si Si7 0.447974 0.117609 0.948478
Si Si8 0.545690 0.165177 0.635514
O O1 0.100429 0.358297 0.327853
O O2 0.091531 0.338471 0.105475
O O3 0.250002 0.305663 0.138678
O O4 0.411524 0.822304 0.859154
O O5 0.250001 0.582400 0.585195
O O6 0.064234 0.578301 0.668417
O O7 0.958552 0.172245 0.004865
O O8 0.911524 0.092980 0.817799
O O9 0.750002 0.933375 0.383249
O O10 0.000000 0.500000 0.000000
O O11 0.591528 0.535473 0.211465
O O12 0.600431 0.786582 0.971286
O O13 0.500000 0.500000 0.500000
O O14 0.541453 0.864343 0.421965
O O15 0.000000 0.500000 0.500000
O O16 0.750002 0.170684 0.908636
O O17 0.564229 0.310948 0.703119
O O18 0.500000 0.000000 0.000000
#
# Coordination Sequence:
#
# PCOD9017909 Si02
#       8
#     2   2   2   2   2   2   2   2
#     4  11  25  41  64 102 139 175 230 287 344 409
#     4  11  23  40  64  95 134 184 226 270 347 412
#     4  12  22  40  65  98 144 184 225 273 343 422
#     4  11  25  41  64 102 139 175 230 287 344 409
#     4  12  22  40  65  98 144 184 225 273 343 422
#     4  10  21  43  67  92 127 178 233 280 343 411
#     4  10  21  43  67  92 127 178 233 280 343 411
#     4  11  23  40  64  95 134 184 226 270 347 412
#
# _framework density 25.191728999999999
#
# number of rings (size 3 to 8) (size 9 to 14) (size 15 to 20)
#    0.000    1.000    5.000    2.250    3.500    2.000 
#    0.000    5.000    0.000    1.500    0.000    5.250 
#    0.000    0.000    0.000    0.000    0.000    0.000 
#
# Total GULP energy -89143.007334 kJ/mol
# GULP energy per Si atom -5571.437958 kJ/mol
# Density = 2.513439 g / cm^3
# Si number density = 25.191729 Si / 1000 Ang^3
#
#
#
# Elastic Constant Matrix: (Units=GPa)
#
#
# Indices 1 2 3 4 5 6 
#
# 1 115.9355 31.4900 23.7479 8.4036 -21.8593 -8.8871
# 2 31.4900 85.6148 28.0346 7.0904 -16.0540 -16.8873
# 3 23.7479 28.0346 127.6832 0.3240 -14.9151 -0.3502
# 4 8.4036 7.0904 0.3240 46.8775 1.3232 -14.4669
# 5 -21.8593 -16.0540 -14.9151 1.3232 38.8292 4.8069
# 6 -8.8871 -16.8873 -0.3502 -14.4669 4.8069 47.7166
#
#
#
# Elastic Compliance Matrix: (Units=1/GPa)
#
#
# Indices 1 2 3 4 5 6 
#
# 1 0.010478 -0.002573 -0.000848 -0.001582 0.004551 0.000097
# 2 -0.002573 0.014920 -0.002400 -0.000549 0.003286 0.004286
# 3 -0.000848 -0.002400 0.008751 0.000048 0.002030 -0.001133
# 4 -0.001582 -0.000549 0.000048 0.023954 -0.002789 0.007055
# 5 0.004551 0.003286 0.002030 -0.002789 0.030787 -0.001921
# 6 0.000097 0.004286 -0.001133 0.007055 -0.001921 0.024816
#
#
# Mechanical properties :
#
#
# Convention : Reuss Voigt Hill
#
# Bulk Modulus (GPa) = 44.43227 55.08651 49.75939
# Shear Modulus (GPa) = 37.63628 43.08204 40.35916
#
# Velocity S-wave (km/s) = 3.86941 4.13990 4.00694
# Velocity P-wave (km/s) = 6.13507 6.69075 6.41892
#
# Compressibility (1/GPa) = 0.02250616
#
# Stress axis : x y z
#
# Youngs Moduli (GPa) = 95.43603 67.02618 114.27875
#
# Poissons Ratio (x) = 0.17244 0.09691
# Poissons Ratio (y) = 0.24554 0.27430
# Poissons Ratio (z) = 0.08093 0.16088
#
# Static dielectric constant tensor:
#      x y z
#    x 2.045860 -0.266060 0.036160 
#    y -0.266060 2.469630 -0.046940 
#    z 0.036160 -0.046940 1.911170 
# 
# From -- ./inp_files/447133.got.cif
#   From: 2010.05.17/outbox.cif.g08.bks.cpg/sg2_224_cif.got.tgz:447133.got - 2010.06.03 11:33:40.
