data_PCOD9017596
_publ_section_title
;
Structure prediction by ZEFSAII (Michael W. Deem and Ramdas Pophale) SiO2 
 PCOD9017596
Probable space group: P -1
;
_chemical_formula_sum "Si O2"
_cell_formula_units_Z 16
_cell_length_a 5.145633
_cell_length_b 25.416756
_cell_length_c 16.148150
_cell_angle_alpha 20.635569
_cell_angle_beta 70.511734
_cell_angle_gamma 70.112555
_cell_volume 699.165054
_symmetry_space_group_name_H-M "P -1"
_symmetry_group_IT_number 2
_symmetry_cell_setting 'triclinic'
loop_
_space_group_symop_operation_xyz
x,y,z
-x,-y,-z
loop_
_atom_site_type_symbol
_atom_site_label
_atom_site_fract_x
_atom_site_fract_y
_atom_site_fract_z
Si Si1 0.631484 0.911907 0.751009
Si Si2 0.553110 0.911297 0.040709
Si Si3 0.776135 0.234660 0.267772
Si Si4 0.805713 0.623727 0.886142
Si Si5 0.599544 0.572497 0.512892
Si Si6 0.057532 0.327076 0.810271
Si Si7 0.155588 0.905047 0.935288
Si Si8 0.230921 0.371563 0.935354
O O1 0.353767 0.957366 0.765293
O O2 0.602563 0.791694 0.858079
O O3 0.750278 0.066864 0.488171
O O4 0.833935 0.809506 0.941736
O O5 0.592577 0.733945 0.318787
O O6 0.163873 0.035170 0.107652
O O7 0.685566 0.078148 0.019707
O O8 0.500000 0.000000 0.000000
O O9 0.482605 0.310987 0.217468
O O10 0.000038 0.245741 0.300686
O O11 0.915239 0.329685 0.041223
O O12 0.717453 0.564745 0.072736
O O13 0.000000 0.500000 0.000000
O O14 0.678886 0.612387 0.351693
O O15 0.852071 0.453482 0.686265
O O16 0.331614 0.486830 0.688591
O O17 0.886213 0.262074 0.847834
#
# Coordination Sequence:
#
# PCOD9017596 Si02
#       8
#     2   2   2   2   2   2   2   2
#     4  12  23  43  69 106 142 172 231 284 356 414
#     4  11  25  46  64  96 138 184 236 280 330 407
#     4  10  26  43  73  99 135 181 227 292 344 401
#     4  10  24  50  68  98 137 181 238 278 339 410
#     4  10  21  43  65 103 139 181 225 282 340 413
#     4  10  23  39  70 103 140 182 221 283 351 416
#     4  11  22  42  67  95 134 176 229 276 347 394
#     4  10  25  39  70 104 137 181 223 287 352 413
#
# _framework density 22.884440000000001
#
# number of rings (size 3 to 8) (size 9 to 14) (size 15 to 20)
#    0.750    0.750    3.750    1.125    3.500    4.500 
#    4.500    0.000    0.000    0.000    0.000    0.000 
#    0.000    0.000    0.000    0.000    0.000    0.000 
#
# Total GULP energy -89209.864993 kJ/mol
# GULP energy per Si atom -5575.616562 kJ/mol
# Density = 2.283235 g / cm^3
# Si number density = 22.884440 Si / 1000 Ang^3
#
#
#
# Elastic Constant Matrix: (Units=GPa)
#
#
# Indices 1 2 3 4 5 6 
#
# 1 124.3344 33.2558 34.0857 7.6824 -10.0484 -14.6999
# 2 33.2558 131.4669 47.5358 -14.9341 -11.2936 -5.5749
# 3 34.0857 47.5358 89.3045 -3.0174 -17.0870 -10.8220
# 4 7.6824 -14.9341 -3.0174 26.7979 -3.9956 -4.9574
# 5 -10.0484 -11.2936 -17.0870 -3.9956 31.2244 0.1956
# 6 -14.6999 -5.5749 -10.8220 -4.9574 0.1956 35.3673
#
#
#
# Elastic Compliance Matrix: (Units=1/GPa)
#
#
# Indices 1 2 3 4 5 6 
#
# 1 0.009772 -0.001823 -0.002441 -0.003523 0.000683 0.002530
# 2 -0.001823 0.010492 -0.004312 0.006210 0.001640 0.000438
# 3 -0.002441 -0.004312 0.016190 0.001763 0.006719 0.003470
# 4 -0.003523 0.006210 0.001763 0.044285 0.007705 0.006219
# 5 0.000683 0.001640 0.006719 0.007705 0.037480 0.003471
# 6 0.002530 0.000438 0.003470 0.006219 0.003471 0.031309
#
#
# Mechanical properties :
#
#
# Convention : Reuss Voigt Hill
#
# Bulk Modulus (GPa) = 51.81146 63.87337 57.84241
# Shear Modulus (GPa) = 28.88279 34.02649 31.45464
#
# Velocity S-wave (km/s) = 3.55648 3.86020 3.71145
# Velocity P-wave (km/s) = 6.28923 6.91665 6.61038
#
# Compressibility (1/GPa) = 0.01930075
#
# Stress axis : x y z
#
# Youngs Moduli (GPa) = 102.33731 95.31333 61.76644
#
# Poissons Ratio (x) = 0.17380 0.15076
# Poissons Ratio (y) = 0.18661 0.26633
# Poissons Ratio (z) = 0.24979 0.41099
#
# Static dielectric constant tensor:
#      x y z
#    x 1.950080 0.020050 -0.015700 
#    y 0.020050 1.883770 0.026430 
#    z -0.015700 0.026430 1.863600 
# 
# From -- ./inp_files/551429.got.cif
#   From: 2010.05.17/outbox.cif.g08.bks.cpg/sg2_276_cif.got.tgz:551429.got - 2010.06.03 11:33:40.
