data_PCOD9017735
_publ_section_title
;
Structure prediction by ZEFSAII (Michael W. Deem and Ramdas Pophale) SiO2 
 PCOD9017735
Probable space group: P -1
;
_chemical_formula_sum "Si O2"
_cell_formula_units_Z 16
_cell_length_a 11.635714
_cell_length_b 7.414668
_cell_length_c 10.215998
_cell_angle_alpha 108.253677
_cell_angle_beta 68.514864
_cell_angle_gamma 77.038701
_cell_volume 719.273817
_symmetry_space_group_name_H-M "P -1"
_symmetry_group_IT_number 2
_symmetry_cell_setting 'triclinic'
loop_
_space_group_symop_operation_xyz
x,y,z
-x,-y,-z
loop_
_atom_site_type_symbol
_atom_site_label
_atom_site_fract_x
_atom_site_fract_y
_atom_site_fract_z
Si Si1 0.821160 0.519383 0.493669
Si Si2 0.302002 0.799698 0.913485
Si Si3 0.177614 0.483519 0.795440
Si Si4 0.830287 0.919963 0.588736
Si Si5 0.580214 0.612835 0.808590
Si Si6 0.420165 0.782056 0.136346
Si Si7 0.893823 0.800517 0.050826
Si Si8 0.951833 0.032336 0.319222
O O1 0.764521 0.597074 0.389362
O O2 0.893799 0.675759 0.526731
O O3 0.717579 0.554222 0.663226
O O4 0.892364 0.277123 0.385441
O O5 0.246682 0.634570 0.848272
O O6 0.456816 0.738678 0.793366
O O7 0.203540 0.025057 0.963161
O O8 0.326801 0.771685 0.051505
O O9 0.186082 0.308971 0.856619
O O10 0.017210 0.622852 0.888060
O O11 0.911156 0.018490 0.669809
O O12 0.673040 0.007761 0.709165
O O13 0.855680 0.974493 0.444169
O O14 0.563476 0.403338 0.814478
O O15 0.554197 0.743862 0.986417
O O16 0.956276 0.914421 0.155456
#
# Coordination Sequence:
#
# PCOD9017735 Si02
#       8
#     2   2   2   2   2   2   2   2
#     4  12  23  41  62  96 127 163 209 263 308 369
#     4  10  21  43  66  89 126 171 206 250 317 371
#     4  11  24  39  66  95 129 159 213 257 309 380
#     4  11  23  40  65  94 124 166 210 256 323 364
#     4   9  22  42  65  94 124 168 209 260 314 363
#     4   9  20  44  65  90 125 169 206 259 312 368
#     4  11  23  44  64  93 127 168 206 258 311 380
#     4  11  23  41  65  91 130 164 204 264 317 372
#
# _framework density 22.244657
#
# number of rings (size 3 to 8) (size 9 to 14) (size 15 to 20)
#    0.750    0.750    3.750    1.500    1.750    1.000 
#    4.500    0.625    0.000    0.000    0.000    0.000 
#    0.000    0.000    0.000    0.000    0.000    0.000 
#
# Total GULP energy -89199.756631 kJ/mol
# GULP energy per Si atom -5574.984789 kJ/mol
# Density = 2.219403 g / cm^3
# Si number density = 22.244657 Si / 1000 Ang^3
#
#
#
# Elastic Constant Matrix: (Units=GPa)
#
#
# Indices 1 2 3 4 5 6 
#
# 1 13.0432 6.7198 -8.4666 -10.2437 12.3882 0.2208
# 2 6.7198 112.9007 13.5353 1.8553 1.2028 0.3133
# 3 -8.4666 13.5353 95.0481 -11.4540 -4.2018 6.6793
# 4 -10.2437 1.8553 -11.4540 32.1832 8.6781 -0.4436
# 5 12.3882 1.2028 -4.2018 8.6781 2.0439 -1.5707
# 6 0.2208 0.3133 6.6793 -0.4436 -1.5707 32.0697
#
#
#
# Elastic Compliance Matrix: (Units=1/GPa)
#
#
# Indices 1 2 3 4 5 6 
#
# 1 0.001656 -0.000643 0.000927 -0.016857 0.065973 0.002800
# 2 -0.000643 0.009138 -0.001575 0.000124 -0.005253 -0.000012
# 3 0.000927 -0.001575 0.011615 0.001943 0.009457 -0.001920
# 4 -0.016857 0.000124 0.001943 0.017413 0.033379 0.001586
# 5 0.065973 -0.005253 0.009457 0.033379 -0.032485 -0.003502
# 6 0.002800 -0.000012 -0.001920 0.001586 -0.003502 0.031413
#
#
# Mechanical properties :
#
#
# Convention : Reuss Voigt Hill
#
# Bulk Modulus (GPa) = 50.43584 27.17433 38.80508
# Shear Modulus (GPa) = 104.29668 27.20629 65.75148
#
# Velocity S-wave (km/s) = 6.85478 3.50100 5.44266
# Velocity P-wave (km/s) = 9.23975 5.34653 7.54846
#
# Compressibility (1/GPa) = 0.01982717
#
# Stress axis : x y z
#
# Youngs Moduli (GPa) = 604.04477 109.42815 86.09496
#
# Poissons Ratio (x) = 0.07040 -0.07985
# Poissons Ratio (y) = 0.38861 0.13560
# Poissons Ratio (z) = -0.56024 0.17236
#
# Static dielectric constant tensor:
#      x y z
#    x 1.834300 -0.015070 -0.044500 
#    y -0.015070 1.833840 0.022830 
#    z -0.044500 0.022830 1.902100 
# 
# From -- ./inp_files/417827.got.cif
#   From: 2010.05.17/outbox.cif.g08.bks.cpg/sg2_209_cif.got.tgz:417827.got - 2010.06.03 11:33:40.
