data_PCOD9017982
_publ_section_title
;
Structure prediction by ZEFSAII (Michael W. Deem and Ramdas Pophale) SiO2 
 PCOD9017982
Probable space group: P -1
;
_chemical_formula_sum "Si O2"
_cell_formula_units_Z 12
_cell_length_a 12.354390
_cell_length_b 26.059581
_cell_length_c 9.208496
_cell_angle_alpha 150.371604
_cell_angle_beta 41.244593
_cell_angle_gamma 159.435258
_cell_volume 480.953695
_symmetry_space_group_name_H-M "P -1"
_symmetry_group_IT_number 2
_symmetry_cell_setting 'triclinic'
loop_
_space_group_symop_operation_xyz
x,y,z
-x,-y,-z
loop_
_atom_site_type_symbol
_atom_site_label
_atom_site_fract_x
_atom_site_fract_y
_atom_site_fract_z
Si Si1 0.946878 0.820478 0.416185
Si Si2 0.767449 0.558552 0.726549
Si Si3 0.758920 0.235109 0.009189
Si Si4 0.981577 0.564421 0.038775
Si Si5 0.948280 0.207243 0.269013
Si Si6 0.249084 0.161735 0.776330
O O1 0.621113 0.671769 0.468629
O O2 0.159842 0.840378 0.306367
O O3 0.802678 0.692276 0.095155
O O4 0.171079 0.038963 0.682729
O O5 0.985297 0.685375 0.675207
O O6 0.942605 0.583030 0.730785
O O7 0.766914 0.306968 0.032234
O O8 0.415145 0.041495 0.963742
O O9 0.004172 0.691816 0.395618
O O10 0.618617 0.351356 0.815459
O O11 0.000000 0.500000 0.000000
O O12 0.195966 0.247633 0.102356
O O13 0.000000 0.000000 0.500000
#
# Coordination Sequence:
#
# PCOD9017982 Si02
#       6
#     2   2   2   2   2   2
#     4   9  19  39  70  93 135 175 230 271 336 390
#     4   9  19  40  71  98 134 179 232 274 335 404
#     4  10  21  43  67  96 137 186 224 277 337 413
#     4  12  28  47  67 100 145 183 222 289 348 396
#     4  12  24  41  70 105 137 174 229 287 342 402
#     4  12  23  44  71 102 134 184 229 275 337 414
#
# _framework density 24.950427999999999
#
# number of rings (size 3 to 8) (size 9 to 14) (size 15 to 20)
#    1.000    0.333    1.667    4.500    0.000    2.667 
#    0.000    5.000    0.000    0.000    0.000    0.000 
#    0.000    0.000    0.000    0.000    0.000    0.000 
#
# Total GULP energy -67117.631309 kJ/mol
# GULP energy per Si atom -5593.135942 kJ/mol
# Density = 2.489364 g / cm^3
# Si number density = 24.950428 Si / 1000 Ang^3
#
#
#
# Elastic Constant Matrix: (Units=GPa)
#
#
# Indices 1 2 3 4 5 6 
#
# 1 84.2065 20.5363 -3.8906 -12.1205 -10.6635 -25.7183
# 2 20.5363 136.1736 -10.6385 4.5498 13.6456 -20.0277
# 3 -3.8906 -10.6385 61.9284 -14.9954 -3.0121 -1.2179
# 4 -12.1205 4.5498 -14.9954 25.5339 6.7469 8.3186
# 5 -10.6635 13.6456 -3.0121 6.7469 29.3567 0.5110
# 6 -25.7183 -20.0277 -1.2179 8.3186 0.5110 47.1078
#
#
#
# Elastic Compliance Matrix: (Units=1/GPa)
#
#
# Indices 1 2 3 4 5 6 
#
# 1 0.016125 -0.001966 0.002466 0.005707 0.005591 0.006963
# 2 -0.001966 0.008630 0.000757 -0.001873 -0.004269 0.002992
# 3 0.002466 0.000757 0.019458 0.012570 -0.000347 -0.000045
# 4 0.005707 -0.001873 0.012570 0.053926 -0.008042 -0.006791
# 5 0.005591 -0.004269 -0.000347 -0.008042 0.039853 0.002216
# 6 0.006963 0.002992 -0.000045 -0.006791 0.002216 0.027475
#
#
# Mechanical properties :
#
#
# Convention : Reuss Voigt Hill
#
# Bulk Modulus (GPa) = 21.40121 32.70255 27.05188
# Shear Modulus (GPa) = 28.00651 38.81975 33.41313
#
# Velocity S-wave (km/s) = 3.35399 3.94874 3.66345
# Velocity P-wave (km/s) = 4.85748 5.82456 5.36286
#
# Compressibility (1/GPa) = 0.04672633
#
# Stress axis : x y z
#
# Youngs Moduli (GPa) = 62.01502 115.87940 51.39156
#
# Poissons Ratio (x) = 0.22783 -0.12674
# Poissons Ratio (y) = 0.12193 -0.03888
# Poissons Ratio (z) = -0.15294 -0.08766
#
# Static dielectric constant tensor:
#      x y z
#    x 2.002710 -0.001330 -0.033580 
#    y -0.001330 1.958120 -0.012450 
#    z -0.033580 -0.012450 1.985160 
# 
# From -- ./inp_files/284469.got.cif
#   From: 2010.05.17/outbox.cif.g08.bks.cpg/sg2_143_cif.got.tgz:284469.got - 2010.06.03 11:33:40.
