data_PCOD9017773
_publ_section_title
;
Structure prediction by ZEFSAII (Michael W. Deem and Ramdas Pophale) SiO2 
 PCOD9017773
Probable space group: P -1
;
_chemical_formula_sum "Si O2"
_cell_formula_units_Z 15
_cell_length_a 25.204454
_cell_length_b 14.856194
_cell_length_c 8.830831
_cell_angle_alpha 30.995193
_cell_angle_beta 132.120750
_cell_angle_gamma 151.860265
_cell_volume 752.054977
_symmetry_space_group_name_H-M "P -1"
_symmetry_group_IT_number 2
_symmetry_cell_setting 'triclinic'
loop_
_space_group_symop_operation_xyz
x,y,z
-x,-y,-z
loop_
_atom_site_type_symbol
_atom_site_label
_atom_site_fract_x
_atom_site_fract_y
_atom_site_fract_z
Si Si1 0.394518 0.396274 0.532622
Si Si2 0.996023 0.789096 0.344165
Si Si3 0.740976 0.724978 0.803198
Si Si4 0.489855 0.300164 0.362936
Si Si5 0.609167 0.241044 0.475670
Si Si6 0.000000 0.500000 0.500000
Si Si7 0.233886 0.756744 0.108569
Si Si8 0.236447 0.853312 0.631455
O O1 0.500000 0.500000 0.500000
O O2 0.346060 0.455098 0.247615
O O3 0.446886 0.553132 0.566016
O O4 0.283333 0.043211 0.841009
O O5 0.999062 0.662290 0.390217
O O6 0.882474 0.522714 0.615490
O O7 0.119719 0.999290 0.369343
O O8 0.000000 0.000000 0.000000
O O9 0.714462 0.857811 0.642972
O O10 0.715082 0.527244 0.161865
O O11 0.561641 0.290822 0.428873
O O12 0.348548 0.983675 0.573606
O O13 0.500000 0.500000 0.000000
O O14 0.659488 0.169043 0.756779
O O15 0.500000 0.000000 0.500000
O O16 0.880010 0.347969 0.403871
O O17 0.209707 0.712902 0.945390
#
# Coordination Sequence:
#
# PCOD9017773 Si02
#       8
#     2   2   2   2   2   1   2   2
#     4  11  21  42  67  97 133 171 220 276 340 411
#     4  11  24  46  71  97 137 181 227 286 337 396
#     4  10  21  43  66  93 134 172 220 275 339 409
#     4  12  23  40  69  95 134 177 218 277 338 405
#     4  12  25  39  65 100 136 175 220 272 352 404
#     4  10  26  44  72  98 130 182 240 270 342 410
#     4  11  24  44  68  98 137 177 220 284 341 399
#     4  10  23  44  67  98 131 172 234 273 331 417
#
# _framework density 19.945350000000001
#
# number of rings (size 3 to 8) (size 9 to 14) (size 15 to 20)
#    0.000    1.067    5.333    1.600    3.733    5.333 
#    2.400    0.667    0.000    0.000    0.000    0.000 
#    0.000    0.000    0.000    0.000    0.000    0.000 
#
# Total GULP energy -83539.727522 kJ/mol
# GULP energy per Si atom -5569.315168 kJ/mol
# Density = 1.989995 g / cm^3
# Si number density = 19.945350 Si / 1000 Ang^3
#
#
#
# Elastic Constant Matrix: (Units=GPa)
#
#
# Indices 1 2 3 4 5 6 
#
# 1 99.8418 55.6235 30.8316 2.2232 -10.6412 -0.5613
# 2 55.6235 179.7788 25.6732 19.0217 -18.6861 -5.4636
# 3 30.8316 25.6732 79.5386 0.9452 -15.7814 4.3821
# 4 2.2232 19.0217 0.9452 33.2900 9.9738 -8.1118
# 5 -10.6412 -18.6861 -15.7814 9.9738 22.9220 -0.2506
# 6 -0.5613 -5.4636 4.3821 -8.1118 -0.2506 36.4121
#
#
#
# Elastic Compliance Matrix: (Units=1/GPa)
#
#
# Indices 1 2 3 4 5 6 
#
# 1 0.013269 -0.003712 -0.004057 0.001569 -0.000337 0.000483
# 2 -0.003712 0.008255 0.000568 -0.007132 0.008496 -0.000417
# 3 -0.004057 0.000568 0.016581 -0.004868 0.012081 -0.002974
# 4 0.001569 -0.007132 -0.004868 0.044749 -0.027807 0.009318
# 5 -0.000337 0.008496 0.012081 -0.027807 0.070747 -0.005892
# 6 0.000483 -0.000417 -0.002974 0.009318 -0.005892 0.029801
#
#
# Mechanical properties :
#
#
# Convention : Reuss Voigt Hill
#
# Bulk Modulus (GPa) = 42.19267 64.82399 53.50833
# Shear Modulus (GPa) = 24.30655 34.99354 29.65005
#
# Velocity S-wave (km/s) = 3.49472 4.19318 3.85978
# Velocity P-wave (km/s) = 6.12243 7.48432 6.83737
#
# Compressibility (1/GPa) = 0.02370080
#
# Stress axis : x y z
#
# Youngs Moduli (GPa) = 75.36470 121.14087 60.31141
#
# Poissons Ratio (x) = 0.44972 0.24470
# Poissons Ratio (y) = 0.27978 -0.03425
# Poissons Ratio (z) = 0.30578 -0.06880
#
# Static dielectric constant tensor:
#      x y z
#    x 1.667520 0.032410 0.000180 
#    y 0.032410 1.678250 -0.009070 
#    z 0.000180 -0.009070 1.745120 
# 
# From -- ./inp_files/180880.got.cif
#   From: 2010.05.17/outbox.cif.g08.bks.cpg/sg2_91_cif.got.tgz:180880.got - 2010.06.03 11:33:40.
