data_PCOD9017823
_publ_section_title
;
Structure prediction by ZEFSAII (Michael W. Deem and Ramdas Pophale) SiO2 
 PCOD9017823
Probable space group: P -1
;
_chemical_formula_sum "Si O2"
_cell_formula_units_Z 14
_cell_length_a 11.764828
_cell_length_b 11.914740
_cell_length_c 5.302900
_cell_angle_alpha 82.672657
_cell_angle_beta 56.236488
_cell_angle_gamma 69.717224
_cell_volume 577.619065
_symmetry_space_group_name_H-M "P -1"
_symmetry_group_IT_number 2
_symmetry_cell_setting 'triclinic'
loop_
_space_group_symop_operation_xyz
x,y,z
-x,-y,-z
loop_
_atom_site_type_symbol
_atom_site_label
_atom_site_fract_x
_atom_site_fract_y
_atom_site_fract_z
Si Si1 0.835045 0.489801 0.970052
Si Si2 0.062244 0.842103 0.249070
Si Si3 0.367540 0.292312 0.563077
Si Si4 0.826274 0.106291 0.407770
Si Si5 0.477377 0.932003 0.294385
Si Si6 0.431040 0.574567 0.816868
Si Si7 0.880316 0.680052 0.466004
O O1 0.854364 0.585263 0.717302
O O2 0.992976 0.397115 0.860580
O O3 0.740749 0.573923 0.279635
O O4 0.735440 0.419022 0.991465
O O5 0.174642 0.831042 0.340232
O O6 0.957173 0.767083 0.466519
O O7 0.135073 0.820617 0.889557
O O8 0.954483 0.979384 0.316457
O O9 0.408983 0.202805 0.772469
O O10 0.515121 0.310471 0.282345
O O11 0.270583 0.248568 0.501210
O O12 0.680086 0.081283 0.527385
O O13 0.500000 0.000000 0.500000
O O14 0.500000 0.000000 0.000000
O O15 0.500000 0.500000 0.500000
O O16 0.500000 0.500000 0.000000
#
# Coordination Sequence:
#
# PCOD9017823 Si02
#       7
#     2   2   2   2   2   2   2
#     4  10  24  43  66 104 138 185 239 287 353 421
#     4  10  23  42  72  93 141 176 228 289 343 412
#     4  11  25  43  73  98 148 186 233 296 362 410
#     4  10  23  46  65 104 131 181 232 283 349 413
#     4  12  28  46  75 106 141 184 241 292 353 425
#     4  10  21  43  66  96 136 182 227 283 344 420
#     4  11  23  42  70 103 139 188 237 289 349 424
#
# _framework density 24.237424000000001
#
# number of rings (size 3 to 8) (size 9 to 14) (size 15 to 20)
#    0.000    1.429    1.429    2.143    8.000    1.143 
#    5.143    0.000    0.000    0.000    0.000    0.000 
#    0.000    0.000    0.000    0.000    0.000    0.000 
#
# Total GULP energy -78303.335033 kJ/mol
# GULP energy per Si atom -5593.095359 kJ/mol
# Density = 2.418226 g / cm^3
# Si number density = 24.237424 Si / 1000 Ang^3
#
#
#
# Elastic Constant Matrix: (Units=GPa)
#
#
# Indices 1 2 3 4 5 6 
#
# 1 201.4569 32.8121 71.4493 -27.6929 -11.6925 11.1859
# 2 32.8121 66.7036 34.4590 -26.0015 4.7648 0.2255
# 3 71.4493 34.4590 117.0402 -30.3550 -4.2377 0.9330
# 4 -27.6929 -26.0015 -30.3550 42.1012 10.4501 3.1265
# 5 -11.6925 4.7648 -4.2377 10.4501 43.9311 -10.6569
# 6 11.1859 0.2255 0.9330 3.1265 -10.6569 32.9151
#
#
#
# Elastic Compliance Matrix: (Units=1/GPa)
#
#
# Indices 1 2 3 4 5 6 
#
# 1 0.006670 -0.001107 -0.003386 0.001217 0.000788 -0.002024
# 2 -0.001107 0.022626 -0.002790 0.013192 -0.006931 -0.003197
# 3 -0.003386 -0.002790 0.012821 0.005446 -0.000637 0.000083
# 4 0.001217 0.013192 0.005446 0.040284 -0.012211 -0.008438
# 5 0.000788 -0.006931 -0.000637 -0.012211 0.029084 0.010374
# 6 -0.002024 -0.003197 0.000083 -0.008438 0.010374 0.035249
#
#
# Mechanical properties :
#
#
# Convention : Reuss Voigt Hill
#
# Bulk Modulus (GPa) = 36.29506 73.62684 54.96095
# Shear Modulus (GPa) = 29.32829 40.22148 34.77489
#
# Velocity S-wave (km/s) = 3.48234 4.07809 3.79193
# Velocity P-wave (km/s) = 5.58357 7.25381 6.47279
#
# Compressibility (1/GPa) = 0.02755196
#
# Stress axis : x y z
#
# Youngs Moduli (GPa) = 149.91571 44.19768 77.99682
#
# Poissons Ratio (x) = 0.04893 0.26408
# Poissons Ratio (y) = 0.16597 0.21759
# Poissons Ratio (z) = 0.50757 0.12330
#
# Static dielectric constant tensor:
#      x y z
#    x 1.931420 0.043910 -0.022240 
#    y 0.043910 2.007840 0.069070 
#    z -0.022240 0.069070 1.934260 
# 
# From -- ./inp_files/68849.got.cif
#   From: 2010.05.17/outbox.cif.g08.bks.cpg/sg2_35_cif.got.tgz:68849.got - 2010.06.03 11:33:40.
