data_PCOD9017796
_publ_section_title
;
Structure prediction by ZEFSAII (Michael W. Deem and Ramdas Pophale) SiO2 
 PCOD9017796
Probable space group: P -1
;
_chemical_formula_sum "Si O2"
_cell_formula_units_Z 16
_cell_length_a 17.348818
_cell_length_b 12.791411
_cell_length_c 11.698898
_cell_angle_alpha 122.611286
_cell_angle_beta 147.434646
_cell_angle_gamma 33.783320
_cell_volume 654.153508
_symmetry_space_group_name_H-M "P -1"
_symmetry_group_IT_number 2
_symmetry_cell_setting 'triclinic'
loop_
_space_group_symop_operation_xyz
x,y,z
-x,-y,-z
loop_
_atom_site_type_symbol
_atom_site_label
_atom_site_fract_x
_atom_site_fract_y
_atom_site_fract_z
Si Si1 0.055816 0.330301 0.898201
Si Si2 0.181991 0.743226 0.563829
Si Si3 0.017741 0.074964 0.956337
Si Si4 0.444111 0.918901 0.310360
Si Si5 0.519560 0.063080 0.177378
Si Si6 0.996018 0.880007 0.655049
Si Si7 0.112230 0.355593 0.444786
Si Si8 0.278390 0.557971 0.039557
O O1 0.884084 0.342150 0.631418
O O2 0.224759 0.120015 0.067590
O O3 0.233223 0.262411 0.982996
O O4 0.000000 0.500000 0.000000
O O5 0.175958 0.717116 0.677032
O O6 0.437448 0.613623 0.747553
O O7 0.000000 0.000000 0.500000
O O8 0.798456 0.330120 0.867435
O O9 0.983482 0.031575 0.767991
O O10 0.306298 0.920928 0.221638
O O11 0.000000 0.000000 0.000000
O O12 0.500000 0.000000 0.500000
O O13 0.707585 0.694227 0.443333
O O14 0.679425 0.888137 0.381210
O O15 0.702671 0.047064 0.368310
O O16 0.500000 0.000000 0.000000
O O17 0.116246 0.730382 0.830199
O O18 0.000000 0.500000 0.500000
O O19 0.860167 0.475368 0.145652
#
# Coordination Sequence:
#
# PCOD9017796 Si02
#       8
#     2   2   2   2   2   2   2   2
#     4  11  27  45  68 104 141 189 236 291 358 425
#     4  12  26  45  67  99 144 185 233 295 356 422
#     4  10  22  42  70 104 137 180 233 298 353 414
#     4  11  23  46  70 102 138 179 238 295 355 418
#     4  10  21  43  66  94 135 178 233 286 347 417
#     4  10  22  42  68  96 131 183 233 287 350 413
#     4  10  23  39  68 100 132 173 232 291 348 413
#     4  10  23  42  66  98 132 181 238 282 347 425
#
# _framework density 24.459091999999998
#
# number of rings (size 3 to 8) (size 9 to 14) (size 15 to 20)
#    0.000    1.500    2.500    1.125    8.750    2.000 
#    4.500    1.250    0.000    0.000    0.000    0.000 
#    0.000    0.000    0.000    0.000    0.000    0.000 
#
# Total GULP energy -89115.623823 kJ/mol
# GULP energy per Si atom -5569.726489 kJ/mol
# Density = 2.440342 g / cm^3
# Si number density = 24.459092 Si / 1000 Ang^3
#
#
#
# Elastic Constant Matrix: (Units=GPa)
#
#
# Indices 1 2 3 4 5 6 
#
# 1 129.1877 50.3209 63.9509 -0.5332 40.6856 -25.9230
# 2 50.3209 128.6340 76.9341 17.6117 34.1123 -43.3233
# 3 63.9509 76.9341 176.6571 16.9774 45.2539 -19.2211
# 4 -0.5332 17.6117 16.9774 42.6808 -7.4112 0.8459
# 5 40.6856 34.1123 45.2539 -7.4112 57.0877 -12.0063
# 6 -25.9230 -43.3233 -19.2211 0.8459 -12.0063 56.1672
#
#
#
# Elastic Compliance Matrix: (Units=1/GPa)
#
#
# Indices 1 2 3 4 5 6 
#
# 1 0.011332 -0.000954 -0.002097 0.000408 -0.005233 0.002652
# 2 -0.000954 0.015499 -0.003672 -0.005908 -0.004463 0.009393
# 3 -0.002097 -0.003672 0.009244 -0.002911 -0.004337 -0.001520
# 4 0.000408 -0.005908 -0.002911 0.028571 0.008416 -0.003996
# 5 -0.005233 -0.004463 -0.004337 0.008416 0.028138 -0.001454
# 6 0.002652 0.009393 -0.001520 -0.003996 -0.001454 0.025503
#
#
# Mechanical properties :
#
#
# Convention : Reuss Voigt Hill
#
# Bulk Modulus (GPa) = 44.18754 90.76563 67.47659
# Shear Modulus (GPa) = 35.90003 47.40533 41.65268
#
# Velocity S-wave (km/s) = 3.83529 4.40722 4.13116
# Velocity P-wave (km/s) = 6.14147 7.94278 7.09949
#
# Compressibility (1/GPa) = 0.02263081
#
# Stress axis : x y z
#
# Youngs Moduli (GPa) = 88.24348 64.52105 108.17522
#
# Poissons Ratio (x) = 0.06153 0.22685
# Poissons Ratio (y) = 0.08416 0.39717
# Poissons Ratio (z) = 0.18505 0.23689
#
# Static dielectric constant tensor:
#      x y z
#    x 2.319480 0.125610 -0.062940 
#    y 0.125610 2.021110 0.012670 
#    z -0.062940 0.012670 1.981470 
# 
# From -- ./inp_files/466130.got.cif
#   From: 2010.05.17/outbox.cif.g08.bks.cpg/sg2_234_cif.got.tgz:466130.got - 2010.06.03 11:33:40.
