data_PCOD9018415
_publ_section_title
;
Structure prediction by ZEFSAII (Michael W. Deem and Ramdas Pophale) SiO2 
 PCOD9018415
Probable space group: P -1
;
_chemical_formula_sum "Si O2"
_cell_formula_units_Z 16
_cell_length_a 16.127746
_cell_length_b 9.081631
_cell_length_c 11.105918
_cell_angle_alpha 118.870989
_cell_angle_beta 37.676773
_cell_angle_gamma 135.577233
_cell_volume 682.858844
_symmetry_space_group_name_H-M "P -1"
_symmetry_group_IT_number 2
_symmetry_cell_setting 'triclinic'
loop_
_space_group_symop_operation_xyz
x,y,z
-x,-y,-z
loop_
_atom_site_type_symbol
_atom_site_label
_atom_site_fract_x
_atom_site_fract_y
_atom_site_fract_z
Si Si1 0.776240 0.814448 0.311140
Si Si2 0.460758 0.806461 0.631109
Si Si3 0.417197 0.441864 0.938154
Si Si4 0.098824 0.298287 0.110183
Si Si5 0.599128 0.266687 0.665390
Si Si6 0.170352 0.422449 0.652120
Si Si7 0.440428 0.120410 0.049986
Si Si8 0.166626 0.708289 0.103056
O O1 0.587036 0.749524 0.491909
O O2 0.813197 0.739584 0.361184
O O3 0.816704 0.719081 0.115173
O O4 0.912444 0.071495 0.247059
O O5 0.317041 0.646896 0.636126
O O6 0.575151 0.057736 0.567647
O O7 0.338822 0.768711 0.866345
O O8 0.448949 0.276388 0.791934
O O9 0.524748 0.675817 0.844634
O O10 0.500000 0.500000 0.000000
O O11 0.220686 0.337261 0.096266
O O12 0.096652 0.497890 0.177464
O O13 0.770071 0.501587 0.524579
O O14 0.564262 0.226739 0.832239
O O15 0.977488 0.345554 0.847599
O O16 0.241212 0.931252 0.171291
O O17 0.500000 0.000000 0.000000
#
# Coordination Sequence:
#
# PCOD9018415 Si02
#       8
#     2   2   2   2   2   2   2   2
#     4  11  26  39  67  99 138 177 215 269 334 402
#     4  11  23  43  63  96 136 179 214 261 336 401
#     4  10  22  41  70  95 130 171 225 274 331 383
#     4  11  23  42  65  98 137 173 222 270 335 395
#     4  10  24  38  67  95 132 168 221 264 335 387
#     4  12  24  41  64 100 137 172 219 272 328 401
#     4  10  21  43  70  95 123 176 222 275 332 390
#     4  11  24  40  68  96 132 172 223 272 333 391
#
# _framework density 23.430903000000001
#
# number of rings (size 3 to 8) (size 9 to 14) (size 15 to 20)
#    0.000    1.250    2.500    2.625    7.000    1.000 
#    0.000    1.250    8.250    0.000    0.000    0.000 
#    0.000    0.000    0.000    0.000    0.000    0.000 
#
# Total GULP energy -89289.741227 kJ/mol
# GULP energy per Si atom -5580.608827 kJ/mol
# Density = 2.337757 g / cm^3
# Si number density = 23.430903 Si / 1000 Ang^3
#
#
#
# Elastic Constant Matrix: (Units=GPa)
#
#
# Indices 1 2 3 4 5 6 
#
# 1 123.5041 33.1094 47.4127 -3.9143 -27.5350 -13.3938
# 2 33.1094 102.6177 26.3842 -14.8295 -9.7048 -20.0735
# 3 47.4127 26.3842 67.9969 -13.5333 -16.6499 -9.9976
# 4 -3.9143 -14.8295 -13.5333 25.3438 -6.4466 -2.7978
# 5 -27.5350 -9.7048 -16.6499 -6.4466 46.2008 -6.4927
# 6 -13.3938 -20.0735 -9.9976 -2.7978 -6.4927 49.6880
#
#
#
# Elastic Compliance Matrix: (Units=1/GPa)
#
#
# Indices 1 2 3 4 5 6 
#
# 1 0.012344 -0.001620 -0.006840 -0.001315 0.004625 0.001827
# 2 -0.001620 0.013119 -0.000493 0.008720 0.003635 0.005730
# 3 -0.006840 -0.000493 0.025124 0.014531 0.007579 0.004821
# 4 -0.001315 0.008720 0.014531 0.057419 0.015899 0.011403
# 5 0.004625 0.003635 0.007579 0.015899 0.031413 0.009240
# 6 0.001827 0.005730 0.004821 0.011403 0.009240 0.025753
#
#
# Mechanical properties :
#
#
# Convention : Reuss Voigt Hill
#
# Bulk Modulus (GPa) = 30.59709 56.43680 43.51694
# Shear Modulus (GPa) = 25.77710 36.72736 31.25223
#
# Velocity S-wave (km/s) = 3.32042 3.96343 3.65609
# Velocity P-wave (km/s) = 5.27134 6.71445 6.03618
#
# Compressibility (1/GPa) = 0.03268284
#
# Stress axis : x y z
#
# Youngs Moduli (GPa) = 81.00793 76.22500 39.80306
#
# Poissons Ratio (x) = 0.12345 0.27224
# Poissons Ratio (y) = 0.13119 0.01963
# Poissons Ratio (z) = 0.55406 0.03759
#
# Static dielectric constant tensor:
#      x y z
#    x 1.961800 0.050410 0.120720 
#    y 0.050410 1.968280 0.075020 
#    z 0.120720 0.075020 2.034080 
# 
# From -- ./inp_files/186909.got.cif
#   From: 2010.05.17/outbox.cif.g08.bks.cpg/sg2_94_cif.got.tgz:186909.got - 2010.06.03 11:33:40.
