data_PCOD9018013
_publ_section_title
;
Structure prediction by ZEFSAII (Michael W. Deem and Ramdas Pophale) SiO2 
 PCOD9018013
Probable space group: P -1
;
_chemical_formula_sum "Si O2"
_cell_formula_units_Z 16
_cell_length_a 13.433661
_cell_length_b 11.528102
_cell_length_c 5.650685
_cell_angle_alpha 86.289762
_cell_angle_beta 124.995337
_cell_angle_gamma 69.589317
_cell_volume 630.666511
_symmetry_space_group_name_H-M "P -1"
_symmetry_group_IT_number 2
_symmetry_cell_setting 'triclinic'
loop_
_space_group_symop_operation_xyz
x,y,z
-x,-y,-z
loop_
_atom_site_type_symbol
_atom_site_label
_atom_site_fract_x
_atom_site_fract_y
_atom_site_fract_z
Si Si1 0.407664 0.155023 0.377407
Si Si2 0.061521 0.788033 0.686050
Si Si3 0.134033 0.987299 0.911102
Si Si4 0.340229 0.327978 0.863378
Si Si5 0.926993 0.436114 0.570626
Si Si6 0.392653 0.798224 0.072690
Si Si7 0.144499 0.199496 0.226095
Si Si8 0.581590 0.470857 0.863356
O O1 0.518147 0.205218 0.577624
O O2 0.294909 0.189461 0.425017
O O3 0.500000 0.000000 0.500000
O O4 0.320585 0.225517 0.016573
O O5 0.928428 0.791010 0.628796
O O6 0.119403 0.854800 0.952132
O O7 0.120488 0.650160 0.648078
O O8 0.009113 0.898376 0.396378
O O9 0.256738 0.936991 0.889907
O O10 0.168424 0.062420 0.153636
O O11 0.208176 0.437277 0.523951
O O12 0.489708 0.242983 0.958912
O O13 0.355919 0.429903 0.051596
O O14 0.000000 0.500000 0.500000
O O15 0.034608 0.329691 0.914463
O O16 0.342422 0.688205 0.012819
O O17 0.500000 0.500000 0.500000
O O18 0.500000 0.500000 0.000000
#
# Coordination Sequence:
#
# PCOD9018013 Si02
#       8
#     2   2   2   2   2   2   2   2
#     4  12  25  41  64 103 135 175 227 281 348 432
#     4  10  24  43  70  93 129 176 226 285 341 411
#     4  10  22  45  66  98 131 168 231 285 347 415
#     4  11  25  44  66  98 138 179 226 286 353 417
#     4  11  24  44  63  94 135 176 229 276 333 419
#     4  11  24  40  69  98 135 181 220 293 355 419
#     4  11  24  43  69  97 130 178 227 283 345 413
#     4  10  21  43  67  98 137 184 235 289 354 420
#
# _framework density 25.369983999999999
#
# number of rings (size 3 to 8) (size 9 to 14) (size 15 to 20)
#    0.000    1.250    3.750    1.125    3.500    2.000 
#    4.500    0.000    0.000    0.000    0.000    0.000 
#    0.000    0.000    0.000    0.000    0.000    0.000 
#
# Total GULP energy -89198.575242 kJ/mol
# GULP energy per Si atom -5574.910953 kJ/mol
# Density = 2.531224 g / cm^3
# Si number density = 25.369984 Si / 1000 Ang^3
#
#
#
# Elastic Constant Matrix: (Units=GPa)
#
#
# Indices 1 2 3 4 5 6 
#
# 1 55.2680 24.8281 12.0647 -10.0764 10.9938 1.4148
# 2 24.8281 164.5857 29.9360 -10.0182 5.4709 -10.5643
# 3 12.0647 29.9360 59.4960 -0.1244 7.1231 2.0365
# 4 -10.0764 -10.0182 -0.1244 32.8540 5.9189 11.6630
# 5 10.9938 5.4709 7.1231 5.9189 33.1433 5.2324
# 6 1.4148 -10.5643 2.0365 11.6630 5.2324 52.3401
#
#
#
# Elastic Compliance Matrix: (Units=1/GPa)
#
#
# Indices 1 2 3 4 5 6 
#
# 1 0.022833 -0.002367 -0.002411 0.008428 -0.007839 -0.002095
# 2 -0.002367 0.007161 -0.003156 0.000959 -0.000116 0.001430
# 3 -0.002411 -0.003156 0.019214 -0.000865 -0.002516 -0.000875
# 4 0.008428 0.000959 -0.000865 0.037473 -0.008272 -0.007524
# 5 -0.007839 -0.000116 -0.002516 -0.008272 0.035026 -0.001372
# 6 -0.002095 0.001430 -0.000875 -0.007524 -0.001372 0.021299
#
#
# Mechanical properties :
#
#
# Convention : Reuss Voigt Hill
#
# Bulk Modulus (GPa) = 29.99447 45.88969 37.94208
# Shear Modulus (GPa) = 29.41387 37.83555 33.62471
#
# Velocity S-wave (km/s) = 3.40869 3.86599 3.64452
# Velocity P-wave (km/s) = 5.22883 6.16890 5.71821
#
# Compressibility (1/GPa) = 0.03333948
#
# Stress axis : x y z
#
# Youngs Moduli (GPa) = 43.79653 139.64575 52.04448
#
# Poissons Ratio (x) = 0.33050 0.12550
# Poissons Ratio (y) = 0.10365 0.16427
# Poissons Ratio (z) = 0.10561 0.44076
#
# Static dielectric constant tensor:
#      x y z
#    x 2.026830 0.010740 0.106820 
#    y 0.010740 2.053150 0.026330 
#    z 0.106820 0.026330 2.175140 
# 
# From -- ./inp_files/70545.got.cif
#   From: 2010.05.17/outbox.cif.g08.bks.cpg/sg2_36_cif.got.tgz:70545.got - 2010.06.03 11:33:40.
