data_PCOD9018227
_publ_section_title
;
Structure prediction by ZEFSAII (Michael W. Deem and Ramdas Pophale) SiO2 
 PCOD9018227
Probable space group: P -1
;
_chemical_formula_sum "Si O2"
_cell_formula_units_Z 16
_cell_length_a 12.403953
_cell_length_b 9.217592
_cell_length_c 8.518978
_cell_angle_alpha 92.936774
_cell_angle_beta 65.444561
_cell_angle_gamma 124.725497
_cell_volume 705.360226
_symmetry_space_group_name_H-M "P -1"
_symmetry_group_IT_number 2
_symmetry_cell_setting 'triclinic'
loop_
_space_group_symop_operation_xyz
x,y,z
-x,-y,-z
loop_
_atom_site_type_symbol
_atom_site_label
_atom_site_fract_x
_atom_site_fract_y
_atom_site_fract_z
Si Si1 0.764779 0.579876 0.475577
Si Si2 0.110082 0.579406 0.791620
Si Si3 0.747395 0.916233 0.514826
Si Si4 0.516146 0.919518 0.825455
Si Si5 0.957017 0.679198 0.673376
Si Si6 0.528691 0.663501 0.191393
Si Si7 0.336138 0.522831 0.979350
Si Si8 0.361893 0.006417 0.713069
O O1 0.826037 0.533016 0.290168
O O2 0.759353 0.751317 0.489793
O O3 0.868170 0.611261 0.561402
O O4 0.598032 0.405809 0.606325
O O5 0.234209 0.793572 0.759381
O O6 0.024806 0.578659 0.689191
O O7 0.000000 0.500000 0.000000
O O8 0.660214 0.922896 0.716516
O O9 0.650179 0.903493 0.428078
O O10 0.909975 0.107285 0.411916
O O11 0.504085 0.021732 0.691561
O O12 0.375420 0.707021 0.894403
O O13 0.500000 0.000000 0.000000
O O14 0.832048 0.626358 0.875313
O O15 0.438060 0.596771 0.079918
O O16 0.649548 0.880130 0.137448
O O17 0.604349 0.564859 0.164520
#
# Coordination Sequence:
#
# PCOD9018227 Si02
#       8
#     2   2   2   2   2   2   2   2
#     4  11  24  45  71  95 137 184 230 274 337 408
#     4  11  26  45  66 102 139 179 225 280 347 401
#     4  11  26  44  66 104 135 180 227 278 348 403
#     4  12  24  42  69 101 134 177 227 283 332 403
#     4  10  24  44  72  96 135 182 225 277 335 414
#     4  10  22  41  69 101 131 177 224 286 334 399
#     4  10  21  43  69 103 134 169 233 280 335 393
#     4  11  26  42  67  97 138 176 224 282 343 400
#
# _framework density 22.683447000000001
#
# number of rings (size 3 to 8) (size 9 to 14) (size 15 to 20)
#    0.000    1.250    2.500    1.875    5.250    5.500 
#    0.000    2.500    0.000    0.000    0.000    0.000 
#    0.000    0.000    0.000    0.000    0.000    0.000 
#
# Total GULP energy -89356.502893 kJ/mol
# GULP energy per Si atom -5584.781431 kJ/mol
# Density = 2.263182 g / cm^3
# Si number density = 22.683447 Si / 1000 Ang^3
#
#
#
# Elastic Constant Matrix: (Units=GPa)
#
#
# Indices 1 2 3 4 5 6 
#
# 1 114.1675 62.2138 57.3197 15.6670 -5.9965 -18.5550
# 2 62.2138 123.2558 69.7081 13.0000 -24.4938 -15.6509
# 3 57.3197 69.7081 119.8782 8.7353 -28.3704 -13.8926
# 4 15.6670 13.0000 8.7353 32.0899 -8.6703 -7.0194
# 5 -5.9965 -24.4938 -28.3704 -8.6703 28.7156 1.0294
# 6 -18.5550 -15.6509 -13.8926 -7.0194 1.0294 44.7724
#
#
#
# Elastic Compliance Matrix: (Units=1/GPa)
#
#
# Indices 1 2 3 4 5 6 
#
# 1 0.015082 -0.005382 -0.005483 -0.005583 -0.008616 0.001990
# 2 -0.005382 0.014816 -0.004117 0.000081 0.007416 0.001513
# 3 -0.005483 -0.004117 0.016214 0.003633 0.012401 0.001604
# 4 -0.005583 0.000081 0.003633 0.037523 0.013664 0.004411
# 5 -0.008616 0.007416 0.012401 0.013664 0.055595 0.003734
# 6 0.001990 0.001513 0.001604 0.004411 0.003734 0.024792
#
#
# Mechanical properties :
#
#
# Convention : Reuss Voigt Hill
#
# Bulk Modulus (GPa) = 61.93395 81.75387 71.84391
# Shear Modulus (GPa) = 25.07910 32.31959 28.69935
#
# Velocity S-wave (km/s) = 3.32868 3.77876 3.56084
# Velocity P-wave (km/s) = 6.49125 7.42685 6.97476
#
# Compressibility (1/GPa) = 0.01614623
#
# Stress axis : x y z
#
# Youngs Moduli (GPa) = 66.30382 67.49592 61.67585
#
# Poissons Ratio (x) = 0.36328 0.33819
# Poissons Ratio (y) = 0.35686 0.25393
# Poissons Ratio (z) = 0.36357 0.27789
#
# Static dielectric constant tensor:
#      x y z
#    x 1.891440 -0.011430 0.037210 
#    y -0.011430 1.820550 0.028700 
#    z 0.037210 0.028700 1.886040 
# 
# From -- ./inp_files/244458.got.cif
#   From: 2010.05.17/outbox.cif.g08.bks.cpg/sg2_123_cif.got.tgz:244458.got - 2010.06.03 11:33:40.
