data_PCOD9018164
_publ_section_title
;
Structure prediction by ZEFSAII (Michael W. Deem and Ramdas Pophale) SiO2 
 PCOD9018164
Probable space group: P -1
;
_chemical_formula_sum "Si O2"
_cell_formula_units_Z 10
_cell_length_a 7.667086
_cell_length_b 9.001555
_cell_length_c 8.049071
_cell_angle_alpha 126.961346
_cell_angle_beta 86.826517
_cell_angle_gamma 64.843921
_cell_volume 362.748055
_symmetry_space_group_name_H-M "P -1"
_symmetry_group_IT_number 2
_symmetry_cell_setting 'triclinic'
loop_
_space_group_symop_operation_xyz
x,y,z
-x,-y,-z
loop_
_atom_site_type_symbol
_atom_site_label
_atom_site_fract_x
_atom_site_fract_y
_atom_site_fract_z
Si Si1 0.950043 0.464867 0.663995
Si Si2 0.323611 0.876302 0.569668
Si Si3 0.048400 0.806166 0.002665
Si Si4 0.533717 0.326052 0.207101
Si Si5 0.369838 0.970640 0.303181
O O1 0.718512 0.508877 0.705434
O O2 0.000000 0.500000 0.500000
O O3 0.952523 0.658790 0.890105
O O4 0.151048 0.212105 0.518716
O O5 0.420725 0.725797 0.633150
O O6 0.433775 0.011275 0.669621
O O7 0.372750 0.803664 0.325841
O O8 0.070779 0.039765 0.727740
O O9 0.300102 0.626865 0.844603
O O10 0.000000 0.000000 0.000000
O O11 0.612793 0.103360 0.938799
#
# Coordination Sequence:
#
# PCOD9018164 Si02
#       5
#     2   2   2   2   2
#     4  12  23  42  71 100 130 177 227 267 331 400
#     4  10  21  43  68  97 133 177 218 270 335 391
#     4  10  23  41  68  98 135 173 219 277 328 392
#     4  11  23  47  70  94 137 178 215 278 335 385
#     4  11  23  42  72  97 131 180 219 272 332 394
#
# _framework density 27.567343000000001
#
# number of rings (size 3 to 8) (size 9 to 14) (size 15 to 20)
#    0.000    1.200    4.000    3.000    0.000    2.400 
#    3.600    1.000    0.000    0.000    0.000    0.000 
#    0.000    0.000    0.000    0.000    0.000    0.000 
#
# Total GULP energy -55877.814433 kJ/mol
# GULP energy per Si atom -5587.781443 kJ/mol
# Density = 2.750460 g / cm^3
# Si number density = 27.567343 Si / 1000 Ang^3
#
#
#
# Elastic Constant Matrix: (Units=GPa)
#
#
# Indices 1 2 3 4 5 6 
#
# 1 177.0083 40.5981 41.2197 3.4331 -43.3177 -13.3479
# 2 40.5981 157.5511 59.9630 6.4933 -30.4100 -3.6015
# 3 41.2197 59.9630 116.4655 10.7806 -34.3498 -5.6524
# 4 3.4331 6.4933 10.7806 40.4405 -2.0276 -15.8887
# 5 -43.3177 -30.4100 -34.3498 -2.0276 70.7554 2.9903
# 6 -13.3479 -3.6015 -5.6524 -15.8887 2.9903 35.0329
#
#
#
# Elastic Compliance Matrix: (Units=1/GPa)
#
#
# Indices 1 2 3 4 5 6 
#
# 1 0.007084 -0.000734 -0.001089 0.001004 0.003411 0.002612
# 2 -0.000734 0.008142 -0.003517 -0.000352 0.001345 -0.000284
# 3 -0.001089 -0.003517 0.012067 -0.002482 0.003620 -0.000264
# 4 0.001004 -0.000352 -0.002482 0.030825 -0.000448 0.013964
# 5 0.003411 0.001345 0.003620 -0.000448 0.018534 0.000237
# 6 0.002612 -0.000284 -0.000264 0.013964 0.000237 0.035781
#
#
# Mechanical properties :
#
#
# Convention : Reuss Voigt Hill
#
# Bulk Modulus (GPa) = 60.19651 81.62072 70.90862
# Shear Modulus (GPa) = 38.86489 49.86203 44.36346
#
# Velocity S-wave (km/s) = 3.75883 4.25754 4.01593
# Velocity P-wave (km/s) = 6.38137 7.33763 6.87615
#
# Compressibility (1/GPa) = 0.01661226
#
# Stress axis : x y z
#
# Youngs Moduli (GPa) = 141.16962 122.81404 82.87027
#
# Poissons Ratio (x) = 0.09016 0.09027
# Poissons Ratio (y) = 0.10363 0.29146
# Poissons Ratio (z) = 0.15378 0.43194
#
# Static dielectric constant tensor:
#      x y z
#    x 5.300160 3.338350 5.585130 
#    y 3.338350 5.959160 6.076440 
#    z 5.585130 6.076440 11.812250 
# 
# From -- ./inp_files/148151.got.cif
#   From: 2010.05.17/outbox.cif.g08.bks.cpg/sg2_75_cif.got.tgz:148151.got - 2010.06.03 11:33:40.
