data_PCOD9018655
_publ_section_title
;
Structure prediction by ZEFSAII (Michael W. Deem and Ramdas Pophale) SiO2 
 PCOD9018655
Probable space group: P -1
;
_chemical_formula_sum "Si O2"
_cell_formula_units_Z 14
_cell_length_a 9.254244
_cell_length_b 18.904795
_cell_length_c 12.977798
_cell_angle_alpha 27.285593
_cell_angle_beta 115.365113
_cell_angle_gamma 136.706319
_cell_volume 513.194007
_symmetry_space_group_name_H-M "P -1"
_symmetry_group_IT_number 2
_symmetry_cell_setting 'triclinic'
loop_
_space_group_symop_operation_xyz
x,y,z
-x,-y,-z
loop_
_atom_site_type_symbol
_atom_site_label
_atom_site_fract_x
_atom_site_fract_y
_atom_site_fract_z
Si Si1 0.822383 0.574665 0.432321
Si Si2 0.282362 0.945794 0.592447
Si Si3 0.273092 0.342319 0.507590
Si Si4 0.786636 0.181059 0.958089
Si Si5 0.361395 0.645558 0.646548
Si Si6 0.186800 0.257145 0.366772
Si Si7 0.592703 0.270963 0.078354
O O1 0.525926 0.423440 0.502847
O O2 0.914711 0.752533 0.329569
O O3 0.068072 0.765308 0.171726
O O4 0.759223 0.343795 0.735774
O O5 0.196255 0.701522 0.911930
O O6 0.064420 0.914866 0.569370
O O7 0.545440 0.190863 0.434448
O O8 0.330370 0.979974 0.437963
O O9 0.105555 0.153502 0.596546
O O10 0.433522 0.634566 0.146556
O O11 0.028576 0.338748 0.915538
O O12 0.487545 0.855637 0.320339
O O13 0.551232 0.643955 0.706678
O O14 0.308280 0.528011 0.065507
#
# Coordination Sequence:
#
# PCOD9018655 Si02
#       7
#     2   2   2   2   2   2   2
#     4  10  21  43  73  98 140 184 235 288 358 395
#     4  11  23  40  69 100 134 190 220 291 347 419
#     4   9  20  42  69  99 140 180 234 290 346 416
#     4  11  26  46  71 105 141 182 237 289 342 427
#     4  12  27  45  72 103 145 181 234 283 356 411
#     4  10  23  41  65  98 139 178 227 289 332 429
#     4   9  22  41  65  96 140 169 243 271 352 408
#
# _framework density 27.280131000000001
#
# number of rings (size 3 to 8) (size 9 to 14) (size 15 to 20)
#    0.857    0.857    1.429    1.714    6.000    5.143 
#    0.000    2.143    0.000    0.000    0.000    0.000 
#    0.000    0.000    0.000    0.000    0.000    0.000 
#
# Total GULP energy -78235.791252 kJ/mol
# GULP energy per Si atom -5588.270804 kJ/mol
# Density = 2.721804 g / cm^3
# Si number density = 27.280131 Si / 1000 Ang^3
#
#
#
# Elastic Constant Matrix: (Units=GPa)
#
#
# Indices 1 2 3 4 5 6 
#
# 1 159.9789 32.2046 46.5214 19.2265 28.3358 -2.7313
# 2 32.2046 112.6237 20.5870 13.4841 20.4296 19.3833
# 3 46.5214 20.5870 59.7782 10.6294 3.8339 4.4953
# 4 19.2265 13.4841 10.6294 40.0342 6.5749 10.6663
# 5 28.3358 20.4296 3.8339 6.5749 35.3781 9.0973
# 6 -2.7313 19.3833 4.4953 10.6663 9.0973 45.1767
#
#
#
# Elastic Compliance Matrix: (Units=1/GPa)
#
#
# Indices 1 2 3 4 5 6 
#
# 1 0.010092 -0.000578 -0.006999 -0.002543 -0.007458 0.003657
# 2 -0.000578 0.011060 -0.002617 -0.001112 -0.004575 -0.003336
# 3 -0.006999 -0.002617 0.023288 -0.002270 0.005582 -0.002206
# 4 -0.002543 -0.001112 -0.002270 0.028950 -0.000885 -0.006108
# 5 -0.007458 -0.004575 0.005582 -0.000885 0.038115 -0.006510
# 6 0.003657 -0.003336 -0.002206 -0.006108 -0.006510 0.026760
#
#
# Mechanical properties :
#
#
# Convention : Reuss Voigt Hill
#
# Bulk Modulus (GPa) = 41.57743 59.00075 50.28909
# Shear Modulus (GPa) = 29.99947 39.65566 34.82756
#
# Velocity S-wave (km/s) = 3.31974 3.81681 3.57692
# Velocity P-wave (km/s) = 5.47433 6.41083 5.96100
#
# Compressibility (1/GPa) = 0.02405151
#
# Stress axis : x y z
#
# Youngs Moduli (GPa) = 99.09307 90.41472 42.94072
#
# Poissons Ratio (x) = 0.05229 0.30054
# Poissons Ratio (y) = 0.05731 0.11237
# Poissons Ratio (z) = 0.69354 0.23660
#
# Static dielectric constant tensor:
#      x y z
#    x 2.285270 0.004540 -0.124460 
#    y 0.004540 2.131090 0.010060 
#    z -0.124460 0.010060 2.195480 
# 
# From -- ./inp_files/507844.got.cif
#   From: 2010.05.17/outbox.cif.g08.bks.cpg/sg2_254_cif.got.tgz:507844.got - 2010.06.03 11:33:40.
