data_PCOD9018889
_publ_section_title
;
Structure prediction by ZEFSAII (Michael W. Deem and Ramdas Pophale) SiO2 
 PCOD9018889
Probable space group: P -1
;
_chemical_formula_sum "Si O2"
_cell_formula_units_Z 16
_cell_length_a 9.114679
_cell_length_b 18.010907
_cell_length_c 9.398333
_cell_angle_alpha 74.841205
_cell_angle_beta 133.596966
_cell_angle_gamma 141.000521
_cell_volume 561.417434
_symmetry_space_group_name_H-M "P -1"
_symmetry_group_IT_number 2
_symmetry_cell_setting 'triclinic'
loop_
_space_group_symop_operation_xyz
x,y,z
-x,-y,-z
loop_
_atom_site_type_symbol
_atom_site_label
_atom_site_fract_x
_atom_site_fract_y
_atom_site_fract_z
Si Si1 0.546842 0.068956 0.359250
Si Si2 0.876745 0.680466 0.020755
Si Si3 0.764915 0.302342 0.526497
Si Si4 0.340849 0.098118 0.957091
Si Si5 0.523224 0.308820 0.101543
Si Si6 0.345580 0.003071 0.763532
Si Si7 0.904499 0.599429 0.828783
Si Si8 0.252060 0.602498 0.286364
O O1 0.624167 0.175702 0.433352
O O2 0.262643 0.010207 0.072394
O O3 0.500000 0.000000 0.500000
O O4 0.827981 0.109634 0.417910
O O5 0.907843 0.623790 0.186854
O O6 0.301335 0.843222 0.164134
O O7 0.710219 0.701262 0.971131
O O8 0.682551 0.581910 0.800213
O O9 0.808832 0.364577 0.382300
O O10 0.555823 0.294245 0.500673
O O11 0.256595 0.155431 0.933452
O O12 0.807051 0.261088 0.153550
O O13 0.158981 0.011017 0.730408
O O14 0.805834 0.438433 0.112930
O O15 0.500000 0.000000 0.000000
O O16 0.626342 0.443843 0.655298
O O17 0.209273 0.649755 0.107870
#
# Coordination Sequence:
#
# PCOD9018889 Si02
#       8
#     2   2   2   2   2   2   2   2
#     4  10  17  30  54  83 104 140 189 233 273 327
#     4  10  19  34  58  83 111 146 188 233 278 334
#     4  10  20  33  53  82 113 145 180 235 280 326
#     4   8  17  32  52  80 110 146 183 226 278 338
#     4  10  20  34  55  87 113 140 190 236 277 332
#     4   9  17  33  58  79 106 153 187 220 284 338
#     4   8  16  31  54  78 105 149 187 214 277 344
#     4   9  17  33  55  78 112 150 184 227 278 336
#
# _framework density 28.499290999999999
#
# number of rings (size 3 to 8) (size 9 to 14) (size 15 to 20)
#    0.000    2.750    1.250    0.375    0.000    2.000 
#    0.000    6.250    0.000   54.000    0.000    0.000 
#    0.000    0.000    0.000    0.000    0.000    0.000 
#
# Total GULP energy -89263.366947 kJ/mol
# GULP energy per Si atom -5578.960434 kJ/mol
# Density = 2.843443 g / cm^3
# Si number density = 28.499291 Si / 1000 Ang^3
#
#
#
# Elastic Constant Matrix: (Units=GPa)
#
#
# Indices 1 2 3 4 5 6 
#
# 1 198.3180 49.6367 45.5581 26.2081 -59.8173 -48.9148
# 2 49.6367 114.1411 25.0937 -3.1939 -5.9344 -21.2055
# 3 45.5581 25.0937 121.6404 -22.5007 -33.4555 -0.1580
# 4 26.2081 -3.1939 -22.5007 42.5455 -8.5483 -11.5118
# 5 -59.8173 -5.9344 -33.4555 -8.5483 58.1714 17.8759
# 6 -48.9148 -21.2055 -0.1580 -11.5118 17.8759 64.9239
#
#
#
# Elastic Compliance Matrix: (Units=1/GPa)
#
#
# Indices 1 2 3 4 5 6 
#
# 1 0.009907 -0.002922 -0.002203 -0.005124 0.006719 0.003746
# 2 -0.002922 0.010762 -0.001766 0.001671 -0.003464 0.002559
# 3 -0.002203 -0.001766 0.013000 0.008828 0.007128 -0.002602
# 4 -0.005124 0.001671 0.008828 0.032686 0.004384 0.001295
# 5 0.006719 -0.003464 0.007128 0.004384 0.029537 -0.003407
# 6 0.003746 0.002559 -0.002602 0.001295 -0.003407 0.020222
#
#
# Mechanical properties :
#
#
# Convention : Reuss Voigt Hill
#
# Bulk Modulus (GPa) = 50.28162 74.96406 62.62284
# Shear Modulus (GPa) = 36.62273 54.04889 45.33581
#
# Velocity S-wave (km/s) = 3.58863 4.35961 3.99277
# Velocity P-wave (km/s) = 5.90360 7.19044 6.57856
#
# Compressibility (1/GPa) = 0.01988798
#
# Stress axis : x y z
#
# Youngs Moduli (GPa) = 100.93368 92.91742 76.92025
#
# Poissons Ratio (x) = 0.27153 0.16945
# Poissons Ratio (y) = 0.29495 0.13584
# Poissons Ratio (z) = 0.22235 0.16409
#
# Static dielectric constant tensor:
#      x y z
#    x 2.400480 -0.041810 0.038450 
#    y -0.041810 2.208880 0.101180 
#    z 0.038450 0.101180 2.206960 
# 
# From -- ./inp_files/212685.got.cif
#   From: 2010.05.17/outbox.cif.g08.bks.cpg/sg2_107_cif.got.tgz:212685.got - 2010.06.03 11:33:40.
