data_PCOD9018226
_publ_section_title
;
Structure prediction by ZEFSAII (Michael W. Deem and Ramdas Pophale) SiO2 
 PCOD9018226
Probable space group: P -1
;
_chemical_formula_sum "Si O2"
_cell_formula_units_Z 14
_cell_length_a 10.226612
_cell_length_b 8.493972
_cell_length_c 12.224013
_cell_angle_alpha 85.554729
_cell_angle_beta 36.702562
_cell_angle_gamma 70.423183
_cell_volume 562.433475
_symmetry_space_group_name_H-M "P -1"
_symmetry_group_IT_number 2
_symmetry_cell_setting 'triclinic'
loop_
_space_group_symop_operation_xyz
x,y,z
-x,-y,-z
loop_
_atom_site_type_symbol
_atom_site_label
_atom_site_fract_x
_atom_site_fract_y
_atom_site_fract_z
Si Si1 0.145789 0.195175 0.222806
Si Si2 0.016214 0.164770 0.539141
Si Si3 0.581307 0.376084 0.559601
Si Si4 0.660604 0.294652 0.146452
Si Si5 0.582402 0.233371 0.952352
Si Si6 0.634858 0.849296 0.507643
Si Si7 0.135262 0.329444 0.839496
O O1 0.113408 0.238827 0.371971
O O2 0.872357 0.263357 0.358924
O O3 0.285291 0.983902 0.119580
O O4 0.322998 0.279787 0.065911
O O5 0.199938 0.111980 0.519406
O O6 0.750608 0.285485 0.760352
O O7 0.000000 0.000000 0.500000
O O8 0.500000 0.500000 0.500000
O O9 0.503005 0.509341 0.706344
O O10 0.419300 0.270513 0.687206
O O11 0.568820 0.177621 0.286139
O O12 0.600324 0.288217 0.060538
O O13 0.948779 0.242499 0.976466
O O14 0.819832 0.675672 0.322129
O O15 0.500000 0.000000 0.500000
O O16 0.000000 0.500000 0.000000
#
# Coordination Sequence:
#
# PCOD9018226 Si02
#       7
#     2   2   2   2   2   2   2
#     4  10  23  44  69  97 138 181 229 288 348 410
#     4  10  22  42  66  99 144 174 229 291 350 411
#     4  11  24  46  70  98 143 187 228 286 352 413
#     4  11  23  45  67  99 141 178 234 290 345 421
#     4  10  21  43  69 103 130 177 239 284 346 415
#     4  12  25  43  72 104 141 184 233 297 349 410
#     4  10  24  45  65  97 144 183 231 282 348 418
#
# _framework density 24.891831
#
# number of rings (size 3 to 8) (size 9 to 14) (size 15 to 20)
#    0.000    1.429    4.286    0.000    4.000    1.143 
#   12.857    0.714    0.000    0.000    0.000    0.000 
#    0.000    0.000    0.000    0.000    0.000    0.000 
#
# Total GULP energy -78166.655320 kJ/mol
# GULP energy per Si atom -5583.332523 kJ/mol
# Density = 2.483518 g / cm^3
# Si number density = 24.891831 Si / 1000 Ang^3
#
#
#
# Elastic Constant Matrix: (Units=GPa)
#
#
# Indices 1 2 3 4 5 6 
#
# 1 170.5883 49.3453 73.4528 4.3595 -12.7894 22.7471
# 2 49.3453 44.2600 39.1330 -1.6374 -13.0057 8.3412
# 3 73.4528 39.1330 151.1781 -6.6692 -18.4694 21.0784
# 4 4.3595 -1.6374 -6.6692 38.1234 8.6688 -7.8535
# 5 -12.7894 -13.0057 -18.4694 8.6688 78.7808 -0.0938
# 6 22.7471 8.3412 21.0784 -7.8535 -0.0938 35.1508
#
#
#
# Elastic Compliance Matrix: (Units=1/GPa)
#
#
# Indices 1 2 3 4 5 6 
#
# 1 0.009778 -0.008386 -0.002196 -0.002597 -0.000030 -0.003601
# 2 -0.008386 0.037623 -0.005165 0.000821 0.003548 -0.000211
# 3 -0.002196 -0.005165 0.009576 0.000896 0.000934 -0.002892
# 4 -0.002597 0.000821 0.000896 0.028988 -0.003257 0.007416
# 5 -0.000030 0.003548 0.000934 -0.003257 0.013849 -0.002073
# 6 -0.003601 -0.000211 -0.002892 0.007416 -0.002073 0.034215
#
#
# Mechanical properties :
#
#
# Convention : Reuss Voigt Hill
#
# Bulk Modulus (GPa) = 39.24411 76.65428 57.94920
# Shear Modulus (GPa) = 28.73293 44.01737 36.37515
#
# Velocity S-wave (km/s) = 3.40120 4.20973 3.82688
# Velocity P-wave (km/s) = 5.58787 7.38180 6.54657
#
# Compressibility (1/GPa) = 0.02548153
#
# Stress axis : x y z
#
# Youngs Moduli (GPa) = 102.27381 26.57983 104.43051
#
# Poissons Ratio (x) = 0.22289 0.22935
# Poissons Ratio (y) = 0.85763 0.53942
# Poissons Ratio (z) = 0.22462 0.13729
#
# Static dielectric constant tensor:
#      x y z
#    x 1.753580 -0.003550 -0.136580 
#    y -0.003550 2.073120 0.021940 
#    z -0.136580 0.021940 1.946870 
# 
# From -- ./inp_files/390315.got.cif
#   From: 2010.05.17/outbox.cif.g08.bks.cpg/sg2_196_cif.got.tgz:390315.got - 2010.06.03 11:33:40.
