data_PCOD9018247
_publ_section_title
;
Structure prediction by ZEFSAII (Michael W. Deem and Ramdas Pophale) SiO2 
 PCOD9018247
Probable space group: P -1
;
_chemical_formula_sum "Si O2"
_cell_formula_units_Z 16
_cell_length_a 9.280799
_cell_length_b 14.034160
_cell_length_c 8.163398
_cell_angle_alpha 57.508631
_cell_angle_beta 124.113784
_cell_angle_gamma 130.716537
_cell_volume 641.875452
_symmetry_space_group_name_H-M "P -1"
_symmetry_group_IT_number 2
_symmetry_cell_setting 'triclinic'
loop_
_space_group_symop_operation_xyz
x,y,z
-x,-y,-z
loop_
_atom_site_type_symbol
_atom_site_label
_atom_site_fract_x
_atom_site_fract_y
_atom_site_fract_z
Si Si1 0.081793 0.493108 0.877644
Si Si2 0.456726 0.054437 0.585344
Si Si3 0.706899 0.636231 0.733973
Si Si4 0.462214 0.689635 0.741565
Si Si5 0.170927 0.194792 0.885560
Si Si6 0.063084 0.855432 0.649495
Si Si7 0.219003 0.968131 0.998157
Si Si8 0.147801 0.394111 0.454799
O O1 0.290356 0.611885 0.834674
O O2 0.919060 0.500245 0.649210
O O3 0.138306 0.379931 0.032716
O O4 0.000000 0.500000 0.000000
O O5 0.559115 0.208195 0.479633
O O6 0.500000 0.000000 0.500000
O O7 0.215763 0.980630 0.526540
O O8 0.569727 0.017518 0.828306
O O9 0.505201 0.599195 0.731828
O O10 0.693119 0.554634 0.640051
O O11 0.824011 0.785470 0.603141
O O12 0.669214 0.769603 0.900687
O O13 0.196633 0.322169 0.693321
O O14 0.212002 0.102708 0.874605
O O15 0.948687 0.117246 0.892830
O O16 0.042704 0.731964 0.645675
O O17 0.158116 0.898582 0.849095
#
# Coordination Sequence:
#
# PCOD9018247 Si02
#       8
#     2   2   2   2   2   2   2   2
#     4  10  21  43  69  86 117 166 212 258 316 364
#     4  12  24  39  61  94 128 171 205 245 314 374
#     4   9  22  40  66  89 122 161 208 262 310 353
#     4  12  23  40  65  94 125 163 208 259 307 373
#     4  11  22  36  61  90 129 162 207 248 310 369
#     4  10  22  39  62  90 130 163 203 253 307 371
#     4  11  23  37  57  93 129 169 201 251 299 380
#     4   9  21  39  64  87 123 167 202 255 307 363
#
# _framework density 24.926955
#
# number of rings (size 3 to 8) (size 9 to 14) (size 15 to 20)
#    0.750    0.750    2.500    3.000    3.500    1.000 
#    0.000    3.125    2.750    0.000    0.000    0.000 
#    0.000    0.000    0.000    0.000    0.000    0.000 
#
# Total GULP energy -89222.636508 kJ/mol
# GULP energy per Si atom -5576.414782 kJ/mol
# Density = 2.487022 g / cm^3
# Si number density = 24.926955 Si / 1000 Ang^3
#
#
#
# Elastic Constant Matrix: (Units=GPa)
#
#
# Indices 1 2 3 4 5 6 
#
# 1 120.6207 32.5325 36.6419 -24.9430 3.2442 14.5708
# 2 32.5325 68.1314 15.8756 -18.9933 2.4597 15.7885
# 3 36.6419 15.8756 98.1430 -19.5929 7.0905 -0.3322
# 4 -24.9430 -18.9933 -19.5929 39.0696 0.3382 -1.1921
# 5 3.2442 2.4597 7.0905 0.3382 36.8948 -7.4727
# 6 14.5708 15.7885 -0.3322 -1.1921 -7.4727 27.8463
#
#
#
# Elastic Compliance Matrix: (Units=1/GPa)
#
#
# Indices 1 2 3 4 5 6 
#
# 1 0.011344 -0.002320 -0.002876 0.004537 -0.001306 -0.004811
# 2 -0.002320 0.020907 -0.000708 0.008015 -0.003399 -0.011217
# 3 -0.002876 -0.000708 0.012322 0.004067 -0.001749 0.001758
# 4 0.004537 0.008015 0.004067 0.034264 -0.003303 -0.006289
# 5 -0.001306 -0.003399 -0.001749 -0.003303 0.029935 0.010482
# 6 -0.004811 -0.011217 0.001758 -0.006289 0.010482 0.047354
#
#
# Mechanical properties :
#
#
# Convention : Reuss Voigt Hill
#
# Bulk Modulus (GPa) = 30.52095 50.77724 40.64909
# Shear Modulus (GPa) = 27.95537 34.21847 31.08692
#
# Velocity S-wave (km/s) = 3.35250 3.70908 3.53529
# Velocity P-wave (km/s) = 5.22077 6.22557 5.74518
#
# Compressibility (1/GPa) = 0.03276438
#
# Stress axis : x y z
#
# Youngs Moduli (GPa) = 88.14910 47.83155 81.15556
#
# Poissons Ratio (x) = 0.11096 0.23344
# Poissons Ratio (y) = 0.20449 0.05747
# Poissons Ratio (z) = 0.25355 0.03387
#
# Static dielectric constant tensor:
#      x y z
#    x 2.022380 -0.028780 0.011670 
#    y -0.028780 2.009650 0.023360 
#    z 0.011670 0.023360 2.016160 
# 
# From -- ./inp_files/216827.got.cif
#   From: 2010.05.17/outbox.cif.g08.bks.cpg/sg2_109_cif.got.tgz:216827.got - 2010.06.03 11:33:40.
