data_PCOD9018251
_publ_section_title
;
Structure prediction by ZEFSAII (Michael W. Deem and Ramdas Pophale) SiO2 
 PCOD9018251
Probable space group: P -1
;
_chemical_formula_sum "Si O2"
_cell_formula_units_Z 16
_cell_length_a 15.146549
_cell_length_b 12.919032
_cell_length_c 22.621099
_cell_angle_alpha 24.925537
_cell_angle_beta 156.029220
_cell_angle_gamma 139.848040
_cell_volume 702.410423
_symmetry_space_group_name_H-M "P -1"
_symmetry_group_IT_number 2
_symmetry_cell_setting 'triclinic'
loop_
_space_group_symop_operation_xyz
x,y,z
-x,-y,-z
loop_
_atom_site_type_symbol
_atom_site_label
_atom_site_fract_x
_atom_site_fract_y
_atom_site_fract_z
Si Si1 0.569432 0.003431 0.109183
Si Si2 0.047251 0.786999 0.719116
Si Si3 0.379438 0.426741 0.020518
Si Si4 0.315894 0.582891 0.675702
Si Si5 0.999141 0.895888 0.822630
Si Si6 0.517239 0.873987 0.356246
Si Si7 0.592112 0.316416 0.738309
Si Si8 0.280611 0.425773 0.151282
O O1 0.810433 0.044158 0.252696
O O2 0.559322 0.755484 0.267005
O O3 0.368513 0.272682 0.872635
O O4 0.500000 0.000000 0.000000
O O5 0.769372 0.902883 0.491098
O O6 0.155971 0.673340 0.780602
O O7 0.127993 0.529260 0.944862
O O8 0.561771 0.358858 0.221721
O O9 0.336600 0.159775 0.117993
O O10 0.500000 0.500000 0.000000
O O11 0.462738 0.605132 0.695946
O O12 0.067624 0.815243 0.395378
O O13 0.769217 0.821865 0.726008
O O14 0.139587 0.848896 0.993582
O O15 0.171799 0.666012 0.005757
O O16 0.541908 0.627702 0.541372
O O17 0.460185 0.788446 0.301675
#
# Coordination Sequence:
#
# PCOD9018251 Si02
#       8
#     2   2   2   2   2   2   2   2
#     4  10  22  43  61  99 135 165 213 271 328 395
#     4  10  21  43  69  91 123 170 221 259 316 395
#     4  10  22  40  66  98 125 162 223 269 310 391
#     4  10  22  38  65  93 125 166 215 261 316 389
#     4  11  20  37  62  93 126 165 202 263 331 372
#     4  11  23  45  66  93 127 177 218 268 330 373
#     4  11  24  40  64  93 136 168 217 275 321 386
#     4   9  19  36  62  94 124 155 207 265 313 387
#
# _framework density 22.778704999999999
#
# number of rings (size 3 to 8) (size 9 to 14) (size 15 to 20)
#    0.000    2.000    1.250    4.125    1.750    2.500 
#    4.500    7.500    0.000    0.000    0.000    0.000 
#    0.000    0.000    0.000    0.000    0.000    0.000 
#
# Total GULP energy -89365.627698 kJ/mol
# GULP energy per Si atom -5585.351731 kJ/mol
# Density = 2.272686 g / cm^3
# Si number density = 22.778705 Si / 1000 Ang^3
#
#
#
# Elastic Constant Matrix: (Units=GPa)
#
#
# Indices 1 2 3 4 5 6 
#
# 1 102.0195 48.7070 17.9175 -10.8524 -11.9250 2.3724
# 2 48.7070 105.2729 28.6227 -5.1459 1.5750 8.8341
# 3 17.9175 28.6227 72.7157 -11.2323 -7.6442 1.6929
# 4 -10.8524 -5.1459 -11.2323 30.0819 3.5577 -0.4209
# 5 -11.9250 1.5750 -7.6442 3.5577 31.2736 -3.4494
# 6 2.3724 8.8341 1.6929 -0.4209 -3.4494 34.8769
#
#
#
# Elastic Compliance Matrix: (Units=1/GPa)
#
#
# Indices 1 2 3 4 5 6 
#
# 1 0.013811 -0.006467 0.000195 0.003328 0.005401 0.001263
# 2 -0.006467 0.014005 -0.004490 -0.001127 -0.004510 -0.003349
# 3 0.000195 -0.004490 0.016644 0.005069 0.003876 0.000761
# 4 0.003328 -0.001127 0.005069 0.036329 -0.001557 0.000097
# 5 0.005401 -0.004510 0.003876 -0.001557 0.035840 0.004113
# 6 0.001263 -0.003349 0.000761 0.000097 0.004113 0.029806
#
#
# Mechanical properties :
#
#
# Convention : Reuss Voigt Hill
#
# Bulk Modulus (GPa) = 43.59751 52.27804 47.93778
# Shear Modulus (GPa) = 28.47287 31.56387 30.01837
#
# Velocity S-wave (km/s) = 3.53934 3.72650 3.63413
# Velocity P-wave (km/s) = 5.99030 6.44329 6.22092
#
# Compressibility (1/GPa) = 0.02293709
#
# Stress axis : x y z
#
# Youngs Moduli (GPa) = 72.40389 71.40060 60.08111
#
# Poissons Ratio (x) = 0.46177 -0.01171
# Poissons Ratio (y) = 0.46826 0.26974
# Poissons Ratio (z) = -0.01411 0.32056
#
# Static dielectric constant tensor:
#      x y z
#    x 1.896880 0.024440 0.012720 
#    y 0.024440 1.868200 -0.004640 
#    z 0.012720 -0.004640 1.864010 
# 
# From -- ./inp_files/597951.got.cif
#   From: 2010.05.17/outbox.cif.g08.bks.cpg/sg2_299_cif.got.tgz:597951.got - 2010.06.03 11:33:40.
