data_PCOD9018731
_publ_section_title
;
Structure prediction by ZEFSAII (Michael W. Deem and Ramdas Pophale) SiO2 
 PCOD9018731
Probable space group: P -1
;
_chemical_formula_sum "Si O2"
_cell_formula_units_Z 16
_cell_length_a 8.996649
_cell_length_b 15.959926
_cell_length_c 5.373831
_cell_angle_alpha 80.408558
_cell_angle_beta 104.045507
_cell_angle_gamma 77.403385
_cell_volume 710.606298
_symmetry_space_group_name_H-M "P -1"
_symmetry_group_IT_number 2
_symmetry_cell_setting 'triclinic'
loop_
_space_group_symop_operation_xyz
x,y,z
-x,-y,-z
loop_
_atom_site_type_symbol
_atom_site_label
_atom_site_fract_x
_atom_site_fract_y
_atom_site_fract_z
Si Si1 0.936526 0.128838 0.887590
Si Si2 0.436758 0.749879 0.912666
Si Si3 0.874966 0.914659 0.497858
Si Si4 0.762904 0.321852 0.739059
Si Si5 0.902282 0.487936 0.718837
Si Si6 0.330488 0.909800 0.439372
Si Si7 0.413056 0.362926 0.357034
Si Si8 0.624219 0.818851 0.347511
O O1 0.885850 0.231900 0.741857
O O2 0.776668 0.096466 0.841811
O O3 0.025517 0.075911 0.710506
O O4 0.027339 0.114887 0.192670
O O5 0.344244 0.818335 0.635961
O O6 0.563300 0.660232 0.913562
O O7 0.307001 0.715631 0.027187
O O8 0.540171 0.807209 0.061850
O O9 0.789162 0.841263 0.411431
O O10 0.748183 0.006098 0.471571
O O11 0.859509 0.394424 0.757785
O O12 0.593526 0.361680 0.508950
O O13 0.728368 0.557899 0.644022
O O14 0.000000 0.500000 0.500000
O O15 0.000000 0.500000 0.000000
O O16 0.506226 0.897251 0.415634
O O17 0.373920 0.274340 0.483440
#
# Coordination Sequence:
#
# PCOD9018731 Si02
#       8
#     2   2   2   2   2   2   2   2
#     4  12  26  44  68 104 141 196 237 299 361 426
#     4  10  21  43  81  98 140 192 261 283 343 430
#     4  12  29  40  70 104 152 186 240 307 369 407
#     4  11  25  48  76 101 142 198 242 285 355 443
#     4  12  32  48  76 116 150 176 228 307 365 433
#     4  11  23  46  68 103 139 196 250 297 346 431
#     4  10  24  48  76 102 141 194 242 286 352 441
#     4  10  24  43  71 101 141 193 243 296 355 431
#
# _framework density 22.515982999999999
#
# number of rings (size 3 to 8) (size 9 to 14) (size 15 to 20)
#    0.000    1.000    3.750    2.250   14.000    1.000 
#    0.000    0.000    0.000    0.000    0.000    0.000 
#    0.000    0.000    0.000    0.000    0.000    0.000 
#
# Total GULP energy -89254.156221 kJ/mol
# GULP energy per Si atom -5578.384764 kJ/mol
# Density = 2.246474 g / cm^3
# Si number density = 22.515983 Si / 1000 Ang^3
#
#
#
# Elastic Constant Matrix: (Units=GPa)
#
#
# Indices 1 2 3 4 5 6 
#
# 1 92.2302 43.9222 53.0298 20.0218 15.5182 7.8803
# 2 43.9222 134.7749 33.1042 6.1503 12.5841 -8.3772
# 3 53.0298 33.1042 94.2044 -4.6918 -20.3870 1.4204
# 4 20.0218 6.1503 -4.6918 5.4932 -29.4238 5.1757
# 5 15.5182 12.5841 -20.3870 -29.4238 -15.0858 9.1154
# 6 7.8803 -8.3772 1.4204 5.1757 9.1154 61.0799
#
#
#
# Elastic Compliance Matrix: (Units=1/GPa)
#
#
# Indices 1 2 3 4 5 6 
#
# 1 0.013703 -0.004643 -0.004012 0.002347 0.008760 -0.003818
# 2 -0.004643 0.009097 -0.000566 0.002561 -0.000390 0.001701
# 3 -0.004012 -0.000566 0.011475 -0.006897 -0.005683 0.001606
# 4 0.002347 0.002561 -0.006897 0.021349 -0.026358 0.002333
# 5 0.008760 -0.000390 -0.005683 -0.026358 0.002020 0.000881
# 6 -0.003818 0.001701 0.001606 0.002333 0.000881 0.016731
#
#
# Mechanical properties :
#
#
# Convention : Reuss Voigt Hill
#
# Bulk Modulus (GPa) = 63.15529 64.59129 63.87329
# Shear Modulus (GPa) = 50.97189 23.04101 37.00645
#
# Velocity S-wave (km/s) = 4.76311 3.20240 4.05849
# Velocity P-wave (km/s) = 7.63935 6.51329 7.09868
#
# Compressibility (1/GPa) = 0.01583399
#
# Stress axis : x y z
#
# Youngs Moduli (GPa) = 72.97790 109.92614 87.14725
#
# Poissons Ratio (x) = 0.51034 0.34963
# Poissons Ratio (y) = 0.33880 0.04931
# Poissons Ratio (z) = 0.29278 0.06220
#
# Static dielectric constant tensor:
#      x y z
#    x 1.857540 -0.040560 0.023820 
#    y -0.040560 1.881910 0.126700 
#    z 0.023820 0.126700 2.112140 
# 
# From -- ./inp_files/38181.got.cif
#   From: 2010.05.17/outbox.cif.g08.bks.cpg/sg2_20_cif.got.tgz:38181.got - 2010.06.03 11:33:40.
