data_PCOD9018952
_publ_section_title
;
Structure prediction by ZEFSAII (Michael W. Deem and Ramdas Pophale) SiO2 
 PCOD9018952
Probable space group: P -1
;
_chemical_formula_sum "Si O2"
_cell_formula_units_Z 14
_cell_length_a 30.092130
_cell_length_b 15.128299
_cell_length_c 12.592298
_cell_angle_alpha 149.028797
_cell_angle_beta 21.290813
_cell_angle_gamma 161.612958
_cell_volume 638.411441
_symmetry_space_group_name_H-M "P -1"
_symmetry_group_IT_number 2
_symmetry_cell_setting 'triclinic'
loop_
_space_group_symop_operation_xyz
x,y,z
-x,-y,-z
loop_
_atom_site_type_symbol
_atom_site_label
_atom_site_fract_x
_atom_site_fract_y
_atom_site_fract_z
Si Si1 0.572719 0.456319 0.385456
Si Si2 0.519995 0.430354 0.719540
Si Si3 0.806875 0.168547 0.466684
Si Si4 0.171491 0.526527 0.859235
Si Si5 0.944265 0.137514 0.764630
Si Si6 0.020378 0.263333 0.288745
Si Si7 0.793066 0.040178 0.778738
O O1 0.500000 0.500000 0.500000
O O2 0.532002 0.477908 0.615926
O O3 0.421170 0.122626 0.365628
O O4 0.809144 0.675371 0.068419
O O5 0.671161 0.444331 0.427448
O O6 0.601145 0.696403 0.868562
O O7 0.290481 0.117522 0.936494
O O8 0.855792 0.420980 0.639761
O O9 0.856724 0.124600 0.419412
O O10 0.973291 0.294179 0.138511
O O11 0.092888 0.403783 0.788528
O O12 0.259764 0.819245 0.976276
O O13 0.941629 0.199409 0.713604
O O14 0.000000 0.000000 0.500000
O O15 0.911990 0.100892 0.473824
#
# Coordination Sequence:
#
# PCOD9018952 Si02
#       7
#     2   2   2   2   2   2   2
#     4  12  25  38  67 101 136 178 223 273 340 407
#     4  12  26  47  70 101 140 179 225 287 339 397
#     4  10  21  44  66  97 136 174 223 276 338 401
#     4  11  24  48  73  98 139 181 226 285 337 401
#     4  12  26  48  73  97 141 180 227 285 338 403
#     4  10  23  42  68  98 136 174 219 282 334 400
#     4  11  26  46  70 105 135 181 231 275 342 406
#
# _framework density 21.929431000000001
#
# number of rings (size 3 to 8) (size 9 to 14) (size 15 to 20)
#    0.000    0.857    4.286    2.143    4.000    1.714 
#    5.143    0.000    0.000    0.000    0.000    0.000 
#    0.000    0.000    0.000    0.000    0.000    0.000 
#
# Total GULP energy -78366.686793 kJ/mol
# GULP energy per Si atom -5597.620485 kJ/mol
# Density = 2.187952 g / cm^3
# Si number density = 21.929431 Si / 1000 Ang^3
#
#
#
# Elastic Constant Matrix: (Units=GPa)
#
#
# Indices 1 2 3 4 5 6 
#
# 1 104.2502 -10.9650 -2.4575 -4.4292 15.9621 -0.0215
# 2 -10.9650 81.6002 4.4656 2.0296 -9.9640 8.3573
# 3 -2.4575 4.4656 55.7657 -8.0496 -2.2350 -2.6449
# 4 -4.4292 2.0296 -8.0496 28.9580 4.5319 0.4758
# 5 15.9621 -9.9640 -2.2350 4.5319 32.1134 3.7077
# 6 -0.0215 8.3573 -2.6449 0.4758 3.7077 34.1887
#
#
#
# Elastic Compliance Matrix: (Units=1/GPa)
#
#
# Indices 1 2 3 4 5 6 
#
# 1 0.010618 0.000615 0.000596 0.002594 -0.005464 0.000459
# 2 0.000615 0.013393 -0.001315 -0.001845 0.004461 -0.003833
# 3 0.000596 -0.001315 0.018922 0.005471 -0.000361 0.001749
# 4 0.002594 -0.001845 0.005471 0.037645 -0.006921 0.001103
# 5 -0.005464 0.004461 -0.000361 -0.006921 0.036770 -0.005013
# 6 0.000459 -0.003833 0.001749 0.001103 -0.005013 0.030850
#
#
# Mechanical properties :
#
#
# Convention : Reuss Voigt Hill
#
# Bulk Modulus (GPa) = 23.40504 24.85581 24.13043
# Shear Modulus (GPa) = 30.74150 35.75690 33.24920
#
# Velocity S-wave (km/s) = 3.74817 4.04238 3.89805
# Velocity P-wave (km/s) = 5.42474 5.75733 5.59351
#
# Compressibility (1/GPa) = 0.04272583
#
# Stress axis : x y z
#
# Youngs Moduli (GPa) = 94.17907 74.66747 52.84890
#
# Poissons Ratio (x) = -0.04595 -0.03149
# Poissons Ratio (y) = -0.05796 0.06948
# Poissons Ratio (z) = -0.05612 0.09817
#
# Static dielectric constant tensor:
#      x y z
#    x 1.772310 -0.018060 0.023240 
#    y -0.018060 1.829880 0.011890 
#    z 0.023240 0.011890 1.770120 
# 
# From -- ./inp_files/26810.got.cif
#   From: 2010.05.17/outbox.cif.g08.bks.cpg/sg2_14_cif.got.tgz:26810.got - 2010.06.03 11:33:40.
