data_PCOD9018851
_publ_section_title
;
Structure prediction by ZEFSAII (Michael W. Deem and Ramdas Pophale) SiO2 
 PCOD9018851
Probable space group: P -1
;
_chemical_formula_sum "Si O2"
_cell_formula_units_Z 16
_cell_length_a 6.936855
_cell_length_b 13.182044
_cell_length_c 11.937173
_cell_angle_alpha 114.722901
_cell_angle_beta 112.589838
_cell_angle_gamma 107.150583
_cell_volume 768.615389
_symmetry_space_group_name_H-M "P -1"
_symmetry_group_IT_number 2
_symmetry_cell_setting 'triclinic'
loop_
_space_group_symop_operation_xyz
x,y,z
-x,-y,-z
loop_
_atom_site_type_symbol
_atom_site_label
_atom_site_fract_x
_atom_site_fract_y
_atom_site_fract_z
Si Si1 0.362518 0.125003 0.798908
Si Si2 0.717885 0.374044 0.377168
Si Si3 0.368189 0.433210 0.198372
Si Si4 0.854582 0.208795 0.040652
Si Si5 0.164517 0.846655 0.744058
Si Si6 0.582829 0.695554 0.495795
Si Si7 0.446766 0.856929 0.395078
Si Si8 0.048176 0.236559 0.864210
O O1 0.410193 0.134320 0.682093
O O2 0.168111 0.163946 0.802574
O O3 0.277764 0.979902 0.759103
O O4 0.625025 0.221590 0.965217
O O5 0.557146 0.389699 0.253480
O O6 0.722928 0.242069 0.300151
O O7 0.580486 0.367033 0.458360
O O8 0.000000 0.500000 0.500000
O O9 0.116547 0.348369 0.178226
O O10 0.494460 0.585301 0.328260
O O11 0.258836 0.381122 0.026080
O O12 0.801008 0.124881 0.101599
O O13 0.905446 0.158394 0.911858
O O14 0.870484 0.758536 0.614171
O O15 0.535027 0.805244 0.490785
O O16 0.153385 0.762917 0.258535
O O17 0.500000 0.000000 0.500000
#
# Coordination Sequence:
#
# PCOD9018851 Si02
#       8
#     2   2   2   2   2   2   2   2
#     4  11  23  43  66  94 126 173 218 255 319 376
#     4  12  23  40  67  99 134 162 208 262 324 386
#     4  10  21  44  65  93 131 164 207 262 327 374
#     4   9  21  40  63  93 134 162 205 267 321 375
#     4  12  23  37  66 101 129 169 212 258 319 389
#     4  12  24  41  65  96 130 172 210 262 322 372
#     4  11  25  45  64  91 130 169 217 270 311 369
#     4   9  22  42  64  87 129 168 209 269 308 365
#
# _framework density 20.816652999999999
#
# number of rings (size 3 to 8) (size 9 to 14) (size 15 to 20)
#    0.750    0.500    2.500    3.750    0.000    5.000 
#    0.000    0.625    0.000    0.000    0.000    0.000 
#    0.000    0.000    0.000    0.000    0.000    0.000 
#
# Total GULP energy -89360.752373 kJ/mol
# GULP energy per Si atom -5585.047023 kJ/mol
# Density = 2.076927 g / cm^3
# Si number density = 20.816653 Si / 1000 Ang^3
#
#
#
# Elastic Constant Matrix: (Units=GPa)
#
#
# Indices 1 2 3 4 5 6 
#
# 1 93.7760 2.0128 6.7660 11.1047 -6.3067 -12.3392
# 2 2.0128 15.5387 -11.6644 4.8353 1.3581 -4.1594
# 3 6.7660 -11.6644 53.4869 2.7197 -2.9324 0.0479
# 4 11.1047 4.8353 2.7197 19.1774 2.0738 -0.4765
# 5 -6.3067 1.3581 -2.9324 2.0738 20.3895 7.6299
# 6 -12.3392 -4.1594 0.0479 -0.4765 7.6299 28.6169
#
#
#
# Elastic Compliance Matrix: (Units=1/GPa)
#
#
# Indices 1 2 3 4 5 6 
#
# 1 0.012380 0.001165 -0.000788 -0.007521 0.002654 0.004676
# 2 0.001165 0.092627 0.021046 -0.026017 -0.005762 0.015033
# 3 -0.000788 0.021046 0.023914 -0.008395 0.001885 0.002037
# 4 -0.007521 -0.026017 -0.008395 0.064891 -0.006867 -0.004099
# 5 0.002654 -0.005762 0.001885 -0.006867 0.056817 -0.014960
# 6 0.004676 0.015033 0.002037 -0.004099 -0.014960 0.043062
#
#
# Mechanical properties :
#
#
# Convention : Reuss Voigt Hill
#
# Bulk Modulus (GPa) = 5.82186 17.44781 11.63484
# Shear Modulus (GPa) = 16.22843 24.68257 20.45550
#
# Velocity S-wave (km/s) = 2.79514 3.44715 3.13813
# Velocity P-wave (km/s) = 3.63592 4.92379 4.32802
#
# Compressibility (1/GPa) = 0.17176648
#
# Stress axis : x y z
#
# Youngs Moduli (GPa) = 80.77575 10.79600 41.81641
#
# Poissons Ratio (x) = -0.01257 0.03296
# Poissons Ratio (y) = -0.09409 -0.88008
# Poissons Ratio (z) = 0.06367 -0.22722
#
# Static dielectric constant tensor:
#      x y z
#    x 1.730690 0.029510 0.002130 
#    y 0.029510 1.718510 0.018480 
#    z 0.002130 0.018480 1.762390 
# 
# From -- ./inp_files/367028.got.cif
#   From: 2010.05.17/outbox.cif.g08.bks.cpg/sg2_184_cif.got.tgz:367028.got - 2010.06.03 11:33:40.
