data_PCOD9018800
_publ_section_title
;
Structure prediction by ZEFSAII (Michael W. Deem and Ramdas Pophale) SiO2 
 PCOD9018800
Probable space group: P -1
;
_chemical_formula_sum "Si O2"
_cell_formula_units_Z 16
_cell_length_a 14.736176
_cell_length_b 7.754859
_cell_length_c 9.112961
_cell_angle_alpha 126.719513
_cell_angle_beta 122.512896
_cell_angle_gamma 60.260654
_cell_volume 680.012639
_symmetry_space_group_name_H-M "P -1"
_symmetry_group_IT_number 2
_symmetry_cell_setting 'triclinic'
loop_
_space_group_symop_operation_xyz
x,y,z
-x,-y,-z
loop_
_atom_site_type_symbol
_atom_site_label
_atom_site_fract_x
_atom_site_fract_y
_atom_site_fract_z
Si Si1 0.761410 0.754550 0.177026
Si Si2 0.135358 0.683321 0.408089
Si Si3 0.885966 0.390055 0.315571
Si Si4 0.594198 0.466656 0.777767
Si Si5 0.873920 0.747472 0.971743
Si Si6 0.932146 0.015495 0.755380
Si Si7 0.631704 0.253917 0.380016
Si Si8 0.256278 0.879058 0.110377
O O1 0.833016 0.622002 0.306879
O O2 0.678213 0.987737 0.270326
O O3 0.688694 0.597834 0.961140
O O4 0.844569 0.787082 0.136938
O O5 0.095952 0.636974 0.509631
O O6 0.105323 0.506977 0.182291
O O7 0.096817 0.916510 0.404920
O O8 0.266594 0.645836 0.523956
O O9 0.796895 0.252422 0.122834
O O10 0.005238 0.240272 0.287082
O O11 0.605558 0.339991 0.567289
O O12 0.475538 0.643664 0.760558
O O13 0.621881 0.266391 0.817841
O O14 0.764159 0.877868 0.851631
O O15 0.973078 0.854127 0.063420
O O16 0.822706 0.097846 0.801475
#
# Coordination Sequence:
#
# PCOD9018800 Si02
#       8
#     2   2   2   2   2   2   2   2
#     4  11  23  45  65  99 131 170 211 265 322 383
#     4  12  23  40  62  97 130 168 219 267 312 384
#     4  10  23  38  62  94 127 164 216 257 316 387
#     4  10  22  43  67  97 127 171 212 268 322 376
#     4  11  23  40  65  92 131 175 211 259 328 382
#     4  11  22  43  63  90 131 177 207 266 325 379
#     4  11  22  41  70  95 129 168 216 267 320 375
#     4  10  21  44  64  90 129 171 212 265 322 378
#
# _framework density 23.528974000000002
#
# number of rings (size 3 to 8) (size 9 to 14) (size 15 to 20)
#    0.000    1.250    2.500    4.875    1.750    1.000 
#    0.000   12.500    0.000    0.000    0.000    0.000 
#    0.000    0.000    0.000    0.000    0.000    0.000 
#
# Total GULP energy -89456.239555 kJ/mol
# GULP energy per Si atom -5591.014972 kJ/mol
# Density = 2.347542 g / cm^3
# Si number density = 23.528974 Si / 1000 Ang^3
#
#
#
# Elastic Constant Matrix: (Units=GPa)
#
#
# Indices 1 2 3 4 5 6 
#
# 1 33.1174 33.1672 15.8582 -9.3136 -8.9898 -2.3751
# 2 33.1672 218.0590 52.8223 -12.9171 -18.6309 -17.2348
# 3 15.8582 52.8223 97.6959 -16.3812 -18.6281 -8.7783
# 4 -9.3136 -12.9171 -16.3812 39.5676 -5.6997 -0.1438
# 5 -8.9898 -18.6309 -18.6281 -5.6997 33.4089 -8.4443
# 6 -2.3751 -17.2348 -8.7783 -0.1438 -8.4443 32.8390
#
#
#
# Elastic Compliance Matrix: (Units=1/GPa)
#
#
# Indices 1 2 3 4 5 6 
#
# 1 0.040555 -0.004342 -0.000248 0.009602 0.010857 0.003422
# 2 -0.004342 0.006136 -0.001877 0.000508 0.002035 0.002930
# 3 -0.000248 -0.001877 0.014778 0.006861 0.009679 0.005466
# 4 0.009602 0.000508 0.006861 0.032565 0.013894 0.006511
# 5 0.010857 0.002035 0.009679 0.013894 0.045875 0.016297
# 6 0.003422 0.002930 0.005466 0.006511 0.016297 0.037918
#
#
# Mechanical properties :
#
#
# Convention : Reuss Voigt Hill
#
# Bulk Modulus (GPa) = 20.60270 61.39639 40.99955
# Shear Modulus (GPa) = 24.16179 37.63140 30.89659
#
# Velocity S-wave (km/s) = 3.20800 4.00354 3.62764
# Velocity P-wave (km/s) = 4.74310 6.89360 5.91687
#
# Compressibility (1/GPa) = 0.04853732
#
# Stress axis : x y z
#
# Youngs Moduli (GPa) = 24.65763 162.96108 67.66883
#
# Poissons Ratio (x) = 0.70751 0.01678
# Poissons Ratio (y) = 0.10705 0.12699
# Poissons Ratio (z) = 0.00611 0.30582
#
# Static dielectric constant tensor:
#      x y z
#    x 1.863500 0.000190 0.001420 
#    y 0.000190 1.947610 0.006430 
#    z 0.001420 0.006430 1.955190 
# 
# From -- ./inp_files/329638.got.cif
#   From: 2010.05.17/outbox.cif.g08.bks.cpg/sg2_165_cif.got.tgz:329638.got - 2010.06.03 11:33:40.
