data_PCOD9018948
_publ_section_title
;
Structure prediction by ZEFSAII (Michael W. Deem and Ramdas Pophale) SiO2 
 PCOD9018948
Probable space group: P -1
;
_chemical_formula_sum "Si O2"
_cell_formula_units_Z 16
_cell_length_a 23.988102
_cell_length_b 8.185064
_cell_length_c 6.866133
_cell_angle_alpha 81.026985
_cell_angle_beta 51.234949
_cell_angle_gamma 48.043973
_cell_volume 696.920929
_symmetry_space_group_name_H-M "P -1"
_symmetry_group_IT_number 2
_symmetry_cell_setting 'triclinic'
loop_
_space_group_symop_operation_xyz
x,y,z
-x,-y,-z
loop_
_atom_site_type_symbol
_atom_site_label
_atom_site_fract_x
_atom_site_fract_y
_atom_site_fract_z
Si Si1 0.645785 0.907774 0.246757
Si Si2 0.373639 0.687525 0.722986
Si Si3 0.135092 0.502557 0.359906
Si Si4 0.149569 0.174954 0.683931
Si Si5 0.564220 0.708373 0.615901
Si Si6 0.690966 0.337293 0.713158
Si Si7 0.061754 0.544622 0.107891
Si Si8 0.112374 0.749274 0.715770
O O1 0.602986 0.831462 0.488122
O O2 0.667068 0.052678 0.268708
O O3 0.554979 0.090885 0.245688
O O4 0.751704 0.661340 0.956903
O O5 0.500000 0.500000 0.500000
O O6 0.367883 0.537819 0.620606
O O7 0.326822 0.704907 0.026873
O O8 0.153218 0.327704 0.509419
O O9 0.060681 0.569725 0.334817
O O10 0.093541 0.723081 0.540075
O O11 0.054164 0.238318 0.776224
O O12 0.260923 0.893492 0.479008
O O13 0.107294 0.295438 0.967242
O O14 0.585402 0.599603 0.804173
O O15 0.785295 0.309757 0.502148
O O16 0.136482 0.555534 0.845148
O O17 0.000000 0.000000 0.000000
#
# Coordination Sequence:
#
# PCOD9018948 Si02
#       8
#     2   2   2   2   2   2   2   2
#     4  10  21  44  66  97 135 172 234 281 329 420
#     4  10  23  44  66  99 135 173 232 284 330 411
#     4  11  22  41  65  92 129 182 222 272 348 394
#     4  10  22  39  63  96 133 165 230 278 319 417
#     4  10  24  43  67  97 136 178 224 286 345 398
#     4  12  23  43  67  98 135 180 219 280 348 393
#     4  10  22  42  63  93 131 180 220 273 338 397
#     4  11  24  42  62  97 138 169 228 280 325 414
#
# _framework density 22.958131000000002
#
# number of rings (size 3 to 8) (size 9 to 14) (size 15 to 20)
#    0.000    1.500    2.500    1.875    1.750    2.500 
#    2.250   10.000    0.000    0.000    0.000    0.000 
#    0.000    0.000    0.000    0.000    0.000    0.000 
#
# Total GULP energy -89299.522967 kJ/mol
# GULP energy per Si atom -5581.220185 kJ/mol
# Density = 2.290588 g / cm^3
# Si number density = 22.958131 Si / 1000 Ang^3
#
#
#
# Elastic Constant Matrix: (Units=GPa)
#
#
# Indices 1 2 3 4 5 6 
#
# 1 59.8888 33.5397 9.5094 -3.1862 12.4223 -3.7667
# 2 33.5397 69.1351 9.3286 -1.5492 11.2118 2.7092
# 3 9.5094 9.3286 62.6047 13.8008 10.4985 -3.7577
# 4 -3.1862 -1.5492 13.8008 29.7425 5.3023 -10.2703
# 5 12.4223 11.2118 10.4985 5.3023 45.2086 -4.3954
# 6 -3.7667 2.7092 -3.7577 -10.2703 -4.3954 23.3679
#
#
#
# Elastic Compliance Matrix: (Units=1/GPa)
#
#
# Indices 1 2 3 4 5 6 
#
# 1 0.024944 -0.011331 -0.002473 0.006288 -0.003523 0.007038
# 2 -0.011331 0.020636 -0.001073 -0.001079 -0.002141 -0.005268
# 3 -0.002473 -0.001073 0.018862 -0.009236 -0.002524 -0.001775
# 4 0.006288 -0.001079 -0.009236 0.045651 -0.002804 0.019190
# 5 -0.003523 -0.002141 -0.002524 -0.002804 0.024797 0.002706
# 6 0.007038 -0.005268 -0.001775 0.019190 0.002706 0.053197
#
#
# Mechanical properties :
#
#
# Convention : Reuss Voigt Hill
#
# Bulk Modulus (GPa) = 28.83016 32.93156 30.88086
# Shear Modulus (GPa) = 21.79576 28.94721 25.37148
#
# Velocity S-wave (km/s) = 3.08453 3.55472 3.32794
# Velocity P-wave (km/s) = 5.02700 5.58779 5.31480
#
# Compressibility (1/GPa) = 0.03468589
#
# Stress axis : x y z
#
# Youngs Moduli (GPa) = 40.08996 48.45976 53.01800
#
# Poissons Ratio (x) = 0.54909 0.13114
# Poissons Ratio (y) = 0.45426 0.05690
# Poissons Ratio (z) = 0.09916 0.05201
#
# Static dielectric constant tensor:
#      x y z
#    x 1.941640 0.036300 0.012890 
#    y 0.036300 1.962660 0.023830 
#    z 0.012890 0.023830 1.849420 
# 
# From -- ./inp_files/122907.got.cif
#   From: 2010.05.17/outbox.cif.g08.bks.cpg/sg2_62_cif.got.tgz:122907.got - 2010.06.03 11:33:40.
