data_PCOD9018685
_publ_section_title
;
Structure prediction by ZEFSAII (Michael W. Deem and Ramdas Pophale) SiO2 
 PCOD9018685
Probable space group: P -1
;
_chemical_formula_sum "Si O2"
_cell_formula_units_Z 13
_cell_length_a 12.572110
_cell_length_b 9.526316
_cell_length_c 9.389619
_cell_angle_alpha 120.973162
_cell_angle_beta 119.648178
_cell_angle_gamma 31.898709
_cell_volume 505.347276
_symmetry_space_group_name_H-M "P -1"
_symmetry_group_IT_number 2
_symmetry_cell_setting 'triclinic'
loop_
_space_group_symop_operation_xyz
x,y,z
-x,-y,-z
loop_
_atom_site_type_symbol
_atom_site_label
_atom_site_fract_x
_atom_site_fract_y
_atom_site_fract_z
Si Si1 0.352909 0.744862 0.414248
Si Si2 0.860550 0.566617 0.744621
Si Si3 0.231960 0.240126 0.677513
Si Si4 0.500000 0.000000 0.000000
Si Si5 0.656295 0.619047 0.390272
Si Si6 0.241013 0.049430 0.908206
Si Si7 0.961742 0.045189 0.164500
O O1 0.500000 0.500000 0.500000
O O2 0.474375 0.686209 0.326390
O O3 0.167206 0.830749 0.282271
O O4 0.259099 0.016064 0.555525
O O5 0.720937 0.594225 0.581021
O O6 0.989479 0.527873 0.689841
O O7 0.038005 0.293600 0.810062
O O8 0.737526 0.807914 0.902947
O O9 0.352620 0.205855 0.616064
O O10 0.325408 0.207361 0.868882
O O11 0.459288 0.838396 0.873715
O O12 0.839378 0.333514 0.284356
O O13 0.189829 0.942976 0.899812
O O14 0.000000 0.000000 0.000000
#
# Coordination Sequence:
#
# PCOD9018685 Si02
#       7
#     2   2   2   1   2   2   2
#     4  12  29  47  75 110 150 199 252 309 379 447
#     4  10  21  43  75 100 141 196 244 302 366 441
#     4  11  24  45  74 107 146 195 256 305 367 453
#     4  10  24  42  74 102 148 190 250 304 366 446
#     4  12  26  46  80 104 149 197 253 308 374 446
#     4  10  23  43  69 106 148 191 244 305 370 444
#     4  12  29  48  73 111 157 192 248 318 380 438
#
# _framework density 25.724883999999999
#
# number of rings (size 3 to 8) (size 9 to 14) (size 15 to 20)
#    0.000    0.923    1.538    3.692    8.615    5.538 
#    0.000    0.000    0.000    0.000    0.000    0.000 
#    0.000    0.000    0.000    0.000    0.000    0.000 
#
# Total GULP energy -72480.738962 kJ/mol
# GULP energy per Si atom -5575.441459 kJ/mol
# Density = 2.566633 g / cm^3
# Si number density = 25.724884 Si / 1000 Ang^3
#
#
#
# Elastic Constant Matrix: (Units=GPa)
#
#
# Indices 1 2 3 4 5 6 
#
# 1 124.2672 -2.0971 12.3862 -11.3533 34.5935 13.1535
# 2 -2.0971 62.0149 30.1666 7.9704 8.1679 -6.0838
# 3 12.3862 30.1666 136.9377 -1.8662 5.8319 0.2629
# 4 -11.3533 7.9704 -1.8662 31.0116 -19.5635 2.6156
# 5 34.5935 8.1679 5.8319 -19.5635 40.9593 0.7994
# 6 13.1535 -6.0838 0.2629 2.6156 0.7994 39.6582
#
#
#
# Elastic Compliance Matrix: (Units=1/GPa)
#
#
# Indices 1 2 3 4 5 6 
#
# 1 0.011454 0.002715 -0.001178 -0.003771 -0.011793 -0.002888
# 2 0.002715 0.022230 -0.004801 -0.013130 -0.012385 0.003657
# 3 -0.001178 -0.004801 0.008418 0.002640 0.002026 -0.000617
# 4 -0.003771 -0.013130 0.002640 0.054831 0.031714 -0.005037
# 5 -0.011793 -0.012385 0.002026 0.031714 0.051726 -0.001136
# 6 -0.002888 0.003657 -0.000617 -0.005037 -0.001136 0.027094
#
#
# Mechanical properties :
#
#
# Convention : Reuss Voigt Hill
#
# Bulk Modulus (GPa) = 28.11074 44.90346 36.50710
# Shear Modulus (GPa) = 25.75484 41.17675 33.46579
#
# Velocity S-wave (km/s) = 3.16755 4.00516 3.61073
# Velocity P-wave (km/s) = 4.93244 6.23551 5.62186
#
# Compressibility (1/GPa) = 0.03557359
#
# Stress axis : x y z
#
# Youngs Moduli (GPa) = 87.30243 44.98440 118.79795
#
# Poissons Ratio (x) = -0.12212 0.13991
# Poissons Ratio (y) = -0.23700 0.57037
# Poissons Ratio (z) = 0.10282 0.21598
#
# Static dielectric constant tensor:
#      x y z
#    x 1.843860 0.126600 -0.028280 
#    y 0.126600 2.059010 -0.005700 
#    z -0.028280 -0.005700 2.088080 
# 
# From -- ./inp_files/183905.got.cif
#   From: 2010.05.17/outbox.cif.g08.bks.cpg/sg2_92_cif.got.tgz:183905.got - 2010.06.03 11:33:40.
