data_PCOD9018560
_publ_section_title
;
Structure prediction by ZEFSAII (Michael W. Deem and Ramdas Pophale) SiO2 
 PCOD9018560
Probable space group: P -1
;
_chemical_formula_sum "Si O2"
_cell_formula_units_Z 14
_cell_length_a 10.079286
_cell_length_b 9.122226
_cell_length_c 21.630157
_cell_angle_alpha 28.406888
_cell_angle_beta 42.561246
_cell_angle_gamma 50.118478
_cell_volume 639.804085
_symmetry_space_group_name_H-M "P -1"
_symmetry_group_IT_number 2
_symmetry_cell_setting 'triclinic'
loop_
_space_group_symop_operation_xyz
x,y,z
-x,-y,-z
loop_
_atom_site_type_symbol
_atom_site_label
_atom_site_fract_x
_atom_site_fract_y
_atom_site_fract_z
Si Si1 0.532055 0.242512 0.299117
Si Si2 0.851786 0.837644 0.157840
Si Si3 0.913320 0.389721 0.506888
Si Si4 0.071523 0.002262 0.790668
Si Si5 0.464130 0.722962 0.258105
Si Si6 0.640110 0.801897 0.981392
Si Si7 0.880194 0.116991 0.438162
O O1 0.500237 0.456771 0.292099
O O2 0.746928 0.091195 0.280868
O O3 0.345485 0.011808 0.440184
O O4 0.549697 0.464579 0.150375
O O5 0.860530 0.007496 0.157955
O O6 0.654234 0.830359 0.189285
O O7 0.891895 0.480283 0.291189
O O8 0.000000 0.000000 0.000000
O O9 0.976056 0.642018 0.341179
O O10 0.682977 0.387189 0.597062
O O11 0.000000 0.500000 0.500000
O O12 0.001458 0.058036 0.589970
O O13 0.867519 0.815770 0.919344
O O14 0.375059 0.018637 0.144245
O O15 0.500000 0.000000 0.000000
O O16 0.000000 0.000000 0.500000
#
# Coordination Sequence:
#
# PCOD9018560 Si02
#       7
#     2   2   2   2   2   2   2
#     4  11  25  43  72 104 141 185 244 290 353 420
#     4  12  29  48  69 106 147 182 235 299 360 419
#     4  12  23  45  74 104 138 184 246 287 346 426
#     4  12  25  45  71 104 145 188 231 297 359 418
#     4  11  25  43  72 104 141 189 238 295 347 423
#     4  10  21  43  71  98 140 188 236 287 348 418
#     4  12  27  46  74 103 143 194 235 292 359 419
#
# _framework density 21.881696000000002
#
# number of rings (size 3 to 8) (size 9 to 14) (size 15 to 20)
#    0.000    0.571    4.286    3.857    6.000    3.429 
#    0.000    1.429    0.000    0.000    0.000    0.000 
#    0.000    0.000    0.000    0.000    0.000    0.000 
#
# Total GULP energy -78196.766625 kJ/mol
# GULP energy per Si atom -5585.483330 kJ/mol
# Density = 2.183189 g / cm^3
# Si number density = 21.881696 Si / 1000 Ang^3
#
#
#
# Elastic Constant Matrix: (Units=GPa)
#
#
# Indices 1 2 3 4 5 6 
#
# 1 129.2429 26.4296 33.6658 7.1248 -22.7901 -0.4937
# 2 26.4296 94.1079 20.7270 9.6818 -14.2929 -10.9714
# 3 33.6658 20.7270 128.4189 14.4008 -13.9312 -9.3823
# 4 7.1248 9.6818 14.4008 29.7754 -17.0530 0.7911
# 5 -22.7901 -14.2929 -13.9312 -17.0530 38.1001 10.4065
# 6 -0.4937 -10.9714 -9.3823 0.7911 10.4065 33.8353
#
#
#
# Elastic Compliance Matrix: (Units=1/GPa)
#
#
# Indices 1 2 3 4 5 6 
#
# 1 0.009651 -0.001949 -0.002091 0.003179 0.006564 -0.003164
# 2 -0.001949 0.012173 -0.000799 -0.002632 0.000987 0.003455
# 3 -0.002091 -0.000799 0.009028 -0.004130 -0.000796 0.002555
# 4 0.003179 -0.002632 -0.004130 0.050162 0.024792 -0.010750
# 5 0.006564 0.000987 -0.000796 0.024792 0.045256 -0.014304
# 6 -0.003164 0.003455 0.002555 -0.010750 -0.014304 0.035988
#
#
# Mechanical properties :
#
#
# Convention : Reuss Voigt Hill
#
# Bulk Modulus (GPa) = 47.22969 57.04606 52.13787
# Shear Modulus (GPa) = 27.93411 38.40531 33.16971
#
# Velocity S-wave (km/s) = 3.57683 4.19398 3.89764
# Velocity P-wave (km/s) = 6.22007 7.04126 6.64337
#
# Compressibility (1/GPa) = 0.02117312
#
# Stress axis : x y z
#
# Youngs Moduli (GPa) = 103.61890 82.14975 110.77122
#
# Poissons Ratio (x) = 0.16009 0.23163
# Poissons Ratio (y) = 0.20193 0.08853
# Poissons Ratio (z) = 0.21667 0.06565
#
# Static dielectric constant tensor:
#      x y z
#    x 1.782970 -0.038820 0.052070 
#    y -0.038820 1.789140 -0.017600 
#    z 0.052070 -0.017600 1.728760 
# 
# From -- ./inp_files/343790.got.cif
#   From: 2010.05.17/outbox.cif.g08.bks.cpg/sg2_172_cif.got.tgz:343790.got - 2010.06.03 11:33:40.
