data_PCOD9018886
_publ_section_title
;
Structure prediction by ZEFSAII (Michael W. Deem and Ramdas Pophale) SiO2 
 PCOD9018886
Probable space group: P -1
;
_chemical_formula_sum "Si O2"
_cell_formula_units_Z 14
_cell_length_a 9.554197
_cell_length_b 9.150156
_cell_length_c 7.257681
_cell_angle_alpha 124.956376
_cell_angle_beta 87.964366
_cell_angle_gamma 83.906461
_cell_volume 513.451742
_symmetry_space_group_name_H-M "P -1"
_symmetry_group_IT_number 2
_symmetry_cell_setting 'triclinic'
loop_
_space_group_symop_operation_xyz
x,y,z
-x,-y,-z
loop_
_atom_site_type_symbol
_atom_site_label
_atom_site_fract_x
_atom_site_fract_y
_atom_site_fract_z
Si Si1 0.764164 0.725915 0.469453
Si Si2 0.352104 0.497692 0.241671
Si Si3 0.793239 0.815532 0.109429
Si Si4 0.359091 0.726603 0.068223
Si Si5 0.491614 0.952806 0.749368
Si Si6 0.988379 0.956474 0.688480
Si Si7 0.197829 0.665062 0.687282
O O1 0.785862 0.735608 0.256361
O O2 0.837371 0.528307 0.384623
O O3 0.837985 0.888021 0.665696
O O4 0.597581 0.773096 0.562527
O O5 0.511042 0.413278 0.122219
O O6 0.333748 0.602842 0.507135
O O7 0.259500 0.333539 0.126229
O O8 0.298183 0.635372 0.179248
O O9 0.674452 0.995246 0.245835
O O10 0.943819 0.877138 0.105702
O O11 0.246633 0.761559 0.935200
O O12 0.434776 0.893118 0.245085
O O13 0.500000 0.000000 0.000000
O O14 0.088453 0.783919 0.645678
O O15 0.000000 0.000000 0.500000
#
# Coordination Sequence:
#
# PCOD9018886 Si02
#       7
#     2   2   2   2   2   2   2
#     4  11  23  43  68  98 137 177 223 282 333 394
#     4  10  22  40  67 102 139 171 223 277 333 402
#     4  10  21  44  66 100 137 177 221 277 334 403
#     4  10  22  40  63 104 139 171 222 274 339 399
#     4  11  23  41  67 101 136 174 228 271 335 405
#     4  10  25  44  68  96 135 179 230 275 341 400
#     4  12  23  42  70  95 134 180 226 278 335 397
#
# _framework density 27.266438000000001
#
# number of rings (size 3 to 8) (size 9 to 14) (size 15 to 20)
#    0.000    1.429    1.429    3.857    4.000    1.143 
#    0.000   10.714    0.000    0.000    0.000    0.000 
#    0.000    0.000    0.000    0.000    0.000    0.000 
#
# Total GULP energy -78451.817947 kJ/mol
# GULP energy per Si atom -5603.701282 kJ/mol
# Density = 2.720438 g / cm^3
# Si number density = 27.266438 Si / 1000 Ang^3
#
#
#
# Elastic Constant Matrix: (Units=GPa)
#
#
# Indices 1 2 3 4 5 6 
#
# 1 136.3426 35.2514 14.1486 -0.2579 16.0234 6.4334
# 2 35.2514 166.2494 38.5076 -4.6273 7.3650 -11.6679
# 3 14.1486 38.5076 76.2630 7.2288 19.1157 2.0649
# 4 -0.2579 -4.6273 7.2288 36.4050 5.1267 14.0311
# 5 16.0234 7.3650 19.1157 5.1267 29.7132 8.5015
# 6 6.4334 -11.6679 2.0649 14.0311 8.5015 50.2832
#
#
#
# Elastic Compliance Matrix: (Units=1/GPa)
#
#
# Indices 1 2 3 4 5 6 
#
# 1 0.008267 -0.001690 0.000298 0.000736 -0.004079 -0.000978
# 2 -0.001690 0.007344 -0.003742 0.000896 0.000863 0.001678
# 3 0.000298 -0.003742 0.017819 -0.002900 -0.010466 0.000941
# 4 0.000736 0.000896 -0.002900 0.031613 -0.001839 -0.008277
# 5 -0.004079 0.000863 -0.010466 -0.001839 0.044361 -0.005835
# 6 -0.000978 0.001678 0.000941 -0.008277 -0.005835 0.023660
#
#
# Mechanical properties :
#
#
# Convention : Reuss Voigt Hill
#
# Bulk Modulus (GPa) = 43.16824 61.63004 52.39914
# Shear Modulus (GPa) = 33.10128 42.67678 37.88903
#
# Velocity S-wave (km/s) = 3.48802 3.96052 3.73176
# Velocity P-wave (km/s) = 5.66464 6.60048 6.15038
#
# Compressibility (1/GPa) = 0.02316518
#
# Stress axis : x y z
#
# Youngs Moduli (GPa) = 120.96013 136.15693 56.11897
#
# Poissons Ratio (x) = 0.23004 -0.01675
# Poissons Ratio (y) = 0.20437 0.20998
# Poissons Ratio (z) = -0.03609 0.50946
#
# Static dielectric constant tensor:
#      x y z
#    x 2.090530 -0.007390 0.014510 
#    y -0.007390 2.144520 0.029870 
#    z 0.014510 0.029870 2.089210 
# 
# From -- ./inp_files/158660.got.cif
#   From: 2010.05.17/outbox.cif.g08.bks.cpg/sg2_80_cif.got.tgz:158660.got - 2010.06.03 11:33:40.
