data_PCOD9018327
_publ_section_title
;
Structure prediction by ZEFSAII (Michael W. Deem and Ramdas Pophale) SiO2 
 PCOD9018327
Probable space group: P -1
;
_chemical_formula_sum "Si O2"
_cell_formula_units_Z 14
_cell_length_a 8.105522
_cell_length_b 5.910637
_cell_length_c 17.011478
_cell_angle_alpha 103.311108
_cell_angle_beta 106.783193
_cell_angle_gamma 48.988825
_cell_volume 587.850131
_symmetry_space_group_name_H-M "P -1"
_symmetry_group_IT_number 2
_symmetry_cell_setting 'triclinic'
loop_
_space_group_symop_operation_xyz
x,y,z
-x,-y,-z
loop_
_atom_site_type_symbol
_atom_site_label
_atom_site_fract_x
_atom_site_fract_y
_atom_site_fract_z
Si Si1 0.260753 0.167287 0.684357
Si Si2 0.074455 0.673113 0.473337
Si Si3 0.512123 0.773334 0.424126
Si Si4 0.370485 0.537697 0.276684
Si Si5 0.079684 0.320620 0.832573
Si Si6 0.832174 0.354792 0.023822
Si Si7 0.449954 0.628256 0.877188
O O1 0.371669 0.232539 0.639284
O O2 0.195182 0.330106 0.771632
O O3 0.024232 0.301680 0.623063
O O4 0.437753 0.805882 0.694133
O O5 0.324221 0.507624 0.521178
O O6 0.000000 0.500000 0.500000
O O7 0.000000 0.000000 0.500000
O O8 0.329162 0.763595 0.358074
O O9 0.500000 0.000000 0.500000
O O10 0.469462 0.548716 0.208403
O O11 0.145220 0.604953 0.223870
O O12 0.038255 0.537988 0.913557
O O13 0.261356 0.979906 0.860317
O O14 0.663780 0.433832 0.077859
O O15 0.671512 0.538926 0.942709
O O16 0.000000 0.000000 0.000000
#
# Coordination Sequence:
#
# PCOD9018327 Si02
#       7
#     2   2   2   2   2   2   2
#     4  10  24  44  66  97 137 183 234 294 352 423
#     4  10  21  43  69  98 138 191 243 304 368 431
#     4  11  25  44  69 100 138 187 239 299 357 429
#     4  11  24  44  69 101 138 178 236 289 350 426
#     4  11  25  43  71 100 137 182 228 285 351 421
#     4  11  24  44  72 103 137 176 226 281 354 426
#     4  10  24  45  69 100 137 181 224 284 342 426
#
# _framework density 23.815593
#
# number of rings (size 3 to 8) (size 9 to 14) (size 15 to 20)
#    0.000    1.429    1.429    2.143    2.000   12.000 
#    2.571    0.000    0.000    0.000    0.000    0.000 
#    0.000    0.000    0.000    0.000    0.000    0.000 
#
# Total GULP energy -78002.583196 kJ/mol
# GULP energy per Si atom -5571.613085 kJ/mol
# Density = 2.376139 g / cm^3
# Si number density = 23.815593 Si / 1000 Ang^3
#
#
#
# Elastic Constant Matrix: (Units=GPa)
#
#
# Indices 1 2 3 4 5 6 
#
# 1 116.7641 12.1663 59.4835 -2.0684 11.8054 -4.4205
# 2 12.1663 82.4805 78.5929 3.4826 9.4130 -5.1208
# 3 59.4835 78.5929 238.1040 5.3003 40.4288 -7.6790
# 4 -2.0684 3.4826 5.3003 53.0884 5.0074 1.8509
# 5 11.8054 9.4130 40.4288 5.0074 43.6276 4.2277
# 6 -4.4205 -5.1208 -7.6790 1.8509 4.2277 12.7608
#
#
#
# Elastic Compliance Matrix: (Units=1/GPa)
#
#
# Indices 1 2 3 4 5 6 
#
# 1 0.010007 0.001367 -0.002753 0.000559 -0.000761 0.002530
# 2 0.001367 0.018151 -0.006446 -0.000751 0.001433 0.003513
# 3 -0.002753 -0.006446 0.008080 -0.000070 -0.005655 0.003206
# 4 0.000559 -0.000751 -0.000070 0.019174 -0.001902 -0.002301
# 5 -0.000761 0.001433 -0.005655 -0.001902 0.029496 -0.012588
# 6 0.002530 0.003513 0.003206 -0.002301 -0.012588 0.087084
#
#
# Mechanical properties :
#
#
# Convention : Reuss Voigt Hill
#
# Bulk Modulus (GPa) = 48.60297 81.98156 65.29226
# Shear Modulus (GPa) = 25.70504 41.03576 33.37040
#
# Velocity S-wave (km/s) = 3.28889 4.15548 3.74732
# Velocity P-wave (km/s) = 5.90548 7.58434 6.79695
#
# Compressibility (1/GPa) = 0.02057487
#
# Stress axis : x y z
#
# Youngs Moduli (GPa) = 99.93180 55.09346 123.75570
#
# Poissons Ratio (x) = -0.07534 0.34069
# Poissons Ratio (y) = -0.13665 0.79775
# Poissons Ratio (z) = 0.27510 0.35514
#
# Static dielectric constant tensor:
#      x y z
#    x 2.019990 0.014890 -0.008580 
#    y 0.014890 1.962560 0.047140 
#    z -0.008580 0.047140 1.905640 
# 
# From -- ./inp_files/553753.got.cif
#   From: 2010.05.17/outbox.cif.g08.bks.cpg/sg2_277_cif.got.tgz:553753.got - 2010.06.03 11:33:40.
