data_PCOD9018008
_publ_section_title
;
Structure prediction by ZEFSAII (Michael W. Deem and Ramdas Pophale) SiO2 
 PCOD9018008
Probable space group: P -1
;
_chemical_formula_sum "Si O2"
_cell_formula_units_Z 16
_cell_length_a 11.875074
_cell_length_b 12.660125
_cell_length_c 14.378281
_cell_angle_alpha 45.076208
_cell_angle_beta 31.104100
_cell_angle_gamma 33.435364
_cell_volume 615.023772
_symmetry_space_group_name_H-M "P -1"
_symmetry_group_IT_number 2
_symmetry_cell_setting 'triclinic'
loop_
_space_group_symop_operation_xyz
x,y,z
-x,-y,-z
loop_
_atom_site_type_symbol
_atom_site_label
_atom_site_fract_x
_atom_site_fract_y
_atom_site_fract_z
Si Si1 0.379654 0.739472 0.715386
Si Si2 0.061612 0.920301 0.649141
Si Si3 0.143804 0.652543 0.091337
Si Si4 0.800912 0.716822 0.968960
Si Si5 0.870047 0.720170 0.431007
Si Si6 0.401541 0.145105 0.769777
Si Si7 0.685927 0.721869 0.843862
Si Si8 0.154372 0.680166 0.435925
O O1 0.124861 0.875880 0.741704
O O2 0.563432 0.807713 0.558182
O O3 0.570305 0.526024 0.665327
O O4 0.282554 0.726022 0.892323
O O5 0.355379 0.847217 0.441091
O O6 0.957229 0.800633 0.772008
O O7 0.847821 0.147542 0.637493
O O8 0.349557 0.421540 0.090158
O O9 0.026495 0.727113 0.229839
O O10 0.888154 0.707761 0.170949
O O11 0.651635 0.722235 0.978404
O O12 0.632885 0.831817 0.109112
O O13 0.000000 0.500000 0.000000
O O14 0.938053 0.775180 0.442761
O O15 0.000000 0.500000 0.500000
O O16 0.489828 0.938029 0.813181
O O17 0.996820 0.648218 0.643535
#
# Coordination Sequence:
#
# PCOD9018008 Si02
#       8
#     2   2   2   2   2   2   2   2
#     4  11  22  40  69  93 134 176 211 278 323 385
#     4  11  24  45  68  96 134 171 223 268 333 392
#     4  12  22  43  67  99 137 173 221 268 330 389
#     4  12  25  45  68 101 131 172 222 271 334 393
#     4  10  21  43  67  98 136 172 224 267 327 392
#     4  11  24  43  66  97 133 175 215 274 326 390
#     4  11  23  45  66  94 139 170 216 281 320 385
#     4  10  24  44  67  99 130 179 219 272 327 387
#
# _framework density 26.015253000000001
#
# number of rings (size 3 to 8) (size 9 to 14) (size 15 to 20)
#    0.000    1.000    6.250    0.375    1.750    5.000 
#    4.500    0.625    0.000    0.000    0.000    0.000 
#    0.000    0.000    0.000    0.000    0.000    0.000 
#
# Total GULP energy -89673.648163 kJ/mol
# GULP energy per Si atom -5604.603010 kJ/mol
# Density = 2.595604 g / cm^3
# Si number density = 26.015253 Si / 1000 Ang^3
#
#
#
# Elastic Constant Matrix: (Units=GPa)
#
#
# Indices 1 2 3 4 5 6 
#
# 1 72.2634 -4.4474 6.6066 5.0195 10.5646 -1.2597
# 2 -4.4474 97.2373 14.0683 -22.2622 -11.5472 2.0393
# 3 6.6066 14.0683 164.7479 5.5230 16.5471 5.5547
# 4 5.0195 -22.2622 5.5230 32.2882 4.5940 0.5882
# 5 10.5646 -11.5472 16.5471 4.5940 49.5534 -2.9355
# 6 -1.2597 2.0393 5.5547 0.5882 -2.9355 30.6947
#
#
#
# Elastic Compliance Matrix: (Units=1/GPa)
#
#
# Indices 1 2 3 4 5 6 
#
# 1 0.014403 -0.000074 -0.000240 -0.001856 -0.002811 0.000406
# 2 -0.000074 0.012863 -0.001647 0.008783 0.002721 -0.000468
# 3 -0.000240 -0.001647 0.006570 -0.001853 -0.002431 -0.001286
# 4 -0.001856 0.008783 -0.001853 0.037724 -0.000501 -0.001095
# 5 -0.002811 0.002721 -0.002431 -0.000501 0.022408 0.002296
# 6 0.000406 -0.000468 -0.001286 -0.001095 0.002296 0.033100
#
#
# Mechanical properties :
#
#
# Convention : Reuss Voigt Hill
#
# Bulk Modulus (GPa) = 33.43108 40.74484 37.08796
# Shear Modulus (GPa) = 35.47065 43.70865 39.58965
#
# Velocity S-wave (km/s) = 3.69651 4.10337 3.90524
# Velocity P-wave (km/s) = 5.57650 6.17625 5.88402
#
# Compressibility (1/GPa) = 0.02991228
#
# Stress axis : x y z
#
# Youngs Moduli (GPa) = 69.43125 77.74235 152.21048
#
# Poissons Ratio (x) = 0.00574 0.03658
# Poissons Ratio (y) = 0.00513 0.25076
# Poissons Ratio (z) = 0.01669 0.12808
#
# Static dielectric constant tensor:
#      x y z
#    x 2.029520 0.019630 -0.070000 
#    y 0.019630 2.075730 0.022740 
#    z -0.070000 0.022740 2.008980 
# 
# From -- ./inp_files/534233.got.cif
#   From: 2010.05.17/outbox.cif.g08.bks.cpg/sg2_268_cif.got.tgz:534233.got - 2010.06.03 11:33:40.
