data_PCOD9018672
_publ_section_title
;
Structure prediction by ZEFSAII (Michael W. Deem and Ramdas Pophale) SiO2 
 PCOD9018672
Probable space group: P -1
;
_chemical_formula_sum "Si O2"
_cell_formula_units_Z 16
_cell_length_a 14.858438
_cell_length_b 9.260132
_cell_length_c 14.869171
_cell_angle_alpha 37.283728
_cell_angle_beta 59.803531
_cell_angle_gamma 40.744303
_cell_volume 782.663616
_symmetry_space_group_name_H-M "P -1"
_symmetry_group_IT_number 2
_symmetry_cell_setting 'triclinic'
loop_
_space_group_symop_operation_xyz
x,y,z
-x,-y,-z
loop_
_atom_site_type_symbol
_atom_site_label
_atom_site_fract_x
_atom_site_fract_y
_atom_site_fract_z
Si Si1 0.225006 0.813169 0.401152
Si Si2 0.251720 0.648664 0.675842
Si Si3 0.430141 0.377686 0.140106
Si Si4 0.145446 0.314351 0.467666
Si Si5 0.987264 0.242704 0.156713
Si Si6 0.447917 0.826171 0.311611
Si Si7 0.102205 0.819482 0.125364
Si Si8 0.621051 0.844865 0.444738
O O1 0.198698 0.760488 0.542518
O O2 0.294714 0.967743 0.287270
O O3 0.341550 0.448152 0.484105
O O4 0.094285 0.012031 0.299383
O O5 0.165014 0.596150 0.805319
O O6 0.420786 0.340913 0.739569
O O7 0.220458 0.953212 0.583321
O O8 0.262698 0.675190 0.102556
O O9 0.429800 0.113820 0.224092
O O10 0.549327 0.154288 0.266892
O O11 0.500000 0.500000 0.000000
O O12 0.124378 0.507936 0.294433
O O13 0.241321 0.299777 0.498185
O O14 0.000000 0.500000 0.500000
O O15 0.029983 0.041184 0.142381
O O16 0.000000 0.500000 0.000000
O O17 0.500000 0.500000 0.500000
O O18 0.000000 0.000000 0.000000
O O19 0.500000 0.000000 0.500000
#
# Coordination Sequence:
#
# PCOD9018672 Si02
#       8
#     2   2   2   2   2   2   2   2
#     4  11  22  45  74 101 135 188 240 292 351 424
#     4  11  23  44  73 103 135 180 240 286 354 427
#     4  12  27  45  72 107 142 185 242 298 364 422
#     4  12  24  44  73 104 138 184 242 294 349 423
#     4  12  28  45  65 102 145 187 234 290 359 427
#     4  10  21  43  74 103 133 181 233 289 352 426
#     4  12  28  49  69 101 147 189 230 294 369 428
#     4  12  22  44  73 103 140 184 243 296 347 425
#
# _framework density 20.443010000000001
#
# number of rings (size 3 to 8) (size 9 to 14) (size 15 to 20)
#    0.000    0.500    6.250    2.625    7.000    0.000 
#    0.000    0.625    0.000    0.000    0.000    0.000 
#    0.000    0.000    0.000    0.000    0.000    0.000 
#
# Total GULP energy -89213.050541 kJ/mol
# GULP energy per Si atom -5575.815659 kJ/mol
# Density = 2.039648 g / cm^3
# Si number density = 20.443010 Si / 1000 Ang^3
#
#
#
# Elastic Constant Matrix: (Units=GPa)
#
#
# Indices 1 2 3 4 5 6 
#
# 1 94.8331 39.9277 30.8912 14.7376 -0.8590 -7.9807
# 2 39.9277 130.0481 20.7230 16.9131 -19.7381 -9.7591
# 3 30.8912 20.7230 107.7386 18.4596 -16.6625 -5.3189
# 4 14.7376 16.9131 18.4596 24.8210 -8.1435 -6.5738
# 5 -0.8590 -19.7381 -16.6625 -8.1435 37.5193 2.2920
# 6 -7.9807 -9.7591 -5.3189 -6.5738 2.2920 46.6418
#
#
#
# Elastic Compliance Matrix: (Units=1/GPa)
#
#
# Indices 1 2 3 4 5 6 
#
# 1 0.013844 -0.003727 -0.003063 -0.004513 -0.004033 0.000802
# 2 -0.003727 0.009934 0.000453 -0.003165 0.004605 0.000820
# 3 -0.003063 0.000453 0.011709 -0.005886 0.004098 -0.000125
# 4 -0.004513 -0.003165 -0.005886 0.053078 0.006830 0.005040
# 5 -0.004033 0.004605 0.004098 0.006830 0.032278 0.000117
# 6 0.000802 0.000820 -0.000125 0.005040 0.000117 0.022439
#
#
# Mechanical properties :
#
#
# Convention : Reuss Voigt Hill
#
# Bulk Modulus (GPa) = 43.83815 57.30039 50.56927
# Shear Modulus (GPa) = 30.56943 37.86829 34.21886
#
# Velocity S-wave (km/s) = 3.87117 4.30860 4.09573
# Velocity P-wave (km/s) = 6.43987 7.26927 6.86710
#
# Compressibility (1/GPa) = 0.02281118
#
# Stress axis : x y z
#
# Youngs Moduli (GPa) = 72.23164 100.66762 85.40302
#
# Poissons Ratio (x) = 0.37523 0.26163
# Poissons Ratio (y) = 0.26924 -0.03868
# Poissons Ratio (z) = 0.22128 -0.04559
#
# Static dielectric constant tensor:
#      x y z
#    x 1.751340 0.002360 -0.028030 
#    y 0.002360 1.734890 -0.017400 
#    z -0.028030 -0.017400 1.633360 
# 
# From -- ./inp_files/393232.got.cif
#   From: 2010.05.17/outbox.cif.g08.bks.cpg/sg2_197_cif.got.tgz:393232.got - 2010.06.03 11:33:40.
