data_PCOD9018729
_publ_section_title
;
Structure prediction by ZEFSAII (Michael W. Deem and Ramdas Pophale) SiO2 
 PCOD9018729
Probable space group: P -1
;
_chemical_formula_sum "Si O2"
_cell_formula_units_Z 16
_cell_length_a 7.439508
_cell_length_b 16.827939
_cell_length_c 6.090915
_cell_angle_alpha 103.091783
_cell_angle_beta 80.468842
_cell_angle_gamma 79.264107
_cell_volume 712.303745
_symmetry_space_group_name_H-M "P -1"
_symmetry_group_IT_number 2
_symmetry_cell_setting 'triclinic'
loop_
_space_group_symop_operation_xyz
x,y,z
-x,-y,-z
loop_
_atom_site_type_symbol
_atom_site_label
_atom_site_fract_x
_atom_site_fract_y
_atom_site_fract_z
Si Si1 0.246989 0.680242 0.516573
Si Si2 0.557896 0.046667 0.224051
Si Si3 0.573396 0.685021 0.762977
Si Si4 0.705228 0.194665 0.774368
Si Si5 0.650705 0.873283 0.329709
Si Si6 0.909933 0.096078 0.047796
Si Si7 0.894914 0.767526 0.865000
Si Si8 0.595314 0.500438 0.733799
O O1 0.453247 0.681990 0.566872
O O2 0.210824 0.753112 0.388908
O O3 0.256243 0.588617 0.360036
O O4 0.092523 0.700333 0.753816
O O5 0.372176 0.106569 0.398227
O O6 0.700810 0.104764 0.185730
O O7 0.658640 0.965242 0.294913
O O8 0.500000 0.000000 0.000000
O O9 0.741230 0.731700 0.744296
O O10 0.650191 0.589732 0.770141
O O11 0.420837 0.735809 0.996638
O O12 0.555400 0.142328 0.694924
O O13 0.868878 0.131667 0.833133
O O14 0.797226 0.797417 0.139320
O O15 0.040274 0.149110 0.166259
O O16 0.000000 0.000000 0.000000
O O17 0.500000 0.500000 0.500000
O O18 0.500000 0.500000 0.000000
#
# Coordination Sequence:
#
# PCOD9018729 Si02
#       8
#     2   2   2   2   2   2   2   2
#     4  11  23  45  75 104 148 183 234 300 359 438
#     4  11  22  44  67  87 127 181 232 298 360 416
#     4  10  23  45  73 102 147 186 235 292 369 431
#     4  11  22  43  69  96 140 188 231 292 365 424
#     4  10  23  40  64  96 123 177 241 286 358 426
#     4  12  24  44  66  97 145 179 242 302 354 423
#     4  11  24  45  68 105 140 186 238 296 357 433
#     4  10  21  43  79 113 148 195 243 295 377 449
#
# _framework density 22.462326000000001
#
# number of rings (size 3 to 8) (size 9 to 14) (size 15 to 20)
#    0.000    1.250    5.000    0.750    0.000    0.500 
#    6.750    3.125    0.000    3.750    0.000    0.000 
#    0.000    0.000    0.000    0.000    0.000    0.000 
#
# Total GULP energy -89131.316926 kJ/mol
# GULP energy per Si atom -5570.707308 kJ/mol
# Density = 2.241120 g / cm^3
# Si number density = 22.462326 Si / 1000 Ang^3
#
#
#
# Elastic Constant Matrix: (Units=GPa)
#
#
# Indices 1 2 3 4 5 6 
#
# 1 106.3883 40.0968 42.3694 0.5972 1.3828 10.1552
# 2 40.0968 160.8178 57.6060 8.7872 2.7664 -0.8059
# 3 42.3694 57.6060 103.8015 15.9417 -15.6392 -1.7397
# 4 0.5972 8.7872 15.9417 44.9731 -3.5662 1.1488
# 5 1.3828 2.7664 -15.6392 -3.5662 27.3153 7.7271
# 6 10.1552 -0.8059 -1.7397 1.1488 7.7271 24.0292
#
#
#
# Elastic Compliance Matrix: (Units=1/GPa)
#
#
# Indices 1 2 3 4 5 6 
#
# 1 0.012389 -0.001450 -0.004856 0.001852 -0.001539 -0.005229
# 2 -0.001450 0.008293 -0.004515 -0.000359 -0.003919 0.001842
# 3 -0.004856 -0.004515 0.016156 -0.004045 0.009353 0.000256
# 4 0.001852 -0.000359 -0.004045 0.023905 0.001516 -0.002718
# 5 -0.001539 -0.003919 0.009353 0.001516 0.046554 -0.013847
# 6 -0.005229 0.001842 0.000256 -0.002718 -0.013847 0.048489
#
#
# Mechanical properties :
#
#
# Convention : Reuss Voigt Hill
#
# Bulk Modulus (GPa) = 65.80816 72.35022 69.07919
# Shear Modulus (GPa) = 27.39812 34.65922 31.02867
#
# Velocity S-wave (km/s) = 3.49626 3.93236 3.72070
# Velocity P-wave (km/s) = 6.75716 7.27306 7.01985
#
# Compressibility (1/GPa) = 0.01519568
#
# Stress axis : x y z
#
# Youngs Moduli (GPa) = 80.71793 120.57729 61.89579
#
# Poissons Ratio (x) = 0.17489 0.30056
# Poissons Ratio (y) = 0.11707 0.27947
# Poissons Ratio (z) = 0.39195 0.54442
#
# Static dielectric constant tensor:
#      x y z
#    x 1.883880 -0.034950 0.000480 
#    y -0.034950 1.851470 -0.047530 
#    z 0.000480 -0.047530 1.991590 
# 
# From -- ./inp_files/48581.got.cif
#   From: 2010.05.17/outbox.cif.g08.bks.cpg/sg2_25_cif.got.tgz:48581.got - 2010.06.03 11:33:40.
