data_PCOD9018342
_publ_section_title
;
Structure prediction by ZEFSAII (Michael W. Deem and Ramdas Pophale) SiO2 
 PCOD9018342
Probable space group: P -1
;
_chemical_formula_sum "Si O2"
_cell_formula_units_Z 14
_cell_length_a 5.650928
_cell_length_b 14.239654
_cell_length_c 23.034266
_cell_angle_alpha 158.912546
_cell_angle_beta 111.845582
_cell_angle_gamma 77.233063
_cell_volume 573.088637
_symmetry_space_group_name_H-M "P -1"
_symmetry_group_IT_number 2
_symmetry_cell_setting 'triclinic'
loop_
_space_group_symop_operation_xyz
x,y,z
-x,-y,-z
loop_
_atom_site_type_symbol
_atom_site_label
_atom_site_fract_x
_atom_site_fract_y
_atom_site_fract_z
Si Si1 0.347746 0.976367 0.563140
Si Si2 0.728164 0.597514 0.662340
Si Si3 0.927830 0.654597 0.528022
Si Si4 0.192153 0.803765 0.169638
Si Si5 0.859054 0.170736 0.945234
Si Si6 0.538874 0.441569 0.758981
Si Si7 0.105642 0.584840 0.783087
O O1 0.420729 0.776339 0.408511
O O2 0.053702 0.756766 0.430130
O O3 0.558800 0.069842 0.689368
O O4 0.370143 0.250227 0.686882
O O5 0.408840 0.482979 0.585797
O O6 0.872178 0.395986 0.531282
O O7 0.920797 0.704829 0.798273
O O8 0.771744 0.841691 0.760180
O O9 0.000000 0.500000 0.500000
O O10 0.969586 0.981722 0.724594
O O11 0.284854 0.785632 0.101149
O O12 0.000000 0.500000 0.000000
O O13 0.831225 0.296876 0.077829
O O14 0.182336 0.342702 0.063744
O O15 0.408210 0.622447 0.812923
#
# Coordination Sequence:
#
# PCOD9018342 Si02
#       7
#     2   2   2   2   2   2   2
#     4  10  21  43  69  99 143 197 251 305 388 455
#     4  12  27  49  80 110 152 208 258 308 384 463
#     4  12  27  50  80 111 159 205 254 315 387 457
#     4  12  24  49  76 110 151 201 258 322 386 456
#     4  11  26  43  70 111 147 193 250 322 369 456
#     4  10  22  43  69 101 147 193 249 314 378 455
#     4  11  24  43  71 105 147 196 254 312 386 450
#
# _framework density 24.429029
#
# number of rings (size 3 to 8) (size 9 to 14) (size 15 to 20)
#    0.000    0.857    4.286    2.143    4.000    0.571 
#    2.571    1.429    0.000    0.000    0.000    0.000 
#    0.000    0.000    0.000    0.000    0.000    0.000 
#
# Total GULP energy -78147.279720 kJ/mol
# GULP energy per Si atom -5581.948551 kJ/mol
# Density = 2.437343 g / cm^3
# Si number density = 24.429029 Si / 1000 Ang^3
#
#
#
# Elastic Constant Matrix: (Units=GPa)
#
#
# Indices 1 2 3 4 5 6 
#
# 1 48.0915 44.2441 11.5326 -22.1395 -25.8862 -13.9629
# 2 44.2441 150.4665 46.7145 -2.6128 18.9263 -15.0748
# 3 11.5326 46.7145 102.6611 -11.5099 -11.7506 -1.2750
# 4 -22.1395 -2.6128 -11.5099 44.9653 -16.2409 8.4183
# 5 -25.8862 18.9263 -11.7506 -16.2409 -5.6928 3.9284
# 6 -13.9629 -15.0748 -1.2750 8.4183 3.9284 35.5181
#
#
#
# Elastic Compliance Matrix: (Units=1/GPa)
#
#
# Indices 1 2 3 4 5 6 
#
# 1 0.010783 0.001268 -0.004326 -0.004043 -0.019047 0.007687
# 2 0.001268 0.005882 -0.001489 0.003326 0.008232 0.001243
# 3 -0.004326 -0.001489 0.010263 -0.000985 -0.004502 -0.001233
# 4 -0.004043 0.003326 -0.000985 0.015472 -0.014256 -0.002304
# 5 -0.019047 0.008232 -0.004502 -0.014256 -0.011389 0.000483
# 6 0.007687 0.001243 -0.001233 -0.002304 0.000483 0.032152
#
#
# Mechanical properties :
#
#
# Convention : Reuss Voigt Hill
#
# Bulk Modulus (GPa) = 56.07036 56.24464 56.15750
# Shear Modulus (GPa) = 63.93722 28.20663 46.07193
#
# Velocity S-wave (km/s) = 5.12147 3.40168 4.34746
# Velocity P-wave (km/s) = 7.61412 6.20502 6.94540
#
# Compressibility (1/GPa) = 0.01783474
#
# Stress axis : x y z
#
# Youngs Moduli (GPa) = 92.74024 170.00692 97.43633
#
# Poissons Ratio (x) = -0.21559 0.42153
# Poissons Ratio (y) = -0.11761 0.14504
# Poissons Ratio (z) = 0.40122 0.25306
#
# Static dielectric constant tensor:
#      x y z
#    x 2.010540 0.059460 -0.019410 
#    y 0.059460 1.962870 -0.011610 
#    z -0.019410 -0.011610 1.950270 
# 
# From -- ./inp_files/124186.got.cif
#   From: 2010.05.17/outbox.cif.g08.bks.cpg/sg2_63_cif.got.tgz:124186.got - 2010.06.03 11:33:40.
