data_PCOD9018586
_publ_section_title
;
Structure prediction by ZEFSAII (Michael W. Deem and Ramdas Pophale) SiO2 
 PCOD9018586
Probable space group: P -1
;
_chemical_formula_sum "Si O2"
_cell_formula_units_Z 10
_cell_length_a 11.169434
_cell_length_b 7.296461
_cell_length_c 9.625768
_cell_angle_alpha 132.771099
_cell_angle_beta 47.674618
_cell_angle_gamma 135.055663
_cell_volume 377.669814
_symmetry_space_group_name_H-M "P -1"
_symmetry_group_IT_number 2
_symmetry_cell_setting 'triclinic'
loop_
_space_group_symop_operation_xyz
x,y,z
-x,-y,-z
loop_
_atom_site_type_symbol
_atom_site_label
_atom_site_fract_x
_atom_site_fract_y
_atom_site_fract_z
Si Si1 0.483682 0.370726 0.229413
Si Si2 0.437708 0.835651 0.656340
Si Si3 0.254063 0.592574 0.203336
Si Si4 0.906650 0.155032 0.735141
Si Si5 0.117219 0.991723 0.033684
O O1 0.436455 0.622381 0.431046
O O2 0.582524 0.330217 0.268164
O O3 0.306588 0.069929 0.198182
O O4 0.606217 0.426398 0.027493
O O5 0.633156 0.114691 0.654100
O O6 0.279870 0.928766 0.823552
O O7 0.187722 0.312423 0.200013
O O8 0.096355 0.608508 0.241319
O O9 0.980135 0.207659 0.861772
O O10 0.000000 0.000000 0.500000
O O11 0.000000 0.000000 0.000000
#
# Coordination Sequence:
#
# PCOD9018586 Si02
#       5
#     2   2   2   2   2
#     4  10  21  43  78  99 131 191 239 282 342 418
#     4  10  21  43  72 104 134 184 239 279 347 419
#     4  11  23  47  74  97 140 186 236 288 345 411
#     4  11  25  47  70 101 148 186 229 291 351 414
#     4  12  27  43  70 109 146 180 230 294 354 412
#
# _framework density 26.478152999999999
#
# number of rings (size 3 to 8) (size 9 to 14) (size 15 to 20)
#    0.000    1.200    4.000    1.800    2.800    7.200 
#    0.000    0.000    0.000    0.000    0.000    0.000 
#    0.000    0.000    0.000    0.000    0.000    0.000 
#
# Total GULP energy -56099.400202 kJ/mol
# GULP energy per Si atom -5609.940020 kJ/mol
# Density = 2.641789 g / cm^3
# Si number density = 26.478153 Si / 1000 Ang^3
#
#
#
# Elastic Constant Matrix: (Units=GPa)
#
#
# Indices 1 2 3 4 5 6 
#
# 1 115.9681 28.0817 17.1288 9.0683 -3.2826 -37.6745
# 2 28.0817 124.0773 19.6959 28.5575 -3.6457 -29.4145
# 3 17.1288 19.6959 103.6187 31.0850 -2.0281 -17.2428
# 4 9.0683 28.5575 31.0850 48.9783 -2.2413 -1.9804
# 5 -3.2826 -3.6457 -2.0281 -2.2413 42.0042 13.9724
# 6 -37.6745 -29.4145 -17.2428 -1.9804 13.9724 54.5690
#
#
#
# Elastic Compliance Matrix: (Units=1/GPa)
#
#
# Indices 1 2 3 4 5 6 
#
# 1 0.011426 -0.000323 -0.000004 -0.001683 -0.001935 0.008147
# 2 -0.000323 0.010938 0.000992 -0.006765 -0.001419 0.006104
# 3 -0.000004 0.000992 0.012766 -0.008553 -0.001279 0.004582
# 4 -0.001683 -0.006765 -0.008553 0.029943 0.002846 -0.007153
# 5 -0.001935 -0.001419 -0.001279 0.002846 0.026696 -0.009237
# 6 0.008147 0.006104 0.004582 -0.007153 -0.009237 0.030794
#
#
# Mechanical properties :
#
#
# Convention : Reuss Voigt Hill
#
# Bulk Modulus (GPa) = 27.42894 52.60854 40.01874
# Shear Modulus (GPa) = 37.48516 47.69414 42.58965
#
# Velocity S-wave (km/s) = 3.76666 4.24873 4.01494
# Velocity P-wave (km/s) = 5.41282 6.63180 6.05307
#
# Compressibility (1/GPa) = 0.03645784
#
# Stress axis : x y z
#
# Youngs Moduli (GPa) = 87.52310 91.42796 78.33062
#
# Poissons Ratio (x) = 0.02955 0.00035
# Poissons Ratio (y) = 0.02829 -0.07769
# Poissons Ratio (z) = 0.00039 -0.09068
#
# Static dielectric constant tensor:
#      x y z
#    x 2.162390 0.032920 0.070010 
#    y 0.032920 2.071650 0.028150 
#    z 0.070010 0.028150 1.985160 
# 
# From -- ./inp_files/35144.got.cif
#   From: 2010.05.17/outbox.cif.g08.bks.cpg/sg2_18_cif.got.tgz:35144.got - 2010.06.03 11:33:40.
