data_PCOD9018017
_publ_section_title
;
Structure prediction by ZEFSAII (Michael W. Deem and Ramdas Pophale) SiO2 
 PCOD9018017
Probable space group: P -1
;
_chemical_formula_sum "Si O2"
_cell_formula_units_Z 12
_cell_length_a 15.009193
_cell_length_b 17.472307
_cell_length_c 6.453642
_cell_angle_alpha 79.252564
_cell_angle_beta 96.113244
_cell_angle_gamma 23.688615
_cell_volume 475.477048
_symmetry_space_group_name_H-M "P -1"
_symmetry_group_IT_number 2
_symmetry_cell_setting 'triclinic'
loop_
_space_group_symop_operation_xyz
x,y,z
-x,-y,-z
loop_
_atom_site_type_symbol
_atom_site_label
_atom_site_fract_x
_atom_site_fract_y
_atom_site_fract_z
Si Si1 0.743433 0.226674 0.203361
Si Si2 0.136175 0.828452 0.238545
Si Si3 0.972036 0.604470 0.826177
Si Si4 0.416713 0.352566 0.243787
Si Si5 0.807692 0.953473 0.916378
Si Si6 0.549911 0.898632 0.248377
O O1 0.885784 0.128676 0.531153
O O2 0.543838 0.315045 0.152636
O O3 0.500000 0.500000 0.000000
O O4 0.847383 0.144624 0.015122
O O5 0.500000 0.500000 0.500000
O O6 0.920884 0.930435 0.097876
O O7 0.696634 0.881120 0.734953
O O8 0.871993 0.660412 0.546825
O O9 0.000000 0.500000 0.000000
O O10 0.280554 0.396444 0.050023
O O11 0.674361 0.105839 0.594962
O O12 0.119494 0.640554 0.135993
O O13 0.534293 0.119900 0.823547
O O14 0.500000 0.000000 0.000000
#
# Coordination Sequence:
#
# PCOD9018017 Si02
#       6
#     2   2   2   2   2   2
#     4  12  25  44  68 101 136 184 237 288 357 432
#     4  12  25  44  68 100 140 180 233 296 355 428
#     4  10  21  43  67  98 140 188 235 295 365 421
#     4  11  23  43  70  96 139 184 234 291 357 433
#     4  11  23  44  68  98 137 185 232 294 363 418
#     4  10  23  43  67 100 141 186 241 298 355 435
#
# _framework density 25.237812000000002
#
# number of rings (size 3 to 8) (size 9 to 14) (size 15 to 20)
#    0.000    1.000    1.667    6.000    0.000    2.000 
#   12.000    0.000    0.000    0.000    0.000    0.000 
#    0.000    0.000    0.000    0.000    0.000    0.000 
#
# Total GULP energy -67043.841637 kJ/mol
# GULP energy per Si atom -5586.986803 kJ/mol
# Density = 2.518037 g / cm^3
# Si number density = 25.237812 Si / 1000 Ang^3
#
#
#
# Elastic Constant Matrix: (Units=GPa)
#
#
# Indices 1 2 3 4 5 6 
#
# 1 247.5391 35.0442 94.6177 13.3033 36.7690 2.2196
# 2 35.0442 167.1829 51.3085 7.9992 19.2523 20.3727
# 3 94.6177 51.3085 256.4311 -0.7304 1.5232 14.7062
# 4 13.3033 7.9992 -0.7304 53.7519 14.1511 -1.2138
# 5 36.7690 19.2523 1.5232 14.1511 73.3607 -2.0663
# 6 2.2196 20.3727 14.7062 -1.2138 -2.0663 43.5748
#
#
#
# Elastic Compliance Matrix: (Units=1/GPa)
#
#
# Indices 1 2 3 4 5 6 
#
# 1 0.005169 -0.000253 -0.001865 -0.000640 -0.002352 0.000355
# 2 -0.000253 0.006957 -0.001121 -0.000623 -0.001639 -0.002957
# 3 -0.001865 -0.001121 0.004862 0.000403 0.001023 -0.000962
# 4 -0.000640 -0.000623 0.000403 0.019747 -0.003317 0.000581
# 5 -0.002352 -0.001639 0.001023 -0.003317 0.015893 0.001202
# 6 0.000355 -0.002957 -0.000962 0.000581 0.001202 0.024711
#
#
# Mechanical properties :
#
#
# Convention : Reuss Voigt Hill
#
# Bulk Modulus (GPa) = 95.14100 114.78822 104.96461
# Shear Modulus (GPa) = 57.25983 66.81633 62.03808
#
# Velocity S-wave (km/s) = 4.76837 5.15094 4.96334
# Velocity P-wave (km/s) = 8.25204 8.99764 8.63289
#
# Compressibility (1/GPa) = 0.01051072
#
# Stress axis : x y z
#
# Youngs Moduli (GPa) = 193.46215 143.73100 205.66154
#
# Poissons Ratio (x) = 0.03636 0.38352
# Poissons Ratio (y) = 0.04894 0.23060
# Poissons Ratio (z) = 0.36078 0.16116
#
# Static dielectric constant tensor:
#      x y z
#    x 1.863790 -0.051100 0.056720 
#    y -0.051100 1.996640 0.151420 
#    z 0.056720 0.151420 1.569910 
# 
# From -- ./inp_files/98842.got.cif
#   From: 2010.05.17/outbox.cif.g08.bks.cpg/sg2_50_cif.got.tgz:98842.got - 2010.06.03 11:33:40.
