data_PCOD9018303
_publ_section_title
;
Structure prediction by ZEFSAII (Michael W. Deem and Ramdas Pophale) SiO2 
 PCOD9018303
Probable space group: P -1
;
_chemical_formula_sum "Si O2"
_cell_formula_units_Z 16
_cell_length_a 11.124591
_cell_length_b 9.532578
_cell_length_c 18.653801
_cell_angle_alpha 39.749160
_cell_angle_beta 147.256613
_cell_angle_gamma 126.205253
_cell_volume 675.122408
_symmetry_space_group_name_H-M "P -1"
_symmetry_group_IT_number 2
_symmetry_cell_setting 'triclinic'
loop_
_space_group_symop_operation_xyz
x,y,z
-x,-y,-z
loop_
_atom_site_type_symbol
_atom_site_label
_atom_site_fract_x
_atom_site_fract_y
_atom_site_fract_z
Si Si1 0.833520 0.448813 0.745658
Si Si2 0.452527 0.786635 0.016954
Si Si3 0.965275 0.697627 0.847476
Si Si4 0.201745 0.330410 0.873166
Si Si5 0.792225 0.158743 0.653446
Si Si6 0.502893 0.815877 0.362591
Si Si7 0.222531 0.604282 0.587751
Si Si8 0.199717 0.834385 0.629190
O O1 0.713797 0.615058 0.557779
O O2 0.671087 0.266619 0.747247
O O3 0.842630 0.603497 0.756833
O O4 0.078830 0.328814 0.889072
O O5 0.557340 0.788679 0.988895
O O6 0.594130 0.575474 0.211375
O O7 0.195146 0.759395 0.905409
O O8 0.500000 0.000000 0.000000
O O9 0.844739 0.914714 0.742294
O O10 0.000000 0.500000 0.000000
O O11 0.213244 0.590626 0.764598
O O12 0.020863 0.239498 0.765263
O O13 0.628551 0.165271 0.635639
O O14 0.695596 0.315108 0.478113
O O15 0.585055 0.045932 0.299244
O O16 0.164646 0.801948 0.539039
O O17 0.000000 0.500000 0.500000
O O18 0.000000 0.000000 0.500000
#
# Coordination Sequence:
#
# PCOD9018303 Si02
#       8
#     2   2   2   2   2   2   2   2
#     4  10  23  45  67  98 139 181 236 287 352 417
#     4  11  23  45  70  99 144 183 229 284 360 415
#     4  12  28  46  67 102 144 191 232 282 357 433
#     4  10  21  43  69  96 137 177 227 293 343 415
#     4  11  23  44  71 101 139 178 238 294 342 416
#     4  10  23  41  71 100 137 183 231 299 350 399
#     4  11  22  40  74 106 132 178 235 296 346 405
#     4  11  21  37  63 104 139 165 229 288 354 409
#
# _framework density 23.699406
#
# number of rings (size 3 to 8) (size 9 to 14) (size 15 to 20)
#    0.000    1.250    5.000    0.750    5.250    1.500 
#    0.000    2.500    0.000    0.000    0.000    0.000 
#    0.000    0.000    0.000    0.000    0.000    0.000 
#
# Total GULP energy -89576.605874 kJ/mol
# GULP energy per Si atom -5598.537867 kJ/mol
# Density = 2.364546 g / cm^3
# Si number density = 23.699406 Si / 1000 Ang^3
#
#
#
# Elastic Constant Matrix: (Units=GPa)
#
#
# Indices 1 2 3 4 5 6 
#
# 1 101.9286 65.1293 30.4805 1.2166 27.4625 0.8010
# 2 65.1293 211.3330 23.8299 3.2820 12.7150 -4.5843
# 3 30.4805 23.8299 42.0738 -2.6847 12.5289 -7.8697
# 4 1.2166 3.2820 -2.6847 29.8516 -2.8567 10.6462
# 5 27.4625 12.7150 12.5289 -2.8567 40.0992 -4.3419
# 6 0.8010 -4.5843 -7.8697 10.6462 -4.3419 45.7799
#
#
#
# Elastic Compliance Matrix: (Units=1/GPa)
#
#
# Indices 1 2 3 4 5 6 
#
# 1 0.016969 -0.003855 -0.008229 -0.000835 -0.008177 -0.002679
# 2 -0.003855 0.005977 -0.000797 -0.000760 0.001026 0.000803
# 3 -0.008229 -0.000797 0.032252 0.001203 -0.003562 0.004991
# 4 -0.000835 -0.000760 0.001203 0.036865 0.002173 -0.008222
# 5 -0.008177 0.001026 -0.003562 0.002173 0.031712 0.002136
# 6 -0.002679 0.000803 0.004991 -0.008222 0.002136 0.024943
#
#
# Mechanical properties :
#
#
# Convention : Reuss Voigt Hill
#
# Bulk Modulus (GPa) = 33.97132 66.02387 49.99760
# Shear Modulus (GPa) = 27.13085 38.87251 33.00168
#
# Velocity S-wave (km/s) = 3.38715 4.05437 3.73568
# Velocity P-wave (km/s) = 5.44632 7.05950 6.30472
#
# Compressibility (1/GPa) = 0.02943659
#
# Stress axis : x y z
#
# Youngs Moduli (GPa) = 58.93103 167.30393 31.00600
#
# Poissons Ratio (x) = 0.64492 0.25516
# Poissons Ratio (y) = 0.22717 0.02470
# Poissons Ratio (z) = 0.48496 0.13329
#
# Static dielectric constant tensor:
#      x y z
#    x 1.897270 0.019340 -0.004340 
#    y 0.019340 1.870930 0.021250 
#    z -0.004340 0.021250 1.962000 
# 
# From -- ./inp_files/383556.got.cif
#   From: 2010.05.17/outbox.cif.g08.bks.cpg/sg2_192_cif.got.tgz:383556.got - 2010.06.03 11:33:40.
