data_PCOD9018106
_publ_section_title
;
Structure prediction by ZEFSAII (Michael W. Deem and Ramdas Pophale) SiO2 
 PCOD9018106
Probable space group: P -1
;
_chemical_formula_sum "Si O2"
_cell_formula_units_Z 16
_cell_length_a 11.587922
_cell_length_b 9.264373
_cell_length_c 20.260595
_cell_angle_alpha 127.755356
_cell_angle_beta 152.879709
_cell_angle_gamma 44.796107
_cell_volume 697.354302
_symmetry_space_group_name_H-M "P -1"
_symmetry_group_IT_number 2
_symmetry_cell_setting 'triclinic'
loop_
_space_group_symop_operation_xyz
x,y,z
-x,-y,-z
loop_
_atom_site_type_symbol
_atom_site_label
_atom_site_fract_x
_atom_site_fract_y
_atom_site_fract_z
Si Si1 0.700721 0.790943 0.837533
Si Si2 0.833644 0.341089 0.617772
Si Si3 0.406671 0.234032 0.581967
Si Si4 0.310215 0.012947 0.582062
Si Si5 0.896826 0.564116 0.340035
Si Si6 0.809184 0.343904 0.752421
Si Si7 0.601378 0.852195 0.947085
Si Si8 0.383952 0.574218 0.138713
O O1 0.650635 0.587775 0.752086
O O2 0.545032 0.916852 0.859704
O O3 0.564666 0.916380 0.737447
O O4 0.044674 0.702608 0.989883
O O5 0.500000 0.500000 0.500000
O O6 0.976076 0.432249 0.665275
O O7 0.947649 0.312916 0.742100
O O8 0.843658 0.129814 0.539404
O O9 0.421259 0.040701 0.574749
O O10 0.097970 0.367462 0.430885
O O11 0.619102 0.227366 0.630550
O O12 0.500666 0.347701 0.718434
O O13 0.110618 0.241038 0.570066
O O14 0.579566 0.587951 0.183417
O O15 0.057077 0.249923 0.904948
O O16 0.537143 0.661657 0.874305
O O17 0.500000 0.000000 0.000000
#
# Coordination Sequence:
#
# PCOD9018106 Si02
#       8
#     2   2   2   2   2   2   2   2
#     4  11  21  44  70  93 134 175 223 262 334 401
#     4  12  24  44  66  97 135 174 221 275 326 390
#     4  11  21  43  68  96 133 175 220 270 330 395
#     4  11  25  40  69 102 128 175 225 273 331 390
#     4  11  25  43  67  97 135 178 222 274 331 387
#     4  11  22  44  69  92 134 180 218 263 337 393
#     4  11  24  41  69 101 128 174 222 273 324 399
#     4  10  21  43  68  93 129 180 213 270 330 390
#
# _framework density 22.943860000000001
#
# number of rings (size 3 to 8) (size 9 to 14) (size 15 to 20)
#    0.000    1.000    5.000    2.625    1.750    4.500 
#    2.250    2.500    0.000    0.000    0.000    0.000 
#    0.000    0.000    0.000    0.000    0.000    0.000 
#
# Total GULP energy -89416.400839 kJ/mol
# GULP energy per Si atom -5588.525052 kJ/mol
# Density = 2.289164 g / cm^3
# Si number density = 22.943860 Si / 1000 Ang^3
#
#
#
# Elastic Constant Matrix: (Units=GPa)
#
#
# Indices 1 2 3 4 5 6 
#
# 1 176.1726 43.4326 52.8782 0.1905 0.7793 25.1017
# 2 43.4326 59.0970 25.1033 -5.7031 -12.4984 11.4103
# 3 52.8782 25.1033 83.3356 -5.5153 -8.0958 14.7954
# 4 0.1905 -5.7031 -5.5153 25.3312 3.3485 -15.5133
# 5 0.7793 -12.4984 -8.0958 3.3485 39.9824 3.3882
# 6 25.1017 11.4103 14.7954 -15.5133 3.3882 29.5651
#
#
#
# Elastic Compliance Matrix: (Units=1/GPa)
#
#
# Indices 1 2 3 4 5 6 
#
# 1 0.008854 -0.004480 -0.003533 -0.005991 -0.001191 -0.007027
# 2 -0.004480 0.023864 -0.002825 0.001305 0.007216 -0.004136
# 3 -0.003533 -0.002825 0.016138 -0.000164 0.002840 -0.004398
# 4 -0.005991 0.001305 -0.000164 0.065319 -0.008360 0.039897
# 5 -0.001191 0.007216 0.002840 -0.008360 0.029494 -0.010962
# 6 -0.007027 -0.004136 -0.004398 0.039897 -0.010962 0.065778
#
#
# Mechanical properties :
#
#
# Convention : Reuss Voigt Hill
#
# Bulk Modulus (GPa) = 36.78963 62.38148 49.58556
# Shear Modulus (GPa) = 20.81749 32.12181 26.46965
#
# Velocity S-wave (km/s) = 3.01545 3.74574 3.40026
# Velocity P-wave (km/s) = 5.30974 6.77903 6.08886
#
# Compressibility (1/GPa) = 0.02718157
#
# Stress axis : x y z
#
# Youngs Moduli (GPa) = 112.94103 41.90417 61.96424
#
# Poissons Ratio (x) = 0.18771 0.21894
# Poissons Ratio (y) = 0.50593 0.17502
# Poissons Ratio (z) = 0.39906 0.11836
#
# Static dielectric constant tensor:
#      x y z
#    x 1.967350 -0.030540 0.008650 
#    y -0.030540 1.895210 -0.020850 
#    z 0.008650 -0.020850 1.845790 
# 
# From -- ./inp_files/593680.got.cif
#   From: 2010.05.17/outbox.cif.g08.bks.cpg/sg2_297_cif.got.tgz:593680.got - 2010.06.03 11:33:40.
