data_PCOD9018622
_publ_section_title
;
Structure prediction by ZEFSAII (Michael W. Deem and Ramdas Pophale) SiO2 
 PCOD9018622
Probable space group: P -1
;
_chemical_formula_sum "Si O2"
_cell_formula_units_Z 16
_cell_length_a 11.671415
_cell_length_b 13.927358
_cell_length_c 8.810843
_cell_angle_alpha 70.402806
_cell_angle_beta 103.822194
_cell_angle_gamma 151.609365
_cell_volume 636.483996
_symmetry_space_group_name_H-M "P -1"
_symmetry_group_IT_number 2
_symmetry_cell_setting 'triclinic'
loop_
_space_group_symop_operation_xyz
x,y,z
-x,-y,-z
loop_
_atom_site_type_symbol
_atom_site_label
_atom_site_fract_x
_atom_site_fract_y
_atom_site_fract_z
Si Si1 0.874631 0.050778 0.851303
Si Si2 0.855344 0.234271 0.550273
Si Si3 0.948221 0.215863 0.103505
Si Si4 0.569656 0.044042 0.246810
Si Si5 0.351883 0.355500 0.683758
Si Si6 0.822048 0.946103 0.392868
Si Si7 0.639846 0.331897 0.086134
Si Si8 0.625635 0.393767 0.380297
O O1 0.817143 0.093755 0.685146
O O2 0.080031 0.141779 0.786596
O O3 0.618627 0.805464 0.938415
O O4 0.957586 0.171149 0.965799
O O5 0.736451 0.161202 0.388698
O O6 0.145190 0.457243 0.519158
O O7 0.700995 0.181875 0.654805
O O8 0.683432 0.057679 0.148639
O O9 0.994855 0.163979 0.268828
O O10 0.145177 0.453292 0.050567
O O11 0.600040 0.182840 0.123979
O O12 0.500000 0.500000 0.500000
O O13 0.344783 0.229668 0.698651
O O14 0.407188 0.507772 0.705639
O O15 0.624152 0.834180 0.509187
O O16 0.000000 0.000000 0.500000
O O17 0.697456 0.392788 0.248851
#
# Coordination Sequence:
#
# PCOD9018622 Si02
#       8
#     2   2   2   2   2   2   2   2
#     4  10  22  44  71  98 148 179 227 298 352 417
#     4   9  20  42  70 102 137 187 232 285 339 423
#     4  12  26  46  66 106 146 183 232 294 357 412
#     4  10  24  40  72 106 143 190 234 280 348 430
#     4   9  19  42  70  96 130 177 230 287 344 404
#     4  11  26  43  71 101 136 185 240 294 354 421
#     4  11  23  45  69 104 147 185 228 285 358 419
#     4  10  21  43  73 101 141 179 236 296 346 418
#
# _framework density 25.138100999999999
#
# number of rings (size 3 to 8) (size 9 to 14) (size 15 to 20)
#    0.000    1.750    2.500    1.125    8.750    4.000 
#    6.750    1.250    0.000    0.000    0.000    0.000 
#    0.000    0.000    0.000    0.000    0.000    0.000 
#
# Total GULP energy -89101.097956 kJ/mol
# GULP energy per Si atom -5568.818622 kJ/mol
# Density = 2.508089 g / cm^3
# Si number density = 25.138101 Si / 1000 Ang^3
#
#
#
# Elastic Constant Matrix: (Units=GPa)
#
#
# Indices 1 2 3 4 5 6 
#
# 1 92.8400 7.6584 43.3206 -5.2336 -23.1778 3.7231
# 2 7.6584 58.5484 38.4755 -4.6914 4.7222 25.2189
# 3 43.3206 38.4755 111.5008 -18.6734 -6.1191 11.6949
# 4 -5.2336 -4.6914 -18.6734 24.0908 3.7367 -7.4738
# 5 -23.1778 4.7222 -6.1191 3.7367 45.6735 -11.0664
# 6 3.7231 25.2189 11.6949 -7.4738 -11.0664 43.5646
#
#
#
# Elastic Compliance Matrix: (Units=1/GPa)
#
#
# Indices 1 2 3 4 5 6 
#
# 1 0.015319 0.000750 -0.006313 -0.002109 0.007378 0.001464
# 2 0.000750 0.032895 -0.011219 -0.006821 -0.008683 -0.019471
# 3 -0.006313 -0.011219 0.016629 0.010668 0.000403 0.004502
# 4 -0.002109 -0.006821 0.010668 0.051164 -0.000734 0.009856
# 5 0.007378 -0.008683 0.000403 -0.000734 0.029473 0.011649
# 6 0.001464 -0.019471 0.004502 0.009856 0.011649 0.037542
#
#
# Mechanical properties :
#
#
# Convention : Reuss Voigt Hill
#
# Bulk Modulus (GPa) = 31.96947 49.08870 40.52908
# Shear Modulus (GPa) = 22.02534 34.22807 28.12671
#
# Velocity S-wave (km/s) = 2.96323 3.69399 3.34861
# Velocity P-wave (km/s) = 4.94498 6.14525 5.57750
#
# Compressibility (1/GPa) = 0.03127984
#
# Stress axis : x y z
#
# Youngs Moduli (GPa) = 65.27757 30.39976 60.13627
#
# Poissons Ratio (x) = -0.02280 0.37961
# Poissons Ratio (y) = -0.04896 0.67468
# Poissons Ratio (z) = 0.41207 0.34106
#
# Static dielectric constant tensor:
#      x y z
#    x 2.044000 0.025300 0.067150 
#    y 0.025300 2.083640 0.013850 
#    z 0.067150 0.013850 2.021400 
# 
# From -- ./inp_files/272549.got.cif
#   From: 2010.05.17/outbox.cif.g08.bks.cpg/sg2_137_cif.got.tgz:272549.got - 2010.06.03 11:33:40.
