data_PCOD9019669
_publ_section_title
;
Structure prediction by ZEFSAII (Michael W. Deem and Ramdas Pophale) SiO2 
 PCOD9019669
Probable space group: P -1
;
_chemical_formula_sum "Si O2"
_cell_formula_units_Z 12
_cell_length_a 5.382265
_cell_length_b 7.899585
_cell_length_c 15.829740
_cell_angle_alpha 120.837014
_cell_angle_beta 80.799174
_cell_angle_gamma 74.644359
_cell_volume 520.530423
_symmetry_space_group_name_H-M "P -1"
_symmetry_group_IT_number 2
_symmetry_cell_setting 'triclinic'
loop_
_space_group_symop_operation_xyz
x,y,z
-x,-y,-z
loop_
_atom_site_type_symbol
_atom_site_label
_atom_site_fract_x
_atom_site_fract_y
_atom_site_fract_z
Si Si1 0.637928 0.264716 0.868746
Si Si2 0.855563 0.092640 0.318491
Si Si3 0.320726 0.861906 0.971373
Si Si4 0.343403 0.582430 0.743803
Si Si5 0.111880 0.365193 0.819781
Si Si6 0.689893 0.139105 0.522236
O O1 0.328418 0.370166 0.878847
O O2 0.675182 0.210618 0.950892
O O3 0.190093 0.590923 0.120750
O O4 0.814703 0.043305 0.749520
O O5 0.748873 0.252180 0.286341
O O6 0.735644 0.207033 0.442146
O O7 0.771222 0.889061 0.273302
O O8 0.428607 0.692814 0.845197
O O9 0.500000 0.000000 0.000000
O O10 0.000000 0.000000 0.000000
O O11 0.110426 0.516724 0.781547
O O12 0.563296 0.351690 0.641280
O O13 0.500000 0.000000 0.500000
O O14 0.000000 0.000000 0.500000
#
# Coordination Sequence:
#
# PCOD9019669 Si02
#       6
#     2   2   2   2   2   2
#     4  10  21  45  66 100 150 184 225 306 340 408
#     4  10  23  46  72 104 145 182 242 292 354 426
#     4  12  25  45  72 109 147 183 246 296 345 434
#     4  12  25  47  77 108 138 204 231 291 375 414
#     4  10  23  43  68 106 144 181 241 289 346 429
#     4  12  26  50  73 106 147 184 240 303 349 429
#
# _framework density 23.053407
#
# number of rings (size 3 to 8) (size 9 to 14) (size 15 to 20)
#    1.000    0.000    3.333    3.500    0.000    4.000 
#    6.000    1.667    0.000    0.000    0.000    0.000 
#    0.000    0.000    0.000    0.000    0.000    0.000 
#
# Total GULP energy -67029.503570 kJ/mol
# GULP energy per Si atom -5585.791964 kJ/mol
# Density = 2.300094 g / cm^3
# Si number density = 23.053407 Si / 1000 Ang^3
#
#
#
# Elastic Constant Matrix: (Units=GPa)
#
#
# Indices 1 2 3 4 5 6 
#
# 1 145.7480 40.7789 43.3689 -4.6207 4.0902 -1.0492
# 2 40.7789 139.7594 45.5404 -33.9901 3.8259 19.5173
# 3 43.3689 45.5404 161.8295 -1.0021 -2.6561 10.6062
# 4 -4.6207 -33.9901 -1.0021 60.3913 0.5071 0.8450
# 5 4.0902 3.8259 -2.6561 0.5071 20.7825 3.1086
# 6 -1.0492 19.5173 10.6062 0.8450 3.1086 37.3859
#
#
#
# Elastic Compliance Matrix: (Units=1/GPa)
#
#
# Indices 1 2 3 4 5 6 
#
# 1 0.008016 -0.002178 -0.001698 -0.000655 -0.001677 0.001998
# 2 -0.002178 0.010625 -0.002058 0.005860 -0.001177 -0.005059
# 3 -0.001698 -0.002058 0.007314 -0.001166 0.001852 -0.001176
# 4 -0.000655 0.005860 -0.001166 0.019840 -0.001119 -0.003102
# 5 -0.001677 -0.001177 0.001852 -0.001119 0.049534 -0.004052
# 6 0.001998 -0.005059 -0.001176 -0.003102 -0.004052 0.030186
#
#
# Mechanical properties :
#
#
# Convention : Reuss Voigt Hill
#
# Bulk Modulus (GPa) = 70.98413 78.52369 74.75391
# Shear Modulus (GPa) = 35.19185 44.88854 40.04019
#
# Velocity S-wave (km/s) = 3.91133 4.41744 4.17207
# Velocity P-wave (km/s) = 7.15933 7.75590 7.46358
#
# Compressibility (1/GPa) = 0.01408766
#
# Stress axis : x y z
#
# Youngs Moduli (GPa) = 124.74290 94.11755 136.72996
#
# Poissons Ratio (x) = 0.20500 0.23216
# Poissons Ratio (y) = 0.27170 0.28136
# Poissons Ratio (z) = 0.21180 0.19367
#
# Static dielectric constant tensor:
#      x y z
#    x 1.849240 -0.012690 -0.013210 
#    y -0.012690 1.931080 0.078150 
#    z -0.013210 0.078150 1.951090 
# 
# From -- ./inp_files/35057.got.cif
#   From: 2010.05.17/outbox.cif.g08.bks.cpg/sg2_18_cif.got.tgz:35057.got - 2010.06.03 11:33:40.
