data_PCOD9019475
_publ_section_title
;
Structure prediction by ZEFSAII (Michael W. Deem and Ramdas Pophale) SiO2 
 PCOD9019475
Probable space group: P -1
;
_chemical_formula_sum "Si O2"
_cell_formula_units_Z 16
_cell_length_a 7.887190
_cell_length_b 21.993457
_cell_length_c 16.027226
_cell_angle_alpha 26.944373
_cell_angle_beta 140.969514
_cell_angle_gamma 144.622663
_cell_volume 716.006774
_symmetry_space_group_name_H-M "P -1"
_symmetry_group_IT_number 2
_symmetry_cell_setting 'triclinic'
loop_
_space_group_symop_operation_xyz
x,y,z
-x,-y,-z
loop_
_atom_site_type_symbol
_atom_site_label
_atom_site_fract_x
_atom_site_fract_y
_atom_site_fract_z
Si Si1 0.828747 0.403075 0.133951
Si Si2 0.685741 0.888682 0.555651
Si Si3 0.536476 0.142568 0.221388
Si Si4 0.170193 0.620685 0.264376
Si Si5 0.700263 0.286509 0.533078
Si Si6 0.410997 0.407630 0.414441
Si Si7 0.111579 0.254364 0.856638
Si Si8 0.956379 0.678032 0.940250
O O1 0.069919 0.375718 0.315425
O O2 0.600495 0.250630 0.192768
O O3 0.000000 0.500000 0.000000
O O4 0.751866 0.518978 0.015012
O O5 0.474397 0.806221 0.498559
O O6 0.765716 0.767836 0.780205
O O7 0.550759 0.987106 0.431392
O O8 0.000000 0.000000 0.500000
O O9 0.804094 0.230045 0.151270
O O10 0.240294 0.137980 0.071325
O O11 0.936382 0.449577 0.396026
O O12 0.056187 0.714036 0.167759
O O13 0.478196 0.631328 0.408251
O O14 0.142728 0.663192 0.107851
O O15 0.488431 0.317905 0.480461
O O16 0.883881 0.213821 0.742571
O O17 0.615676 0.583291 0.258614
#
# Coordination Sequence:
#
# PCOD9019475 Si02
#       8
#     2   2   2   2   2   2   2   2
#     4  10  17  30  56  77 102 134 182 217 249 302
#     4  10  21  35  54  78 106 140 182 218 256 311
#     4  10  20  35  56  78 104 144 182 215 253 314
#     4   9  20  32  54  82 112 133 169 225 273 304
#     4   9  18  33  54  79 107 138 176 212 266 319
#     4   9  15  31  53  80 104 138 173 216 258 310
#     4   9  17  33  54  78 105 142 173 212 263 319
#     4  10  20  34  54  82 106 136 178 225 260 303
#
# _framework density 22.346159
#
# number of rings (size 3 to 8) (size 9 to 14) (size 15 to 20)
#    0.000    2.500    2.500    3.750    1.750    1.500 
#    0.000    0.625    0.000   18.750    0.000    0.000 
#    0.000    0.000    0.000    0.000    0.000    0.000 
#
# Total GULP energy -89422.538067 kJ/mol
# GULP energy per Si atom -5588.908629 kJ/mol
# Density = 2.229530 g / cm^3
# Si number density = 22.346159 Si / 1000 Ang^3
#
#
#
# Elastic Constant Matrix: (Units=GPa)
#
#
# Indices 1 2 3 4 5 6 
#
# 1 64.2880 19.2541 44.9876 -0.3706 6.1966 -18.1522
# 2 19.2541 72.8801 40.2494 17.2440 4.0587 -15.9237
# 3 44.9876 40.2494 147.3385 8.0555 27.6089 -18.0971
# 4 -0.3706 17.2440 8.0555 24.9327 -4.1512 -1.5137
# 5 6.1966 4.0587 27.6089 -4.1512 40.1561 0.9572
# 6 -18.1522 -15.9237 -18.0971 -1.5137 0.9572 20.1171
#
#
#
# Elastic Compliance Matrix: (Units=1/GPa)
#
#
# Indices 1 2 3 4 5 6 
#
# 1 0.024275 -0.000597 -0.005362 0.003524 -0.000037 0.016875
# 2 -0.000597 0.021707 -0.003111 -0.013511 -0.001667 0.012908
# 3 -0.005362 -0.003111 0.011008 -0.002441 -0.006744 0.002739
# 4 0.003524 -0.013511 -0.002441 0.051238 0.007945 -0.006233
# 5 -0.000037 -0.001667 -0.006744 0.007945 0.030733 -0.008284
# 6 0.016875 0.012908 0.002739 -0.006233 -0.008284 0.077541
#
#
# Mechanical properties :
#
#
# Convention : Reuss Voigt Hill
#
# Bulk Modulus (GPa) = 25.74034 54.83209 40.28622
# Shear Modulus (GPa) = 20.19467 29.04221 24.61844
#
# Velocity S-wave (km/s) = 3.00946 3.60898 3.32277
# Velocity P-wave (km/s) = 4.86001 6.47743 5.72612
#
# Compressibility (1/GPa) = 0.03884952
#
# Stress axis : x y z
#
# Youngs Moduli (GPa) = 41.19548 46.06872 90.84510
#
# Poissons Ratio (x) = 0.02749 0.48711
# Poissons Ratio (y) = 0.02458 0.28263
# Poissons Ratio (z) = 0.22089 0.14332
#
# Static dielectric constant tensor:
#      x y z
#    x 1.840820 0.001240 0.005290 
#    y 0.001240 1.793480 -0.002820 
#    z 0.005290 -0.002820 1.841470 
# 
# From -- ./inp_files/302584.got.cif
#   From: 2010.05.17/outbox.cif.g08.bks.cpg/sg2_152_cif.got.tgz:302584.got - 2010.06.03 11:33:40.
