data_PCOD9019693
_publ_section_title
;
Structure prediction by ZEFSAII (Michael W. Deem and Ramdas Pophale) SiO2 
 PCOD9019693
Probable space group: P -1
;
_chemical_formula_sum "Si O2"
_cell_formula_units_Z 16
_cell_length_a 20.085065
_cell_length_b 7.185852
_cell_length_c 6.928715
_cell_angle_alpha 88.222308
_cell_angle_beta 42.187680
_cell_angle_gamma 102.187046
_cell_volume 629.102890
_symmetry_space_group_name_H-M "P -1"
_symmetry_group_IT_number 2
_symmetry_cell_setting 'triclinic'
loop_
_space_group_symop_operation_xyz
x,y,z
-x,-y,-z
loop_
_atom_site_type_symbol
_atom_site_label
_atom_site_fract_x
_atom_site_fract_y
_atom_site_fract_z
Si Si1 0.744307 0.499271 0.410849
Si Si2 0.268419 0.065583 0.059014
Si Si3 0.846774 0.333958 0.505330
Si Si4 0.593075 0.694567 0.919800
Si Si5 0.464388 0.153087 0.355351
Si Si6 0.080366 0.234101 0.477047
Si Si7 0.584392 0.302921 0.454115
Si Si8 0.969668 0.812912 0.848006
O O1 0.775883 0.339938 0.472641
O O2 0.656198 0.558762 0.711090
O O3 0.696476 0.418122 0.306735
O O4 0.850173 0.692219 0.166589
O O5 0.322206 0.132721 0.148112
O O6 0.181455 0.168537 0.219374
O O7 0.215689 0.829226 0.196921
O O8 0.358786 0.139074 0.702616
O O9 0.885669 0.553540 0.504178
O O10 0.946162 0.270956 0.235439
O O11 0.546364 0.771983 0.835005
O O12 0.497638 0.603843 0.279337
O O13 0.565002 0.275144 0.268252
O O14 0.457536 0.924609 0.373486
O O15 0.005944 0.050897 0.771177
O O16 0.025308 0.233039 0.390670
#
# Coordination Sequence:
#
# PCOD9019693 Si02
#       8
#     2   2   2   2   2   2   2   2
#     4  12  24  42  65 102 132 180 229 277 335 410
#     4  10  22  42  69 104 138 178 227 272 337 405
#     4  11  23  42  68  98 137 179 217 284 335 397
#     4  11  22  44  68  98 141 178 222 286 335 397
#     4  10  22  43  69  97 136 182 221 280 339 403
#     4  10  21  45  66  96 140 174 221 284 338 393
#     4  10  24  42  65 101 137 175 231 276 341 401
#     4  10  24  42  66  99 135 174 230 277 335 404
#
# _framework density 25.433040999999999
#
# number of rings (size 3 to 8) (size 9 to 14) (size 15 to 20)
#    0.000    1.500    1.250    3.000    1.750    3.000 
#    4.500    0.000    0.000    0.000    0.000    0.000 
#    0.000    0.000    0.000    0.000    0.000    0.000 
#
# Total GULP energy -89728.387779 kJ/mol
# GULP energy per Si atom -5608.024236 kJ/mol
# Density = 2.537515 g / cm^3
# Si number density = 25.433041 Si / 1000 Ang^3
#
#
#
# Elastic Constant Matrix: (Units=GPa)
#
#
# Indices 1 2 3 4 5 6 
#
# 1 147.1280 49.9315 33.8340 6.7693 0.9090 -10.1097
# 2 49.9315 134.8194 34.9825 -0.8306 3.5334 3.4247
# 3 33.8340 34.9825 98.2437 0.1044 2.2417 -1.9330
# 4 6.7693 -0.8306 0.1044 35.8255 -5.0035 1.4998
# 5 0.9090 3.5334 2.2417 -5.0035 35.5101 0.2401
# 6 -10.1097 3.4247 -1.9330 1.4998 0.2401 44.0723
#
#
#
# Elastic Compliance Matrix: (Units=1/GPa)
#
#
# Indices 1 2 3 4 5 6 
#
# 1 0.008361 -0.002670 -0.001884 -0.001737 -0.000088 0.002102
# 2 -0.002670 0.009065 -0.002324 0.000701 -0.000578 -0.001439
# 3 -0.001884 -0.002324 0.011670 0.000197 -0.000431 0.000256
# 4 -0.001737 0.000701 0.000197 0.028882 0.004042 -0.001449
# 5 -0.000088 -0.000578 -0.000431 0.004042 0.028820 -0.000289
# 6 0.002102 -0.001439 0.000256 -0.001449 -0.000289 0.023346
#
#
# Mechanical properties :
#
#
# Convention : Reuss Voigt Hill
#
# Bulk Modulus (GPa) = 65.18599 68.63189 66.90894
# Shear Modulus (GPa) = 38.75602 40.51111 39.63357
#
# Velocity S-wave (km/s) = 3.90788 3.99539 3.95188
# Velocity P-wave (km/s) = 6.78588 6.95184 6.86936
#
# Compressibility (1/GPa) = 0.01534072
#
# Stress axis : x y z
#
# Youngs Moduli (GPa) = 119.60534 110.31198 85.69123
#
# Poissons Ratio (x) = 0.29448 0.16141
# Poissons Ratio (y) = 0.31929 0.19918
# Poissons Ratio (z) = 0.22529 0.25641
#
# Static dielectric constant tensor:
#      x y z
#    x 1.984520 0.011370 -0.009240 
#    y 0.011370 2.011080 -0.028870 
#    z -0.009240 -0.028870 2.001820 
# 
# From -- ./inp_files/106856.got.cif
#   From: 2010.05.17/outbox.cif.g08.bks.cpg/sg2_54_cif.got.tgz:106856.got - 2010.06.03 11:33:40.
