data_PCOD9019173
_publ_section_title
;
Structure prediction by ZEFSAII (Michael W. Deem and Ramdas Pophale) SiO2 
 PCOD9019173
Probable space group: P -1
;
_chemical_formula_sum "Si O2"
_cell_formula_units_Z 16
_cell_length_a 12.103301
_cell_length_b 15.557752
_cell_length_c 8.360166
_cell_angle_alpha 112.038654
_cell_angle_beta 61.096063
_cell_angle_gamma 152.685814
_cell_volume 626.591554
_symmetry_space_group_name_H-M "P -1"
_symmetry_group_IT_number 2
_symmetry_cell_setting 'triclinic'
loop_
_space_group_symop_operation_xyz
x,y,z
-x,-y,-z
loop_
_atom_site_type_symbol
_atom_site_label
_atom_site_fract_x
_atom_site_fract_y
_atom_site_fract_z
Si Si1 0.256815 0.182504 0.852108
Si Si2 0.991776 0.898405 0.341630
Si Si3 0.407856 0.717420 0.818994
Si Si4 0.218719 0.424474 0.217466
Si Si5 0.190341 0.404795 0.605571
Si Si6 0.266242 0.977764 0.711795
Si Si7 0.968351 0.513362 0.772990
Si Si8 0.288175 0.828357 0.332194
O O1 0.493709 0.383827 0.914115
O O2 0.166856 0.181238 0.761245
O O3 0.349528 0.134943 0.719869
O O4 0.000000 0.000000 0.000000
O O5 0.840084 0.720651 0.415018
O O6 0.293266 0.065951 0.221653
O O7 0.000000 0.000000 0.500000
O O8 0.382500 0.593080 0.698543
O O9 0.249223 0.671931 0.761043
O O10 0.238287 0.619950 0.029106
O O11 0.243591 0.449113 0.410034
O O12 0.064638 0.410353 0.235756
O O13 0.035338 0.219936 0.175346
O O14 0.901532 0.262294 0.739780
O O15 0.300139 0.926833 0.505514
O O16 0.430139 0.034639 0.777496
O O17 0.869768 0.363710 0.630640
#
# Coordination Sequence:
#
# PCOD9019173 Si02
#       8
#     2   2   2   2   2   2   2   2
#     4  12  27  46  69  97 138 183 230 278 333 407
#     4  12  26  45  68  95 142 189 227 277 334 415
#     4  10  24  44  67  97 140 183 221 281 350 407
#     4  11  23  42  70 102 131 175 230 285 330 401
#     4  10  24  42  66 106 132 178 228 275 341 403
#     4  10  22  39  65 103 132 171 222 279 340 392
#     4  10  21  44  69 102 138 173 223 287 354 401
#     4   9  19  40  66  98 139 162 222 281 332 411
#
# _framework density 25.534976
#
# number of rings (size 3 to 8) (size 9 to 14) (size 15 to 20)
#    0.000    1.500    1.250    3.000    1.750    9.000 
#    2.250    1.875    0.000    0.000    0.000    0.000 
#    0.000    0.000    0.000    0.000    0.000    0.000 
#
# Total GULP energy -89478.334000 kJ/mol
# GULP energy per Si atom -5592.395875 kJ/mol
# Density = 2.547686 g / cm^3
# Si number density = 25.534976 Si / 1000 Ang^3
#
#
#
# Elastic Constant Matrix: (Units=GPa)
#
#
# Indices 1 2 3 4 5 6 
#
# 1 143.0277 57.7386 25.5929 -18.4046 1.0945 -6.4393
# 2 57.7386 127.5685 4.8414 -15.1398 -4.7732 1.5132
# 3 25.5929 4.8414 57.5251 -7.9352 -5.8816 -3.2728
# 4 -18.4046 -15.1398 -7.9352 34.4273 -1.0716 -9.4601
# 5 1.0945 -4.7732 -5.8816 -1.0716 26.9675 -10.2371
# 6 -6.4393 1.5132 -3.2728 -9.4601 -10.2371 63.5136
#
#
#
# Elastic Compliance Matrix: (Units=1/GPa)
#
#
# Indices 1 2 3 4 5 6 
#
# 1 0.009672 -0.003966 -0.003655 0.002841 -0.001365 0.001090
# 2 -0.003966 0.009994 0.001576 0.002786 0.002481 0.000256
# 3 -0.003655 0.001576 0.020173 0.004172 0.005825 0.002192
# 4 0.002841 0.002786 0.004172 0.034677 0.005105 0.006424
# 5 -0.001365 0.002481 0.005825 0.005105 0.041943 0.007623
# 6 0.001090 0.000256 0.002192 0.006424 0.007623 0.018148
#
#
# Mechanical properties :
#
#
# Convention : Reuss Voigt Hill
#
# Bulk Modulus (GPa) = 36.03645 56.05190 46.04417
# Shear Modulus (GPa) = 32.06244 40.97822 36.52033
#
# Velocity S-wave (km/s) = 3.54733 4.01033 3.78591
# Velocity P-wave (km/s) = 5.56069 6.59108 6.09769
#
# Compressibility (1/GPa) = 0.02774968
#
# Stress axis : x y z
#
# Youngs Moduli (GPa) = 103.39576 100.05580 49.57138
#
# Poissons Ratio (x) = 0.39678 0.18117
# Poissons Ratio (y) = 0.41002 -0.07811
# Poissons Ratio (z) = 0.37789 -0.15766
#
# Static dielectric constant tensor:
#      x y z
#    x 2.031490 0.028800 -0.060230 
#    y 0.028800 2.030050 -0.041440 
#    z -0.060230 -0.041440 2.115940 
# 
# From -- ./inp_files/273355.got.cif
#   From: 2010.05.17/outbox.cif.g08.bks.cpg/sg2_137_cif.got.tgz:273355.got - 2010.06.03 11:33:40.
