data_PCOD9019154
_publ_section_title
;
Structure prediction by ZEFSAII (Michael W. Deem and Ramdas Pophale) SiO2 
 PCOD9019154
Probable space group: P -1
;
_chemical_formula_sum "Si O2"
_cell_formula_units_Z 12
_cell_length_a 17.892254
_cell_length_b 8.606004
_cell_length_c 6.971129
_cell_angle_alpha 129.620767
_cell_angle_beta 98.731222
_cell_angle_gamma 46.956787
_cell_volume 522.087388
_symmetry_space_group_name_H-M "P -1"
_symmetry_group_IT_number 2
_symmetry_cell_setting 'triclinic'
loop_
_space_group_symop_operation_xyz
x,y,z
-x,-y,-z
loop_
_atom_site_type_symbol
_atom_site_label
_atom_site_fract_x
_atom_site_fract_y
_atom_site_fract_z
Si Si1 0.301714 0.552659 0.602560
Si Si2 0.611094 0.917648 0.439842
Si Si3 0.539480 0.186104 0.233841
Si Si4 0.662191 0.114834 0.876606
Si Si5 0.073685 0.535642 0.637386
Si Si6 0.954122 0.018494 0.290944
O O1 0.294182 0.393755 0.638251
O O2 0.415469 0.320719 0.320654
O O3 0.179779 0.796632 0.629114
O O4 0.325873 0.700247 0.860942
O O5 0.587298 0.192978 0.724454
O O6 0.500000 0.000000 0.500000
O O7 0.624406 0.921886 0.223784
O O8 0.500000 0.500000 0.500000
O O9 0.613269 0.054561 0.965491
O O10 0.792434 0.809709 0.604829
O O11 0.047886 0.777514 0.679993
O O12 0.000000 0.500000 0.500000
O O13 0.036761 0.684217 0.952800
O O14 0.000000 0.000000 0.500000
#
# Coordination Sequence:
#
# PCOD9019154 Si02
#       6
#     2   2   2   2   2   2
#     4  10  21  44  68  99 136 178 225 279 337 405
#     4  10  22  41  66  98 134 180 217 273 342 402
#     4   9  22  41  66 100 134 171 219 271 337 408
#     4  11  22  44  67  98 140 172 225 282 338 402
#     4  11  24  47  69  97 136 179 232 290 336 403
#     4  11  25  47  69 100 135 179 235 283 339 405
#
# _framework density 22.984660000000002
#
# number of rings (size 3 to 8) (size 9 to 14) (size 15 to 20)
#    0.000    1.667    3.333    0.000    0.000   10.667 
#    9.000    1.667    0.000    0.000    0.000    0.000 
#    0.000    0.000    0.000    0.000    0.000    0.000 
#
# Total GULP energy -66896.547022 kJ/mol
# GULP energy per Si atom -5574.712252 kJ/mol
# Density = 2.293235 g / cm^3
# Si number density = 22.984660 Si / 1000 Ang^3
#
#
#
# Elastic Constant Matrix: (Units=GPa)
#
#
# Indices 1 2 3 4 5 6 
#
# 1 130.7260 11.6961 42.2015 -1.1372 24.7612 -18.0476
# 2 11.6961 63.0272 34.7056 -20.4719 -2.5376 -12.5884
# 3 42.2015 34.7056 152.8108 -14.6005 6.8487 -23.5162
# 4 -1.1372 -20.4719 -14.6005 41.3565 -3.2977 2.8235
# 5 24.7612 -2.5376 6.8487 -3.2977 52.7811 -4.4227
# 6 -18.0476 -12.5884 -23.5162 2.8235 -4.4227 36.4940
#
#
#
# Elastic Compliance Matrix: (Units=1/GPa)
#
#
# Indices 1 2 3 4 5 6 
#
# 1 0.009497 -0.000705 -0.001975 -0.001301 -0.004081 0.002787
# 2 -0.000705 0.021977 -0.003279 0.009604 0.002808 0.004717
# 3 -0.001975 -0.003279 0.008436 0.001080 0.000014 0.003247
# 4 -0.001301 0.009604 0.001080 0.029412 0.002890 0.001440
# 5 -0.004081 0.002808 0.000014 0.002890 0.021284 0.001315
# 6 0.002787 0.004717 0.003247 0.001440 0.001315 0.032547
#
#
# Mechanical properties :
#
#
# Convention : Reuss Voigt Hill
#
# Bulk Modulus (GPa) = 35.72456 58.19672 46.96064
# Shear Modulus (GPa) = 34.62557 43.32372 38.97464
#
# Velocity S-wave (km/s) = 3.88553 4.34625 4.12233
# Velocity P-wave (km/s) = 5.97548 7.11065 6.56763
#
# Compressibility (1/GPa) = 0.02799194
#
# Stress axis : x y z
#
# Youngs Moduli (GPa) = 105.30121 45.50192 118.53323
#
# Poissons Ratio (x) = 0.03207 0.23412
# Poissons Ratio (y) = 0.07423 0.38868
# Poissons Ratio (z) = 0.20798 0.14920
#
# Static dielectric constant tensor:
#      x y z
#    x 1.974680 -0.110370 0.076600 
#    y -0.110370 1.982120 0.027260 
#    z 0.076600 0.027260 1.927980 
# 
# From -- ./inp_files/107806.got.cif
#   From: 2010.05.17/outbox.cif.g08.bks.cpg/sg2_54_cif.got.tgz:107806.got - 2010.06.03 11:33:40.
