data_PCOD9019325
_publ_section_title
;
Structure prediction by ZEFSAII (Michael W. Deem and Ramdas Pophale) SiO2 
 PCOD9019325
Probable space group: P -1
;
_chemical_formula_sum "Si O2"
_cell_formula_units_Z 14
_cell_length_a 11.767999
_cell_length_b 9.022241
_cell_length_c 7.946299
_cell_angle_alpha 88.294802
_cell_angle_beta 138.280702
_cell_angle_gamma 98.710263
_cell_volume 550.518176
_symmetry_space_group_name_H-M "P -1"
_symmetry_group_IT_number 2
_symmetry_cell_setting 'triclinic'
loop_
_space_group_symop_operation_xyz
x,y,z
-x,-y,-z
loop_
_atom_site_type_symbol
_atom_site_label
_atom_site_fract_x
_atom_site_fract_y
_atom_site_fract_z
Si Si1 0.847445 0.421415 0.460831
Si Si2 0.365452 0.683730 0.246611
Si Si3 0.900237 0.608389 0.993771
Si Si4 0.221459 0.957875 0.922433
Si Si5 0.587277 0.187655 0.335894
Si Si6 0.738504 0.708637 0.504615
Si Si7 0.127004 0.967954 0.444595
O O1 0.663119 0.300468 0.261658
O O2 0.784900 0.562785 0.472796
O O3 0.000000 0.500000 0.500000
O O4 0.963185 0.333411 0.712857
O O5 0.262254 0.512805 0.113107
O O6 0.407622 0.716441 0.489686
O O7 0.539824 0.698526 0.333259
O O8 0.256424 0.808879 0.061540
O O9 0.840401 0.721609 0.795030
O O10 0.000000 0.500000 0.000000
O O11 0.071021 0.037435 0.829026
O O12 0.150286 0.906048 0.659561
O O13 0.401313 0.080048 0.107765
O O14 0.726879 0.077702 0.512669
O O15 0.805516 0.852246 0.462328
#
# Coordination Sequence:
#
# PCOD9019325 Si02
#       7
#     2   2   2   2   2   2   2
#     4  11  27  47  73 107 146 189 249 299 361 433
#     4  12  24  46  74 107 148 192 244 299 357 438
#     4  10  21  44  70  98 146 192 235 293 360 429
#     4  11  26  47  73 106 152 193 239 301 363 429
#     4  12  26  47  71 114 142 186 252 300 349 438
#     4  11  24  47  72 104 143 200 239 292 373 425
#     4  11  27  47  75 102 150 200 238 293 376 420
#
# _framework density 25.430586000000002
#
# number of rings (size 3 to 8) (size 9 to 14) (size 15 to 20)
#    0.000    0.857    4.286    3.000    6.000    1.714 
#    0.000    1.429    0.000    0.000    0.000    0.000 
#    0.000    0.000    0.000    0.000    0.000    0.000 
#
# Total GULP energy -78286.404813 kJ/mol
# GULP energy per Si atom -5591.886058 kJ/mol
# Density = 2.537270 g / cm^3
# Si number density = 25.430586 Si / 1000 Ang^3
#
#
#
# Elastic Constant Matrix: (Units=GPa)
#
#
# Indices 1 2 3 4 5 6 
#
# 1 130.3210 30.2206 45.5724 0.8872 45.1434 2.9449
# 2 30.2206 47.0646 0.0123 1.5760 10.4142 0.6952
# 3 45.5724 0.0123 96.6854 -2.4837 19.4722 -4.1470
# 4 0.8872 1.5760 -2.4837 45.6327 4.3200 6.9732
# 5 45.1434 10.4142 19.4722 4.3200 47.1600 -4.3641
# 6 2.9449 0.6952 -4.1470 6.9732 -4.3641 47.9988
#
#
#
# Elastic Compliance Matrix: (Units=1/GPa)
#
#
# Indices 1 2 3 4 5 6 
#
# 1 0.014880 -0.007126 -0.004876 0.001096 -0.010979 -0.002388
# 2 -0.007126 0.025881 0.003398 -0.000617 -0.000201 0.000427
# 3 -0.004876 0.003398 0.012988 0.000641 -0.001398 0.001152
# 4 0.001096 -0.000617 0.000641 0.022848 -0.003608 -0.003650
# 5 -0.010979 -0.000201 -0.001398 -0.003608 0.033044 0.004084
# 6 -0.002388 0.000427 0.001152 -0.003650 0.004084 0.021975
#
#
# Mechanical properties :
#
#
# Convention : Reuss Voigt Hill
#
# Bulk Modulus (GPa) = 27.36534 47.29796 37.33165
# Shear Modulus (GPa) = 31.05502 41.37601 36.21552
#
# Velocity S-wave (km/s) = 3.49831 4.03801 3.77781
# Velocity P-wave (km/s) = 5.20593 6.35452 5.80868
#
# Compressibility (1/GPa) = 0.03654257
#
# Stress axis : x y z
#
# Youngs Moduli (GPa) = 67.20223 38.63851 76.99352
#
# Poissons Ratio (x) = 0.27533 0.37543
# Poissons Ratio (y) = 0.47886 -0.26166
# Poissons Ratio (z) = 0.32769 -0.13131
#
# Static dielectric constant tensor:
#      x y z
#    x 2.625910 0.353940 0.293920 
#    y 0.353940 2.259560 0.227090 
#    z 0.293920 0.227090 2.189230 
# 
# From -- ./inp_files/243769.got.cif
#   From: 2010.05.17/outbox.cif.g08.bks.cpg/sg2_122_cif.got.tgz:243769.got - 2010.06.03 11:33:40.
