data_PCOD9019908
_publ_section_title
;
Structure prediction by ZEFSAII (Michael W. Deem and Ramdas Pophale) SiO2 
 PCOD9019908
Probable space group: P -1
;
_chemical_formula_sum "Si O2"
_cell_formula_units_Z 16
_cell_length_a 16.645061
_cell_length_b 11.522640
_cell_length_c 19.649321
_cell_angle_alpha 138.014473
_cell_angle_beta 20.874320
_cell_angle_gamma 148.906957
_cell_volume 659.605638
_symmetry_space_group_name_H-M "P -1"
_symmetry_group_IT_number 2
_symmetry_cell_setting 'triclinic'
loop_
_space_group_symop_operation_xyz
x,y,z
-x,-y,-z
loop_
_atom_site_type_symbol
_atom_site_label
_atom_site_fract_x
_atom_site_fract_y
_atom_site_fract_z
Si Si1 0.328520 0.230165 0.027179
Si Si2 0.508026 0.158539 0.732264
Si Si3 0.922206 0.605138 0.952458
Si Si4 0.659103 0.379801 0.199240
Si Si5 0.259944 0.481506 0.579124
Si Si6 0.095666 0.877104 0.411754
Si Si7 0.648307 0.630754 0.787026
Si Si8 0.310980 0.994821 0.587377
O O1 0.267917 0.199121 0.141942
O O2 0.015734 0.097393 0.174932
O O3 0.500000 0.500000 0.000000
O O4 0.518219 0.182041 0.816481
O O5 0.578706 0.391748 0.754727
O O6 0.733709 0.160410 0.508530
O O7 0.182243 0.888226 0.859697
O O8 0.081355 0.498966 0.784717
O O9 0.715424 0.515335 0.143806
O O10 0.679659 0.478112 0.028684
O O11 0.442845 0.403350 0.421662
O O12 0.456154 0.100719 0.231408
O O13 0.000000 0.500000 0.000000
O O14 0.024270 0.326667 0.635593
O O15 0.498815 0.745727 0.477584
O O16 0.907683 0.772183 0.585064
O O17 0.000000 0.000000 0.500000
O O18 0.500000 0.000000 0.500000
#
# Coordination Sequence:
#
# PCOD9019908 Si02
#       8
#     2   2   2   2   2   2   2   2
#     4  10  25  41  62 103 144 186 244 286 348 420
#     4  10  24  42  71 102 149 186 234 287 355 430
#     4  11  23  43  72 105 138 195 237 289 368 428
#     4  11  25  48  72 104 141 186 241 308 360 417
#     4  10  23  43  68 104 135 179 248 285 354 436
#     4  10  21  45  72 100 140 184 242 296 353 425
#     4  11  22  44  71 104 148 191 239 295 357 428
#     4  11  24  41  69 104 145 193 232 289 355 428
#
# _framework density 24.256919
#
# number of rings (size 3 to 8) (size 9 to 14) (size 15 to 20)
#    0.000    1.500    2.500    1.875    8.750    5.000 
#    6.750    0.000    0.000    0.000    0.000    0.000 
#    0.000    0.000    0.000    0.000    0.000    0.000 
#
# Total GULP energy -89305.244927 kJ/mol
# GULP energy per Si atom -5581.577808 kJ/mol
# Density = 2.420171 g / cm^3
# Si number density = 24.256919 Si / 1000 Ang^3
#
#
#
# Elastic Constant Matrix: (Units=GPa)
#
#
# Indices 1 2 3 4 5 6 
#
# 1 79.9534 27.3228 32.9650 9.1871 9.3733 4.8566
# 2 27.3228 79.9227 51.6600 0.6050 -3.0287 9.3332
# 3 32.9650 51.6600 112.2583 8.6417 9.2325 15.3871
# 4 9.1871 0.6050 8.6417 56.6935 4.6465 6.6932
# 5 9.3733 -3.0287 9.2325 4.6465 44.8984 -0.8137
# 6 4.8566 9.3332 15.3871 6.6932 -0.8137 35.3599
#
#
#
# Elastic Compliance Matrix: (Units=1/GPa)
#
#
# Indices 1 2 3 4 5 6 
#
# 1 0.015325 -0.003797 -0.002414 -0.001877 -0.002760 0.000240
# 2 -0.003797 0.019233 -0.007965 0.001485 0.003551 -0.001288
# 3 -0.002414 -0.007965 0.014088 -0.001013 -0.002890 -0.003571
# 4 -0.001877 0.001485 -0.001013 0.018569 -0.001280 -0.003238
# 5 -0.002760 0.003551 -0.002890 -0.001280 0.023842 0.001490
# 6 0.000240 -0.001288 -0.003571 -0.003238 0.001490 0.030789
#
#
# Mechanical properties :
#
#
# Convention : Reuss Voigt Hill
#
# Bulk Modulus (GPa) = 49.28060 55.11444 52.19752
# Shear Modulus (GPa) = 31.85486 38.06947 34.96216
#
# Velocity S-wave (km/s) = 3.62778 3.96590 3.80060
# Velocity P-wave (km/s) = 6.15694 6.61374 6.38942
#
# Compressibility (1/GPa) = 0.02029196
#
# Stress axis : x y z
#
# Youngs Moduli (GPa) = 65.25305 51.99521 70.98381
#
# Poissons Ratio (x) = 0.19742 0.17137
# Poissons Ratio (y) = 0.24776 0.56542
# Poissons Ratio (z) = 0.15754 0.41416
#
# Static dielectric constant tensor:
#      x y z
#    x 2.373060 0.442930 -0.046840 
#    y 0.442930 2.330820 0.012880 
#    z -0.046840 0.012880 1.983200 
# 
# From -- ./inp_files/600086.got.cif
#   From: 2010.05.17/outbox.cif.g08.bks.cpg/sg2_301_cif.got.tgz:600086.got - 2010.06.03 11:33:40.
