data_PCOD9019375
_publ_section_title
;
Structure prediction by ZEFSAII (Michael W. Deem and Ramdas Pophale) SiO2 
 PCOD9019375
Probable space group: P -1
;
_chemical_formula_sum "Si O2"
_cell_formula_units_Z 15
_cell_length_a 24.815601
_cell_length_b 15.997059
_cell_length_c 14.965036
_cell_angle_alpha 29.558047
_cell_angle_beta 163.677126
_cell_angle_gamma 159.689426
_cell_volume 551.143900
_symmetry_space_group_name_H-M "P -1"
_symmetry_group_IT_number 2
_symmetry_cell_setting 'triclinic'
loop_
_space_group_symop_operation_xyz
x,y,z
-x,-y,-z
loop_
_atom_site_type_symbol
_atom_site_label
_atom_site_fract_x
_atom_site_fract_y
_atom_site_fract_z
Si Si1 0.080722 0.194953 0.144702
Si Si2 0.000000 0.000000 0.000000
Si Si3 0.928523 0.482241 0.618788
Si Si4 0.712010 0.230962 0.909368
Si Si5 0.131006 0.355126 0.340450
Si Si6 0.694455 0.151156 0.259073
Si Si7 0.479394 0.298778 0.194193
Si Si8 0.495187 0.606383 0.213198
O O1 0.361968 0.337555 0.515287
O O2 0.046236 0.370241 0.903967
O O3 0.042100 0.067195 0.112203
O O4 0.826751 0.970477 0.015695
O O5 0.754142 0.691980 0.918185
O O6 0.616726 0.274002 0.358463
O O7 0.105903 0.693501 0.783229
O O8 0.995604 0.621930 0.503873
O O9 0.815635 0.172625 0.050778
O O10 0.822213 0.485101 0.815902
O O11 0.387066 0.029616 0.619686
O O12 0.336107 0.568714 0.544713
O O13 0.263200 0.268339 0.595287
O O14 0.609932 0.271003 0.060374
O O15 0.500000 0.000000 0.000000
O O16 0.500000 0.500000 0.000000
#
# Coordination Sequence:
#
# PCOD9019375 Si02
#       8
#     2   1   2   2   2   2   2   2
#     4  12  25  46  79 107 151 207 251 311 383 457
#     4  12  26  46  72 118 156 186 262 306 380 462
#     4  10  21  44  71 107 149 203 249 306 386 444
#     4   9  20  41  71 110 151 192 252 316 369 455
#     4  10  21  44  71 107 149 198 254 304 380 449
#     4  10  23  41  71 114 148 196 251 314 381 449
#     4  11  26  47  73 107 153 199 255 324 372 453
#     4  12  25  46  77 113 152 204 250 313 381 452
#
# _framework density 27.216121000000001
#
# number of rings (size 3 to 8) (size 9 to 14) (size 15 to 20)
#    0.000    1.333    4.000    0.800    5.600    0.533 
#    0.000    0.000    0.000    5.600    0.000    0.000 
#    0.000    0.000    0.000    0.000    0.000    0.000 
#
# Total GULP energy -83833.687406 kJ/mol
# GULP energy per Si atom -5588.912494 kJ/mol
# Density = 2.715418 g / cm^3
# Si number density = 27.216121 Si / 1000 Ang^3
#
#
#
# Elastic Constant Matrix: (Units=GPa)
#
#
# Indices 1 2 3 4 5 6 
#
# 1 205.8713 71.6655 48.7927 17.3639 35.6643 17.3426
# 2 71.6655 81.7283 16.4958 -2.1629 -10.7291 3.9361
# 3 48.7927 16.4958 41.8220 4.8415 0.1205 -3.1189
# 4 17.3639 -2.1629 4.8415 43.8879 -6.5262 -9.5401
# 5 35.6643 -10.7291 0.1205 -6.5262 61.6378 8.6332
# 6 17.3426 3.9361 -3.1189 -9.5401 8.6332 74.3735
#
#
#
# Elastic Compliance Matrix: (Units=1/GPa)
#
#
# Indices 1 2 3 4 5 6 
#
# 1 0.014372 -0.011740 -0.011487 -0.007218 -0.010695 -0.002896
# 2 -0.011740 0.023430 0.003662 0.007376 0.011468 0.001266
# 3 -0.011487 0.003662 0.035810 0.002577 0.006996 0.003505
# 4 -0.007218 0.007376 0.002577 0.027765 0.007827 0.004054
# 5 -0.010695 0.011468 0.006996 0.007827 0.025187 0.000261
# 6 -0.002896 0.001266 0.003505 0.004054 0.000261 0.014691
#
#
# Mechanical properties :
#
#
# Convention : Reuss Voigt Hill
#
# Bulk Modulus (GPa) = 28.99829 67.03660 48.01745
# Shear Modulus (GPa) = 26.05818 48.81102 37.43460
#
# Velocity S-wave (km/s) = 3.09763 4.23952 3.71274
# Velocity P-wave (km/s) = 4.84476 6.97491 6.00504
#
# Compressibility (1/GPa) = 0.03448480
#
# Stress axis : x y z
#
# Youngs Moduli (GPa) = 69.57987 42.67976 27.92477
#
# Poissons Ratio (x) = 0.50104 0.32076
# Poissons Ratio (y) = 0.81684 -0.10227
# Poissons Ratio (z) = 0.79924 -0.15630
#
# Static dielectric constant tensor:
#      x y z
#    x 2.134590 0.061550 0.117230 
#    y 0.061550 2.135090 -0.005250 
#    z 0.117230 -0.005250 2.281510 
# 
# From -- ./inp_files/543025.got.cif
#   From: 2010.05.17/outbox.cif.g08.bks.cpg/sg2_272_cif.got.tgz:543025.got - 2010.06.03 11:33:40.
