data_PCOD9019868
_publ_section_title
;
Structure prediction by ZEFSAII (Michael W. Deem and Ramdas Pophale) SiO2 
 PCOD9019868
Probable space group: P -1
;
_chemical_formula_sum "Si O2"
_cell_formula_units_Z 12
_cell_length_a 7.602306
_cell_length_b 8.835774
_cell_length_c 19.423608
_cell_angle_alpha 146.641069
_cell_angle_beta 44.209634
_cell_angle_gamma 129.403755
_cell_volume 498.044729
_symmetry_space_group_name_H-M "P -1"
_symmetry_group_IT_number 2
_symmetry_cell_setting 'triclinic'
loop_
_space_group_symop_operation_xyz
x,y,z
-x,-y,-z
loop_
_atom_site_type_symbol
_atom_site_label
_atom_site_fract_x
_atom_site_fract_y
_atom_site_fract_z
Si Si1 0.504477 0.818425 0.595950
Si Si2 0.624324 0.810465 0.100976
Si Si3 0.874502 0.242161 0.978818
Si Si4 0.030064 0.159344 0.319858
Si Si5 0.244886 0.112298 0.583315
Si Si6 0.456648 0.688900 0.784508
O O1 0.500000 0.500000 0.500000
O O2 0.726253 0.917017 0.517543
O O3 0.238293 0.810961 0.627236
O O4 0.498092 0.042654 0.743466
O O5 0.918321 0.813800 0.042580
O O6 0.592535 0.025620 0.130268
O O7 0.500000 0.500000 0.000000
O O8 0.844946 0.017202 0.841987
O O9 0.618374 0.303444 0.111547
O O10 0.000000 0.500000 0.000000
O O11 0.262411 0.395001 0.346864
O O12 0.980153 0.024636 0.357551
O O13 0.265614 0.440240 0.714357
O O14 0.500000 0.000000 0.500000
#
# Coordination Sequence:
#
# PCOD9019868 Si02
#       6
#     2   2   2   2   2   2
#     4  10  21  45  70  97 137 181 221 284 341 398
#     4  11  25  43  70 102 136 178 233 279 341 406
#     4  11  22  43  68  97 139 177 225 283 340 401
#     4  10  23  41  70 101 133 176 233 274 343 407
#     4  10  22  42  69  94 139 175 227 277 338 402
#     4  12  23  43  71  98 139 181 225 285 342 400
#
# _framework density 24.09422
#
# number of rings (size 3 to 8) (size 9 to 14) (size 15 to 20)
#    0.000    1.333    3.333    2.000    0.000    2.667 
#    0.000    2.500    3.667    0.000    0.000    0.000 
#    0.000    0.000    0.000    0.000    0.000    0.000 
#
# Total GULP energy -67035.797872 kJ/mol
# GULP energy per Si atom -5586.316489 kJ/mol
# Density = 2.403938 g / cm^3
# Si number density = 24.094220 Si / 1000 Ang^3
#
#
#
# Elastic Constant Matrix: (Units=GPa)
#
#
# Indices 1 2 3 4 5 6 
#
# 1 91.6691 44.9747 21.9039 -9.8511 -13.6339 -5.0862
# 2 44.9747 182.5978 73.3150 -36.1577 8.2177 -8.1978
# 3 21.9039 73.3150 131.8507 -9.3401 37.3268 -2.6822
# 4 -9.8511 -36.1577 -9.3401 60.1281 -6.1928 -1.9818
# 5 -13.6339 8.2177 37.3268 -6.1928 37.4912 -4.1521
# 6 -5.0862 -8.1978 -2.6822 -1.9818 -4.1521 30.0208
#
#
#
# Elastic Compliance Matrix: (Units=1/GPa)
#
#
# Indices 1 2 3 4 5 6 
#
# 1 0.014823 -0.001938 -0.004209 0.001813 0.010660 0.003200
# 2 -0.001938 0.008969 -0.005323 0.004709 0.003680 0.002465
# 3 -0.004209 -0.005323 0.015740 -0.003301 -0.016948 -0.003322
# 4 0.001813 0.004709 -0.003301 0.020045 0.006616 0.003536
# 5 0.010660 0.003680 -0.016948 0.006616 0.048647 0.008462
# 6 0.003200 0.002465 -0.003322 0.003536 0.008462 0.035632
#
#
# Mechanical properties :
#
#
# Convention : Reuss Voigt Hill
#
# Bulk Modulus (GPa) = 60.27270 76.27830 68.27550
# Shear Modulus (GPa) = 29.01455 43.25628 36.13541
#
# Velocity S-wave (km/s) = 3.47394 4.24169 3.87687
# Velocity P-wave (km/s) = 6.41566 7.46434 6.95978
#
# Compressibility (1/GPa) = 0.01659126
#
# Stress axis : x y z
#
# Youngs Moduli (GPa) = 67.46164 111.49865 63.53214
#
# Poissons Ratio (x) = 0.21610 0.26741
# Poissons Ratio (y) = 0.13075 0.33819
# Poissons Ratio (z) = 0.28395 0.59352
#
# Static dielectric constant tensor:
#      x y z
#    x 1.932950 0.072140 0.029790 
#    y 0.072140 2.025370 0.026530 
#    z 0.029790 0.026530 2.021230 
# 
# From -- ./inp_files/26326.got.cif
#   From: 2010.05.17/outbox.cif.g08.bks.cpg/sg2_14_cif.got.tgz:26326.got - 2010.06.03 11:33:40.
