data_PCOD9019896
_publ_section_title
;
Structure prediction by ZEFSAII (Michael W. Deem and Ramdas Pophale) SiO2 
 PCOD9019896
Probable space group: P -1
;
_chemical_formula_sum "Si O2"
_cell_formula_units_Z 14
_cell_length_a 13.330157
_cell_length_b 8.090415
_cell_length_c 12.813511
_cell_angle_alpha 124.058665
_cell_angle_beta 63.289358
_cell_angle_gamma 150.382341
_cell_volume 563.432279
_symmetry_space_group_name_H-M "P -1"
_symmetry_group_IT_number 2
_symmetry_cell_setting 'triclinic'
loop_
_space_group_symop_operation_xyz
x,y,z
-x,-y,-z
loop_
_atom_site_type_symbol
_atom_site_label
_atom_site_fract_x
_atom_site_fract_y
_atom_site_fract_z
Si Si1 0.270913 0.600471 0.799205
Si Si2 0.701797 0.171670 0.492136
Si Si3 0.643989 0.836471 0.969138
Si Si4 0.013063 0.789282 0.394491
Si Si5 0.681542 0.738148 0.240092
Si Si6 0.019799 0.793720 0.921398
Si Si7 0.693090 0.104397 0.702054
O O1 0.087888 0.391085 0.735309
O O2 0.229172 0.344295 0.797906
O O3 0.455437 0.791845 0.709163
O O4 0.355104 0.924360 0.929527
O O5 0.877153 0.490697 0.442979
O O6 0.763197 0.300633 0.628334
O O7 0.500000 0.000000 0.500000
O O8 0.668284 0.886341 0.386751
O O9 0.542000 0.632455 0.835155
O O10 0.500000 0.500000 0.000000
O O11 0.872802 0.108595 0.986506
O O12 0.232397 0.012091 0.373407
O O13 0.000000 0.000000 0.500000
O O14 0.823612 0.030391 0.183151
O O15 0.808465 0.380724 0.841937
O O16 0.000000 0.000000 0.000000
#
# Coordination Sequence:
#
# PCOD9019896 Si02
#       7
#     2   2   2   2   2   2   2
#     4  12  25  46  69 108 141 181 230 291 350 403
#     4  12  26  45  72 103 140 190 229 279 353 411
#     4  10  21  45  71  96 137 181 229 283 343 406
#     4  12  26  45  68 103 142 181 234 287 336 417
#     4  11  25  45  70 101 145 181 229 292 343 413
#     4  11  24  44  73 102 132 187 237 283 349 413
#     4  12  25  45  71 100 145 181 233 281 347 416
#
# _framework density 24.847705999999999
#
# number of rings (size 3 to 8) (size 9 to 14) (size 15 to 20)
#    0.000    0.571    4.286    4.286    6.000    1.143 
#    2.571    1.429    0.000    0.000    0.000    0.000 
#    0.000    0.000    0.000    0.000    0.000    0.000 
#
# Total GULP energy -78447.905116 kJ/mol
# GULP energy per Si atom -5603.421794 kJ/mol
# Density = 2.479115 g / cm^3
# Si number density = 24.847706 Si / 1000 Ang^3
#
#
#
# Elastic Constant Matrix: (Units=GPa)
#
#
# Indices 1 2 3 4 5 6 
#
# 1 138.2711 15.4901 18.9264 4.0799 -10.1021 6.4530
# 2 15.4901 47.5794 19.0850 -0.4642 3.5587 -17.5215
# 3 18.9264 19.0850 73.5395 12.4765 -7.3997 -0.0971
# 4 4.0799 -0.4642 12.4765 30.9566 -7.0825 -4.0454
# 5 -10.1021 3.5587 -7.3997 -7.0825 60.0361 8.1732
# 6 6.4530 -17.5215 -0.0971 -4.0454 8.1732 41.8860
#
#
#
# Elastic Compliance Matrix: (Units=1/GPa)
#
#
# Indices 1 2 3 4 5 6 
#
# 1 0.008052 -0.003603 -0.000827 -0.000784 0.001807 -0.003178
# 2 -0.003603 0.031741 -0.008695 0.005308 -0.005017 0.015304
# 3 -0.000827 -0.008695 0.017508 -0.007150 0.002319 -0.004612
# 4 -0.000784 0.005308 -0.007150 0.036591 0.002251 0.005419
# 5 0.001807 -0.005017 0.002319 0.002251 0.018597 -0.005783
# 6 -0.003178 0.015304 -0.004612 0.005419 -0.005783 0.032407
#
#
# Mechanical properties :
#
#
# Convention : Reuss Voigt Hill
#
# Bulk Modulus (GPa) = 32.20467 40.71035 36.45751
# Shear Modulus (GPa) = 27.54865 40.30165 33.92515
#
# Velocity S-wave (km/s) = 3.33333 4.03171 3.69904
# Velocity P-wave (km/s) = 5.27292 6.17191 5.74004
#
# Compressibility (1/GPa) = 0.03105140
#
# Stress axis : x y z
#
# Youngs Moduli (GPa) = 124.18626 31.50459 57.11752
#
# Poissons Ratio (x) = 0.11351 0.04722
# Poissons Ratio (y) = 0.44745 0.49665
# Poissons Ratio (z) = 0.10267 0.27394
#
# Static dielectric constant tensor:
#      x y z
#    x 1.884600 0.048470 -0.114590 
#    y 0.048470 1.905820 0.190440 
#    z -0.114590 0.190440 1.552390 
# 
# From -- ./inp_files/199228.got.cif
#   From: 2010.05.17/outbox.cif.g08.bks.cpg/sg2_100_cif.got.tgz:199228.got - 2010.06.03 11:33:40.
