data_PCOD9019829
_publ_section_title
;
Structure prediction by ZEFSAII (Michael W. Deem and Ramdas Pophale) SiO2 
 PCOD9019829
Probable space group: P -1
;
_chemical_formula_sum "Si O2"
_cell_formula_units_Z 15
_cell_length_a 7.941146
_cell_length_b 14.404414
_cell_length_c 17.369541
_cell_angle_alpha 22.152350
_cell_angle_beta 124.085246
_cell_angle_gamma 121.102501
_cell_volume 620.459961
_symmetry_space_group_name_H-M "P -1"
_symmetry_group_IT_number 2
_symmetry_cell_setting 'triclinic'
loop_
_space_group_symop_operation_xyz
x,y,z
-x,-y,-z
loop_
_atom_site_type_symbol
_atom_site_label
_atom_site_fract_x
_atom_site_fract_y
_atom_site_fract_z
Si Si1 0.335398 0.639368 0.296328
Si Si2 0.060307 0.830503 0.283374
Si Si3 0.558690 0.512348 0.306006
Si Si4 0.000000 0.000000 0.000000
Si Si5 0.704887 0.147583 0.418330
Si Si6 0.319551 0.291268 0.977059
Si Si7 0.093257 0.152907 0.606278
Si Si8 0.333646 0.020339 0.625387
O O1 0.500000 0.500000 0.500000
O O2 0.461216 0.678524 0.220217
O O3 0.225334 0.869358 0.129756
O O4 0.160520 0.434333 0.394249
O O5 0.253730 0.664693 0.481507
O O6 0.961065 0.754849 0.236431
O O7 0.912924 0.877885 0.280150
O O8 0.130212 0.103575 0.057601
O O9 0.594910 0.646475 0.132338
O O10 0.388743 0.302374 0.408074
O O11 0.702247 0.443280 0.193793
O O12 0.867288 0.087914 0.571565
O O13 0.772179 0.074927 0.405488
O O14 0.500000 0.000000 0.500000
O O15 0.462522 0.138060 0.188292
O O16 0.228643 0.003606 0.694811
#
# Coordination Sequence:
#
# PCOD9019829 Si02
#       8
#     2   2   2   1   2   2   2   2
#     4  11  25  48  74 107 144 187 239 308 366 429
#     4  11  24  44  66 105 139 186 242 295 362 432
#     4  10  21  45  69  97 145 183 233 302 359 412
#     4  12  26  42  74 108 134 184 250 286 372 446
#     4  12  21  43  72 101 140 193 237 292 356 421
#     4  11  22  42  69  99 137 189 236 293 350 427
#     4  11  25  45  69 102 149 186 231 300 365 421
#     4  10  23  40  66 102 138 184 240 288 353 425
#
# _framework density 24.175611
#
# number of rings (size 3 to 8) (size 9 to 14) (size 15 to 20)
#    0.000    1.067    4.000    2.400    1.867    1.600 
#    0.000    2.667    0.000    0.000    0.000    0.000 
#    0.000    0.000    0.000    0.000    0.000    0.000 
#
# Total GULP energy -83657.602053 kJ/mol
# GULP energy per Si atom -5577.173470 kJ/mol
# Density = 2.412059 g / cm^3
# Si number density = 24.175611 Si / 1000 Ang^3
#
#
#
# Elastic Constant Matrix: (Units=GPa)
#
#
# Indices 1 2 3 4 5 6 
#
# 1 124.7543 44.6725 52.8253 -11.7306 -13.2425 -36.7423
# 2 44.6725 100.2792 24.5114 -10.7410 -1.0157 -17.5130
# 3 52.8253 24.5114 68.5667 -17.0379 -11.7132 -7.8674
# 4 -11.7306 -10.7410 -17.0379 45.2232 -8.7497 -5.8043
# 5 -13.2425 -1.0157 -11.7132 -8.7497 50.8540 5.3737
# 6 -36.7423 -17.5130 -7.8674 -5.8043 5.3737 63.7734
#
#
#
# Elastic Compliance Matrix: (Units=1/GPa)
#
#
# Indices 1 2 3 4 5 6 
#
# 1 0.015416 -0.003259 -0.009559 0.000716 0.001155 0.006775
# 2 -0.003259 0.012194 -0.001434 0.001543 -0.000829 0.001504
# 3 -0.009559 -0.001434 0.024713 0.007059 0.004664 -0.002603
# 4 0.000716 0.001543 0.007059 0.026973 0.006099 0.003648
# 5 0.001155 -0.000829 0.004664 0.006099 0.022103 -0.000294
# 6 0.006775 0.001504 -0.002603 0.003648 -0.000294 0.020033
#
#
# Mechanical properties :
#
#
# Convention : Reuss Voigt Hill
#
# Bulk Modulus (GPa) = 41.98182 59.73537 50.85860
# Shear Modulus (GPa) = 31.67057 43.40952 37.54005
#
# Velocity S-wave (km/s) = 3.62335 4.24204 3.94484
# Velocity P-wave (km/s) = 5.90829 6.98253 6.46775
#
# Compressibility (1/GPa) = 0.02381984
#
# Stress axis : x y z
#
# Youngs Moduli (GPa) = 64.86865 82.00635 40.46390
#
# Poissons Ratio (x) = 0.26728 0.38679
# Poissons Ratio (y) = 0.21143 0.05801
# Poissons Ratio (z) = 0.62007 0.11757
#
# Static dielectric constant tensor:
#      x y z
#    x 1.955990 0.264110 0.029380 
#    y 0.264110 0.567640 -0.274440 
#    z 0.029380 -0.274440 1.865050 
# 
# From -- ./inp_files/561103.got.cif
#   From: 2010.05.17/outbox.cif.g08.bks.cpg/sg2_281_cif.got.tgz:561103.got - 2010.06.03 11:33:40.
