data_PCOD9019033
_publ_section_title
;
Structure prediction by ZEFSAII (Michael W. Deem and Ramdas Pophale) SiO2 
 PCOD9019033
Probable space group: P -1
;
_chemical_formula_sum "Si O2"
_cell_formula_units_Z 14
_cell_length_a 7.406328
_cell_length_b 23.290978
_cell_length_c 8.489228
_cell_angle_alpha 132.376548
_cell_angle_beta 134.122106
_cell_angle_gamma 33.355994
_cell_volume 561.912988
_symmetry_space_group_name_H-M "P -1"
_symmetry_group_IT_number 2
_symmetry_cell_setting 'triclinic'
loop_
_space_group_symop_operation_xyz
x,y,z
-x,-y,-z
loop_
_atom_site_type_symbol
_atom_site_label
_atom_site_fract_x
_atom_site_fract_y
_atom_site_fract_z
Si Si1 0.316549 0.103445 0.427999
Si Si2 0.839421 0.234882 0.111528
Si Si3 0.643592 0.541592 0.936333
Si Si4 0.606712 0.215158 0.361511
Si Si5 0.657007 0.785140 0.088030
Si Si6 0.976035 0.912281 0.329502
Si Si7 0.524013 0.401421 0.701638
O O1 0.475724 0.124625 0.697868
O O2 0.987191 0.132667 0.359948
O O3 0.596997 0.984735 0.310975
O O4 0.132524 0.191560 0.338883
O O5 0.667967 0.341732 0.111255
O O6 0.525107 0.256124 0.046711
O O7 0.000463 0.137967 0.910829
O O8 0.661751 0.545612 0.145628
O O9 0.533524 0.474026 0.727325
O O10 0.000000 0.500000 0.000000
O O11 0.420255 0.338771 0.458505
O O12 0.705841 0.182877 0.543090
O O13 0.408367 0.193722 0.099000
O O14 0.067203 0.696587 0.195189
O O15 0.000000 0.000000 0.500000
#
# Coordination Sequence:
#
# PCOD9019033 Si02
#       7
#     2   2   2   2   2   2   2
#     4  10  23  42  65  96 138 184 225 275 345 407
#     4  11  22  43  66  98 142 173 226 293 333 409
#     4  11  22  42  75 102 140 176 229 288 343 414
#     4  10  23  43  69  96 140 178 227 286 333 416
#     4  10  21  44  67  96 141 178 227 277 340 411
#     4  12  23  41  66 101 136 181 228 282 348 399
#     4  10  22  43  71 102 134 184 225 280 356 403
#
# _framework density 24.914888999999999
#
# number of rings (size 3 to 8) (size 9 to 14) (size 15 to 20)
#    0.000    1.429    4.286    0.857    0.000    1.714 
#    5.143   10.714    0.000    0.000    0.000    0.000 
#    0.000    0.000    0.000    0.000    0.000    0.000 
#
# Total GULP energy -78279.824939 kJ/mol
# GULP energy per Si atom -5591.416067 kJ/mol
# Density = 2.485818 g / cm^3
# Si number density = 24.914889 Si / 1000 Ang^3
#
#
#
# Elastic Constant Matrix: (Units=GPa)
#
#
# Indices 1 2 3 4 5 6 
#
# 1 119.2071 22.5067 15.2885 14.7089 -2.3158 3.2303
# 2 22.5067 95.3989 31.9675 8.3450 3.5596 25.2204
# 3 15.2885 31.9675 110.6959 4.2120 -8.3527 11.6246
# 4 14.7089 8.3450 4.2120 35.9964 1.1301 -5.4626
# 5 -2.3158 3.5596 -8.3527 1.1301 28.2562 9.0964
# 6 3.2303 25.2204 11.6246 -5.4626 9.0964 39.4082
#
#
#
# Elastic Compliance Matrix: (Units=1/GPa)
#
#
# Indices 1 2 3 4 5 6 
#
# 1 0.009219 -0.001669 -0.000563 -0.003379 0.001006 -0.000222
# 2 -0.001669 0.014493 -0.002872 -0.003690 0.000184 -0.008845
# 3 -0.000563 -0.002872 0.010531 -0.000818 0.004204 -0.002306
# 4 -0.003379 -0.003690 -0.000818 0.031473 -0.003937 0.008151
# 5 0.001006 0.000184 0.004204 -0.003937 0.040499 -0.011334
# 6 -0.000222 -0.008845 -0.002306 0.008151 -0.011334 0.035480
#
#
# Mechanical properties :
#
#
# Convention : Reuss Voigt Hill
#
# Bulk Modulus (GPa) = 41.60797 51.64747 46.62772
# Shear Modulus (GPa) = 31.26660 37.76809 34.51734
#
# Velocity S-wave (km/s) = 3.54635 3.89766 3.72615
# Velocity P-wave (km/s) = 5.78836 6.40548 6.10473
#
# Compressibility (1/GPa) = 0.02403386
#
# Stress axis : x y z
#
# Youngs Moduli (GPa) = 108.47488 69.00070 94.95409
#
# Poissons Ratio (x) = 0.11519 0.05349
# Poissons Ratio (y) = 0.18109 0.27267
# Poissons Ratio (z) = 0.06111 0.19814
#
# Static dielectric constant tensor:
#      x y z
#    x 2.103100 0.055970 0.006560 
#    y 0.055970 1.977100 0.001690 
#    z 0.006560 0.001690 1.980900 
# 
# From -- ./inp_files/226547.got.cif
#   From: 2010.05.17/outbox.cif.g08.bks.cpg/sg2_114_cif.got.tgz:226547.got - 2010.06.03 11:33:40.
