data_PCOD9019688
_publ_section_title
;
Structure prediction by ZEFSAII (Michael W. Deem and Ramdas Pophale) SiO2 
 PCOD9019688
Probable space group: P -1
;
_chemical_formula_sum "Si O2"
_cell_formula_units_Z 14
_cell_length_a 9.047155
_cell_length_b 13.192359
_cell_length_c 9.450079
_cell_angle_alpha 146.071941
_cell_angle_beta 96.440294
_cell_angle_gamma 80.280264
_cell_volume 619.701958
_symmetry_space_group_name_H-M "P -1"
_symmetry_group_IT_number 2
_symmetry_cell_setting 'triclinic'
loop_
_space_group_symop_operation_xyz
x,y,z
-x,-y,-z
loop_
_atom_site_type_symbol
_atom_site_label
_atom_site_fract_x
_atom_site_fract_y
_atom_site_fract_z
Si Si1 0.919740 0.026679 0.673300
Si Si2 0.403344 0.196424 0.193734
Si Si3 0.654075 0.282303 0.507235
Si Si4 0.856356 0.640803 0.200126
Si Si5 0.643998 0.669451 0.969230
Si Si6 0.663501 0.324846 0.890328
Si Si7 0.880699 0.938492 0.022306
O O1 0.903460 0.821171 0.489426
O O2 0.024202 0.126207 0.904249
O O3 0.766110 0.160291 0.789696
O O4 0.000000 0.000000 0.500000
O O5 0.496779 0.313914 0.440735
O O6 0.402790 0.231383 0.066286
O O7 0.500000 0.000000 0.000000
O O8 0.228700 0.195791 0.209030
O O9 0.724240 0.467494 0.703960
O O10 0.640971 0.264765 0.654939
O O11 0.764100 0.112403 0.262292
O O12 0.759006 0.738402 0.170865
O O13 0.748682 0.506190 0.104200
O O14 0.000000 0.500000 0.000000
O O15 0.495707 0.645960 0.015827
O O16 0.000000 0.000000 0.000000
#
# Coordination Sequence:
#
# PCOD9019688 Si02
#       7
#     2   2   2   2   2   2   2
#     4  12  22  42  69  97 139 177 220 281 339 384
#     4  10  24  43  66  93 133 177 221 269 331 400
#     4  10  21  45  66  94 134 172 215 281 333 389
#     4  11  22  40  68 101 135 175 218 280 335 391
#     4  11  24  44  68 100 133 172 225 277 335 402
#     4  11  25  42  70 104 135 172 227 278 334 405
#     4  11  25  43  64  94 133 174 226 272 327 403
#
# _framework density 22.591505999999999
#
# number of rings (size 3 to 8) (size 9 to 14) (size 15 to 20)
#    0.000    1.143    2.857    3.857    6.000    2.857 
#    2.571    0.714    0.000    0.000    0.000    0.000 
#    0.000    0.000    0.000    0.000    0.000    0.000 
#
# Total GULP energy -78172.439514 kJ/mol
# GULP energy per Si atom -5583.745680 kJ/mol
# Density = 2.254009 g / cm^3
# Si number density = 22.591506 Si / 1000 Ang^3
#
#
#
# Elastic Constant Matrix: (Units=GPa)
#
#
# Indices 1 2 3 4 5 6 
#
# 1 130.5633 41.2390 17.0347 -10.4603 11.3339 -3.0886
# 2 41.2390 101.3370 6.5010 -7.2569 -8.3824 -3.1710
# 3 17.0347 6.5010 48.2580 3.7144 9.5838 -3.6082
# 4 -10.4603 -7.2569 3.7144 34.1664 -8.3930 -0.1436
# 5 11.3339 -8.3824 9.5838 -8.3930 37.1279 -0.1974
# 6 -3.0886 -3.1710 -3.6082 -0.1436 -0.1974 53.0174
#
#
#
# Elastic Compliance Matrix: (Units=1/GPa)
#
#
# Indices 1 2 3 4 5 6 
#
# 1 0.009570 -0.003842 -0.002428 0.001696 -0.002778 0.000157
# 2 -0.003842 0.012142 -0.001436 0.002767 0.004913 0.000430
# 3 -0.002428 -0.001436 0.023647 -0.005303 -0.006879 0.001342
# 4 0.001696 0.002767 -0.005303 0.033156 0.008971 0.000027
# 5 -0.002778 0.004913 -0.006879 0.008971 0.032694 -0.000190
# 6 0.000157 0.000430 0.001342 0.000027 -0.000190 0.018987
#
#
# Mechanical properties :
#
#
# Convention : Reuss Voigt Hill
#
# Bulk Modulus (GPa) = 33.39201 45.52310 39.45756
# Shear Modulus (GPa) = 32.13578 39.22125 35.67852
#
# Velocity S-wave (km/s) = 3.77566 4.17118 3.97834
# Velocity P-wave (km/s) = 5.81553 6.58731 6.21341
#
# Compressibility (1/GPa) = 0.02994728
#
# Stress axis : x y z
#
# Youngs Moduli (GPa) = 104.49091 82.36023 42.28885
#
# Poissons Ratio (x) = 0.31645 0.10267
# Poissons Ratio (y) = 0.40148 0.06072
# Poissons Ratio (z) = 0.25368 0.11825
#
# Static dielectric constant tensor:
#      x y z
#    x 1.852450 -0.086690 0.112880 
#    y -0.086690 1.798880 -0.008830 
#    z 0.112880 -0.008830 1.918100 
# 
# From -- ./inp_files/153734.got.cif
#   From: 2010.05.17/outbox.cif.g08.bks.cpg/sg2_77_cif.got.tgz:153734.got - 2010.06.03 11:33:40.
