data_PCOD9019317
_publ_section_title
;
Structure prediction by ZEFSAII (Michael W. Deem and Ramdas Pophale) SiO2 
 PCOD9019317
Probable space group: P -1
;
_chemical_formula_sum "Si O2"
_cell_formula_units_Z 12
_cell_length_a 8.348809
_cell_length_b 11.193877
_cell_length_c 7.185206
_cell_angle_alpha 105.593163
_cell_angle_beta 88.197832
_cell_angle_gamma 48.534171
_cell_volume 463.812724
_symmetry_space_group_name_H-M "P -1"
_symmetry_group_IT_number 2
_symmetry_cell_setting 'triclinic'
loop_
_space_group_symop_operation_xyz
x,y,z
-x,-y,-z
loop_
_atom_site_type_symbol
_atom_site_label
_atom_site_fract_x
_atom_site_fract_y
_atom_site_fract_z
Si Si1 0.547405 0.840909 0.849286
Si Si2 0.846298 0.035094 0.854237
Si Si3 0.897405 0.354908 0.444402
Si Si4 0.874390 0.693037 0.056030
Si Si5 0.289744 0.307373 0.587178
Si Si6 0.737170 0.342583 0.823372
O O1 0.523493 0.829109 0.629167
O O2 0.799176 0.707880 0.854478
O O3 0.500000 0.000000 0.000000
O O4 0.389590 0.842491 0.977642
O O5 0.961069 0.843321 0.708298
O O6 0.800632 0.162603 0.751948
O O7 0.000000 0.000000 0.000000
O O8 0.757674 0.519819 0.375383
O O9 0.736106 0.394957 0.635039
O O10 0.073113 0.348142 0.542401
O O11 0.674560 0.776997 0.249061
O O12 0.047158 0.709203 0.101322
O O13 0.000000 0.500000 0.000000
O O14 0.500000 0.500000 0.000000
#
# Coordination Sequence:
#
# PCOD9019317 Si02
#       6
#     2   2   2   2   2   2
#     4  12  24  46  72 104 140 180 238 289 341 418
#     4  12  26  45  67 103 146 181 225 289 357 409
#     4  10  21  44  70  98 138 183 229 288 336 420
#     4  11  24  43  76 101 136 186 234 290 339 414
#     4  10  22  43  74 102 134 179 243 284 342 407
#     4  11  24  45  70 102 141 182 229 285 358 413
#
# _framework density 25.872512
#
# number of rings (size 3 to 8) (size 9 to 14) (size 15 to 20)
#    0.000    1.000    1.667    6.500    2.333    0.667 
#    9.000    1.667    0.000    0.000    0.000    0.000 
#    0.000    0.000    0.000    0.000    0.000    0.000 
#
# Total GULP energy -66903.353759 kJ/mol
# GULP energy per Si atom -5575.279480 kJ/mol
# Density = 2.581363 g / cm^3
# Si number density = 25.872512 Si / 1000 Ang^3
#
#
#
# Elastic Constant Matrix: (Units=GPa)
#
#
# Indices 1 2 3 4 5 6 
#
# 1 96.1828 22.9252 36.5560 -4.5278 -10.3473 18.5098
# 2 22.9252 103.4976 36.6885 7.7258 1.5860 35.9171
# 3 36.5560 36.6885 169.8198 0.1233 -14.1224 19.8605
# 4 -4.5278 7.7258 0.1233 49.7862 14.6664 8.3797
# 5 -10.3473 1.5860 -14.1224 14.6664 40.3411 -1.9361
# 6 18.5098 35.9171 19.8605 8.3797 -1.9361 47.6411
#
#
#
# Elastic Compliance Matrix: (Units=1/GPa)
#
#
# Indices 1 2 3 4 5 6 
#
# 1 0.012262 -0.001007 -0.001870 0.001284 0.001901 -0.003374
# 2 -0.001007 0.013800 -0.001830 -0.000119 -0.001845 -0.009303
# 3 -0.001870 -0.001830 0.006938 -0.000431 0.002148 -0.000623
# 4 0.001284 -0.000119 -0.000431 0.023552 -0.008606 -0.004722
# 5 0.001901 -0.001845 0.002148 -0.008606 0.029348 0.002463
# 6 -0.003374 -0.009303 -0.000623 -0.004722 0.002463 0.030505
#
#
# Mechanical properties :
#
#
# Convention : Reuss Voigt Hill
#
# Bulk Modulus (GPa) = 42.39933 62.42661 52.41297
# Shear Modulus (GPa) = 37.40230 45.77572 41.58901
#
# Velocity S-wave (km/s) = 3.80628 4.21084 4.01366
# Velocity P-wave (km/s) = 5.97833 6.91538 6.46386
#
# Compressibility (1/GPa) = 0.02358528
#
# Stress axis : x y z
#
# Youngs Moduli (GPa) = 81.55298 72.46593 144.12730
#
# Poissons Ratio (x) = 0.07300 0.26955
# Poissons Ratio (y) = 0.08215 0.26371
# Poissons Ratio (z) = 0.15252 0.13259
#
# Static dielectric constant tensor:
#      x y z
#    x 2.066390 0.014520 -0.072560 
#    y 0.014520 2.081650 0.043260 
#    z -0.072560 0.043260 2.099880 
# 
# From -- ./inp_files/165486.got.cif
#   From: 2010.05.17/outbox.cif.g08.bks.cpg/sg2_83_cif.got.tgz:165486.got - 2010.06.03 11:33:40.
