data_PCOD9019450
_publ_section_title
;
Structure prediction by ZEFSAII (Michael W. Deem and Ramdas Pophale) SiO2 
 PCOD9019450
Probable space group: P -1
;
_chemical_formula_sum "Si O2"
_cell_formula_units_Z 16
_cell_length_a 7.537881
_cell_length_b 19.110588
_cell_length_c 6.759489
_cell_angle_alpha 117.001903
_cell_angle_beta 103.563316
_cell_angle_gamma 117.150337
_cell_volume 641.076073
_symmetry_space_group_name_H-M "P -1"
_symmetry_group_IT_number 2
_symmetry_cell_setting 'triclinic'
loop_
_space_group_symop_operation_xyz
x,y,z
-x,-y,-z
loop_
_atom_site_type_symbol
_atom_site_label
_atom_site_fract_x
_atom_site_fract_y
_atom_site_fract_z
Si Si1 0.165397 0.857098 0.188220
Si Si2 0.099987 0.570985 0.305865
Si Si3 0.848377 0.555463 0.600620
Si Si4 0.623637 0.239190 0.880513
Si Si5 0.714012 0.009642 0.965606
Si Si6 0.521169 0.788960 0.740109
Si Si7 0.225961 0.306173 0.388281
Si Si8 0.848410 0.801510 0.416369
O O1 0.339145 0.838204 0.291422
O O2 0.260505 0.956549 0.213541
O O3 0.978156 0.826021 0.271193
O O4 0.042019 0.775264 0.870785
O O5 0.248209 0.545055 0.429985
O O6 0.902904 0.541848 0.375053
O O7 0.000000 0.500000 0.000000
O O8 0.112044 0.646238 0.887037
O O9 0.701290 0.593716 0.573297
O O10 0.735650 0.308091 0.543297
O O11 0.407319 0.226537 0.705803
O O12 0.529549 0.207280 0.039932
O O13 0.652720 0.901240 0.833990
O O14 0.954478 0.097720 0.268110
O O15 0.500000 0.000000 0.000000
O O16 0.666327 0.748177 0.710868
O O17 0.211763 0.296884 0.610057
#
# Coordination Sequence:
#
# PCOD9019450 Si02
#       8
#     2   2   2   2   2   2   2   2
#     4  10  22  46  68 103 147 192 243 292 349 423
#     4  10  23  44  76 103 132 189 242 291 369 430
#     4   9  22  45  72 103 147 176 234 305 361 425
#     4  10  21  44  72 103 143 189 237 297 360 421
#     4  11  25  47  69 103 153 196 237 296 356 421
#     4  11  23  46  71 101 151 187 238 304 360 419
#     4  10  23  44  68 104 148 189 230 298 358 427
#     4  11  25  42  71 106 143 192 247 283 353 438
#
# _framework density 24.958037000000001
#
# number of rings (size 3 to 8) (size 9 to 14) (size 15 to 20)
#    0.000    1.750    2.500    0.000    3.500    6.500 
#    2.250    0.625    0.000    0.000    0.000    0.000 
#    0.000    0.000    0.000    0.000    0.000    0.000 
#
# Total GULP energy -89378.280162 kJ/mol
# GULP energy per Si atom -5586.142510 kJ/mol
# Density = 2.490123 g / cm^3
# Si number density = 24.958037 Si / 1000 Ang^3
#
#
#
# Elastic Constant Matrix: (Units=GPa)
#
#
# Indices 1 2 3 4 5 6 
#
# 1 142.2717 40.2513 26.6210 -23.2016 7.5471 -22.1242
# 2 40.2513 180.9000 34.3734 -28.5924 4.0983 -13.4608
# 3 26.6210 34.3734 99.2877 -10.1230 5.9041 3.6041
# 4 -23.2016 -28.5924 -10.1230 38.2322 4.5204 1.1323
# 5 7.5471 4.0983 5.9041 4.5204 24.9854 -3.3148
# 6 -22.1242 -13.4608 3.6041 1.1323 -3.3148 36.6690
#
#
#
# Elastic Compliance Matrix: (Units=1/GPa)
#
#
# Indices 1 2 3 4 5 6 
#
# 1 0.009254 -0.000489 -0.001855 0.004897 -0.002471 0.005212
# 2 -0.000489 0.006865 -0.001811 0.004419 -0.001062 0.002171
# 3 -0.001855 -0.001811 0.011556 0.000966 -0.002469 -0.003173
# 4 0.004897 0.004419 0.000966 0.033572 -0.008147 0.002709
# 5 -0.002471 -0.001062 -0.002469 -0.008147 0.043337 0.002531
# 6 0.005212 0.002171 -0.003173 0.002709 0.002531 0.031669
#
#
# Mechanical properties :
#
#
# Convention : Reuss Voigt Hill
#
# Bulk Modulus (GPa) = 51.63478 69.43896 60.53687
# Shear Modulus (GPa) = 33.10860 41.39156 37.25008
#
# Velocity S-wave (km/s) = 3.64616 4.07682 3.86749
# Velocity P-wave (km/s) = 6.20158 7.07413 6.65217
#
# Compressibility (1/GPa) = 0.01936679
#
# Stress axis : x y z
#
# Youngs Moduli (GPa) = 108.05649 145.67141 86.53208
#
# Poissons Ratio (x) = 0.07121 0.16051
# Poissons Ratio (y) = 0.05282 0.15667
# Poissons Ratio (z) = 0.20044 0.26375
#
# Static dielectric constant tensor:
#      x y z
#    x 2.022210 0.006760 0.037410 
#    y 0.006760 2.043600 -0.002100 
#    z 0.037410 -0.002100 2.003950 
# 
# From -- ./inp_files/44745.got.cif
#   From: 2010.05.17/outbox.cif.g08.bks.cpg/sg2_23_cif.got.tgz:44745.got - 2010.06.03 11:33:40.
