data_PCOD9019627
_publ_section_title
;
Structure prediction by ZEFSAII (Michael W. Deem and Ramdas Pophale) SiO2 
 PCOD9019627
Probable space group: P -1
;
_chemical_formula_sum "Si O2"
_cell_formula_units_Z 13
_cell_length_a 8.632184
_cell_length_b 8.506092
_cell_length_c 14.072512
_cell_angle_alpha 65.947974
_cell_angle_beta 141.655136
_cell_angle_gamma 121.207522
_cell_volume 548.283259
_symmetry_space_group_name_H-M "P -1"
_symmetry_group_IT_number 2
_symmetry_cell_setting 'triclinic'
loop_
_space_group_symop_operation_xyz
x,y,z
-x,-y,-z
loop_
_atom_site_type_symbol
_atom_site_label
_atom_site_fract_x
_atom_site_fract_y
_atom_site_fract_z
Si Si1 0.382488 0.734096 0.406724
Si Si2 0.000000 0.500000 0.500000
Si Si3 0.543483 0.131220 0.293901
Si Si4 0.528951 0.493254 0.672339
Si Si5 0.194767 0.361285 0.873419
Si Si6 0.609823 0.972034 0.958701
Si Si7 0.912708 0.689948 0.957307
O O1 0.546473 0.685118 0.582134
O O2 0.453633 0.637260 0.372421
O O3 0.065514 0.639854 0.313131
O O4 0.466123 0.946317 0.365422
O O5 0.786596 0.302268 0.405955
O O6 0.744511 0.568432 0.386091
O O7 0.582611 0.095870 0.208966
O O8 0.285760 0.193017 0.155376
O O9 0.767052 0.534917 0.850570
O O10 0.500000 0.500000 0.000000
O O11 0.234801 0.170766 0.919079
O O12 0.075107 0.374572 0.914941
O O13 0.500000 0.000000 0.000000
O O14 0.812252 0.167711 0.977804
#
# Coordination Sequence:
#
# PCOD9019627 Si02
#       7
#     2   1   2   2   2   2   2
#     4  11  23  45  65  97 140 184 227 280 348 404
#     4  10  24  44  68  96 130 180 236 280 334 408
#     4  10  21  45  69  94 136 180 225 286 342 405
#     4  10  26  40  66  98 138 182 224 285 337 412
#     4  11  24  41  69  98 134 181 231 280 344 412
#     4  11  23  41  68 103 134 175 226 289 346 411
#     4  10  21  45  63  96 136 177 222 283 348 405
#
# _framework density 23.710370999999999
#
# number of rings (size 3 to 8) (size 9 to 14) (size 15 to 20)
#    0.000    1.538    3.077    0.923    8.615    6.154 
#    0.000    0.000    0.000    0.000    0.000    0.000 
#    0.000    0.000    0.000    0.000    0.000    0.000 
#
# Total GULP energy -72422.160019 kJ/mol
# GULP energy per Si atom -5570.935386 kJ/mol
# Density = 2.365640 g / cm^3
# Si number density = 23.710371 Si / 1000 Ang^3
#
#
#
# Elastic Constant Matrix: (Units=GPa)
#
#
# Indices 1 2 3 4 5 6 
#
# 1 135.1145 23.8681 10.6285 36.2365 -0.1752 -5.3755
# 2 23.8681 106.2886 23.8248 25.9233 10.9129 -2.9573
# 3 10.6285 23.8248 102.0689 23.6159 4.9101 -0.7757
# 4 36.2365 25.9233 23.6159 43.3184 -1.8957 6.4108
# 5 -0.1752 10.9129 4.9101 -1.8957 28.1051 7.7388
# 6 -5.3755 -2.9573 -0.7757 6.4108 7.7388 35.1688
#
#
#
# Elastic Compliance Matrix: (Units=1/GPa)
#
#
# Indices 1 2 3 4 5 6 
#
# 1 0.010071 0.000160 0.001326 -0.009893 -0.001949 0.003814
# 2 0.000160 0.012198 -0.000712 -0.007885 -0.006199 0.003836
# 3 0.001326 -0.000712 0.011737 -0.007570 -0.002945 0.002430
# 4 -0.009893 -0.007885 -0.007570 0.042509 0.010611 -0.012426
# 5 -0.001949 -0.006199 -0.002945 0.010611 0.042561 -0.012184
# 6 0.003814 0.003836 0.002430 -0.012426 -0.012184 0.034339
#
#
# Mechanical properties :
#
#
# Convention : Reuss Voigt Hill
#
# Bulk Modulus (GPa) = 28.12676 51.12386 39.62531
# Shear Modulus (GPa) = 30.54008 40.32849 35.43428
#
# Velocity S-wave (km/s) = 3.59283 4.12865 3.87002
# Velocity P-wave (km/s) = 5.39441 6.65855 6.05953
#
# Compressibility (1/GPa) = 0.03555334
#
# Stress axis : x y z
#
# Youngs Moduli (GPa) = 99.29584 81.97913 85.19973
#
# Poissons Ratio (x) = -0.01315 -0.11293
# Poissons Ratio (y) = -0.01592 0.06069
# Poissons Ratio (z) = -0.13162 0.05840
#
# Static dielectric constant tensor:
#      x y z
#    x 1.720120 -0.436890 -0.126170 
#    y -0.436890 1.329950 -0.128680 
#    z -0.126170 -0.128680 1.917120 
# 
# From -- ./inp_files/160805.got.cif
#   From: 2010.05.17/outbox.cif.g08.bks.cpg/sg2_81_cif.got.tgz:160805.got - 2010.06.03 11:33:40.
