data_PCOD9019252
_publ_section_title
;
Structure prediction by ZEFSAII (Michael W. Deem and Ramdas Pophale) SiO2 
 PCOD9019252
Probable space group: P -1
;
_chemical_formula_sum "Si O2"
_cell_formula_units_Z 12
_cell_length_a 8.301875
_cell_length_b 15.196064
_cell_length_c 8.875716
_cell_angle_alpha 37.890297
_cell_angle_beta 128.718223
_cell_angle_gamma 129.914901
_cell_volume 510.309098
_symmetry_space_group_name_H-M "P -1"
_symmetry_group_IT_number 2
_symmetry_cell_setting 'triclinic'
loop_
_space_group_symop_operation_xyz
x,y,z
-x,-y,-z
loop_
_atom_site_type_symbol
_atom_site_label
_atom_site_fract_x
_atom_site_fract_y
_atom_site_fract_z
Si Si1 0.488880 0.328890 0.735900
Si Si2 0.527740 0.324190 0.113761
Si Si3 0.846973 0.537925 0.229778
Si Si4 0.772562 0.978326 0.493849
Si Si5 0.225787 0.823448 0.020561
Si Si6 0.917061 0.937737 0.193807
O O1 0.500000 0.500000 0.500000
O O2 0.619142 0.279872 0.741863
O O3 0.248688 0.224086 0.706421
O O4 0.560765 0.300256 0.987515
O O5 0.746169 0.410634 0.216892
O O6 0.391057 0.176794 0.329797
O O7 0.363788 0.425805 0.877524
O O8 0.000000 0.500000 0.500000
O O9 0.995258 0.695761 0.029733
O O10 0.878432 0.067974 0.581550
O O11 0.662506 0.064039 0.201349
O O12 0.000000 0.000000 0.500000
O O13 0.183286 0.936712 0.964973
O O14 0.000000 0.000000 0.000000
#
# Coordination Sequence:
#
# PCOD9019252 Si02
#       6
#     2   2   2   2   2   2
#     4  12  27  45  69 111 151 194 246 306 370 445
#     4  11  24  46  70 105 151 193 244 312 370 434
#     4  11  24  44  72 104 146 197 246 300 374 441
#     4  10  21  44  70 101 139 189 243 303 361 431
#     4  11  25  45  72 107 142 198 247 301 371 440
#     4  11  22  46  75 103 146 190 252 298 367 440
#
# _framework density 23.515159000000001
#
# number of rings (size 3 to 8) (size 9 to 14) (size 15 to 20)
#    0.000    1.000    5.000    1.500    2.333    6.667 
#    6.000    0.000    0.000    0.000    0.000    0.000 
#    0.000    0.000    0.000    0.000    0.000    0.000 
#
# Total GULP energy -66918.706581 kJ/mol
# GULP energy per Si atom -5576.558882 kJ/mol
# Density = 2.346164 g / cm^3
# Si number density = 23.515159 Si / 1000 Ang^3
#
#
#
# Elastic Constant Matrix: (Units=GPa)
#
#
# Indices 1 2 3 4 5 6 
#
# 1 58.3388 37.3008 47.3475 -12.7546 -19.5320 -10.0849
# 2 37.3008 203.7128 67.0907 -14.9878 -19.5685 22.3080
# 3 47.3475 67.0907 110.7505 -13.5114 -16.3549 -1.4453
# 4 -12.7546 -14.9878 -13.5114 49.5193 2.1283 -1.4011
# 5 -19.5320 -19.5685 -16.3549 2.1283 38.4885 -4.0114
# 6 -10.0849 22.3080 -1.4453 -1.4011 -4.0114 46.6169
#
#
#
# Elastic Compliance Matrix: (Units=1/GPa)
#
#
# Indices 1 2 3 4 5 6 
#
# 1 0.033997 -0.002181 -0.010675 0.004917 0.012302 0.009274
# 2 -0.002181 0.006843 -0.003105 0.000528 0.000631 -0.003773
# 3 -0.010675 -0.003105 0.015462 0.000540 -0.000494 -0.000371
# 4 0.004917 0.000528 0.000540 0.021730 0.001964 0.001650
# 5 0.012302 0.000631 -0.000494 0.001964 0.032771 0.005223
# 6 0.009274 -0.003773 -0.000371 0.001650 0.005223 0.025751
#
#
# Mechanical properties :
#
#
# Convention : Reuss Voigt Hill
#
# Bulk Modulus (GPa) = 41.01746 75.14226 58.07986
# Shear Modulus (GPa) = 28.31203 41.66247 34.98725
#
# Velocity S-wave (km/s) = 3.47362 4.21376 3.86146
# Velocity P-wave (km/s) = 5.79387 7.46314 6.68085
#
# Compressibility (1/GPa) = 0.02437986
#
# Stress axis : x y z
#
# Youngs Moduli (GPa) = 29.41454 146.12639 64.67479
#
# Poissons Ratio (x) = 0.31874 0.69041
# Poissons Ratio (y) = 0.06416 0.20080
# Poissons Ratio (z) = 0.31400 0.45368
#
# Static dielectric constant tensor:
#      x y z
#    x 2.047900 -0.024390 -0.003100 
#    y -0.024390 1.880120 0.021400 
#    z -0.003100 0.021400 2.058920 
# 
# From -- ./inp_files/199157.got.cif
#   From: 2010.05.17/outbox.cif.g08.bks.cpg/sg2_100_cif.got.tgz:199157.got - 2010.06.03 11:33:40.
