data_PCOD9019741
_publ_section_title
;
Structure prediction by ZEFSAII (Michael W. Deem and Ramdas Pophale) SiO2 
 PCOD9019741
Probable space group: P -1
;
_chemical_formula_sum "Si O2"
_cell_formula_units_Z 16
_cell_length_a 8.674546
_cell_length_b 16.683288
_cell_length_c 5.206617
_cell_angle_alpha 77.444201
_cell_angle_beta 102.689891
_cell_angle_gamma 62.477496
_cell_volume 606.002610
_symmetry_space_group_name_H-M "P -1"
_symmetry_group_IT_number 2
_symmetry_cell_setting 'triclinic'
loop_
_space_group_symop_operation_xyz
x,y,z
-x,-y,-z
loop_
_atom_site_type_symbol
_atom_site_label
_atom_site_fract_x
_atom_site_fract_y
_atom_site_fract_z
Si Si1 0.800322 0.082510 0.741143
Si Si2 0.913775 0.664782 0.420923
Si Si3 0.591666 0.432506 0.825390
Si Si4 0.205223 0.074821 0.467387
Si Si5 0.835136 0.488204 0.030540
Si Si6 0.416414 0.175982 0.471835
Si Si7 0.994397 0.823378 0.175585
Si Si8 0.425715 0.318697 0.018808
O O1 0.595187 0.127769 0.762612
O O2 0.830810 0.171743 0.665534
O O3 0.779990 0.024702 0.535347
O O4 0.000000 0.000000 0.000000
O O5 0.777997 0.732471 0.558358
O O6 0.984689 0.730145 0.284646
O O7 0.763534 0.653570 0.218712
O O8 0.095008 0.561729 0.631464
O O9 0.500000 0.500000 0.500000
O O10 0.561259 0.342816 0.895793
O O11 0.500000 0.500000 0.000000
O O12 0.799247 0.412075 0.930969
O O13 0.364468 0.097280 0.441679
O O14 0.164506 0.098190 0.737442
O O15 0.042988 0.148557 0.156707
O O16 0.656100 0.596112 0.857593
O O17 0.000000 0.500000 0.000000
O O18 0.483147 0.218346 0.241359
#
# Coordination Sequence:
#
# PCOD9019741 Si02
#       8
#     2   2   2   2   2   2   2   2
#     4  10  23  45  70  97 134 178 225 278 347 412
#     4  11  23  42  65 102 136 177 229 277 336 396
#     4  10  24  43  65  96 130 177 228 274 329 391
#     4  10  21  45  67  99 130 176 221 273 339 410
#     4  11  22  42  71  94 135 182 227 276 331 404
#     4  11  23  43  66  99 138 176 224 286 335 404
#     4  10  22  42  68 100 136 170 224 278 332 397
#     4  11  23  43  66  97 137 181 228 274 342 396
#
# _framework density 26.402528
#
# number of rings (size 3 to 8) (size 9 to 14) (size 15 to 20)
#    0.000    1.500    2.500    1.875    3.500    1.000 
#    9.000    6.875    0.000    0.000    0.000    0.000 
#    0.000    0.000    0.000    0.000    0.000    0.000 
#
# Total GULP energy -89220.895286 kJ/mol
# GULP energy per Si atom -5576.305955 kJ/mol
# Density = 2.634243 g / cm^3
# Si number density = 26.402528 Si / 1000 Ang^3
#
#
#
# Elastic Constant Matrix: (Units=GPa)
#
#
# Indices 1 2 3 4 5 6 
#
# 1 161.5452 51.3131 25.7393 1.9031 17.8840 66.3539
# 2 51.3131 126.3560 25.6171 -3.6816 -7.5206 20.2818
# 3 25.7393 25.6171 83.3158 0.5370 2.8731 1.6347
# 4 1.9031 -3.6816 0.5370 33.6006 5.4764 7.5320
# 5 17.8840 -7.5206 2.8731 5.4764 42.7208 6.9697
# 6 66.3539 20.2818 1.6347 7.5320 6.9697 54.9102
#
#
#
# Elastic Compliance Matrix: (Units=1/GPa)
#
#
# Indices 1 2 3 4 5 6 
#
# 1 0.014986 -0.002863 -0.003294 0.003363 -0.004234 -0.016877
# 2 -0.002863 0.009840 -0.002241 0.000916 0.003066 -0.000623
# 3 -0.003294 -0.002241 0.013644 -0.001230 -0.000532 0.004638
# 4 0.003363 0.000916 -0.001230 0.032189 -0.003939 -0.008282
# 5 -0.004234 0.003066 -0.000532 -0.003939 0.026060 0.001232
# 6 -0.016877 -0.000623 0.004638 -0.008282 0.001232 0.039678
#
#
# Mechanical properties :
#
#
# Convention : Reuss Voigt Hill
#
# Bulk Modulus (GPa) = 46.13476 64.06179 55.09828
# Shear Modulus (GPa) = 31.16874 44.14948 37.65911
#
# Velocity S-wave (km/s) = 3.43960 4.09365 3.78080
# Velocity P-wave (km/s) = 5.76940 6.83082 6.32243
#
# Compressibility (1/GPa) = 0.02167563
#
# Stress axis : x y z
#
# Youngs Moduli (GPa) = 66.72988 101.62420 73.29058
#
# Poissons Ratio (x) = 0.29093 0.24142
# Poissons Ratio (y) = 0.19104 0.16421
# Poissons Ratio (z) = 0.21981 0.22769
#
# Static dielectric constant tensor:
#      x y z
#    x 2.311270 -0.095340 -0.080250 
#    y -0.095340 2.168510 0.044390 
#    z -0.080250 0.044390 2.155100 
# 
# From -- ./inp_files/47147.got.cif
#   From: 2010.05.17/outbox.cif.g08.bks.cpg/sg2_24_cif.got.tgz:47147.got - 2010.06.03 11:33:40.
