data_PCOD9019637
_publ_section_title
;
Structure prediction by ZEFSAII (Michael W. Deem and Ramdas Pophale) SiO2 
 PCOD9019637
Probable space group: P -1
;
_chemical_formula_sum "Si O2"
_cell_formula_units_Z 14
_cell_length_a 21.631221
_cell_length_b 8.971554
_cell_length_c 8.665316
_cell_angle_alpha 130.765007
_cell_angle_beta 141.724254
_cell_angle_gamma 37.311085
_cell_volume 629.579467
_symmetry_space_group_name_H-M "P -1"
_symmetry_group_IT_number 2
_symmetry_cell_setting 'triclinic'
loop_
_space_group_symop_operation_xyz
x,y,z
-x,-y,-z
loop_
_atom_site_type_symbol
_atom_site_label
_atom_site_fract_x
_atom_site_fract_y
_atom_site_fract_z
Si Si1 0.593209 0.000467 0.067244
Si Si2 0.416850 0.778681 0.086802
Si Si3 0.784559 0.503565 0.966653
Si Si4 0.440203 0.519222 0.558051
Si Si5 0.023799 0.521414 0.881953
Si Si6 0.130910 0.998311 0.672639
Si Si7 0.941016 0.013531 0.131439
O O1 0.601092 0.218111 0.280631
O O2 0.548257 0.075435 0.850849
O O3 0.500000 0.000000 0.000000
O O4 0.722194 0.729309 0.118796
O O5 0.455855 0.722013 0.302240
O O6 0.500000 0.500000 0.000000
O O7 0.271239 0.904585 0.861470
O O8 0.677029 0.483482 0.689676
O O9 0.846146 0.544145 0.971590
O O10 0.886527 0.250846 0.082574
O O11 0.500000 0.500000 0.500000
O O12 0.030717 0.297983 0.667261
O O13 0.000000 0.500000 0.000000
O O14 0.933220 0.817889 0.889308
O O15 0.082252 0.897030 0.386034
O O16 0.125262 0.928907 0.791939
#
# Coordination Sequence:
#
# PCOD9019637 Si02
#       7
#     2   2   2   2   2   2   2
#     4  11  24  45  66 102 139 180 228 271 338 415
#     4  10  23  42  70  94 139 178 220 277 341 404
#     4  12  24  43  68  98 139 174 225 282 346 397
#     4  11  24  44  69 102 139 176 224 277 340 412
#     4  10  23  43  64  96 128 173 234 275 330 401
#     4  10  21  45  64  93 130 174 223 275 333 402
#     4  10  24  40  69  93 131 175 222 276 340 393
#
# _framework density 22.237064
#
# number of rings (size 3 to 8) (size 9 to 14) (size 15 to 20)
#    0.000    1.429    2.857    1.286    6.000    2.286 
#    0.000    2.857    0.000    0.000    0.000    0.000 
#    0.000    0.000    0.000    0.000    0.000    0.000 
#
# Total GULP energy -78038.334974 kJ/mol
# GULP energy per Si atom -5574.166784 kJ/mol
# Density = 2.218645 g / cm^3
# Si number density = 22.237064 Si / 1000 Ang^3
#
#
#
# Elastic Constant Matrix: (Units=GPa)
#
#
# Indices 1 2 3 4 5 6 
#
# 1 178.1267 36.4599 29.6903 -11.6960 14.8168 14.2002
# 2 36.4599 110.2237 16.0977 13.3341 -8.5372 3.8657
# 3 29.6903 16.0977 56.1861 3.3314 7.9253 6.1453
# 4 -11.6960 13.3341 3.3314 40.1425 1.6878 -4.2599
# 5 14.8168 -8.5372 7.9253 1.6878 24.8241 1.9198
# 6 14.2002 3.8657 6.1453 -4.2599 1.9198 36.1556
#
#
#
# Elastic Compliance Matrix: (Units=1/GPa)
#
#
# Indices 1 2 3 4 5 6 
#
# 1 0.007310 -0.002764 -0.002444 0.003284 -0.004639 -0.001527
# 2 -0.002764 0.011461 -0.002420 -0.004764 0.006738 -0.000647
# 3 -0.002444 -0.002420 0.020938 -0.001639 -0.005774 -0.002227
# 4 0.003284 -0.004764 -0.001639 0.028134 -0.005227 0.003091
# 5 -0.004639 0.006738 -0.005774 -0.005227 0.047651 -0.001063
# 6 -0.001527 -0.000647 -0.002227 0.003091 -0.001063 0.029126
#
#
# Mechanical properties :
#
#
# Convention : Reuss Voigt Hill
#
# Bulk Modulus (GPa) = 40.89609 56.55917 48.72763
# Shear Modulus (GPa) = 29.75673 37.71034 33.73353
#
# Velocity S-wave (km/s) = 3.66205 4.12252 3.89909
# Velocity P-wave (km/s) = 6.02592 6.93902 6.49853
#
# Compressibility (1/GPa) = 0.02445222
#
# Stress axis : x y z
#
# Youngs Moduli (GPa) = 136.79080 87.25164 47.75924
#
# Poissons Ratio (x) = 0.24118 0.11675
# Poissons Ratio (y) = 0.37811 0.11559
# Poissons Ratio (z) = 0.33438 0.21117
#
# Static dielectric constant tensor:
#      x y z
#    x 1.856690 -0.010140 -0.043780 
#    y -0.010140 1.791500 0.049670 
#    z -0.043780 0.049670 1.846650 
# 
# From -- ./inp_files/180859.got.cif
#   From: 2010.05.17/outbox.cif.g08.bks.cpg/sg2_91_cif.got.tgz:180859.got - 2010.06.03 11:33:40.
