data_PCOD9019006
_publ_section_title
;
Structure prediction by ZEFSAII (Michael W. Deem and Ramdas Pophale) SiO2 
 PCOD9019006
Probable space group: P -1
;
_chemical_formula_sum "Si O2"
_cell_formula_units_Z 16
_cell_length_a 21.902457
_cell_length_b 13.012779
_cell_length_c 7.249107
_cell_angle_alpha 119.279852
_cell_angle_beta 49.838986
_cell_angle_gamma 153.401700
_cell_volume 683.393249
_symmetry_space_group_name_H-M "P -1"
_symmetry_group_IT_number 2
_symmetry_cell_setting 'triclinic'
loop_
_space_group_symop_operation_xyz
x,y,z
-x,-y,-z
loop_
_atom_site_type_symbol
_atom_site_label
_atom_site_fract_x
_atom_site_fract_y
_atom_site_fract_z
Si Si1 0.575723 0.914211 0.388424
Si Si2 0.584101 0.536091 0.639752
Si Si3 0.650774 0.012982 0.905077
Si Si4 0.853132 0.053077 0.664691
Si Si5 0.261268 0.633380 0.927678
Si Si6 0.385495 0.491890 0.872517
Si Si7 0.931913 0.302537 0.074425
Si Si8 0.902811 0.775081 0.884918
O O1 0.490605 0.677961 0.326177
O O2 0.623774 0.011529 0.172363
O O3 0.432582 0.814992 0.655410
O O4 0.749600 0.111967 0.328177
O O5 0.456438 0.478027 0.840223
O O6 0.620779 0.560879 0.372880
O O7 0.738100 0.792661 0.654580
O O8 0.694494 0.193252 0.887549
O O9 0.497002 0.749693 0.893423
O O10 0.779569 0.072184 0.717514
O O11 0.890991 0.145299 0.875002
O O12 0.001471 0.200579 0.387630
O O13 0.088615 0.457155 0.018834
O O14 0.209099 0.444043 0.954382
O O15 0.208894 0.300185 0.107616
O O16 0.000000 0.500000 0.000000
O O17 0.000000 0.000000 0.000000
#
# Coordination Sequence:
#
# PCOD9019006 Si02
#       8
#     2   2   2   2   2   2   2   2
#     4  11  23  44  70  97 137 173 224 282 326 403
#     4  10  21  44  67  94 131 175 220 276 335 392
#     4  10  24  42  66  97 128 178 223 271 336 397
#     4  10  22  44  66  95 140 167 224 276 329 401
#     4  12  25  46  67 100 136 176 226 276 333 396
#     4  10  22  40  65  93 130 172 224 264 335 392
#     4  11  25  44  68 101 133 179 219 272 345 389
#     4  12  25  44  65 100 138 171 226 283 324 401
#
# _framework density 23.412583000000001
#
# number of rings (size 3 to 8) (size 9 to 14) (size 15 to 20)
#    0.000    1.250    5.000    0.375    3.500    5.500 
#    2.250    1.250    0.000    0.000    0.000    0.000 
#    0.000    0.000    0.000    0.000    0.000    0.000 
#
# Total GULP energy -89252.061161 kJ/mol
# GULP energy per Si atom -5578.253823 kJ/mol
# Density = 2.335929 g / cm^3
# Si number density = 23.412583 Si / 1000 Ang^3
#
#
#
# Elastic Constant Matrix: (Units=GPa)
#
#
# Indices 1 2 3 4 5 6 
#
# 1 61.0584 20.7986 13.8292 -6.1902 -33.5754 4.2366
# 2 20.7986 131.6309 20.2302 16.5670 -26.8727 -0.2617
# 3 13.8292 20.2302 118.7678 -13.8735 -36.9154 22.7326
# 4 -6.1902 16.5670 -13.8735 32.2901 6.1414 -5.3715
# 5 -33.5754 -26.8727 -36.9154 6.1414 41.7713 -5.3922
# 6 4.2366 -0.2617 22.7326 -5.3715 -5.3922 45.0130
#
#
#
# Elastic Compliance Matrix: (Units=1/GPa)
#
#
# Indices 1 2 3 4 5 6 
#
# 1 0.032593 -0.000158 0.006768 0.002878 0.031347 -0.002388
# 2 -0.000158 0.009916 -0.000325 -0.006534 0.006964 0.000291
# 3 0.006768 -0.000325 0.014325 0.003542 0.016666 -0.005454
# 4 0.002878 -0.006534 0.003542 0.037475 -0.004026 0.001892
# 5 0.031347 0.006964 0.016666 -0.004026 0.068471 -0.003605
# 6 -0.002388 0.000291 -0.005454 0.001892 -0.003605 0.024991
#
#
# Mechanical properties :
#
#
# Convention : Reuss Voigt Hill
#
# Bulk Modulus (GPa) = 14.40810 46.79701 30.60256
# Shear Modulus (GPa) = 25.20969 40.92149 33.06559
#
# Velocity S-wave (km/s) = 3.28496 4.18526 3.76214
# Velocity P-wave (km/s) = 4.53380 6.58684 5.65428
#
# Compressibility (1/GPa) = 0.06940539
#
# Stress axis : x y z
#
# Youngs Moduli (GPa) = 30.68110 100.84247 69.80876
#
# Poissons Ratio (x) = 0.01589 -0.47248
# Poissons Ratio (y) = 0.00483 0.02271
# Poissons Ratio (z) = -0.20766 0.03280
#
# Static dielectric constant tensor:
#      x y z
#    x 1.914420 -0.001470 0.064250 
#    y -0.001470 1.821770 -0.012110 
#    z 0.064250 -0.012110 1.894330 
# 
# From -- ./inp_files/357428.got.cif
#   From: 2010.05.17/outbox.cif.g08.bks.cpg/sg2_179_cif.got.tgz:357428.got - 2010.06.03 11:33:40.
