data_PCOD9019303
_publ_section_title
;
Structure prediction by ZEFSAII (Michael W. Deem and Ramdas Pophale) SiO2 
 PCOD9019303
Probable space group: P -1
;
_chemical_formula_sum "Si O2"
_cell_formula_units_Z 14
_cell_length_a 9.246346
_cell_length_b 10.382382
_cell_length_c 13.723379
_cell_angle_alpha 148.615542
_cell_angle_beta 70.190961
_cell_angle_gamma 105.470253
_cell_volume 644.806920
_symmetry_space_group_name_H-M "P -1"
_symmetry_group_IT_number 2
_symmetry_cell_setting 'triclinic'
loop_
_space_group_symop_operation_xyz
x,y,z
-x,-y,-z
loop_
_atom_site_type_symbol
_atom_site_label
_atom_site_fract_x
_atom_site_fract_y
_atom_site_fract_z
Si Si1 0.354896 0.698546 0.391228
Si Si2 0.690221 0.534417 0.133977
Si Si3 0.941345 0.123803 0.192944
Si Si4 0.821750 0.967166 0.502199
Si Si5 0.780421 0.613576 0.607682
Si Si6 0.641207 0.016209 0.776253
Si Si7 0.668265 0.850081 0.167634
O O1 0.519786 0.597809 0.253986
O O2 0.249906 0.799345 0.391819
O O3 0.274581 0.507563 0.357373
O O4 0.379416 0.943122 0.607368
O O5 0.684914 0.597339 0.060550
O O6 0.798583 0.720790 0.284279
O O7 0.726603 0.245397 0.951897
O O8 0.840008 0.384321 0.377873
O O9 0.080700 0.209717 0.284400
O O10 0.830062 0.930224 0.141667
O O11 0.000000 0.000000 0.000000
O O12 0.728837 0.948107 0.611875
O O13 0.000000 0.000000 0.500000
O O14 0.649810 0.780144 0.691624
O O15 0.468339 0.119789 0.859245
#
# Coordination Sequence:
#
# PCOD9019303 Si02
#       7
#     2   2   2   2   2   2   2
#     4  10  21  46  70  92 135 179 221 271 335 399
#     4  11  23  44  69  98 133 174 227 271 332 404
#     4  10  24  45  68  92 133 184 220 263 342 396
#     4  11  25  43  69  98 131 176 225 281 332 383
#     4  10  26  44  64 100 139 169 221 281 327 396
#     4  12  25  42  65 104 134 171 227 275 330 393
#     4  10  21  44  70  96 132 177 225 275 323 397
#
# _framework density 21.711925000000001
#
# number of rings (size 3 to 8) (size 9 to 14) (size 15 to 20)
#    0.000    1.429    2.857    1.286   10.000    4.571 
#    0.000    0.000    0.000    0.000    0.000    0.000 
#    0.000    0.000    0.000    0.000    0.000    0.000 
#
# Total GULP energy -78288.033067 kJ/mol
# GULP energy per Si atom -5592.002362 kJ/mol
# Density = 2.166251 g / cm^3
# Si number density = 21.711925 Si / 1000 Ang^3
#
#
#
# Elastic Constant Matrix: (Units=GPa)
#
#
# Indices 1 2 3 4 5 6 
#
# 1 78.4781 14.6693 11.3262 6.0406 18.6699 7.2531
# 2 14.6693 93.9712 31.8609 11.9963 -5.6307 0.4824
# 3 11.3262 31.8609 90.9647 -4.6375 7.6334 0.1406
# 4 6.0406 11.9963 -4.6375 25.5325 -0.0039 -4.6267
# 5 18.6699 -5.6307 7.6334 -0.0039 15.5003 0.7944
# 6 7.2531 0.4824 0.1406 -4.6267 0.7944 27.5277
#
#
#
# Elastic Compliance Matrix: (Units=1/GPa)
#
#
# Indices 1 2 3 4 5 6 
#
# 1 0.020582 -0.004777 0.001202 -0.003341 -0.026856 -0.005132
# 2 -0.004777 0.015361 -0.006377 -0.007358 0.014505 -0.000633
# 3 0.001202 -0.006377 0.014264 0.005474 -0.010836 0.000955
# 4 -0.003341 -0.007358 0.005474 0.045995 -0.001782 0.008763
# 5 -0.026856 0.014505 -0.010836 -0.001782 0.107289 0.003482
# 6 -0.005132 -0.000633 0.000955 0.008763 0.003482 0.039058
#
#
# Mechanical properties :
#
#
# Convention : Reuss Voigt Hill
#
# Bulk Modulus (GPa) = 32.99948 42.12520 37.56234
# Shear Modulus (GPa) = 18.34492 27.41593 22.88043
#
# Velocity S-wave (km/s) = 2.90991 3.55732 3.24978
# Velocity P-wave (km/s) = 5.14994 6.02634 5.60529
#
# Compressibility (1/GPa) = 0.03030351
#
# Stress axis : x y z
#
# Youngs Moduli (GPa) = 48.58526 65.10018 70.10608
#
# Poissons Ratio (x) = 0.31097 -0.08424
# Poissons Ratio (y) = 0.23208 0.44705
# Poissons Ratio (z) = -0.05838 0.41513
#
# Static dielectric constant tensor:
#      x y z
#    x 1.786300 -0.014340 0.023050 
#    y -0.014340 1.812630 -0.008110 
#    z 0.023050 -0.008110 1.788840 
# 
# From -- ./inp_files/383670.got.cif
#   From: 2010.05.17/outbox.cif.g08.bks.cpg/sg2_192_cif.got.tgz:383670.got - 2010.06.03 11:33:40.
