data_PCOD9019993
_publ_section_title
;
Structure prediction by ZEFSAII (Michael W. Deem and Ramdas Pophale) SiO2 
 PCOD9019993
Probable space group: P -1
;
_chemical_formula_sum "Si O2"
_cell_formula_units_Z 15
_cell_length_a 7.236391
_cell_length_b 14.712478
_cell_length_c 8.770386
_cell_angle_alpha 51.137439
_cell_angle_beta 126.393487
_cell_angle_gamma 127.676460
_cell_volume 541.070237
_symmetry_space_group_name_H-M "P -1"
_symmetry_group_IT_number 2
_symmetry_cell_setting 'triclinic'
loop_
_space_group_symop_operation_xyz
x,y,z
-x,-y,-z
loop_
_atom_site_type_symbol
_atom_site_label
_atom_site_fract_x
_atom_site_fract_y
_atom_site_fract_z
Si Si1 0.457808 0.882421 0.823614
Si Si2 0.247525 0.847794 0.161830
Si Si3 0.131177 0.502486 0.898499
Si Si4 0.394429 0.772074 0.600505
Si Si5 0.000000 0.500000 0.500000
Si Si6 0.547067 0.711711 0.257997
Si Si7 0.580363 0.555158 0.679458
Si Si8 0.958033 0.869316 0.708218
O O1 0.281160 0.646299 0.775160
O O2 0.456540 0.878806 0.645932
O O3 0.163787 0.823226 0.783249
O O4 0.616047 0.803202 0.049638
O O5 0.189306 0.762494 0.378583
O O6 0.407314 0.787507 0.203243
O O7 0.424927 0.981886 0.180202
O O8 0.049228 0.872735 0.927641
O O9 0.004176 0.447975 0.735130
O O10 0.304238 0.432441 0.111379
O O11 0.000000 0.500000 0.000000
O O12 0.295030 0.530457 0.591690
O O13 0.661872 0.798382 0.631067
O O14 0.707651 0.673638 0.503163
O O15 0.422373 0.572428 0.269316
O O16 0.000000 0.000000 0.500000
#
# Coordination Sequence:
#
# PCOD9019993 Si02
#       8
#     2   2   2   2   1   2   2   2
#     4  11  24  50  79 116 173 211 278 343 417 506
#     4  11  25  48  80 120 168 211 278 350 407 506
#     4  12  28  55  82 120 168 225 283 358 428 510
#     4  12  27  50  78 121 165 216 278 347 427 507
#     4  12  28  50  82 118 162 212 288 352 424 516
#     4  10  21  45  76 110 152 217 270 333 413 488
#     4  11  24  49  81 114 162 213 282 347 418 507
#     4  11  25  48  79 114 160 223 270 339 421 500
#
# _framework density 27.722835
#
# number of rings (size 3 to 8) (size 9 to 14) (size 15 to 20)
#    0.000    0.800    2.667    4.800    0.000    3.733 
#    9.600    0.000    0.000    0.000    0.000    0.000 
#    0.000    0.000    0.000    0.000    0.000    0.000 
#
# Total GULP energy -83589.930210 kJ/mol
# GULP energy per Si atom -5572.662014 kJ/mol
# Density = 2.765974 g / cm^3
# Si number density = 27.722835 Si / 1000 Ang^3
#
#
#
# Elastic Constant Matrix: (Units=GPa)
#
#
# Indices 1 2 3 4 5 6 
#
# 1 106.9913 21.3343 57.8756 5.1175 -17.4431 -0.5000
# 2 21.3343 113.3994 50.5141 -8.2806 -3.4990 -21.7038
# 3 57.8756 50.5141 298.6515 23.3882 -13.6971 -10.2676
# 4 5.1175 -8.2806 23.3882 64.2838 13.0088 -5.7462
# 5 -17.4431 -3.4990 -13.6971 13.0088 46.9758 7.5278
# 6 -0.5000 -21.7038 -10.2676 -5.7462 7.5278 34.0385
#
#
#
# Elastic Compliance Matrix: (Units=1/GPa)
#
#
# Indices 1 2 3 4 5 6 
#
# 1 0.011439 -0.001961 -0.001637 -0.001750 0.004570 -0.002883
# 2 -0.001961 0.011674 -0.001715 0.003539 -0.002633 0.008077
# 3 -0.001637 -0.001715 0.004134 -0.001843 0.001046 -0.000413
# 4 -0.001750 0.003539 -0.001843 0.018850 -0.007176 0.006444
# 5 0.004570 -0.002633 0.001046 -0.007176 0.026419 -0.008350
# 6 -0.002883 0.008077 -0.000413 0.006444 -0.008350 0.037296
#
#
# Mechanical properties :
#
#
# Convention : Reuss Voigt Hill
#
# Bulk Modulus (GPa) = 60.16713 86.49891 73.33302
# Shear Modulus (GPa) = 39.68917 55.01417 47.35167
#
# Velocity S-wave (km/s) = 3.78781 4.45953 4.13733
# Velocity P-wave (km/s) = 6.39376 7.60169 7.02374
#
# Compressibility (1/GPa) = 0.01662037
#
# Stress axis : x y z
#
# Youngs Moduli (GPa) = 87.42229 85.65839 241.90452
#
# Poissons Ratio (x) = 0.16798 0.39611
# Poissons Ratio (y) = 0.17144 0.41480
# Poissons Ratio (z) = 0.14315 0.14688
#
# Static dielectric constant tensor:
#      x y z
#    x 2.395350 0.143020 0.092920 
#    y 0.143020 2.516130 0.005420 
#    z 0.092920 0.005420 2.371340 
# 
# From -- ./inp_files/195999.got.cif
#   From: 2010.05.17/outbox.cif.g08.bks.cpg/sg2_98_cif.got.tgz:195999.got - 2010.06.03 11:33:40.
