data_PCOD9019128
_publ_section_title
;
Structure prediction by ZEFSAII (Michael W. Deem and Ramdas Pophale) SiO2 
 PCOD9019128
Probable space group: P -1
;
_chemical_formula_sum "Si O2"
_cell_formula_units_Z 16
_cell_length_a 11.994324
_cell_length_b 8.711195
_cell_length_c 20.324660
_cell_angle_alpha 51.995378
_cell_angle_beta 152.086476
_cell_angle_gamma 120.158805
_cell_volume 778.330850
_symmetry_space_group_name_H-M "P -1"
_symmetry_group_IT_number 2
_symmetry_cell_setting 'triclinic'
loop_
_space_group_symop_operation_xyz
x,y,z
-x,-y,-z
loop_
_atom_site_type_symbol
_atom_site_label
_atom_site_fract_x
_atom_site_fract_y
_atom_site_fract_z
Si Si1 0.655720 0.927322 0.757376
Si Si2 0.108859 0.030078 0.478089
Si Si3 0.366437 0.683764 0.421124
Si Si4 0.862394 0.975787 0.236599
Si Si5 0.542340 0.672407 0.086872
Si Si6 0.239072 0.217253 0.295300
Si Si7 0.933370 0.485178 0.247213
Si Si8 0.143401 0.433908 0.968200
O O1 0.664906 0.834765 0.713367
O O2 0.389363 0.960256 0.639274
O O3 0.720904 0.145036 0.720747
O O4 0.824152 0.783227 0.929236
O O5 0.047003 0.260011 0.367552
O O6 0.000000 0.000000 0.500000
O O7 0.983219 0.920888 0.383584
O O8 0.500000 0.500000 0.500000
O O9 0.548606 0.763405 0.546974
O O10 0.132918 0.608283 0.350147
O O11 0.728260 0.798935 0.186124
O O12 0.063314 0.060749 0.272194
O O13 0.656881 0.160759 0.090295
O O14 0.691042 0.534432 0.148269
O O15 0.385554 0.535215 0.083599
O O16 0.077440 0.426146 0.154277
O O17 0.889164 0.551022 0.131432
#
# Coordination Sequence:
#
# PCOD9019128 Si02
#       8
#     2   2   2   2   2   2   2   2
#     4  12  25  40  69  98 131 174 221 266 334 382
#     4  12  25  43  65  97 135 173 218 270 324 394
#     4  12  22  43  66  97 128 173 219 267 327 390
#     4  10  21  44  68  97 127 171 220 269 325 387
#     4  10  22  39  70  95 125 176 221 260 328 390
#     4  11  22  45  70  92 134 173 216 274 328 388
#     4  12  23  43  68  93 136 176 215 268 331 388
#     4  11  23  43  65  97 138 170 219 275 323 391
#
# _framework density 20.556809999999999
#
# number of rings (size 3 to 8) (size 9 to 14) (size 15 to 20)
#    0.000    0.750    6.250    2.625    3.500    0.500 
#    2.250    1.250    0.000    0.000    0.000    0.000 
#    0.000    0.000    0.000    0.000    0.000    0.000 
#
# Total GULP energy -89426.339895 kJ/mol
# GULP energy per Si atom -5589.146243 kJ/mol
# Density = 2.051002 g / cm^3
# Si number density = 20.556810 Si / 1000 Ang^3
#
#
#
# Elastic Constant Matrix: (Units=GPa)
#
#
# Indices 1 2 3 4 5 6 
#
# 1 98.8504 0.4599 40.0589 -11.4384 11.3336 -1.5864
# 2 0.4599 73.6558 44.0064 -4.0094 -4.2451 9.6979
# 3 40.0589 44.0064 95.2880 -17.1590 0.2086 7.9071
# 4 -11.4384 -4.0094 -17.1590 45.6970 4.2792 9.2045
# 5 11.3336 -4.2451 0.2086 4.2792 41.3832 -5.5150
# 6 -1.5864 9.6979 7.9071 9.2045 -5.5150 24.1536
#
#
#
# Elastic Compliance Matrix: (Units=1/GPa)
#
#
# Indices 1 2 3 4 5 6 
#
# 1 0.013666 0.004213 -0.007505 0.001195 -0.003337 0.000446
# 2 0.004213 0.020721 -0.011096 -0.000520 0.000537 -0.004090
# 3 -0.007505 -0.011096 0.020229 0.005786 -0.000445 -0.004967
# 4 0.001195 -0.000520 0.005786 0.027438 -0.005007 -0.013206
# 5 -0.003337 0.000537 -0.000445 -0.005007 0.026681 0.007711
# 6 0.000446 -0.004090 -0.004967 -0.013206 0.007711 0.051492
#
#
# Mechanical properties :
#
#
# Convention : Reuss Voigt Hill
#
# Bulk Modulus (GPa) = 38.70094 48.53827 43.61960
# Shear Modulus (GPa) = 25.30138 34.46470 29.88304
#
# Velocity S-wave (km/s) = 3.51209 4.09902 3.81685
# Velocity P-wave (km/s) = 5.94252 6.78717 6.37884
#
# Compressibility (1/GPa) = 0.02583917
#
# Stress axis : x y z
#
# Youngs Moduli (GPa) = 73.17290 48.26049 49.43356
#
# Poissons Ratio (x) = -0.20332 0.37102
# Poissons Ratio (y) = -0.30827 0.54852
# Poissons Ratio (z) = 0.54919 0.53550
#
# Static dielectric constant tensor:
#      x y z
#    x 1.717430 -0.001700 0.012330 
#    y -0.001700 1.766960 0.003240 
#    z 0.012330 0.003240 1.732720 
# 
# From -- ./inp_files/405128.got.cif
#   From: 2010.05.17/outbox.cif.g08.bks.cpg/sg2_203_cif.got.tgz:405128.got - 2010.06.03 11:33:40.
