data_PCOD9019857
_publ_section_title
;
Structure prediction by ZEFSAII (Michael W. Deem and Ramdas Pophale) SiO2 
 PCOD9019857
Probable space group: P -1
;
_chemical_formula_sum "Si O2"
_cell_formula_units_Z 12
_cell_length_a 9.595397
_cell_length_b 9.859902
_cell_length_c 8.967270
_cell_angle_alpha 96.411344
_cell_angle_beta 111.260529
_cell_angle_gamma 135.785299
_cell_volume 452.358867
_symmetry_space_group_name_H-M "P -1"
_symmetry_group_IT_number 2
_symmetry_cell_setting 'triclinic'
loop_
_space_group_symop_operation_xyz
x,y,z
-x,-y,-z
loop_
_atom_site_type_symbol
_atom_site_label
_atom_site_fract_x
_atom_site_fract_y
_atom_site_fract_z
Si Si1 0.750217 0.004425 0.584647
Si Si2 0.003190 0.699094 0.537480
Si Si3 0.570393 0.818786 0.819090
Si Si4 0.807721 0.243822 0.080245
Si Si5 0.315166 0.581813 0.143629
Si Si6 0.785606 0.856425 0.182959
O O1 0.827006 0.189734 0.533981
O O2 0.011679 0.109588 0.697937
O O3 0.667639 0.947167 0.714956
O O4 0.510019 0.760013 0.375440
O O5 0.704005 0.457802 0.350868
O O6 0.078590 0.657316 0.697418
O O7 0.087738 0.910859 0.665058
O O8 0.746526 0.849535 0.990591
O O9 0.580174 0.961015 0.943556
O O10 0.047054 0.349211 0.092850
O O11 0.746751 0.334136 0.974874
O O12 0.498947 0.625982 0.115969
#
# Coordination Sequence:
#
# PCOD9019857 Si02
#       6
#     2   2   2   2   2   2
#     4  11  23  44  67  95 130 169 213 261 318 377
#     4  10  22  43  65  96 126 171 211 258 322 371
#     4  11  24  42  66 100 128 165 214 264 320 375
#     4  10  23  44  65  97 128 168 213 265 319 375
#     4  10  21  45  70  88 132 172 210 263 320 377
#     4  10  24  44  64  95 130 171 211 262 315 379
#
# _framework density 26.527608000000001
#
# number of rings (size 3 to 8) (size 9 to 14) (size 15 to 20)
#    0.000    1.667    1.667    2.500    2.333    8.000 
#    9.000    4.167    0.000    0.000    0.000    0.000 
#    0.000    0.000    0.000    0.000    0.000    0.000 
#
# Total GULP energy -67189.795044 kJ/mol
# GULP energy per Si atom -5599.149587 kJ/mol
# Density = 2.646723 g / cm^3
# Si number density = 26.527608 Si / 1000 Ang^3
#
#
#
# Elastic Constant Matrix: (Units=GPa)
#
#
# Indices 1 2 3 4 5 6 
#
# 1 65.2368 12.0465 33.3932 -3.9649 10.2164 -2.5403
# 2 12.0465 105.2652 64.5657 -14.6217 -15.2872 16.5740
# 3 33.3932 64.5657 235.9750 -20.2583 6.9744 14.9818
# 4 -3.9649 -14.6217 -20.2583 61.2735 11.4651 -9.5219
# 5 10.2164 -15.2872 6.9744 11.4651 38.0830 -5.3834
# 6 -2.5403 16.5740 14.9818 -9.5219 -5.3834 27.9298
#
#
#
# Elastic Compliance Matrix: (Units=1/GPa)
#
#
# Indices 1 2 3 4 5 6 
#
# 1 0.017686 -0.001910 -0.001905 0.001536 -0.005159 0.003293
# 2 -0.001910 0.013353 -0.003208 0.000125 0.005682 -0.005239
# 3 -0.001905 -0.003208 0.005644 0.001211 -0.002364 -0.001340
# 4 0.001536 0.000125 0.001211 0.018613 -0.005523 0.004697
# 5 -0.005159 0.005682 -0.002364 -0.005523 0.032269 0.001764
# 6 0.003293 -0.005239 -0.001340 0.004697 0.001764 0.041873
#
#
# Mechanical properties :
#
#
# Convention : Reuss Voigt Hill
#
# Bulk Modulus (GPa) = 44.17378 69.60975 56.89176
# Shear Modulus (GPa) = 33.10602 45.22204 39.16403
#
# Velocity S-wave (km/s) = 3.53651 4.13330 3.84650
# Velocity P-wave (km/s) = 5.77616 7.00545 6.42030
#
# Compressibility (1/GPa) = 0.02263787
#
# Stress axis : x y z
#
# Youngs Moduli (GPa) = 56.54153 74.88676 177.17963
#
# Poissons Ratio (x) = 0.14303 0.33751
# Poissons Ratio (y) = 0.10799 0.56839
# Poissons Ratio (z) = 0.10771 0.24023
#
# Static dielectric constant tensor:
#      x y z
#    x 2.200490 0.021940 -0.039730 
#    y 0.021940 2.122410 0.028060 
#    z -0.039730 0.028060 1.984400 
# 
# From -- ./inp_files/236888.got.cif
#   From: 2010.05.17/outbox.cif.g08.bks.cpg/sg2_119_cif.got.tgz:236888.got - 2010.06.03 11:33:40.
