data_PCOD9019187
_publ_section_title
;
Structure prediction by ZEFSAII (Michael W. Deem and Ramdas Pophale) SiO2 
 PCOD9019187
Probable space group: P -1
;
_chemical_formula_sum "Si O2"
_cell_formula_units_Z 12
_cell_length_a 10.546443
_cell_length_b 6.140150
_cell_length_c 10.537711
_cell_angle_alpha 65.955249
_cell_angle_beta 124.932011
_cell_angle_gamma 101.405266
_cell_volume 510.322544
_symmetry_space_group_name_H-M "P -1"
_symmetry_group_IT_number 2
_symmetry_cell_setting 'triclinic'
loop_
_space_group_symop_operation_xyz
x,y,z
-x,-y,-z
loop_
_atom_site_type_symbol
_atom_site_label
_atom_site_fract_x
_atom_site_fract_y
_atom_site_fract_z
Si Si1 0.533036 0.787463 0.955194
Si Si2 0.180430 0.523060 0.120101
Si Si3 0.732615 0.904515 0.369177
Si Si4 0.164270 0.006080 0.869548
Si Si5 0.189089 0.032638 0.319401
Si Si6 0.341254 0.568592 0.461003
O O1 0.417208 0.913651 0.757359
O O2 0.500000 0.500000 0.000000
O O3 0.717906 0.812109 0.045292
O O4 0.500000 0.000000 0.000000
O O5 0.216837 0.584469 0.271481
O O6 0.245210 0.251188 0.215495
O O7 0.000000 0.500000 0.000000
O O8 0.228055 0.738837 0.008578
O O9 0.827152 0.964213 0.284119
O O10 0.683435 0.630885 0.400402
O O11 0.822904 0.904120 0.553393
O O12 0.985255 0.032352 0.803348
O O13 0.321211 0.828279 0.441822
O O14 0.500000 0.500000 0.500000
#
# Coordination Sequence:
#
# PCOD9019187 Si02
#       6
#     2   2   2   2   2   2
#     4  10  23  44  65 103 143 183 230 290 360 425
#     4   9  21  43  65  99 137 177 231 281 345 425
#     4  10  23  42  68 101 138 177 235 292 356 420
#     4  10  21  44  69 105 140 176 237 296 354 427
#     4  10  23  43  70  98 140 190 227 287 361 422
#     4  11  24  44  63  96 139 181 241 284 348 426
#
# _framework density 23.514538000000002
#
# number of rings (size 3 to 8) (size 9 to 14) (size 15 to 20)
#    0.000    2.000    0.000    1.500    4.667    6.000 
#   30.000    0.000    0.000    0.000    0.000    0.000 
#    0.000    0.000    0.000    0.000    0.000    0.000 
#
# Total GULP energy -66840.127212 kJ/mol
# GULP energy per Si atom -5570.010601 kJ/mol
# Density = 2.346102 g / cm^3
# Si number density = 23.514538 Si / 1000 Ang^3
#
#
#
# Elastic Constant Matrix: (Units=GPa)
#
#
# Indices 1 2 3 4 5 6 
#
# 1 67.3498 52.4603 39.5038 -21.9446 -8.5106 2.4833
# 2 52.4603 133.2235 59.8372 -36.8409 -2.0684 19.5530
# 3 39.5038 59.8372 129.1080 -35.1715 -16.8079 8.3627
# 4 -21.9446 -36.8409 -35.1715 70.3883 8.3134 1.0339
# 5 -8.5106 -2.0684 -16.8079 8.3134 44.8917 -3.1279
# 6 2.4833 19.5530 8.3627 1.0339 -3.1279 33.3979
#
#
#
# Elastic Compliance Matrix: (Units=1/GPa)
#
#
# Indices 1 2 3 4 5 6 
#
# 1 0.023569 -0.008165 -0.002973 0.001171 0.003042 0.004021
# 2 -0.008165 0.014146 -0.002946 0.003876 -0.003230 -0.007360
# 3 -0.002973 -0.002946 0.011207 0.002795 0.002932 -0.000672
# 4 0.001171 0.003876 0.002795 0.018315 -0.002212 -0.003830
# 5 0.003042 -0.003230 0.002932 -0.002212 0.024440 0.003288
# 6 0.004021 -0.007360 -0.000672 -0.003830 0.003288 0.034547
#
#
# Mechanical properties :
#
#
# Convention : Reuss Voigt Hill
#
# Bulk Modulus (GPa) = 48.18066 70.36487 59.27277
# Shear Modulus (GPa) = 30.99627 41.59426 36.29527
#
# Velocity S-wave (km/s) = 3.63461 4.21036 3.93303
# Velocity P-wave (km/s) = 6.17641 7.32292 6.77396
#
# Compressibility (1/GPa) = 0.02075522
#
# Stress axis : x y z
#
# Youngs Moduli (GPa) = 42.42868 70.68927 89.22958
#
# Poissons Ratio (x) = 0.57716 0.26527
# Poissons Ratio (y) = 0.34642 0.26287
# Poissons Ratio (z) = 0.12613 0.20825
#
# Static dielectric constant tensor:
#      x y z
#    x 1.913750 -0.005380 0.022700 
#    y -0.005380 2.028630 0.026140 
#    z 0.022700 0.026140 1.865160 
# 
# From -- ./inp_files/38584.got.cif
#   From: 2010.05.17/outbox.cif.g08.bks.cpg/sg2_20_cif.got.tgz:38584.got - 2010.06.03 11:33:40.
