data_PCOD9019513
_publ_section_title
;
Structure prediction by ZEFSAII (Michael W. Deem and Ramdas Pophale) SiO2 
 PCOD9019513
Probable space group: P -1
;
_chemical_formula_sum "Si O2"
_cell_formula_units_Z 16
_cell_length_a 8.020528
_cell_length_b 7.071465
_cell_length_c 13.994681
_cell_angle_alpha 103.196729
_cell_angle_beta 104.676755
_cell_angle_gamma 98.186881
_cell_volume 730.466686
_symmetry_space_group_name_H-M "P -1"
_symmetry_group_IT_number 2
_symmetry_cell_setting 'triclinic'
loop_
_space_group_symop_operation_xyz
x,y,z
-x,-y,-z
loop_
_atom_site_type_symbol
_atom_site_label
_atom_site_fract_x
_atom_site_fract_y
_atom_site_fract_z
Si Si1 0.344670 0.492770 0.753723
Si Si2 0.836055 0.814775 0.942629
Si Si3 0.271345 0.495886 0.256785
Si Si4 0.802044 0.830154 0.158504
Si Si5 0.843006 0.340835 0.416464
Si Si6 0.300938 0.880687 0.439744
Si Si7 0.899362 0.862314 0.683385
Si Si8 0.478139 0.921019 0.881803
O O1 0.538778 0.453846 0.761071
O O2 0.216678 0.328736 0.777633
O O3 0.279473 0.541828 0.645954
O O4 0.366637 0.698224 0.837455
O O5 0.856763 0.623421 0.859720
O O6 0.674822 0.898764 0.879225
O O7 0.780285 0.750862 0.036900
O O8 0.000000 0.000000 0.000000
O O9 0.263313 0.696703 0.336675
O O10 0.239326 0.320110 0.311379
O O11 0.639705 0.941403 0.168116
O O12 0.995654 0.972660 0.209646
O O13 0.756022 0.206761 0.474815
O O14 0.000000 0.500000 0.500000
O O15 0.938002 0.220225 0.343715
O O16 0.500000 0.000000 0.500000
O O17 0.190737 0.034483 0.400389
O O18 0.500000 0.000000 0.000000
#
# Coordination Sequence:
#
# PCOD9019513 Si02
#       8
#     2   2   2   2   2   2   2   2
#     4  11  25  43  69 104 137 179 233 287 343 418
#     4  10  21  44  73 103 140 187 225 284 350 412
#     4  11  26  46  69 100 147 177 233 285 352 408
#     4  11  23  43  74 104 138 183 230 280 351 418
#     4  12  25  46  73 100 138 181 233 295 352 400
#     4  12  29  47  71 103 140 189 236 287 351 418
#     4  12  25  46  72 101 141 182 237 288 350 418
#     4   9  21  41  67  95 139 177 221 281 340 403
#
# _framework density 21.903804999999998
#
# number of rings (size 3 to 8) (size 9 to 14) (size 15 to 20)
#    0.000    1.000    3.750    1.875    3.500    7.500 
#    0.000    1.875    0.000    0.000    0.000    0.000 
#    0.000    0.000    0.000    0.000    0.000    0.000 
#
# Total GULP energy -89246.489968 kJ/mol
# GULP energy per Si atom -5577.905623 kJ/mol
# Density = 2.185395 g / cm^3
# Si number density = 21.903805 Si / 1000 Ang^3
#
#
#
# Elastic Constant Matrix: (Units=GPa)
#
#
# Indices 1 2 3 4 5 6 
#
# 1 48.0174 18.9555 3.0069 -4.5058 5.6811 23.2996
# 2 18.9555 73.7786 3.3921 -7.5821 -0.4463 24.9210
# 3 3.0069 3.3921 57.8800 1.2444 5.0843 8.1593
# 4 -4.5058 -7.5821 1.2444 37.4207 2.7422 0.4312
# 5 5.6811 -0.4463 5.0843 2.7422 47.7368 -2.4821
# 6 23.2996 24.9210 8.1593 0.4312 -2.4821 33.9919
#
#
#
# Elastic Compliance Matrix: (Units=1/GPa)
#
#
# Indices 1 2 3 4 5 6 
#
# 1 0.033378 -0.000238 0.002016 0.004593 -0.005683 -0.023662
# 2 -0.000238 0.018645 0.000857 0.003941 -0.000834 -0.013823
# 3 0.002016 0.000857 0.018270 0.000070 -0.002524 -0.006581
# 4 0.004593 0.003941 0.000070 0.028331 -0.002488 -0.006595
# 5 -0.005683 -0.000834 -0.002524 -0.002488 0.022381 0.006779
# 6 -0.023662 -0.013823 -0.006581 -0.006595 0.006779 0.057930
#
#
# Mechanical properties :
#
#
# Convention : Reuss Voigt Hill
#
# Bulk Modulus (GPa) = 13.23416 25.59834 19.41625
# Shear Modulus (GPa) = 25.14415 34.11797 29.63106
#
# Velocity S-wave (km/s) = 3.39180 3.95096 3.68201
# Velocity P-wave (km/s) = 4.62538 5.70312 5.19228
#
# Compressibility (1/GPa) = 0.07556203
#
# Stress axis : x y z
#
# Youngs Moduli (GPa) = 29.95948 53.63405 54.73431
#
# Poissons Ratio (x) = 0.01279 -0.11034
# Poissons Ratio (y) = 0.00714 -0.04689
# Poissons Ratio (z) = -0.06040 -0.04595
#
# Static dielectric constant tensor:
#      x y z
#    x 1.807590 -0.020760 0.040580 
#    y -0.020760 1.807440 0.045400 
#    z 0.040580 0.045400 1.829560 
# 
# From -- ./inp_files/340463.got.cif
#   From: 2010.05.17/outbox.cif.g08.bks.cpg/sg2_171_cif.got.tgz:340463.got - 2010.06.03 11:33:40.
