data_PCOD9019758
_publ_section_title
;
Structure prediction by ZEFSAII (Michael W. Deem and Ramdas Pophale) SiO2 
 PCOD9019758
Probable space group: P -1
;
_chemical_formula_sum "Si O2"
_cell_formula_units_Z 14
_cell_length_a 9.906683
_cell_length_b 5.298613
_cell_length_c 14.781944
_cell_angle_alpha 108.297384
_cell_angle_beta 59.843374
_cell_angle_gamma 125.025831
_cell_volume 549.045021
_symmetry_space_group_name_H-M "P -1"
_symmetry_group_IT_number 2
_symmetry_cell_setting 'triclinic'
loop_
_space_group_symop_operation_xyz
x,y,z
-x,-y,-z
loop_
_atom_site_type_symbol
_atom_site_label
_atom_site_fract_x
_atom_site_fract_y
_atom_site_fract_z
Si Si1 0.541075 0.676655 0.601808
Si Si2 0.821441 0.441684 0.329564
Si Si3 0.175090 0.842511 0.173060
Si Si4 0.716039 0.567367 0.686845
Si Si5 0.126903 0.891932 0.558723
Si Si6 0.518990 0.255934 0.903776
Si Si7 0.104599 0.868792 0.006654
O O1 0.500000 0.500000 0.500000
O O2 0.364034 0.700287 0.679921
O O3 0.576344 0.484680 0.643053
O O4 0.727625 0.997846 0.559053
O O5 0.803278 0.230933 0.396766
O O6 0.001893 0.520591 0.223882
O O7 0.864115 0.784805 0.382985
O O8 0.349379 0.818568 0.091024
O O9 0.115478 0.957675 0.118850
O O10 0.241066 0.095460 0.256796
O O11 0.627499 0.371549 0.784900
O O12 0.913508 0.644455 0.592999
O O13 0.500000 0.500000 0.000000
O O14 0.312422 0.003184 0.922803
O O15 0.000000 0.500000 0.000000
O O16 0.000000 0.000000 0.000000
#
# Coordination Sequence:
#
# PCOD9019758 Si02
#       7
#     2   2   2   2   2   2   2
#     4  10  23  45  71 107 151 192 243 312 380 440
#     4  10  22  42  70 102 144 184 239 304 368 430
#     4  11  25  47  71 108 146 197 254 305 368 460
#     4  11  24  45  74 107 145 200 254 305 368 456
#     4  10  21  45  68 102 141 192 240 297 365 444
#     4  12  25  49  78 104 153 200 257 307 377 460
#     4  12  29  46  74 107 148 191 244 314 379 435
#
# _framework density 25.498818
#
# number of rings (size 3 to 8) (size 9 to 14) (size 15 to 20)
#    0.000    1.143    2.857    2.143    4.000    0.000 
#   12.857    4.286    0.000    0.000    0.000    0.000 
#    0.000    0.000    0.000    0.000    0.000    0.000 
#
# Total GULP energy -78370.076022 kJ/mol
# GULP energy per Si atom -5597.862573 kJ/mol
# Density = 2.544078 g / cm^3
# Si number density = 25.498818 Si / 1000 Ang^3
#
#
#
# Elastic Constant Matrix: (Units=GPa)
#
#
# Indices 1 2 3 4 5 6 
#
# 1 204.0933 45.6909 52.6264 -17.0151 -2.4792 -2.6492
# 2 45.6909 114.2560 25.3378 -17.7629 -12.5599 3.3871
# 3 52.6264 25.3378 112.5697 -26.3557 1.9967 12.3105
# 4 -17.0151 -17.7629 -26.3557 50.8467 8.4098 -3.0349
# 5 -2.4792 -12.5599 1.9967 8.4098 65.8206 -15.3874
# 6 -2.6492 3.3871 12.3105 -3.0349 -15.3874 43.0502
#
#
#
# Elastic Compliance Matrix: (Units=1/GPa)
#
#
# Indices 1 2 3 4 5 6 
#
# 1 0.005987 -0.001833 -0.002513 0.000098 0.000250 0.001327
# 2 -0.001833 0.010220 -0.000973 0.002185 0.001657 0.000107
# 3 -0.002513 -0.000973 0.011950 0.005146 -0.002218 -0.003925
# 4 0.000098 0.002185 0.005146 0.023563 -0.002990 -0.001045
# 5 0.000250 0.001657 -0.002218 -0.002990 0.017502 0.006564
# 6 0.001327 0.000107 -0.003925 -0.001045 0.006564 0.026697
#
#
# Mechanical properties :
#
#
# Convention : Reuss Voigt Hill
#
# Bulk Modulus (GPa) = 57.08010 75.35879 66.21945
# Shear Modulus (GPa) = 44.48548 52.42777 48.45662
#
# Velocity S-wave (km/s) = 4.18138 4.53933 4.36403
# Velocity P-wave (km/s) = 6.76357 7.55592 7.17070
#
# Compressibility (1/GPa) = 0.01751924
#
# Stress axis : x y z
#
# Youngs Moduli (GPa) = 167.04222 97.84946 83.67862
#
# Poissons Ratio (x) = 0.17940 0.21025
# Poissons Ratio (y) = 0.30626 0.08140
# Poissons Ratio (z) = 0.41970 0.09519
#
# Static dielectric constant tensor:
#      x y z
#    x 2.111140 -0.040680 -0.135150 
#    y -0.040680 2.106020 0.058330 
#    z -0.135150 0.058330 2.111820 
# 
# From -- ./inp_files/99510.got.cif
#   From: 2010.05.17/outbox.cif.g08.bks.cpg/sg2_50_cif.got.tgz:99510.got - 2010.06.03 11:33:40.
