data_PCOD9019938
_publ_section_title
;
Structure prediction by ZEFSAII (Michael W. Deem and Ramdas Pophale) SiO2 
 PCOD9019938
Probable space group: P -1
;
_chemical_formula_sum "Si O2"
_cell_formula_units_Z 14
_cell_length_a 12.961591
_cell_length_b 6.717408
_cell_length_c 14.005277
_cell_angle_alpha 70.559294
_cell_angle_beta 32.023136
_cell_angle_gamma 81.880778
_cell_volume 585.017123
_symmetry_space_group_name_H-M "P -1"
_symmetry_group_IT_number 2
_symmetry_cell_setting 'triclinic'
loop_
_space_group_symop_operation_xyz
x,y,z
-x,-y,-z
loop_
_atom_site_type_symbol
_atom_site_label
_atom_site_fract_x
_atom_site_fract_y
_atom_site_fract_z
Si Si1 0.475297 0.243655 0.567479
Si Si2 0.134411 0.368300 0.473169
Si Si3 0.245141 0.014012 0.105385
Si Si4 0.616310 0.854652 0.813660
Si Si5 0.201525 0.809959 0.826897
Si Si6 0.891229 0.627501 0.930260
Si Si7 0.763864 0.279405 0.509923
O O1 0.500000 0.500000 0.500000
O O2 0.601829 0.208943 0.382030
O O3 0.589945 0.206064 0.578890
O O4 0.254894 0.068111 0.767645
O O5 0.303758 0.323618 0.276985
O O6 0.238286 0.510165 0.459625
O O7 0.000000 0.500000 0.500000
O O8 0.978413 0.144809 0.671696
O O9 0.334451 0.130472 0.115831
O O10 0.253002 0.216408 0.996757
O O11 0.384947 0.862287 0.985372
O O12 0.745970 0.084923 0.629470
O O13 0.020722 0.725049 0.907352
O O14 0.180783 0.633859 0.955444
O O15 0.031803 0.667754 0.720130
#
# Coordination Sequence:
#
# PCOD9019938 Si02
#       7
#     2   2   2   2   2   2   2
#     4  10  23  41  68 101 142 184 234 298 361 426
#     4  12  24  44  73 100 145 190 231 298 358 423
#     4  11  24  44  73 102 144 190 234 297 360 427
#     4  11  25  47  66 106 147 181 244 290 355 442
#     4   9  22  44  68 103 138 183 241 300 355 428
#     4  10  21  45  73 102 142 186 243 298 363 423
#     4  11  24  43  67 105 142 188 232 297 361 426
#
# _framework density 23.930921999999999
#
# number of rings (size 3 to 8) (size 9 to 14) (size 15 to 20)
#    0.000    1.429    2.857    1.286    4.000    2.857 
#    2.571    2.143    0.000    0.000    0.000    0.000 
#    0.000    0.000    0.000    0.000    0.000    0.000 
#
# Total GULP energy -78340.764751 kJ/mol
# GULP energy per Si atom -5595.768911 kJ/mol
# Density = 2.387645 g / cm^3
# Si number density = 23.930922 Si / 1000 Ang^3
#
#
#
# Elastic Constant Matrix: (Units=GPa)
#
#
# Indices 1 2 3 4 5 6 
#
# 1 -32.1709 -22.5292 31.0201 -40.5464 0.9267 -30.7685
# 2 -22.5292 92.1571 39.2366 -13.9531 0.2000 -11.7959
# 3 31.0201 39.2366 93.3680 7.7086 11.4825 -3.0300
# 4 -40.5464 -13.9531 7.7086 53.6492 -3.0144 3.2779
# 5 0.9267 0.2000 11.4825 -3.0144 20.7583 -11.5277
# 6 -30.7685 -11.7959 -3.0300 3.2779 -11.5277 35.2198
#
#
#
# Elastic Compliance Matrix: (Units=1/GPa)
#
#
# Indices 1 2 3 4 5 6 
#
# 1 -0.005582 -0.005795 0.005588 -0.006484 -0.008446 -0.008498
# 2 -0.005795 0.009964 -0.002238 -0.001348 0.000256 -0.001709
# 3 0.005588 -0.002238 0.010209 0.001749 -0.003580 0.003676
# 4 -0.006484 -0.001348 0.001749 0.013458 -0.003323 -0.008306
# 5 -0.008446 0.000256 -0.003580 -0.003323 0.056214 0.011107
# 6 -0.008498 -0.001709 0.003676 -0.008306 0.011107 0.025122
#
#
# Mechanical properties :
#
#
# Convention : Reuss Voigt Hill
#
# Bulk Modulus (GPa) = 103.06645 27.64546 65.35596
# Shear Modulus (GPa) = 42.55043 28.96727 35.75885
#
# Velocity S-wave (km/s) = 4.22127 3.48293 3.86975
# Velocity P-wave (km/s) = 8.18050 5.26799 6.88013
#
# Compressibility (1/GPa) = 0.00970248
#
# Stress axis : x y z
#
# Youngs Moduli (GPa) = -179.15048 100.36405 97.95051
#
# Poissons Ratio (x) = 0.58159 -0.54735
# Poissons Ratio (y) = -1.03813 0.21917
# Poissons Ratio (z) = 1.00109 0.22457
#
# Static dielectric constant tensor:
#      x y z
#    x 1.848320 -0.018410 -0.036470 
#    y -0.018410 2.003290 -0.007550 
#    z -0.036470 -0.007550 1.922510 
# 
# From -- ./inp_files/138150.got.cif
#   From: 2010.05.17/outbox.cif.g08.bks.cpg/sg2_70_cif.got.tgz:138150.got - 2010.06.03 11:33:40.
