data_PCOD9019533
_publ_section_title
;
Structure prediction by ZEFSAII (Michael W. Deem and Ramdas Pophale) SiO2 
 PCOD9019533
Probable space group: P -1
;
_chemical_formula_sum "Si O2"
_cell_formula_units_Z 16
_cell_length_a 20.925491
_cell_length_b 8.873682
_cell_length_c 15.080925
_cell_angle_alpha 49.417601
_cell_angle_beta 19.038099
_cell_angle_gamma 50.513458
_cell_volume 691.260313
_symmetry_space_group_name_H-M "P -1"
_symmetry_group_IT_number 2
_symmetry_cell_setting 'triclinic'
loop_
_space_group_symop_operation_xyz
x,y,z
-x,-y,-z
loop_
_atom_site_type_symbol
_atom_site_label
_atom_site_fract_x
_atom_site_fract_y
_atom_site_fract_z
Si Si1 0.406992 0.222956 0.037120
Si Si2 0.930792 0.636006 0.455094
Si Si3 0.688293 0.986051 0.431022
Si Si4 0.483022 0.351995 0.471871
Si Si5 0.830490 0.633334 0.877020
Si Si6 0.338527 0.405131 0.453151
Si Si7 0.927987 0.635652 0.934168
Si Si8 0.018359 0.033815 0.115688
O O1 0.561432 0.389573 0.766500
O O2 0.281513 0.273138 0.270941
O O3 0.268364 0.248290 0.121543
O O4 0.500000 0.000000 0.000000
O O5 0.000000 0.500000 0.500000
O O6 0.977126 0.496244 0.363165
O O7 0.051644 0.825735 0.204539
O O8 0.628335 0.760906 0.602462
O O9 0.525887 0.159960 0.550866
O O10 0.808571 0.039604 0.339090
O O11 0.831454 0.973637 0.161140
O O12 0.442078 0.300291 0.443770
O O13 0.273504 0.456914 0.737585
O O14 0.666056 0.484924 0.178475
O O15 0.890296 0.737637 0.848448
O O16 0.108998 0.470867 0.746489
O O17 0.970180 0.792601 0.894435
#
# Coordination Sequence:
#
# PCOD9019533 Si02
#       8
#     2   2   2   2   2   2   2   2
#     4  10  23  45  73 101 136 178 229 292 339 402
#     4  10  21  44  73  92 129 183 229 279 338 396
#     4  11  24  43  68  99 140 179 227 287 347 410
#     4  11  23  39  67  98 138 179 223 277 344 416
#     4  10  23  44  66  99 134 179 232 279 337 416
#     4  11  24  43  66 103 137 173 230 284 344 414
#     4  12  25  40  65  99 141 178 222 279 349 408
#     4  11  24  42  69  98 139 180 227 283 350 402
#
# _framework density 23.146128999999998
#
# number of rings (size 3 to 8) (size 9 to 14) (size 15 to 20)
#    0.000    1.250    2.500    2.625    1.750    3.000 
#    0.000    9.375    0.000    0.000    0.000    0.000 
#    0.000    0.000    0.000    0.000    0.000    0.000 
#
# Total GULP energy -89435.158381 kJ/mol
# GULP energy per Si atom -5589.697399 kJ/mol
# Density = 2.309345 g / cm^3
# Si number density = 23.146129 Si / 1000 Ang^3
#
#
#
# Elastic Constant Matrix: (Units=GPa)
#
#
# Indices 1 2 3 4 5 6 
#
# 1 151.3417 60.3372 43.6983 4.3171 4.1711 17.5010
# 2 60.3372 125.7400 30.9530 2.9583 -4.5079 -9.7197
# 3 43.6983 30.9530 70.6289 14.7980 3.2494 1.2045
# 4 4.3171 2.9583 14.7980 31.0754 -5.9625 5.5745
# 5 4.1711 -4.5079 3.2494 -5.9625 25.8701 2.8433
# 6 17.5010 -9.7197 1.2045 5.5745 2.8433 33.3157
#
#
#
# Elastic Compliance Matrix: (Units=1/GPa)
#
#
# Indices 1 2 3 4 5 6 
#
# 1 0.010587 -0.004481 -0.004963 0.002487 -0.000515 -0.007062
# 2 -0.004481 0.011192 -0.002371 0.000167 0.002408 0.005472
# 3 -0.004963 -0.002371 0.020634 -0.010467 -0.004985 0.003346
# 4 0.002487 0.000167 -0.010467 0.040502 0.011224 -0.008614
# 5 -0.000515 0.002408 -0.004985 0.011224 0.042852 -0.004382
# 6 -0.007062 0.005472 0.003346 -0.008614 -0.004382 0.037016
#
#
# Mechanical properties :
#
#
# Convention : Reuss Voigt Hill
#
# Bulk Modulus (GPa) = 53.24461 68.63196 60.93829
# Shear Modulus (GPa) = 25.95020 32.23370 29.09195
#
# Velocity S-wave (km/s) = 3.35198 3.73583 3.54910
# Velocity P-wave (km/s) = 6.16723 6.95158 6.57112
#
# Compressibility (1/GPa) = 0.01878124
#
# Stress axis : x y z
#
# Youngs Moduli (GPa) = 94.45387 89.34563 48.46363
#
# Poissons Ratio (x) = 0.40039 0.24054
# Poissons Ratio (y) = 0.42328 0.11493
# Poissons Ratio (z) = 0.46881 0.21188
#
# Static dielectric constant tensor:
#      x y z
#    x 1.904950 -0.018320 -0.017620 
#    y -0.018320 1.887970 -0.007410 
#    z -0.017620 -0.007410 1.920400 
# 
# From -- ./inp_files/540405.got.cif
#   From: 2010.05.17/outbox.cif.g08.bks.cpg/sg2_271_cif.got.tgz:540405.got - 2010.06.03 11:33:40.
