data_PCOD9019751
_publ_section_title
;
Structure prediction by ZEFSAII (Michael W. Deem and Ramdas Pophale) SiO2 
 PCOD9019751
Probable space group: P -1
;
_chemical_formula_sum "Si O2"
_cell_formula_units_Z 14
_cell_length_a 9.319506
_cell_length_b 14.793863
_cell_length_c 16.137191
_cell_angle_alpha 38.608694
_cell_angle_beta 40.094232
_cell_angle_gamma 25.561740
_cell_volume 583.945151
_symmetry_space_group_name_H-M "P -1"
_symmetry_group_IT_number 2
_symmetry_cell_setting 'triclinic'
loop_
_space_group_symop_operation_xyz
x,y,z
-x,-y,-z
loop_
_atom_site_type_symbol
_atom_site_label
_atom_site_fract_x
_atom_site_fract_y
_atom_site_fract_z
Si Si1 0.320332 0.315314 0.355738
Si Si2 0.011318 0.209848 0.825514
Si Si3 0.755110 0.191405 0.402040
Si Si4 0.707922 0.411511 0.557471
Si Si5 0.433553 0.838602 0.143791
Si Si6 0.789450 0.141856 0.120963
Si Si7 0.679324 0.893398 0.860021
O O1 0.607871 0.169727 0.405936
O O2 0.479235 0.264471 0.230900
O O3 0.104682 0.567862 0.292195
O O4 0.089559 0.285662 0.471614
O O5 0.034288 0.093727 0.819839
O O6 0.400257 0.003840 0.834023
O O7 0.761505 0.255960 0.970332
O O8 0.451388 0.398160 0.443806
O O9 0.967579 0.219785 0.248523
O O10 0.000000 0.000000 0.500000
O O11 0.500000 0.500000 0.500000
O O12 0.637565 0.289919 0.713001
O O13 0.492544 0.891901 0.164753
O O14 0.696356 0.750922 0.018360
O O15 0.074249 0.078115 0.097377
#
# Coordination Sequence:
#
# PCOD9019751 Si02
#       7
#     2   2   2   2   2   2   2
#     4  12  25  46  71 102 145 192 229 296 353 420
#     4  10  22  43  70 108 141 179 235 292 354 425
#     4  12  26  46  69 102 139 188 237 289 357 413
#     4  12  28  45  68 103 143 184 240 292 345 432
#     4  10  21  45  68 101 133 182 232 282 354 418
#     4  10  22  41  73 105 139 183 234 290 355 426
#     4  10  22  44  74  94 140 178 225 299 347 416
#
# _framework density 23.974854000000001
#
# number of rings (size 3 to 8) (size 9 to 14) (size 15 to 20)
#    0.000    1.143    1.429    4.286    2.000    2.286 
#    5.143    0.000    0.000    0.000    0.000    0.000 
#    0.000    0.000    0.000    0.000    0.000    0.000 
#
# Total GULP energy -78249.052372 kJ/mol
# GULP energy per Si atom -5589.218027 kJ/mol
# Density = 2.392029 g / cm^3
# Si number density = 23.974854 Si / 1000 Ang^3
#
#
#
# Elastic Constant Matrix: (Units=GPa)
#
#
# Indices 1 2 3 4 5 6 
#
# 1 144.6772 19.3886 71.0469 5.2317 3.5262 -13.6781
# 2 19.3886 42.9616 44.1729 16.8016 -6.1107 6.7447
# 3 71.0469 44.1729 150.0344 16.2762 -21.3665 -3.4119
# 4 5.2317 16.8016 16.2762 47.7176 -1.6690 -8.5522
# 5 3.5262 -6.1107 -21.3665 -1.6690 38.4786 1.2865
# 6 -13.6781 6.7447 -3.4119 -8.5522 1.2865 29.9129
#
#
#
# Elastic Compliance Matrix: (Units=1/GPa)
#
#
# Indices 1 2 3 4 5 6 
#
# 1 0.010077 -0.001551 -0.004980 0.001915 -0.004023 0.005110
# 2 -0.001551 0.043029 -0.010616 -0.014140 0.000993 -0.015708
# 3 -0.004980 -0.010616 0.012995 0.000317 0.005952 0.001433
# 4 0.001915 -0.014140 0.000317 0.027734 -0.001447 0.012092
# 5 -0.004023 0.000993 0.005952 -0.001447 0.029860 -0.003082
# 6 0.005110 -0.015708 0.001433 0.012092 -0.003082 0.043062
#
#
# Mechanical properties :
#
#
# Convention : Reuss Voigt Hill
#
# Bulk Modulus (GPa) = 31.43934 67.43224 49.43579
# Shear Modulus (GPa) = 23.62366 36.75947 30.19156
#
# Velocity S-wave (km/s) = 3.14244 3.91992 3.55251
# Velocity P-wave (km/s) = 5.12918 6.97675 6.12305
#
# Compressibility (1/GPa) = 0.03180728
#
# Stress axis : x y z
#
# Youngs Moduli (GPa) = 99.23502 23.24018 76.95547
#
# Poissons Ratio (x) = 0.03605 0.38321
# Poissons Ratio (y) = 0.15393 0.81695
# Poissons Ratio (z) = 0.49415 0.24671
#
# Static dielectric constant tensor:
#      x y z
#    x 1.877180 -0.032280 0.010860 
#    y -0.032280 2.016980 -0.026600 
#    z 0.010860 -0.026600 1.979580 
# 
# From -- ./inp_files/202209.got.cif
#   From: 2010.05.17/outbox.cif.g08.bks.cpg/sg2_102_cif.got.tgz:202209.got - 2010.06.03 11:33:40.
