data_PCOD9019986
_publ_section_title
;
Structure prediction by ZEFSAII (Michael W. Deem and Ramdas Pophale) SiO2 
 PCOD9019986
Probable space group: P -1
;
_chemical_formula_sum "Si O2"
_cell_formula_units_Z 13
_cell_length_a 11.393231
_cell_length_b 11.613613
_cell_length_c 16.357501
_cell_angle_alpha 22.572274
_cell_angle_beta 36.043074
_cell_angle_gamma 34.567868
_cell_volume 459.686082
_symmetry_space_group_name_H-M "P -1"
_symmetry_group_IT_number 2
_symmetry_cell_setting 'triclinic'
loop_
_space_group_symop_operation_xyz
x,y,z
-x,-y,-z
loop_
_atom_site_type_symbol
_atom_site_label
_atom_site_fract_x
_atom_site_fract_y
_atom_site_fract_z
Si Si1 0.717200 0.394918 0.859521
Si Si2 0.288431 0.017609 0.241996
Si Si3 0.069333 0.081432 0.091345
Si Si4 0.359932 0.670026 0.748470
Si Si5 0.500000 0.000000 0.000000
Si Si6 0.974233 0.384904 0.354810
Si Si7 0.552219 0.881512 0.344490
O O1 0.526761 0.591068 0.779697
O O2 0.835143 0.589033 0.715629
O O3 0.877961 0.150494 0.864777
O O4 0.633529 0.183206 0.107102
O O5 0.477230 0.779570 0.237566
O O6 0.926831 0.055955 0.593372
O O7 0.372984 0.987581 0.305359
O O8 0.318246 0.331277 0.973275
O O9 0.271427 0.982803 0.100600
O O10 0.861371 0.090970 0.251220
O O11 0.015866 0.441721 0.850480
O O12 0.464865 0.776798 0.543366
O O13 0.761654 0.618929 0.363361
#
# Coordination Sequence:
#
# PCOD9019986 Si02
#       7
#     2   2   2   2   1   2   2
#     4  10  24  52  74 106 149 198 253 295 367 452
#     4  11  24  43  73 112 145 189 248 301 370 439
#     4  11  25  46  79 107 147 196 249 309 367 434
#     4  11  25  48  75 111 152 187 249 313 364 438
#     4  12  22  48  76 112 146 190 256 304 366 446
#     4  11  23  45  78 104 152 202 239 305 373 440
#     4  10  21  45  75 105 147 198 244 306 369 429
#
# _framework density 28.280169000000001
#
# number of rings (size 3 to 8) (size 9 to 14) (size 15 to 20)
#    0.000    1.231    4.615    3.231    2.154    2.462 
#    8.308    3.077    3.385    0.000    0.000    0.000 
#    0.000    0.000    0.000    0.000    0.000    0.000 
#
# Total GULP energy -72853.348752 kJ/mol
# GULP energy per Si atom -5604.103750 kJ/mol
# Density = 2.821580 g / cm^3
# Si number density = 28.280169 Si / 1000 Ang^3
#
#
#
# Elastic Constant Matrix: (Units=GPa)
#
#
# Indices 1 2 3 4 5 6 
#
# 1 207.4554 42.5613 100.2694 7.1133 -16.3553 0.7540
# 2 42.5613 115.9816 57.4513 18.7114 0.4790 -0.5710
# 3 100.2694 57.4513 246.0836 48.8937 6.7636 10.6301
# 4 7.1133 18.7114 48.8937 60.8459 4.5530 -2.7047
# 5 -16.3553 0.4790 6.7636 4.5530 54.9030 6.5434
# 6 0.7540 -0.5710 10.6301 -2.7047 6.5434 45.1436
#
#
#
# Elastic Compliance Matrix: (Units=1/GPa)
#
#
# Indices 1 2 3 4 5 6 
#
# 1 0.006535 -0.001310 -0.002771 0.001722 0.002118 0.000323
# 2 -0.001310 0.010127 -0.001502 -0.001720 -0.000202 0.000430
# 3 -0.002771 -0.001502 0.006527 -0.004453 -0.001054 -0.001624
# 4 0.001722 -0.001720 -0.004453 0.020513 -0.000906 0.002358
# 5 0.002118 -0.000202 -0.001054 -0.000906 0.019368 -0.002651
# 6 0.000323 0.000430 -0.001624 0.002358 -0.002651 0.023060
#
#
# Mechanical properties :
#
#
# Convention : Reuss Voigt Hill
#
# Bulk Modulus (GPa) = 83.17204 107.78718 95.47961
# Shear Modulus (GPa) = 49.35616 56.79441 53.07528
#
# Velocity S-wave (km/s) = 4.18216 4.48624 4.33687
# Velocity P-wave (km/s) = 7.26598 8.06424 7.67549
#
# Compressibility (1/GPa) = 0.01202327
#
# Stress axis : x y z
#
# Youngs Moduli (GPa) = 153.01334 98.74356 153.20609
#
# Poissons Ratio (x) = 0.12940 0.42457
# Poissons Ratio (y) = 0.20052 0.23005
# Poissons Ratio (z) = 0.42403 0.14827
#
# Static dielectric constant tensor:
#      x y z
#    x 2.004030 -0.215200 -0.026690 
#    y -0.215200 1.295330 -0.056190 
#    z -0.026690 -0.056190 2.197600 
# 
# From -- ./inp_files/517408.got.cif
#   From: 2010.05.17/outbox.cif.g08.bks.cpg/sg2_259_cif.got.tgz:517408.got - 2010.06.03 11:33:40.
