data_PCOD9020095
_publ_section_title
;
Structure prediction by ZEFSAII (Michael W. Deem and Ramdas Pophale) SiO2 
 PCOD9020095
Probable space group: P -1
;
_chemical_formula_sum "Si O2"
_cell_formula_units_Z 14
_cell_length_a 12.978077
_cell_length_b 11.924503
_cell_length_c 10.723603
_cell_angle_alpha 145.688516
_cell_angle_beta 49.318116
_cell_angle_gamma 106.399594
_cell_volume 568.014004
_symmetry_space_group_name_H-M "P -1"
_symmetry_group_IT_number 2
_symmetry_cell_setting 'triclinic'
loop_
_space_group_symop_operation_xyz
x,y,z
-x,-y,-z
loop_
_atom_site_type_symbol
_atom_site_label
_atom_site_fract_x
_atom_site_fract_y
_atom_site_fract_z
Si Si1 0.924678 0.436290 0.693023
Si Si2 0.366480 0.515109 0.706382
Si Si3 0.981465 0.064936 0.718505
Si Si4 0.429812 0.153772 0.510231
Si Si5 0.096942 0.634819 0.641116
Si Si6 0.337995 0.806656 0.248381
Si Si7 0.725667 0.163317 0.398975
O O1 0.876152 0.464463 0.611877
O O2 0.073163 0.473241 0.606072
O O3 0.751241 0.641505 0.091238
O O4 0.999059 0.159862 0.428564
O O5 0.500000 0.500000 0.500000
O O6 0.412204 0.256888 0.480309
O O7 0.196381 0.671343 0.902229
O O8 0.361384 0.643856 0.961175
O O9 0.000000 0.000000 0.500000
O O10 0.144155 0.052461 0.611469
O O11 0.585973 0.130709 0.431180
O O12 0.455326 0.895573 0.246718
O O13 0.235367 0.689740 0.591696
O O14 0.909103 0.900086 0.030293
O O15 0.331633 0.714352 0.305680
#
# Coordination Sequence:
#
# PCOD9020095 Si02
#       7
#     2   2   2   2   2   2   2
#     4  11  21  42  67 105 135 187 236 278 351 418
#     4  11  27  48  69 101 138 184 240 299 348 402
#     4  10  21  46  70  93 138 182 239 291 331 424
#     4  12  25  44  71 107 143 188 233 280 360 425
#     4  10  23  39  67 103 143 185 229 283 353 412
#     4  11  23  45  72 101 141 187 233 284 357 421
#     4  11  23  43  67 105 150 182 225 291 352 425
#
# _framework density 24.647281
#
# number of rings (size 3 to 8) (size 9 to 14) (size 15 to 20)
#    0.000    1.143    5.714    0.429    2.000    3.429 
#    2.571    0.000    0.000    0.000    0.000    0.000 
#    0.000    0.000    0.000    0.000    0.000    0.000 
#
# Total GULP energy -78258.437275 kJ/mol
# GULP energy per Si atom -5589.888377 kJ/mol
# Density = 2.459118 g / cm^3
# Si number density = 24.647281 Si / 1000 Ang^3
#
#
#
# Elastic Constant Matrix: (Units=GPa)
#
#
# Indices 1 2 3 4 5 6 
#
# 1 117.5049 41.0606 22.8676 -11.0251 -15.6994 25.6539
# 2 41.0606 159.3340 22.0364 -26.3570 -1.3679 22.0991
# 3 22.8676 22.0364 56.5889 -8.0707 -7.2715 -9.1777
# 4 -11.0251 -26.3570 -8.0707 35.7416 -1.4021 -3.6148
# 5 -15.6994 -1.3679 -7.2715 -1.4021 38.9073 -4.0160
# 6 25.6539 22.0991 -9.1777 -3.6148 -4.0160 41.7826
#
#
#
# Elastic Compliance Matrix: (Units=1/GPa)
#
#
# Indices 1 2 3 4 5 6 
#
# 1 0.012068 -0.001157 -0.005087 0.001083 0.003141 -0.007519
# 2 -0.001157 0.008288 -0.002864 0.004667 -0.000954 -0.003990
# 3 -0.005087 -0.002864 0.023346 0.002768 0.003376 0.010330
# 4 0.001083 0.004667 0.002768 0.032523 0.002343 0.000514
# 5 0.003141 -0.000954 0.003376 0.002343 0.027878 0.002200
# 6 -0.007519 -0.003990 0.010330 0.000514 0.002200 0.033185
#
#
# Mechanical properties :
#
#
# Convention : Reuss Voigt Hill
#
# Bulk Modulus (GPa) = 39.23913 56.15074 47.69494
# Shear Modulus (GPa) = 30.48792 39.78386 35.13589
#
# Velocity S-wave (km/s) = 3.52087 4.02198 3.77974
# Velocity P-wave (km/s) = 5.69943 6.66330 6.20013
#
# Compressibility (1/GPa) = 0.02548477
#
# Stress axis : x y z
#
# Youngs Moduli (GPa) = 82.86711 120.66212 42.83358
#
# Poissons Ratio (x) = 0.13964 0.21790
# Poissons Ratio (y) = 0.09590 0.12267
# Poissons Ratio (z) = 0.42157 0.34555
#
# Static dielectric constant tensor:
#      x y z
#    x 1.966840 0.051030 -0.029810 
#    y 0.051030 1.943980 0.039390 
#    z -0.029810 0.039390 1.949750 
# 
# From -- ./inp_files/417467.got.cif
#   From: 2010.05.17/outbox.cif.g08.bks.cpg/sg2_209_cif.got.tgz:417467.got - 2010.06.03 11:33:40.
