data_PCOD9020387
_publ_section_title
;
Structure prediction by ZEFSAII (Michael W. Deem and Ramdas Pophale) SiO2 
 PCOD9020387
Probable space group: P -1
;
_chemical_formula_sum "Si O2"
_cell_formula_units_Z 16
_cell_length_a 10.878053
_cell_length_b 12.061747
_cell_length_c 20.302108
_cell_angle_alpha 137.714147
_cell_angle_beta 147.496182
_cell_angle_gamma 64.888584
_cell_volume 803.147552
_symmetry_space_group_name_H-M "P -1"
_symmetry_group_IT_number 2
_symmetry_cell_setting 'triclinic'
loop_
_space_group_symop_operation_xyz
x,y,z
-x,-y,-z
loop_
_atom_site_type_symbol
_atom_site_label
_atom_site_fract_x
_atom_site_fract_y
_atom_site_fract_z
Si Si1 0.064227 0.924010 0.766027
Si Si2 0.218164 0.591268 0.077520
Si Si3 0.066947 0.692973 0.294934
Si Si4 0.338872 0.743630 0.871107
Si Si5 0.770981 0.634133 0.387770
Si Si6 0.851815 0.097773 0.443388
Si Si7 0.380534 0.999549 0.374464
Si Si8 0.427358 0.296016 0.914348
O O1 0.145782 0.825271 0.815618
O O2 0.858036 0.758503 0.548333
O O3 0.907728 0.023651 0.762592
O O4 0.352236 0.079632 0.929641
O O5 0.468869 0.569381 0.198652
O O6 0.349406 0.823408 0.240484
O O7 0.000000 0.500000 0.000000
O O8 0.093347 0.500953 0.909568
O O9 0.120842 0.748167 0.421534
O O10 0.374973 0.797726 0.455187
O O11 0.880127 0.781509 0.231901
O O12 0.236231 0.565105 0.695406
O O13 0.362632 0.655419 0.911260
O O14 0.991152 0.776913 0.495023
O O15 0.583070 0.885513 0.207148
O O16 0.000000 0.000000 0.500000
O O17 0.500000 0.000000 0.500000
O O18 0.500000 0.500000 0.000000
#
# Coordination Sequence:
#
# PCOD9020387 Si02
#       8
#     2   2   2   2   2   2   2   2
#     4  11  24  40  61  93 128 167 200 253 312 371
#     4  12  22  33  58  88 121 162 204 252 308 366
#     4  11  23  36  56  92 119 156 202 254 311 358
#     4  11  22  39  64  93 126 159 209 250 311 379
#     4  12  21  39  61  90 128 159 203 257 312 367
#     4  10  22  35  58  90 124 156 198 262 311 358
#     4  12  22  38  59  84 128 163 201 256 303 366
#     4  11  21  38  64  95 123 158 205 261 315 363
#
# _framework density 19.921619
#
# number of rings (size 3 to 8) (size 9 to 14) (size 15 to 20)
#    0.000    0.750    5.000    4.875    1.750    0.000 
#    0.000    0.000    0.000    3.750    0.000    0.000 
#    0.000    0.000    0.000    0.000    0.000    0.000 
#
# Total GULP energy -89091.752001 kJ/mol
# GULP energy per Si atom -5568.234500 kJ/mol
# Density = 1.987628 g / cm^3
# Si number density = 19.921619 Si / 1000 Ang^3
#
#
#
# Elastic Constant Matrix: (Units=GPa)
#
#
# Indices 1 2 3 4 5 6 
#
# 1 62.6097 10.7632 23.9916 -8.9579 -11.2331 -6.0266
# 2 10.7632 78.8286 16.7560 -11.5281 0.8676 -8.7477
# 3 23.9916 16.7560 107.3647 13.2746 -19.6651 -3.5020
# 4 -8.9579 -11.5281 13.2746 28.3007 -9.4355 -1.7898
# 5 -11.2331 0.8676 -19.6651 -9.4355 40.6959 2.8895
# 6 -6.0266 -8.7477 -3.5020 -1.7898 2.8895 25.5731
#
#
#
# Elastic Compliance Matrix: (Units=1/GPa)
#
#
# Indices 1 2 3 4 5 6 
#
# 1 0.020848 0.000263 -0.004899 0.011172 0.005654 0.004475
# 2 0.000263 0.015125 -0.003302 0.008010 -0.000371 0.005386
# 3 -0.004899 -0.003302 0.012390 -0.007800 0.003001 -0.001472
# 4 0.011172 0.008010 -0.007800 0.049604 0.010174 0.006627
# 5 0.005654 -0.000371 0.003001 0.010174 0.030026 -0.001064
# 6 0.004475 0.005386 -0.001472 0.006627 -0.001064 0.042383
#
#
# Mechanical properties :
#
#
# Convention : Reuss Voigt Hill
#
# Bulk Modulus (GPa) = 30.78193 39.09162 34.93678
# Shear Modulus (GPa) = 25.37029 32.06674 28.71851
#
# Velocity S-wave (km/s) = 3.57249 4.01639 3.80093
# Velocity P-wave (km/s) = 5.70105 6.41668 6.06942
#
# Compressibility (1/GPa) = 0.03248659
#
# Stress axis : x y z
#
# Youngs Moduli (GPa) = 47.96664 66.11629 80.70835
#
# Poissons Ratio (x) = -0.01740 0.39543
# Poissons Ratio (y) = -0.01262 0.26649
# Poissons Ratio (z) = 0.23501 0.21831
#
# Static dielectric constant tensor:
#      x y z
#    x 1.766470 0.028360 -0.015630 
#    y 0.028360 1.712090 0.073700 
#    z -0.015630 0.073700 1.808040 
# 
# From -- ./inp_files/594988.got.cif
#   From: 2010.05.17/outbox.cif.g08.bks.cpg/sg2_298_cif.got.tgz:594988.got - 2010.06.03 11:33:40.
