data_PCOD9020292
_publ_section_title
;
Structure prediction by ZEFSAII (Michael W. Deem and Ramdas Pophale) SiO2 
 PCOD9020292
Probable space group: P -1
;
_chemical_formula_sum "Si O2"
_cell_formula_units_Z 16
_cell_length_a 21.057289
_cell_length_b 13.779732
_cell_length_c 10.036834
_cell_angle_alpha 56.171962
_cell_angle_beta 37.921905
_cell_angle_gamma 30.377080
_cell_volume 830.146750
_symmetry_space_group_name_H-M "P -1"
_symmetry_group_IT_number 2
_symmetry_cell_setting 'triclinic'
loop_
_space_group_symop_operation_xyz
x,y,z
-x,-y,-z
loop_
_atom_site_type_symbol
_atom_site_label
_atom_site_fract_x
_atom_site_fract_y
_atom_site_fract_z
Si Si1 0.377154 0.505846 0.021763
Si Si2 0.477434 0.657799 0.393380
Si Si3 0.874865 0.437383 0.694836
Si Si4 0.594010 0.782731 0.104381
Si Si5 0.226051 0.906653 0.271748
Si Si6 0.063561 0.994380 0.199649
Si Si7 0.936948 0.926080 0.142151
Si Si8 0.261599 0.122036 0.192926
O O1 0.461523 0.396290 0.820275
O O2 0.567762 0.334403 0.917921
O O3 0.241044 0.523465 0.256129
O O4 0.242587 0.743648 0.064601
O O5 0.500000 0.500000 0.500000
O O6 0.271685 0.880486 0.608914
O O7 0.596027 0.652188 0.266642
O O8 0.739256 0.643228 0.848438
O O9 0.951017 0.267209 0.802193
O O10 0.050395 0.337512 0.421543
O O11 0.650315 0.844775 0.044928
O O12 0.395474 0.979203 0.209172
O O13 0.105335 0.017400 0.252795
O O14 0.253441 0.010192 0.207272
O O15 0.113631 0.925593 0.544500
O O16 0.043156 0.103096 0.027952
O O17 0.000000 0.000000 0.000000
#
# Coordination Sequence:
#
# PCOD9020292 Si02
#       8
#     2   2   2   2   2   2   2   2
#     4  11  19  34  54  83 112 144 178 227 285 319
#     4  11  19  33  55  83 114 139 177 230 278 328
#     4  11  19  33  56  82 114 138 176 230 285 324
#     4  10  22  33  55  87 107 147 179 224 288 320
#     4  11  22  37  55  77 115 149 188 227 265 328
#     4  11  23  36  54  82 110 154 185 221 279 322
#     4  12  19  33  54  81 116 142 178 228 280 328
#     4  11  19  37  56  80 115 142 185 228 272 330
#
# _framework density 19.273699000000001
#
# number of rings (size 3 to 8) (size 9 to 14) (size 15 to 20)
#    0.000    1.000    7.500    2.250    0.000    0.000 
#    0.000    0.000    0.000    1.500    0.000    0.000 
#    0.000    0.000    0.000    0.000    0.000    0.000 
#
# Total GULP energy -89116.399864 kJ/mol
# GULP energy per Si atom -5569.774991 kJ/mol
# Density = 1.922983 g / cm^3
# Si number density = 19.273699 Si / 1000 Ang^3
#
#
#
# Elastic Constant Matrix: (Units=GPa)
#
#
# Indices 1 2 3 4 5 6 
#
# 1 72.2589 13.4167 36.4846 -12.2970 -19.2767 7.1935
# 2 13.4167 57.5735 29.6006 1.0568 -17.5367 10.1702
# 3 36.4846 29.6006 112.7572 5.1308 -29.3674 6.6561
# 4 -12.2970 1.0568 5.1308 41.1902 5.6341 -7.2677
# 5 -19.2767 -17.5367 -29.3674 5.6341 32.4069 -4.5790
# 6 7.1935 10.1702 6.6561 -7.2677 -4.5790 25.2139
#
#
#
# Elastic Compliance Matrix: (Units=1/GPa)
#
#
# Indices 1 2 3 4 5 6 
#
# 1 0.018794 -0.000008 -0.004710 0.005126 0.005791 -0.001586
# 2 -0.000008 0.023155 -0.003127 -0.002804 0.009096 -0.007669
# 3 -0.004710 -0.003127 0.013680 -0.004324 0.008556 -0.000699
# 4 0.005126 -0.002804 -0.004324 0.028674 -0.006250 0.007940
# 5 0.005791 0.009096 0.008556 -0.006250 0.047970 -0.000670
# 6 -0.001586 -0.007669 -0.000699 0.007940 -0.000670 0.045558
#
#
# Mechanical properties :
#
#
# Convention : Reuss Voigt Hill
#
# Bulk Modulus (GPa) = 25.03802 44.62149 34.82976
# Shear Modulus (GPa) = 24.17391 30.63470 27.40431
#
# Velocity S-wave (km/s) = 3.54537 3.99112 3.77483
# Velocity P-wave (km/s) = 5.45697 6.66637 6.09176
#
# Compressibility (1/GPa) = 0.03993926
#
# Stress axis : x y z
#
# Youngs Moduli (GPa) = 53.20830 43.18678 73.09988
#
# Poissons Ratio (x) = 0.00034 0.34433
# Poissons Ratio (y) = 0.00042 0.22857
# Poissons Ratio (z) = 0.25063 0.13503
#
# Static dielectric constant tensor:
#      x y z
#    x 1.750460 0.007130 -0.040150 
#    y 0.007130 1.766740 -0.022830 
#    z -0.040150 -0.022830 1.733930 
# 
# From -- ./inp_files/432958.got.cif
#   From: 2010.05.17/outbox.cif.g08.bks.cpg/sg2_217_cif.got.tgz:432958.got - 2010.06.03 11:33:40.
