data_PCOD9020308
_publ_section_title
;
Structure prediction by ZEFSAII (Michael W. Deem and Ramdas Pophale) SiO2 
 PCOD9020308
Probable space group: P -1
;
_chemical_formula_sum "Si O2"
_cell_formula_units_Z 16
_cell_length_a 12.396447
_cell_length_b 12.960425
_cell_length_c 14.650914
_cell_angle_alpha 115.342482
_cell_angle_beta 145.065087
_cell_angle_gamma 91.673913
_cell_volume 826.743142
_symmetry_space_group_name_H-M "P -1"
_symmetry_group_IT_number 2
_symmetry_cell_setting 'triclinic'
loop_
_space_group_symop_operation_xyz
x,y,z
-x,-y,-z
loop_
_atom_site_type_symbol
_atom_site_label
_atom_site_fract_x
_atom_site_fract_y
_atom_site_fract_z
Si Si1 0.099862 0.852617 0.350848
Si Si2 0.014313 0.239941 0.109874
Si Si3 0.264785 0.250336 0.115901
Si Si4 0.570216 0.236984 0.799235
Si Si5 0.653111 0.568066 0.415083
Si Si6 0.575888 0.504372 0.951616
Si Si7 0.439024 0.139749 0.322630
Si Si8 0.325008 0.626019 0.264002
O O1 0.300655 0.831064 0.489155
O O2 0.971349 0.830413 0.154279
O O3 0.311044 0.052749 0.593434
O O4 0.836585 0.698698 0.172525
O O5 0.128680 0.280419 0.307435
O O6 0.844945 0.282035 0.011633
O O7 0.219138 0.315725 0.195268
O O8 0.800687 0.042758 0.868814
O O9 0.558927 0.406982 0.330211
O O10 0.305879 0.141674 0.143205
O O11 0.618733 0.386053 0.927608
O O12 0.534687 0.234539 0.664279
O O13 0.674588 0.579686 0.326088
O O14 0.381735 0.525515 0.228985
O O15 0.500000 0.500000 0.000000
O O16 0.534528 0.283269 0.509212
O O17 0.000000 0.500000 0.000000
#
# Coordination Sequence:
#
# PCOD9020308 Si02
#       8
#     2   2   2   2   2   2   2   2
#     4  10  23  40  58  93 118 153 204 237 294 361
#     4  11  21  34  53  89 121 157 193 222 288 353
#     4  11  21  33  57  85 127 161 189 232 273 342
#     4  10  22  37  62  81 123 156 189 253 293 337
#     4  10  22  34  54  85 112 148 201 238 288 351
#     4  10  23  44  66  83 106 149 201 258 313 353
#     4  11  22  33  56  85 127 161 191 230 278 344
#     4  11  20  33  54  85 121 168 201 225 276 348
#
# _framework density 19.353048999999999
#
# number of rings (size 3 to 8) (size 9 to 14) (size 15 to 20)
#    0.000    1.500    1.250    5.250    7.000    2.500 
#    0.000    0.625    0.000    1.500    0.000    0.000 
#    0.000    0.000    0.000    0.000    0.000    0.000 
#
# Total GULP energy -89087.008133 kJ/mol
# GULP energy per Si atom -5567.938008 kJ/mol
# Density = 1.930900 g / cm^3
# Si number density = 19.353049 Si / 1000 Ang^3
#
#
#
# Elastic Constant Matrix: (Units=GPa)
#
#
# Indices 1 2 3 4 5 6 
#
# 1 61.5278 51.2692 29.4602 -9.0616 -11.6636 16.2494
# 2 51.2692 115.0116 33.6846 -5.7796 0.3542 4.5033
# 3 29.4602 33.6846 66.4432 -10.4318 -4.2789 11.4627
# 4 -9.0616 -5.7796 -10.4318 37.4250 -0.4755 -0.9104
# 5 -11.6636 0.3542 -4.2789 -0.4755 16.6458 -4.4764
# 6 16.2494 4.5033 11.4627 -0.9104 -4.4764 29.3617
#
#
#
# Elastic Compliance Matrix: (Units=1/GPa)
#
#
# Indices 1 2 3 4 5 6 
#
# 1 0.041679 -0.016258 -0.005182 0.006091 0.024457 -0.014632
# 2 -0.016258 0.016596 -0.003309 -0.002291 -0.011051 0.005988
# 3 -0.005182 -0.003309 0.020423 0.003828 0.000620 -0.004385
# 4 0.006091 -0.002291 0.003828 0.028908 0.005374 -0.002798
# 5 0.024457 -0.011051 0.000620 0.005374 0.077743 -0.000063
# 6 -0.014632 0.005988 -0.004385 -0.002798 -0.000063 0.042853
#
#
# Mechanical properties :
#
#
# Convention : Reuss Voigt Hill
#
# Bulk Modulus (GPa) = 34.24755 52.42340 43.33548
# Shear Modulus (GPa) = 17.39530 25.25773 21.32652
#
# Velocity S-wave (km/s) = 3.00132 3.61654 3.32320
# Velocity P-wave (km/s) = 5.45391 6.67727 6.09635
#
# Compressibility (1/GPa) = 0.02919917
#
# Stress axis : x y z
#
# Youngs Moduli (GPa) = 23.99292 60.25607 48.96388
#
# Poissons Ratio (x) = 0.97964 0.25374
# Poissons Ratio (y) = 0.39008 0.16204
# Poissons Ratio (z) = 0.12433 0.19941
#
# Static dielectric constant tensor:
#      x y z
#    x 1.648740 0.010110 0.021430 
#    y 0.010110 1.792640 -0.019040 
#    z 0.021430 -0.019040 1.724610 
# 
# From -- ./inp_files/170434.got.cif
#   From: 2010.05.17/outbox.cif.g08.bks.cpg/sg2_86_cif.got.tgz:170434.got - 2010.06.03 11:33:40.
