data_PCOD9020063
_publ_section_title
;
Structure prediction by ZEFSAII (Michael W. Deem and Ramdas Pophale) SiO2 
 PCOD9020063
Probable space group: P -1
;
_chemical_formula_sum "Si O2"
_cell_formula_units_Z 14
_cell_length_a 20.063978
_cell_length_b 6.746746
_cell_length_c 12.205570
_cell_angle_alpha 132.954448
_cell_angle_beta 148.815268
_cell_angle_gamma 57.742375
_cell_volume 620.847384
_symmetry_space_group_name_H-M "P -1"
_symmetry_group_IT_number 2
_symmetry_cell_setting 'triclinic'
loop_
_space_group_symop_operation_xyz
x,y,z
-x,-y,-z
loop_
_atom_site_type_symbol
_atom_site_label
_atom_site_fract_x
_atom_site_fract_y
_atom_site_fract_z
Si Si1 0.973392 0.169406 0.352506
Si Si2 0.572583 0.441341 0.690625
Si Si3 0.435375 0.184492 0.582867
Si Si4 0.788543 0.944986 0.208434
Si Si5 0.003246 0.780322 0.049378
Si Si6 0.627199 0.366644 0.093132
Si Si7 0.802909 0.797026 0.588121
O O1 0.000000 0.500000 0.500000
O O2 0.100282 0.075743 0.554372
O O3 0.858362 0.062238 0.237134
O O4 0.954459 0.008062 0.148496
O O5 0.500000 0.500000 0.500000
O O6 0.465860 0.430054 0.632643
O O7 0.600741 0.128349 0.621859
O O8 0.700810 0.654262 0.962522
O O9 0.315734 0.232657 0.507524
O O10 0.569723 0.196765 0.844266
O O11 0.687493 0.155791 0.177066
O O12 0.923724 0.728930 0.804813
O O13 0.150251 0.901298 0.272895
O O14 0.000000 0.500000 0.000000
O O15 0.747495 0.604284 0.338073
O O16 0.500000 0.500000 0.000000
#
# Coordination Sequence:
#
# PCOD9020063 Si02
#       7
#     2   2   2   2   2   2   2
#     4  11  27  44  73 103 139 187 228 295 348 407
#     4  11  24  40  67 101 131 173 227 284 343 414
#     4  10  24  41  66  96 134 179 216 288 350 401
#     4  11  25  43  70 103 139 176 240 281 346 424
#     4  11  25  43  68  97 133 182 230 288 341 410
#     4  10  21  46  68  97 137 184 223 286 346 415
#     4  10  24  42  66  92 136 170 231 276 345 407
#
# _framework density 22.549824999999998
#
# number of rings (size 3 to 8) (size 9 to 14) (size 15 to 20)
#    0.000    1.429    1.429    1.714   10.000    2.286 
#    0.000    1.429    0.000    0.000    0.000    0.000 
#    0.000    0.000    0.000    0.000    0.000    0.000 
#
# Total GULP energy -78079.618775 kJ/mol
# GULP energy per Si atom -5577.115627 kJ/mol
# Density = 2.249850 g / cm^3
# Si number density = 22.549825 Si / 1000 Ang^3
#
#
#
# Elastic Constant Matrix: (Units=GPa)
#
#
# Indices 1 2 3 4 5 6 
#
# 1 85.5972 28.5517 25.2674 9.6963 16.8949 14.5331
# 2 28.5517 113.9437 49.7465 17.5864 14.9648 11.6077
# 3 25.2674 49.7465 144.6945 29.9724 23.3549 2.3990
# 4 9.6963 17.5864 29.9724 45.4840 4.1873 10.8312
# 5 16.8949 14.9648 23.3549 4.1873 23.7874 13.5243
# 6 14.5331 11.6077 2.3990 10.8312 13.5243 37.5647
#
#
#
# Elastic Compliance Matrix: (Units=1/GPa)
#
#
# Indices 1 2 3 4 5 6 
#
# 1 0.014372 -0.002146 -0.000420 -0.000808 -0.007124 -0.002072
# 2 -0.002146 0.011151 -0.002872 -0.001473 -0.001597 -0.001432
# 3 -0.000420 -0.002872 0.011009 -0.006514 -0.011092 0.006219
# 4 -0.000808 -0.001473 -0.006514 0.028651 0.008646 -0.010190
# 5 -0.007124 -0.001597 -0.011092 0.008646 0.071217 -0.024175
# 6 -0.002072 -0.001432 0.006219 -0.010190 -0.024175 0.039110
#
#
# Mechanical properties :
#
#
# Convention : Reuss Voigt Hill
#
# Bulk Modulus (GPa) = 38.98017 61.26294 50.12156
# Shear Modulus (GPa) = 25.64916 37.41188 31.53052
#
# Velocity S-wave (km/s) = 3.37626 4.07760 3.74339
# Velocity P-wave (km/s) = 5.70286 7.02822 6.39994
#
# Compressibility (1/GPa) = 0.02565407
#
# Stress axis : x y z
#
# Youngs Moduli (GPa) = 69.57884 89.67695 90.83870
#
# Poissons Ratio (x) = 0.19248 0.03817
# Poissons Ratio (y) = 0.14935 0.26091
# Poissons Ratio (z) = 0.02924 0.25758
#
# Static dielectric constant tensor:
#      x y z
#    x 2.091700 -0.031500 -0.088590 
#    y -0.031500 1.862670 0.035880 
#    z -0.088590 0.035880 1.866410 
# 
# From -- ./inp_files/70741.got.cif
#   From: 2010.05.17/outbox.cif.g08.bks.cpg/sg2_36_cif.got.tgz:70741.got - 2010.06.03 11:33:40.
