data_PCOD9020919
_publ_section_title
;
Structure prediction by ZEFSAII (Michael W. Deem and Ramdas Pophale) SiO2 
 PCOD9020919
Probable space group: P -1
;
_chemical_formula_sum "Si O2"
_cell_formula_units_Z 12
_cell_length_a 9.388924
_cell_length_b 10.232814
_cell_length_c 7.606314
_cell_angle_alpha 91.495251
_cell_angle_beta 49.914545
_cell_angle_gamma 111.406030
_cell_volume 497.644207
_symmetry_space_group_name_H-M "P -1"
_symmetry_group_IT_number 2
_symmetry_cell_setting 'triclinic'
loop_
_space_group_symop_operation_xyz
x,y,z
-x,-y,-z
loop_
_atom_site_type_symbol
_atom_site_label
_atom_site_fract_x
_atom_site_fract_y
_atom_site_fract_z
Si Si1 0.144508 0.379802 0.547192
Si Si2 0.729065 0.367937 0.787283
Si Si3 0.398987 0.680340 0.484962
Si Si4 0.812539 0.927632 0.011629
Si Si5 0.557609 0.092459 0.279548
Si Si6 0.275998 0.164001 0.292903
O O1 0.209519 0.464693 0.308452
O O2 0.302822 0.504344 0.557165
O O3 0.178246 0.237893 0.503867
O O4 0.908674 0.354771 0.753626
O O5 0.716809 0.300021 0.598179
O O6 0.502321 0.288426 0.048173
O O7 0.638985 0.778313 0.237875
O O8 0.359354 0.745221 0.697380
O O9 0.709762 0.038009 0.066870
O O10 0.859716 0.894177 0.776579
O O11 0.000000 0.000000 0.000000
O O12 0.354538 0.059759 0.325083
O O13 0.500000 0.000000 0.500000
#
# Coordination Sequence:
#
# PCOD9020919 Si02
#       6
#     2   2   2   2   2   2
#     4   9  18  36  66  92 120 155 199 250 325 351
#     4   8  18  35  60  94 118 155 193 250 311 367
#     4   8  18  38  59  82 126 154 189 257 302 357
#     4  10  22  37  62  89 117 163 206 249 303 364
#     4  10  22  42  57  82 128 166 203 253 300 347
#     4  11  21  38  65  92 120 162 206 250 302 374
#
# _framework density 24.113610999999999
#
# number of rings (size 3 to 8) (size 9 to 14) (size 15 to 20)
#    1.000    1.667    0.000    1.000    2.333    0.667 
#    6.000    4.167    0.000    0.000    0.000    0.000 
#    0.000    0.000    0.000    0.000    0.000    0.000 
#
# Total GULP energy -66947.306780 kJ/mol
# GULP energy per Si atom -5578.942232 kJ/mol
# Density = 2.405873 g / cm^3
# Si number density = 24.113611 Si / 1000 Ang^3
#
#
#
# Elastic Constant Matrix: (Units=GPa)
#
#
# Indices 1 2 3 4 5 6 
#
# 1 136.2607 47.2248 25.6894 1.0126 -15.2733 17.6521
# 2 47.2248 89.5204 21.4111 15.8469 -7.0868 21.7192
# 3 25.6894 21.4111 51.4269 3.7600 -1.2234 6.4382
# 4 1.0126 15.8469 3.7600 39.5787 4.2496 0.6756
# 5 -15.2733 -7.0868 -1.2234 4.2496 38.9983 -2.3636
# 6 17.6521 21.7192 6.4382 0.6756 -2.3636 44.8545
#
#
#
# Elastic Compliance Matrix: (Units=1/GPa)
#
#
# Indices 1 2 3 4 5 6 
#
# 1 0.009827 -0.004180 -0.003047 0.001437 0.002759 -0.001282
# 2 -0.004180 0.016952 -0.003730 -0.006406 0.001670 -0.005843
# 3 -0.003047 -0.003730 0.022562 -0.000445 -0.001132 -0.000286
# 4 0.001437 -0.006406 -0.000445 0.028185 -0.003566 0.001988
# 5 0.002759 0.001670 -0.001132 -0.003566 0.027365 -0.000236
# 6 -0.001282 -0.005843 -0.000286 0.001988 -0.000236 0.025627
#
#
# Mechanical properties :
#
#
# Convention : Reuss Voigt Hill
#
# Bulk Modulus (GPa) = 36.46272 51.76206 44.11239
# Shear Modulus (GPa) = 30.94555 36.87849 33.91202
#
# Velocity S-wave (km/s) = 3.58624 3.91495 3.75419
# Velocity P-wave (km/s) = 5.68350 6.47675 6.09305
#
# Compressibility (1/GPa) = 0.02742527
#
# Stress axis : x y z
#
# Youngs Moduli (GPa) = 101.76280 58.99116 44.32283
#
# Poissons Ratio (x) = 0.24659 0.13507
# Poissons Ratio (y) = 0.42537 0.16532
# Poissons Ratio (z) = 0.31012 0.22004
#
# Static dielectric constant tensor:
#      x y z
#    x 1.899940 -0.002490 -0.000610 
#    y -0.002490 2.039370 -0.033030 
#    z -0.000610 -0.033030 1.928770 
# 
# From -- ./inp_files/179795.got.cif
#   From: 2010.05.17/outbox.cif.g08.bks.cpg/sg2_90_cif.got.tgz:179795.got - 2010.06.03 11:33:40.
