data_PCOD9020785
_publ_section_title
;
Structure prediction by ZEFSAII (Michael W. Deem and Ramdas Pophale) SiO2 
 PCOD9020785
Probable space group: P -1
;
_chemical_formula_sum "Si O2"
_cell_formula_units_Z 16
_cell_length_a 16.494836
_cell_length_b 12.411648
_cell_length_c 8.934657
_cell_angle_alpha 59.057356
_cell_angle_beta 123.334338
_cell_angle_gamma 153.956115
_cell_volume 669.942378
_symmetry_space_group_name_H-M "P -1"
_symmetry_group_IT_number 2
_symmetry_cell_setting 'triclinic'
loop_
_space_group_symop_operation_xyz
x,y,z
-x,-y,-z
loop_
_atom_site_type_symbol
_atom_site_label
_atom_site_fract_x
_atom_site_fract_y
_atom_site_fract_z
Si Si1 0.377994 0.064312 0.170516
Si Si2 0.346186 0.982300 0.549583
Si Si3 0.227639 0.644507 0.262892
Si Si4 0.848807 0.721780 0.060665
Si Si5 0.883645 0.706959 0.766680
Si Si6 0.706189 0.744682 0.143868
Si Si7 0.524269 0.421894 0.460795
Si Si8 0.195144 0.565159 0.641010
O O1 0.346931 0.007936 0.355163
O O2 0.597565 0.265183 0.228825
O O3 0.242869 0.810595 0.136683
O O4 0.332725 0.155457 0.015748
O O5 0.551958 0.153295 0.675282
O O6 0.358876 0.135018 0.520161
O O7 0.195845 0.703315 0.620260
O O8 0.104966 0.424837 0.182007
O O9 0.179661 0.562006 0.448348
O O10 0.716424 0.648050 0.097160
O O11 0.934388 0.689328 0.243765
O O12 0.799684 0.629253 0.905819
O O13 0.000000 0.000000 0.000000
O O14 0.728887 0.588113 0.580087
O O15 0.081611 0.001941 0.752664
O O16 0.548630 0.516673 0.259968
O O17 0.500000 0.500000 0.500000
#
# Coordination Sequence:
#
# PCOD9020785 Si02
#       8
#     2   2   2   2   2   2   2   2
#     4   9  18  32  62  90 112 148 197 244 290 348
#     4   8  17  35  57  85 115 150 192 241 289 348
#     4   8  16  36  60  85 113 152 199 237 289 347
#     4  10  22  37  58  87 117 158 199 230 286 356
#     4  10  22  40  57  83 120 159 194 241 288 349
#     4  11  23  38  59  84 122 160 190 235 304 349
#     4  11  24  39  59  90 119 149 200 249 293 344
#     4   9  17  35  62  84 111 155 195 237 293 345
#
# _framework density 23.882652
#
# number of rings (size 3 to 8) (size 9 to 14) (size 15 to 20)
#    0.000    2.500    0.000    4.125    3.500    2.500 
#    2.250    1.875    0.000    6.000    0.000    0.000 
#    0.000    0.000    0.000    0.000    0.000    0.000 
#
# Total GULP energy -89254.931962 kJ/mol
# GULP energy per Si atom -5578.433248 kJ/mol
# Density = 2.382829 g / cm^3
# Si number density = 23.882652 Si / 1000 Ang^3
#
#
#
# Elastic Constant Matrix: (Units=GPa)
#
#
# Indices 1 2 3 4 5 6 
#
# 1 69.8062 44.6177 16.1316 -16.7784 -2.1187 -46.5604
# 2 44.6177 141.3504 40.6314 -17.4744 18.7937 -50.7206
# 3 16.1316 40.6314 73.2393 -23.3325 11.1156 -20.8245
# 4 -16.7784 -17.4744 -23.3325 43.0325 -3.8516 13.6825
# 5 -2.1187 18.7937 11.1156 -3.8516 31.8943 0.1936
# 6 -46.5604 -50.7206 -20.8245 13.6825 0.1936 58.9536
#
#
#
# Elastic Compliance Matrix: (Units=1/GPa)
#
#
# Indices 1 2 3 4 5 6 
#
# 1 0.031825 -0.002251 0.001962 0.005681 0.003306 0.022562
# 2 -0.002251 0.012318 -0.003394 -0.000773 -0.006366 0.007821
# 3 0.001962 -0.003394 0.019339 0.008431 -0.003613 0.003516
# 4 0.005681 -0.000773 0.008431 0.029891 0.001505 -0.000142
# 5 0.003306 -0.006366 -0.003613 0.001505 0.036793 -0.004612
# 6 0.022562 0.007821 0.003516 -0.000142 -0.004612 0.042801
#
#
# Mechanical properties :
#
#
# Convention : Reuss Voigt Hill
#
# Bulk Modulus (GPa) = 17.82018 54.12857 35.97437
# Shear Modulus (GPa) = 25.12084 38.97710 32.04897
#
# Velocity S-wave (km/s) = 3.24673 4.04422 3.66722
# Velocity P-wave (km/s) = 4.64034 6.67242 5.74691
#
# Compressibility (1/GPa) = 0.05611615
#
# Stress axis : x y z
#
# Youngs Moduli (GPa) = 31.42160 81.18015 51.71014
#
# Poissons Ratio (x) = 0.18275 -0.10147
# Poissons Ratio (y) = 0.07073 0.17551
# Poissons Ratio (z) = -0.06166 0.27553
#
# Static dielectric constant tensor:
#      x y z
#    x 2.038760 0.064720 0.051130 
#    y 0.064720 2.127520 -0.110020 
#    z 0.051130 -0.110020 2.009090 
# 
# From -- ./inp_files/332969.got.cif
#   From: 2010.05.17/outbox.cif.g08.bks.cpg/sg2_167_cif.got.tgz:332969.got - 2010.06.03 11:33:40.
