data_PCOD9020166
_publ_section_title
;
Structure prediction by ZEFSAII (Michael W. Deem and Ramdas Pophale) SiO2 
 PCOD9020166
Probable space group: P -1
;
_chemical_formula_sum "Si O2"
_cell_formula_units_Z 12
_cell_length_a 11.745176
_cell_length_b 8.828740
_cell_length_c 7.451524
_cell_angle_alpha 58.398746
_cell_angle_beta 106.236943
_cell_angle_gamma 130.509292
_cell_volume 498.152735
_symmetry_space_group_name_H-M "P -1"
_symmetry_group_IT_number 2
_symmetry_cell_setting 'triclinic'
loop_
_space_group_symop_operation_xyz
x,y,z
-x,-y,-z
loop_
_atom_site_type_symbol
_atom_site_label
_atom_site_fract_x
_atom_site_fract_y
_atom_site_fract_z
Si Si1 0.885287 0.739933 0.178272
Si Si2 0.369170 0.680244 0.174174
Si Si3 0.567678 0.910489 0.469867
Si Si4 0.840092 0.339323 0.172555
Si Si5 0.060210 0.252763 0.406407
Si Si6 0.446880 0.444906 0.726787
O O1 0.863055 0.552942 0.147045
O O2 0.950895 0.720050 0.403950
O O3 0.724685 0.678143 0.210963
O O4 0.000000 0.000000 0.000000
O O5 0.462455 0.821694 0.300684
O O6 0.235150 0.422191 0.328306
O O7 0.487659 0.682668 0.103855
O O8 0.275189 0.742724 0.992420
O O9 0.541928 0.697641 0.681751
O O10 0.500000 0.000000 0.500000
O O11 0.739935 0.115030 0.390813
O O12 0.983092 0.342881 0.206855
O O13 0.000000 0.000000 0.500000
O O14 0.500000 0.500000 0.500000
#
# Coordination Sequence:
#
# PCOD9020166 Si02
#       6
#     2   2   2   2   2   2
#     4  12  26  48  73 110 149 193 246 308 369 435
#     4  11  24  45  71 109 146 193 243 298 368 443
#     4  11  21  44  72 103 145 190 242 306 362 426
#     4  12  26  45  70 111 149 191 246 306 372 437
#     4  12  25  48  74 102 150 197 243 302 373 442
#     4  10  21  46  76  97 146 192 248 290 370 430
#
# _framework density 24.088999000000001
#
# number of rings (size 3 to 8) (size 9 to 14) (size 15 to 20)
#    0.000    0.667    5.000    3.500    2.333    0.667 
#    6.000    0.000    0.000    0.000    0.000    0.000 
#    0.000    0.000    0.000    0.000    0.000    0.000 
#
# Total GULP energy -66968.135870 kJ/mol
# GULP energy per Si atom -5580.677989 kJ/mol
# Density = 2.403417 g / cm^3
# Si number density = 24.088999 Si / 1000 Ang^3
#
#
#
# Elastic Constant Matrix: (Units=GPa)
#
#
# Indices 1 2 3 4 5 6 
#
# 1 175.9070 62.1182 34.2147 0.8240 20.4029 10.6723
# 2 62.1182 142.3500 31.3474 -17.7306 2.5011 -5.7714
# 3 34.2147 31.3474 69.5631 -2.2187 13.6567 1.8097
# 4 0.8240 -17.7306 -2.2187 51.4925 11.3627 -9.7689
# 5 20.4029 2.5011 13.6567 11.3627 44.9895 -2.1822
# 6 10.6723 -5.7714 1.8097 -9.7689 -2.1822 43.4930
#
#
#
# Elastic Compliance Matrix: (Units=1/GPa)
#
#
# Indices 1 2 3 4 5 6 
#
# 1 0.007600 -0.003132 -0.001797 -0.001210 -0.002548 -0.002605
# 2 -0.003132 0.009590 -0.002947 0.003571 0.001026 0.003017
# 3 -0.001797 -0.002947 0.017517 0.000624 -0.004533 -0.000766
# 4 -0.001210 0.003571 0.000624 0.022948 -0.005362 0.005630
# 5 -0.002548 0.001026 -0.004533 -0.005362 0.026107 0.001056
# 6 -0.002605 0.003017 -0.000766 0.005630 0.001056 0.025381
#
#
# Mechanical properties :
#
#
# Convention : Reuss Voigt Hill
#
# Bulk Modulus (GPa) = 52.75888 71.46452 62.11170
# Shear Modulus (GPa) = 38.10598 45.33765 41.72181
#
# Velocity S-wave (km/s) = 3.98160 4.34301 4.16623
# Velocity P-wave (km/s) = 6.56405 7.40812 6.99882
#
# Compressibility (1/GPa) = 0.01895416
#
# Stress axis : x y z
#
# Youngs Moduli (GPa) = 131.58565 104.27759 57.08687
#
# Poissons Ratio (x) = 0.32660 0.10259
# Poissons Ratio (y) = 0.41213 0.16824
# Poissons Ratio (z) = 0.23647 0.30731
#
# Static dielectric constant tensor:
#      x y z
#    x 2.222320 0.027010 -0.114590 
#    y 0.027010 1.882120 -0.002510 
#    z -0.114590 -0.002510 2.141300 
# 
# From -- ./inp_files/146872.got.cif
#   From: 2010.05.17/outbox.cif.g08.bks.cpg/sg2_74_cif.got.tgz:146872.got - 2010.06.03 11:33:40.
