data_PCOD9020241
_publ_section_title
;
Structure prediction by ZEFSAII (Michael W. Deem and Ramdas Pophale) SiO2 
 PCOD9020241
Probable space group: P -1
;
_chemical_formula_sum "Si O2"
_cell_formula_units_Z 14
_cell_length_a 9.793367
_cell_length_b 9.165880
_cell_length_c 7.480272
_cell_angle_alpha 64.857270
_cell_angle_beta 71.524820
_cell_angle_gamma 96.331590
_cell_volume 552.563652
_symmetry_space_group_name_H-M "P -1"
_symmetry_group_IT_number 2
_symmetry_cell_setting 'triclinic'
loop_
_space_group_symop_operation_xyz
x,y,z
-x,-y,-z
loop_
_atom_site_type_symbol
_atom_site_label
_atom_site_fract_x
_atom_site_fract_y
_atom_site_fract_z
Si Si1 0.719639 0.200019 0.211814
Si Si2 0.879814 0.873797 0.737815
Si Si3 0.078622 0.462658 0.200363
Si Si4 0.543170 0.265081 0.554645
Si Si5 0.550523 0.694885 0.817601
Si Si6 0.227878 0.095613 0.861267
Si Si7 0.196784 0.441744 0.554095
O O1 0.652591 0.172701 0.454978
O O2 0.577458 0.210965 0.141955
O O3 0.063307 0.291992 0.189020
O O4 0.830653 0.383771 0.038791
O O5 0.711470 0.799705 0.767525
O O6 0.860749 0.955672 0.892123
O O7 0.000000 0.000000 0.500000
O O8 0.213125 0.944343 0.809165
O O9 0.172002 0.451901 0.347871
O O10 0.929780 0.494860 0.324156
O O11 0.457780 0.308387 0.393039
O O12 0.408181 0.163275 0.786765
O O13 0.647593 0.428536 0.517925
O O14 0.500000 0.500000 0.000000
O O15 0.180398 0.253122 0.722095
#
# Coordination Sequence:
#
# PCOD9020241 Si02
#       7
#     2   2   2   2   2   2   2
#     4  10  25  45  75 110 148 194 249 303 371 438
#     4  12  28  48  75 112 154 195 247 306 378 437
#     4  11  26  51  70 108 149 205 242 308 368 451
#     4  10  24  46  74 109 144 197 247 307 363 442
#     4  10  21  47  78 105 150 196 244 302 363 442
#     4  12  26  45  73 114 144 194 246 308 368 436
#     4  11  26  46  80 105 150 195 258 300 375 438
#
# _framework density 25.336445000000001
#
# number of rings (size 3 to 8) (size 9 to 14) (size 15 to 20)
#    0.857    0.286    1.429    3.429    6.000    4.571 
#    5.143    0.000    0.000    0.000    0.000    0.000 
#    0.000    0.000    0.000    0.000    0.000    0.000 
#
# Total GULP energy -78466.609208 kJ/mol
# GULP energy per Si atom -5604.757801 kJ/mol
# Density = 2.527878 g / cm^3
# Si number density = 25.336445 Si / 1000 Ang^3
#
#
#
# Elastic Constant Matrix: (Units=GPa)
#
#
# Indices 1 2 3 4 5 6 
#
# 1 99.1578 58.3365 34.0828 0.1613 -12.6756 -16.8735
# 2 58.3365 133.6611 45.9567 -3.1233 -2.3579 -25.3736
# 3 34.0828 45.9567 137.8128 -3.4864 -29.3298 -5.6557
# 4 0.1613 -3.1233 -3.4864 55.3039 -3.0002 -6.4152
# 5 -12.6756 -2.3579 -29.3298 -3.0002 35.6874 8.1671
# 6 -16.8735 -25.3736 -5.6557 -6.4152 8.1671 54.0264
#
#
#
# Elastic Compliance Matrix: (Units=1/GPa)
#
#
# Indices 1 2 3 4 5 6 
#
# 1 0.014415 -0.005737 -0.000794 -0.000077 0.003822 0.001138
# 2 -0.005737 0.011900 -0.003416 0.000699 -0.004978 0.004275
# 3 -0.000794 -0.003416 0.010337 0.000693 0.008497 -0.001972
# 4 -0.000077 0.000699 0.000693 0.018523 0.001612 0.002333
# 5 0.003822 -0.004978 0.008497 0.001612 0.037480 -0.005729
# 6 0.001138 0.004275 -0.001972 0.002333 -0.005729 0.021809
#
#
# Mechanical properties :
#
#
# Convention : Reuss Voigt Hill
#
# Bulk Modulus (GPa) = 59.67099 71.93153 65.80126
# Shear Modulus (GPa) = 35.72859 44.48726 40.10793
#
# Velocity S-wave (km/s) = 3.75929 4.19484 3.98303
# Velocity P-wave (km/s) = 6.51503 7.20517 6.86877
#
# Compressibility (1/GPa) = 0.01675856
#
# Stress axis : x y z
#
# Youngs Moduli (GPa) = 69.37093 84.03297 96.74315
#
# Poissons Ratio (x) = 0.48210 0.07680
# Poissons Ratio (y) = 0.39798 0.33046
# Poissons Ratio (z) = 0.05507 0.28705
#
# Static dielectric constant tensor:
#      x y z
#    x 2.081690 0.024520 -0.038650 
#    y 0.024520 1.957360 0.018630 
#    z -0.038650 0.018630 1.973040 
# 
# From -- ./inp_files/267138.got.cif
#   From: 2010.05.17/outbox.cif.g08.bks.cpg/sg2_134_cif.got.tgz:267138.got - 2010.06.03 11:33:40.
