data_PCOD9020758
_publ_section_title
;
Structure prediction by ZEFSAII (Michael W. Deem and Ramdas Pophale) SiO2 
 PCOD9020758
Probable space group: P -1
;
_chemical_formula_sum "Si O2"
_cell_formula_units_Z 14
_cell_length_a 13.979737
_cell_length_b 5.430769
_cell_length_c 12.178589
_cell_angle_alpha 105.476679
_cell_angle_beta 134.445841
_cell_angle_gamma 68.079881
_cell_volume 612.347220
_symmetry_space_group_name_H-M "P -1"
_symmetry_group_IT_number 2
_symmetry_cell_setting 'triclinic'
loop_
_space_group_symop_operation_xyz
x,y,z
-x,-y,-z
loop_
_atom_site_type_symbol
_atom_site_label
_atom_site_fract_x
_atom_site_fract_y
_atom_site_fract_z
Si Si1 0.842409 0.026722 0.089450
Si Si2 0.425706 0.396051 0.528575
Si Si3 0.560927 0.132490 0.279506
Si Si4 0.330843 0.088914 0.244638
Si Si5 0.617738 0.249622 0.107641
Si Si6 0.941689 0.553821 0.275387
Si Si7 0.212266 0.390217 0.620313
O O1 0.696427 0.097619 0.048286
O O2 0.897392 0.290370 0.170142
O O3 0.932749 0.770260 0.198200
O O4 0.803703 0.959263 0.927016
O O5 0.500000 0.500000 0.500000
O O6 0.630391 0.355883 0.407900
O O7 0.551899 0.178899 0.660954
O O8 0.317059 0.263913 0.364879
O O9 0.550170 0.133922 0.140318
O O10 0.412966 0.203960 0.229844
O O11 0.661294 0.844171 0.350907
O O12 0.736962 0.356687 0.275221
O O13 0.500000 0.500000 0.000000
O O14 0.841617 0.689139 0.313879
O O15 0.089844 0.457362 0.442376
#
# Coordination Sequence:
#
# PCOD9020758 Si02
#       7
#     2   2   2   2   2   2   2
#     4  11  23  39  61  87 126 158 206 241 301 350
#     4   9  20  37  59  85 116 152 198 240 315 363
#     4  11  20  35  60  86 120 155 192 252 298 364
#     4  10  22  37  58  91 117 154 195 252 305 366
#     4  11  23  34  57  91 125 157 191 247 307 361
#     4  10  24  39  59  85 118 174 202 246 283 355
#     4  10  22  37  56  83 123 159 210 236 291 353
#
# _framework density 22.862846999999999
#
# number of rings (size 3 to 8) (size 9 to 14) (size 15 to 20)
#    0.000    1.714    1.429    2.571   10.000    2.857 
#    0.000    0.000    0.000    1.714    0.000    0.000 
#    0.000    0.000    0.000    0.000    0.000    0.000 
#
# Total GULP energy -78190.041415 kJ/mol
# GULP energy per Si atom -5585.002958 kJ/mol
# Density = 2.281081 g / cm^3
# Si number density = 22.862847 Si / 1000 Ang^3
#
#
#
# Elastic Constant Matrix: (Units=GPa)
#
#
# Indices 1 2 3 4 5 6 
#
# 1 21.7173 -7.6331 -3.1827 2.9151 -8.5935 2.7903
# 2 -7.6331 101.4554 44.5106 22.7349 -13.8970 1.4972
# 3 -3.1827 44.5106 147.7331 28.4667 -18.3842 1.3990
# 4 2.9151 22.7349 28.4667 43.3759 1.3355 -13.3550
# 5 -8.5935 -13.8970 -18.3842 1.3355 27.4986 4.2457
# 6 2.7903 1.4972 1.3990 -13.3550 4.2457 20.1301
#
#
#
# Elastic Compliance Matrix: (Units=1/GPa)
#
#
# Indices 1 2 3 4 5 6 
#
# 1 0.089946 0.019756 0.011808 -0.042865 0.056581 -0.055129
# 2 0.019756 0.018043 0.001315 -0.018694 0.020300 -0.020856
# 3 0.011808 0.001315 0.011313 -0.013962 0.014901 -0.014926
# 4 -0.042865 -0.018694 -0.013962 0.065015 -0.044733 0.060870
# 5 0.056581 0.020300 0.014901 -0.044733 0.085408 -0.058079
# 6 -0.055129 -0.020856 -0.014926 0.060870 -0.058079 0.112539
#
#
# Mechanical properties :
#
#
# Convention : Reuss Voigt Hill
#
# Bulk Modulus (GPa) = 5.40361 37.58838 21.49600
# Shear Modulus (GPa) = 13.22076 34.01497 23.61786
#
# Velocity S-wave (km/s) = 2.40732 3.86136 3.21756
# Velocity P-wave (km/s) = 3.17735 6.02965 4.81935
#
# Compressibility (1/GPa) = 0.18506136
#
# Stress axis : x y z
#
# Youngs Moduli (GPa) = 11.11775 55.42186 88.39340
#
# Poissons Ratio (x) = -1.09491 -1.04377
# Poissons Ratio (y) = -0.21964 -0.11625
# Poissons Ratio (z) = -0.13128 -0.07289
#
# Static dielectric constant tensor:
#      x y z
#    x 1.919070 0.071540 -0.006260 
#    y 0.071540 1.913560 0.056270 
#    z -0.006260 0.056270 1.866960 
# 
# From -- ./inp_files/97734.got.cif
#   From: 2010.05.17/outbox.cif.g08.bks.cpg/sg2_49_cif.got.tgz:97734.got - 2010.06.03 11:33:40.
