data_PCOD9020017
_publ_section_title
;
Structure prediction by ZEFSAII (Michael W. Deem and Ramdas Pophale) SiO2 
 PCOD9020017
Probable space group: P -1
;
_chemical_formula_sum "Si O2"
_cell_formula_units_Z 16
_cell_length_a 11.613076
_cell_length_b 12.523668
_cell_length_c 5.062829
_cell_angle_alpha 74.704007
_cell_angle_beta 98.354995
_cell_angle_gamma 115.982350
_cell_volume 638.084764
_symmetry_space_group_name_H-M "P -1"
_symmetry_group_IT_number 2
_symmetry_cell_setting 'triclinic'
loop_
_space_group_symop_operation_xyz
x,y,z
-x,-y,-z
loop_
_atom_site_type_symbol
_atom_site_label
_atom_site_fract_x
_atom_site_fract_y
_atom_site_fract_z
Si Si1 0.119556 0.551122 0.200493
Si Si2 0.548029 0.647910 0.233458
Si Si3 0.744030 0.103036 0.293153
Si Si4 0.365248 0.711755 0.820160
Si Si5 0.721588 0.842673 0.540127
Si Si6 0.905890 0.225738 0.754530
Si Si7 0.691778 0.505639 0.454305
Si Si8 0.110332 0.135777 0.918174
O O1 0.092859 0.640901 0.332963
O O2 0.166900 0.455445 0.409050
O O3 0.245403 0.638617 0.022006
O O4 0.000000 0.500000 0.000000
O O5 0.605383 0.723373 0.469343
O O6 0.651924 0.597330 0.214345
O O7 0.413615 0.532695 0.322593
O O8 0.499712 0.727028 0.979026
O O9 0.645981 0.161551 0.303378
O O10 0.861818 0.164102 0.496791
O O11 0.691187 0.959394 0.408188
O O12 0.801077 0.144613 0.991686
O O13 0.336157 0.619119 0.628003
O O14 0.779342 0.844233 0.845342
O O15 0.833110 0.854906 0.360584
O O16 0.039608 0.223907 0.879866
O O17 0.000000 0.000000 0.000000
#
# Coordination Sequence:
#
# PCOD9020017 Si02
#       8
#     2   2   2   2   2   2   2   2
#     4  10  23  39  62 100 127 165 219 268 328 396
#     4  10  25  41  66  93 124 173 227 274 318 384
#     4  11  21  41  66  93 130 169 215 263 332 386
#     4  10  22  42  67  86 130 175 209 273 334 383
#     4  12  25  41  65 102 127 172 230 267 315 398
#     4  11  22  40  63  93 134 175 204 263 334 391
#     4  10  21  46  65  87 131 170 219 271 338 377
#     4  12  23  41  65  93 138 176 210 264 333 385
#
# _framework density 25.075036999999998
#
# number of rings (size 3 to 8) (size 9 to 14) (size 15 to 20)
#    0.000    1.250    3.750    1.500    3.500    2.000 
#    0.000    0.625    0.000    0.000    0.000    0.000 
#    0.000    0.000    0.000    0.000    0.000    0.000 
#
# Total GULP energy -89569.409097 kJ/mol
# GULP energy per Si atom -5598.088069 kJ/mol
# Density = 2.501797 g / cm^3
# Si number density = 25.075037 Si / 1000 Ang^3
#
#
#
# Elastic Constant Matrix: (Units=GPa)
#
#
# Indices 1 2 3 4 5 6 
#
# 1 146.7596 47.4618 42.2332 -13.1061 44.5913 -22.0763
# 2 47.4618 115.9808 26.2298 -8.5348 26.6864 -28.0388
# 3 42.2332 26.2298 78.5980 3.6928 30.0857 -7.0686
# 4 -13.1061 -8.5348 3.6928 41.7125 -6.5096 12.9319
# 5 44.5913 26.6864 30.0857 -6.5096 60.3794 -10.2134
# 6 -22.0763 -28.0388 -7.0686 12.9319 -10.2134 52.2611
#
#
#
# Elastic Compliance Matrix: (Units=1/GPa)
#
#
# Indices 1 2 3 4 5 6 
#
# 1 0.010087 -0.001888 -0.002946 0.001854 -0.004698 0.001473
# 2 -0.001888 0.011355 -0.001582 0.000109 -0.002037 0.004655
# 3 -0.002946 -0.001582 0.017378 -0.003746 -0.006192 -0.000026
# 4 0.001854 0.000109 -0.003746 0.027113 0.002372 -0.005910
# 5 -0.004698 -0.002037 -0.006192 0.002372 0.024315 0.000250
# 6 0.001473 0.004655 -0.000026 -0.005910 0.000250 0.023762
#
#
# Mechanical properties :
#
#
# Convention : Reuss Voigt Hill
#
# Bulk Modulus (GPa) = 38.48020 63.68755 51.08388
# Shear Modulus (GPa) = 36.89936 45.89818 41.39877
#
# Velocity S-wave (km/s) = 3.84025 4.28300 4.06765
# Velocity P-wave (km/s) = 5.91969 7.06489 6.51749
#
# Compressibility (1/GPa) = 0.02598739
#
# Stress axis : x y z
#
# Youngs Moduli (GPa) = 99.13979 88.07039 57.54427
#
# Poissons Ratio (x) = 0.16628 0.16955
# Poissons Ratio (y) = 0.18718 0.09101
# Poissons Ratio (z) = 0.29210 0.13929
#
# Static dielectric constant tensor:
#      x y z
#    x 2.005640 -0.001190 -0.015700 
#    y -0.001190 2.012550 -0.092910 
#    z -0.015700 -0.092910 2.018790 
# 
# From -- ./inp_files/70042.got.cif
#   From: 2010.05.17/outbox.cif.g08.bks.cpg/sg2_36_cif.got.tgz:70042.got - 2010.06.03 11:33:40.
