data_PCOD9020283
_publ_section_title
;
Structure prediction by ZEFSAII (Michael W. Deem and Ramdas Pophale) SiO2 
 PCOD9020283
Probable space group: P -1
;
_chemical_formula_sum "Si O2"
_cell_formula_units_Z 12
_cell_length_a 11.197123
_cell_length_b 12.725463
_cell_length_c 5.507857
_cell_angle_alpha 80.990091
_cell_angle_beta 107.887722
_cell_angle_gamma 47.555000
_cell_volume 471.367781
_symmetry_space_group_name_H-M "P -1"
_symmetry_group_IT_number 2
_symmetry_cell_setting 'triclinic'
loop_
_space_group_symop_operation_xyz
x,y,z
-x,-y,-z
loop_
_atom_site_type_symbol
_atom_site_label
_atom_site_fract_x
_atom_site_fract_y
_atom_site_fract_z
Si Si1 0.651283 0.802222 0.661308
Si Si2 0.963177 0.711805 0.625770
Si Si3 0.355656 0.197530 0.842315
Si Si4 0.647033 0.453536 0.900793
Si Si5 0.351405 0.759923 0.254666
Si Si6 0.811215 0.049670 0.408945
O O1 0.865198 0.714305 0.791819
O O2 0.611305 0.765670 0.403545
O O3 0.500000 0.000000 0.500000
O O4 0.625844 0.758622 0.908208
O O5 0.865636 0.705505 0.354105
O O6 0.864287 0.891644 0.481971
O O7 0.190024 0.585089 0.842828
O O8 0.500000 0.000000 0.000000
O O9 0.543440 0.588812 0.575773
O O10 0.744244 0.291650 0.872955
O O11 0.500000 0.500000 0.000000
O O12 0.251508 0.884132 0.376475
O O13 0.329613 0.833599 0.953956
O O14 0.000000 0.000000 0.500000
#
# Coordination Sequence:
#
# PCOD9020283 Si02
#       6
#     2   2   2   2   2   2
#     4   8  16  31  49  80 111 132 176 237 281 317
#     4  10  22  32  63  85 111 150 188 228 289 329
#     4   8  16  31  50  80 113 132 175 238 282 315
#     4  11  22  41  56  80 115 160 196 226 267 337
#     4  11  24  39  53  75 122 151 184 235 272 324
#     4  12  23  37  55  84 115 150 190 230 280 336
#
# _framework density 25.457827000000002
#
# number of rings (size 3 to 8) (size 9 to 14) (size 15 to 20)
#    1.000    1.000    3.333    0.500    2.333    2.667 
#    0.000    0.000    0.000    0.000    0.000    7.000 
#    0.000    0.000    0.000    0.000    0.000    0.000 
#
# Total GULP energy -66911.544427 kJ/mol
# GULP energy per Si atom -5575.962036 kJ/mol
# Density = 2.539988 g / cm^3
# Si number density = 25.457827 Si / 1000 Ang^3
#
#
#
# Elastic Constant Matrix: (Units=GPa)
#
#
# Indices 1 2 3 4 5 6 
#
# 1 118.0991 36.5614 76.1024 7.6758 -8.6536 -27.2838
# 2 36.5614 76.8917 60.2498 27.6084 -24.4752 0.7327
# 3 76.1024 60.2498 199.3947 40.4980 -15.3251 -23.0935
# 4 7.6758 27.6084 40.4980 59.7314 -13.2799 -13.6160
# 5 -8.6536 -24.4752 -15.3251 -13.2799 63.4990 -4.2909
# 6 -27.2838 0.7327 -23.0935 -13.6160 -4.2909 43.1049
#
#
#
# Elastic Compliance Matrix: (Units=1/GPa)
#
#
# Indices 1 2 3 4 5 6 
#
# 1 0.014504 -0.005811 -0.003824 0.005615 0.000600 0.009064
# 2 -0.005811 0.023318 -0.003711 -0.008262 0.005020 -0.008173
# 3 -0.003824 -0.003711 0.008349 -0.003353 -0.000570 0.001000
# 4 0.005615 -0.008262 -0.003353 0.025002 0.002680 0.010062
# 5 0.000600 0.005020 -0.000570 0.002680 0.018368 0.002664
# 6 0.009064 -0.008173 0.001000 0.010062 0.002664 0.033054
#
#
# Mechanical properties :
#
#
# Convention : Reuss Voigt Hill
#
# Bulk Modulus (GPa) = 51.33663 82.24583 66.79123
# Shear Modulus (GPa) = 32.09647 48.03186 40.06416
#
# Velocity S-wave (km/s) = 3.55458 4.34835 3.97135
# Velocity P-wave (km/s) = 6.08736 7.58866 6.87909
#
# Compressibility (1/GPa) = 0.01947927
#
# Stress axis : x y z
#
# Youngs Moduli (GPa) = 68.94771 42.88445 119.77609
#
# Poissons Ratio (x) = 0.24921 0.45804
# Poissons Ratio (y) = 0.40066 0.44445
# Poissons Ratio (z) = 0.26367 0.15913
#
# Static dielectric constant tensor:
#      x y z
#    x 2.033760 -0.066230 0.018360 
#    y -0.066230 2.038130 -0.018310 
#    z 0.018360 -0.018310 2.035880 
# 
# From -- ./inp_files/99140.got.cif
#   From: 2010.05.17/outbox.cif.g08.bks.cpg/sg2_50_cif.got.tgz:99140.got - 2010.06.03 11:33:40.
