data_PCOD9020102
_publ_section_title
;
Structure prediction by ZEFSAII (Michael W. Deem and Ramdas Pophale) SiO2 
 PCOD9020102
Probable space group: P -1
;
_chemical_formula_sum "Si O2"
_cell_formula_units_Z 13
_cell_length_a 10.037116
_cell_length_b 8.246717
_cell_length_c 9.362667
_cell_angle_alpha 98.612119
_cell_angle_beta 68.900745
_cell_angle_gamma 137.440831
_cell_volume 480.767956
_symmetry_space_group_name_H-M "P -1"
_symmetry_group_IT_number 2
_symmetry_cell_setting 'triclinic'
loop_
_space_group_symop_operation_xyz
x,y,z
-x,-y,-z
loop_
_atom_site_type_symbol
_atom_site_label
_atom_site_fract_x
_atom_site_fract_y
_atom_site_fract_z
Si Si1 0.702489 0.209104 0.251210
Si Si2 0.294226 0.971673 0.501529
Si Si3 0.754744 0.075890 0.919495
Si Si4 0.000000 0.000000 0.500000
Si Si5 0.299051 0.604356 0.104068
Si Si6 0.169457 0.330434 0.855188
Si Si7 0.568191 0.439796 0.654701
O O1 0.448365 0.007090 0.340006
O O2 0.751703 0.127340 0.093594
O O3 0.783603 0.453945 0.204733
O O4 0.793706 0.221247 0.366367
O O5 0.111806 0.919872 0.492842
O O6 0.470868 0.231318 0.550841
O O7 0.522951 0.803324 0.954087
O O8 0.781114 0.275487 0.860193
O O9 0.942399 0.101417 0.836378
O O10 0.240403 0.289500 0.443396
O O11 0.348282 0.574582 0.235141
O O12 0.159847 0.360373 0.031772
O O13 0.358713 0.368252 0.761840
#
# Coordination Sequence:
#
# PCOD9020102 Si02
#       7
#     2   2   2   1   2   2   2
#     4  10  21  46  70  98 134 177 230 279 332 404
#     4  11  25  48  70  95 138 184 228 285 333 403
#     4  10  22  43  72 102 136 178 224 281 338 402
#     4  12  28  44  70  98 134 186 224 286 334 402
#     4  10  22  42  69 103 136 178 227 273 340 409
#     4  11  24  42  69 104 142 173 222 287 334 411
#     4  12  26  47  68 103 141 176 230 282 345 400
#
# _framework density 27.040071999999999
#
# number of rings (size 3 to 8) (size 9 to 14) (size 15 to 20)
#    0.000    1.231    3.077    2.769    4.308    1.846 
#    2.769    4.615    0.000    0.000    0.000    0.000 
#    0.000    0.000    0.000    0.000    0.000    0.000 
#
# Total GULP energy -72662.850013 kJ/mol
# GULP energy per Si atom -5589.450001 kJ/mol
# Density = 2.697853 g / cm^3
# Si number density = 27.040072 Si / 1000 Ang^3
#
#
#
# Elastic Constant Matrix: (Units=GPa)
#
#
# Indices 1 2 3 4 5 6 
#
# 1 222.5076 21.0657 51.9454 -9.2186 -17.6717 35.1209
# 2 21.0657 69.6377 20.6974 -3.8543 -6.5108 9.0064
# 3 51.9454 20.6974 66.7991 -3.2448 4.7864 11.3234
# 4 -9.2186 -3.8543 -3.2448 30.8259 1.8454 2.7938
# 5 -17.6717 -6.5108 4.7864 1.8454 47.2965 -11.9418
# 6 35.1209 9.0064 11.3234 2.7938 -11.9418 43.7880
#
#
#
# Elastic Compliance Matrix: (Units=1/GPa)
#
#
# Indices 1 2 3 4 5 6 
#
# 1 0.006275 0.000121 -0.004372 0.001641 0.001849 -0.003528
# 2 0.000121 0.016313 -0.004961 0.001563 0.002319 -0.001637
# 3 -0.004372 -0.004961 0.020681 0.000751 -0.005003 -0.002233
# 4 0.001641 0.001563 0.000751 0.033709 -0.001685 -0.004442
# 5 0.001849 0.002319 -0.005003 -0.001685 0.024254 0.006056
# 6 -0.003528 -0.001637 -0.002233 -0.004442 0.006056 0.028516
#
#
# Mechanical properties :
#
#
# Convention : Reuss Voigt Hill
#
# Bulk Modulus (GPa) = 40.25080 60.70682 50.47881
# Shear Modulus (GPa) = 31.95826 42.06447 37.01137
#
# Velocity S-wave (km/s) = 3.44159 3.94843 3.70369
# Velocity P-wave (km/s) = 5.54172 6.57923 6.08263
#
# Compressibility (1/GPa) = 0.02484422
#
# Stress axis : x y z
#
# Youngs Moduli (GPa) = 159.36043 61.30068 48.35381
#
# Poissons Ratio (x) = -0.00743 0.21141
# Poissons Ratio (y) = -0.01930 0.23991
# Poissons Ratio (z) = 0.69673 0.30414
#
# Static dielectric constant tensor:
#      x y z
#    x 2.054260 0.058210 0.094290 
#    y 0.058210 2.124980 0.005960 
#    z 0.094290 0.005960 2.061820 
# 
# From -- ./inp_files/376335.got.cif
#   From: 2010.05.17/outbox.cif.g08.bks.cpg/sg2_189_cif.got.tgz:376335.got - 2010.06.03 11:33:40.
