data_PCOD9020038
_publ_section_title
;
Structure prediction by ZEFSAII (Michael W. Deem and Ramdas Pophale) SiO2 
 PCOD9020038
Probable space group: P -1
;
_chemical_formula_sum "Si O2"
_cell_formula_units_Z 15
_cell_length_a 8.252302
_cell_length_b 8.081690
_cell_length_c 16.849807
_cell_angle_alpha 136.226438
_cell_angle_beta 47.211461
_cell_angle_gamma 119.729798
_cell_volume 570.494037
_symmetry_space_group_name_H-M "P -1"
_symmetry_group_IT_number 2
_symmetry_cell_setting 'triclinic'
loop_
_space_group_symop_operation_xyz
x,y,z
-x,-y,-z
loop_
_atom_site_type_symbol
_atom_site_label
_atom_site_fract_x
_atom_site_fract_y
_atom_site_fract_z
Si Si1 0.397182 0.037530 0.634247
Si Si2 0.819341 0.416027 0.468122
Si Si3 0.000000 0.000000 0.000000
Si Si4 0.526356 0.429669 0.238661
Si Si5 0.007094 0.587075 0.939003
Si Si6 0.214067 0.138873 0.446536
Si Si7 0.278232 0.776533 0.175926
Si Si8 0.675516 0.683558 0.895931
O O1 0.185821 0.863608 0.644632
O O2 0.572828 0.927108 0.597774
O O3 0.500000 0.000000 0.500000
O O4 0.385812 0.321235 0.743828
O O5 0.594131 0.493213 0.614916
O O6 0.834433 0.581526 0.443599
O O7 0.000000 0.500000 0.500000
O O8 0.864168 0.819626 0.047303
O O9 0.108666 0.174100 0.096609
O O10 0.759305 0.298943 0.131980
O O11 0.375433 0.312280 0.179882
O O12 0.936728 0.355490 0.832978
O O13 0.000000 0.500000 0.000000
O O14 0.246598 0.035550 0.311708
O O15 0.000000 0.000000 0.500000
O O16 0.328849 0.592328 0.167322
O O17 0.461625 0.782013 0.048447
#
# Coordination Sequence:
#
# PCOD9020038 Si02
#       8
#     2   2   1   2   2   2   2   2
#     4  10  23  46  70  96 134 182 235 296 350 419
#     4  11  27  46  66 107 139 184 243 295 357 431
#     4  10  26  42  66 100 152 178 240 284 340 438
#     4  11  23  45  74  99 142 186 236 292 360 424
#     4  11  24  45  69 104 140 190 230 290 360 425
#     4  12  25  44  72 100 139 189 233 298 361 423
#     4  10  23  41  71  99 142 180 235 285 356 430
#     4  10  21  46  67 104 139 184 229 290 357 423
#
# _framework density 26.292998999999998
#
# number of rings (size 3 to 8) (size 9 to 14) (size 15 to 20)
#    0.000    1.333    2.667    2.000    7.467    1.600 
#    2.400    0.000    0.000    0.000    0.000    0.000 
#    0.000    0.000    0.000    0.000    0.000    0.000 
#
# Total GULP energy -83719.026900 kJ/mol
# GULP energy per Si atom -5581.268460 kJ/mol
# Density = 2.623315 g / cm^3
# Si number density = 26.292999 Si / 1000 Ang^3
#
#
#
# Elastic Constant Matrix: (Units=GPa)
#
#
# Indices 1 2 3 4 5 6 
#
# 1 86.9991 1.0848 -5.5432 2.6606 31.1563 29.6097
# 2 1.0848 132.0181 9.8676 31.2802 9.5461 6.2835
# 3 -5.5432 9.8676 64.9155 4.4652 12.7430 5.1808
# 4 2.6606 31.2802 4.4652 46.8039 6.5934 10.8538
# 5 31.1563 9.5461 12.7430 6.5934 37.1424 2.2897
# 6 29.6097 6.2835 5.1808 10.8538 2.2897 38.9769
#
#
#
# Elastic Compliance Matrix: (Units=1/GPa)
#
#
# Indices 1 2 3 4 5 6 
#
# 1 0.030782 0.000712 0.009743 0.006719 -0.029001 -0.024962
# 2 0.000712 0.009117 -0.000575 -0.005787 -0.001702 -0.000223
# 3 0.009743 -0.000575 0.019815 0.002252 -0.014625 -0.009711
# 4 0.006719 -0.005787 0.002252 0.028708 -0.009283 -0.011920
# 5 -0.029001 -0.001702 -0.014625 -0.009283 0.056905 0.023491
# 6 -0.024962 -0.000223 -0.009711 -0.011920 0.023491 0.047885
#
#
# Mechanical properties :
#
#
# Convention : Reuss Voigt Hill
#
# Bulk Modulus (GPa) = 12.58273 32.75012 22.66643
# Shear Modulus (GPa) = 25.00712 43.15285 34.07998
#
# Velocity S-wave (km/s) = 3.08733 4.05560 3.60413
# Velocity P-wave (km/s) = 4.18387 5.86630 5.09501
#
# Compressibility (1/GPa) = 0.07947399
#
# Stress axis : x y z
#
# Youngs Moduli (GPa) = 32.48635 109.68853 50.46690
#
# Poissons Ratio (x) = -0.07809 -0.49171
# Poissons Ratio (y) = -0.02313 0.02902
# Poissons Ratio (z) = -0.31652 0.06308
#
# Static dielectric constant tensor:
#      x y z
#    x 1.411670 0.108480 0.331290 
#    y 0.108480 2.072460 -0.072690 
#    z 0.331290 -0.072690 1.852150 
# 
# From -- ./inp_files/216148.got.cif
#   From: 2010.05.17/outbox.cif.g08.bks.cpg/sg2_109_cif.got.tgz:216148.got - 2010.06.03 11:33:40.
