data_PCOD9020110
_publ_section_title
;
Structure prediction by ZEFSAII (Michael W. Deem and Ramdas Pophale) SiO2 
 PCOD9020110
Probable space group: P -1
;
_chemical_formula_sum "Si O2"
_cell_formula_units_Z 16
_cell_length_a 12.277347
_cell_length_b 27.852096
_cell_length_c 9.478281
_cell_angle_alpha 29.232792
_cell_angle_beta 143.437138
_cell_angle_gamma 151.102565
_cell_volume 754.251639
_symmetry_space_group_name_H-M "P -1"
_symmetry_group_IT_number 2
_symmetry_cell_setting 'triclinic'
loop_
_space_group_symop_operation_xyz
x,y,z
-x,-y,-z
loop_
_atom_site_type_symbol
_atom_site_label
_atom_site_fract_x
_atom_site_fract_y
_atom_site_fract_z
Si Si1 0.694139 0.989939 0.171103
Si Si2 0.884117 0.732146 0.074908
Si Si3 0.796959 0.856427 0.144630
Si Si4 0.890063 0.392953 0.272918
Si Si5 0.222556 0.545806 0.705410
Si Si6 0.556309 0.203511 0.842904
Si Si7 0.923337 0.710467 0.838697
Si Si8 0.374289 0.206275 0.186888
O O1 0.600042 0.908977 0.139169
O O2 0.724605 0.915658 0.511390
O O3 0.500000 0.000000 0.000000
O O4 0.917625 0.127567 0.033395
O O5 0.948017 0.645899 0.420686
O O6 0.885646 0.726545 0.921738
O O7 0.662243 0.707085 0.980508
O O8 0.572826 0.826504 0.067192
O O9 0.871705 0.783248 0.494441
O O10 0.742561 0.820320 0.017416
O O11 0.000000 0.000000 0.000000
O O12 0.838870 0.437111 0.247610
O O13 0.643230 0.273981 0.272659
O O14 0.000000 0.500000 0.000000
O O15 0.412522 0.678156 0.496994
O O16 0.000000 0.500000 0.500000
O O17 0.239811 0.434457 0.997584
O O18 0.809311 0.237187 0.030049
#
# Coordination Sequence:
#
# PCOD9020110 Si02
#       8
#     2   2   2   2   2   2   2   2
#     4  12  20  45  76 101 132 182 237 287 344 414
#     4  12  24  45  75 103 136 184 236 291 348 416
#     4  12  29  45  65 108 148 183 227 287 351 411
#     4  12  27  47  70 103 146 182 232 295 355 414
#     4  10  21  46  71 102 129 179 243 279 338 416
#     4  11  23  46  74  98 135 184 236 285 340 416
#     4  11  24  44  73 100 136 185 237 283 341 415
#     4  12  27  45  68 107 144 178 233 290 356 413
#
# _framework density 21.213080000000001
#
# number of rings (size 3 to 8) (size 9 to 14) (size 15 to 20)
#    0.000    0.500    6.250    2.625    5.250    1.500 
#    0.000    0.000    0.000    0.000    0.000    0.000 
#    0.000    0.000    0.000    0.000    0.000    0.000 
#
# Total GULP energy -89555.278572 kJ/mol
# GULP energy per Si atom -5597.204911 kJ/mol
# Density = 2.116480 g / cm^3
# Si number density = 21.213080 Si / 1000 Ang^3
#
#
#
# Elastic Constant Matrix: (Units=GPa)
#
#
# Indices 1 2 3 4 5 6 
#
# 1 128.3074 21.0451 52.2954 10.6141 -0.9330 -2.8261
# 2 21.0451 40.3618 25.8685 1.3287 2.9747 -17.6255
# 3 52.2954 25.8685 120.1457 21.1846 6.7946 -20.1531
# 4 10.6141 1.3287 21.1846 39.5808 -2.9243 4.5308
# 5 -0.9330 2.9747 6.7946 -2.9243 35.5398 1.5445
# 6 -2.8261 -17.6255 -20.1531 4.5308 1.5445 36.4305
#
#
#
# Elastic Compliance Matrix: (Units=1/GPa)
#
#
# Indices 1 2 3 4 5 6 
#
# 1 0.010145 -0.004337 -0.004249 0.000250 0.001626 -0.003762
# 2 -0.004337 0.036037 -0.002973 -0.000490 -0.003282 0.015654
# 3 -0.004249 -0.002973 0.013317 -0.006884 -0.003262 0.006593
# 4 0.000250 -0.000490 -0.006884 0.030118 0.004187 -0.007949
# 5 0.001626 -0.003282 -0.003262 0.004187 0.029642 -0.005044
# 6 -0.003762 0.015654 0.006593 -0.007949 -0.005044 0.039581
#
#
# Mechanical properties :
#
#
# Convention : Reuss Voigt Hill
#
# Bulk Modulus (GPa) = 27.48802 54.13698 40.81250
# Shear Modulus (GPa) = 25.76158 34.95058 30.35608
#
# Velocity S-wave (km/s) = 3.48863 4.06346 3.78697
# Velocity P-wave (km/s) = 5.40496 6.89867 6.19698
#
# Compressibility (1/GPa) = 0.03637949
#
# Stress axis : x y z
#
# Youngs Moduli (GPa) = 98.56739 27.74917 75.09097
#
# Poissons Ratio (x) = 0.12036 0.31907
# Poissons Ratio (y) = 0.42753 0.22328
# Poissons Ratio (z) = 0.41882 0.08251
#
# Static dielectric constant tensor:
#      x y z
#    x 1.766740 0.065580 0.031200 
#    y 0.065580 1.873570 -0.008690 
#    z 0.031200 -0.008690 1.739680 
# 
# From -- ./inp_files/285779.got.cif
#   From: 2010.05.17/outbox.cif.g08.bks.cpg/sg2_143_cif.got.tgz:285779.got - 2010.06.03 11:33:40.
