data_PCOD9020854
_publ_section_title
;
Structure prediction by ZEFSAII (Michael W. Deem and Ramdas Pophale) SiO2 
 PCOD9020854
Probable space group: P -1
;
_chemical_formula_sum "Si O2"
_cell_formula_units_Z 16
_cell_length_a 8.210043
_cell_length_b 21.176144
_cell_length_c 21.087837
_cell_angle_alpha 20.357575
_cell_angle_beta 142.217474
_cell_angle_gamma 130.472759
_cell_volume 705.047477
_symmetry_space_group_name_H-M "P -1"
_symmetry_group_IT_number 2
_symmetry_cell_setting 'triclinic'
loop_
_space_group_symop_operation_xyz
x,y,z
-x,-y,-z
loop_
_atom_site_type_symbol
_atom_site_label
_atom_site_fract_x
_atom_site_fract_y
_atom_site_fract_z
Si Si1 0.069954 0.980452 0.395240
Si Si2 0.687698 0.385757 0.104074
Si Si3 0.675818 0.606145 0.135646
Si Si4 0.650760 0.774367 0.679756
Si Si5 0.539163 0.966874 0.845710
Si Si6 0.228512 0.092854 0.899958
Si Si7 0.352144 0.346417 0.602205
Si Si8 0.587040 0.252880 0.501588
O O1 0.084144 0.821606 0.602898
O O2 0.341293 0.880838 0.523618
O O3 0.132496 0.141540 0.303434
O O4 0.755750 0.040321 0.210328
O O5 0.500000 0.500000 0.000000
O O6 0.488106 0.352057 0.021068
O O7 0.795968 0.538251 0.962567
O O8 0.556929 0.475977 0.266427
O O9 0.019550 0.465019 0.363561
O O10 0.630040 0.810573 0.962959
O O11 0.551790 0.805971 0.546754
O O12 0.798681 0.882841 0.056028
O O13 0.475365 0.188099 0.592010
O O14 0.465328 0.862604 0.181192
O O15 0.327474 0.258540 0.746530
O O16 0.939547 0.125168 0.740741
O O17 0.500000 0.500000 0.500000
#
# Coordination Sequence:
#
# PCOD9020854 Si02
#       8
#     2   2   2   2   2   2   2   2
#     4  10  22  37  60  91 123 160 207 253 309 367
#     4   9  19  37  61  85 117 159 205 253 299 359
#     4  10  23  40  61  92 126 164 206 257 314 371
#     4   9  20  40  62  87 119 162 208 259 301 364
#     4  12  25  39  62  96 130 164 202 257 317 376
#     4  10  24  40  64  93 126 163 212 256 305 375
#     4  10  22  41  65  94 121 164 212 258 305 368
#     4  10  22  41  65  83 128 168 203 256 315 361
#
# _framework density 22.693508000000001
#
# number of rings (size 3 to 8) (size 9 to 14) (size 15 to 20)
#    0.000    2.000    0.000    1.875    8.750    6.000 
#    4.500    2.500    0.000    0.000    0.000    0.000 
#    0.000    0.000    0.000    0.000    0.000    0.000 
#
# Total GULP energy -89343.738581 kJ/mol
# GULP energy per Si atom -5583.983661 kJ/mol
# Density = 2.264186 g / cm^3
# Si number density = 22.693508 Si / 1000 Ang^3
#
#
#
# Elastic Constant Matrix: (Units=GPa)
#
#
# Indices 1 2 3 4 5 6 
#
# 1 61.0286 26.3878 10.8905 4.9395 -13.4353 10.0249
# 2 26.3878 78.7589 17.8084 4.1764 -12.2641 -0.8356
# 3 10.8905 17.8084 58.8173 6.2622 -3.7027 0.1889
# 4 4.9395 4.1764 6.2622 27.4226 2.2239 -7.0955
# 5 -13.4353 -12.2641 -3.7027 2.2239 33.9837 10.6982
# 6 10.0249 -0.8356 0.1889 -7.0955 10.6982 39.3422
#
#
#
# Elastic Compliance Matrix: (Units=1/GPa)
#
#
# Indices 1 2 3 4 5 6 
#
# 1 0.023704 -0.005731 -0.001228 -0.006664 0.010851 -0.010308
# 2 -0.005731 0.015892 -0.003515 -0.000571 0.002827 0.000943
# 3 -0.001228 -0.003515 0.018747 -0.003779 0.000769 -0.000742
# 4 -0.006664 -0.000571 -0.003779 0.042531 -0.009828 0.012047
# 5 0.010851 0.002827 0.000769 -0.009828 0.040325 -0.015447
# 6 -0.010308 0.000943 -0.000742 0.012047 -0.015447 0.034441
#
#
# Mechanical properties :
#
#
# Convention : Reuss Voigt Hill
#
# Bulk Modulus (GPa) = 26.74133 34.30869 30.52501
# Shear Modulus (GPa) = 23.91732 29.71756 26.81744
#
# Velocity S-wave (km/s) = 3.24995 3.62265 3.44135
# Velocity P-wave (km/s) = 5.08843 5.71395 5.41024
#
# Compressibility (1/GPa) = 0.03739530
#
# Stress axis : x y z
#
# Youngs Moduli (GPa) = 42.18673 62.92358 53.34287
#
# Poissons Ratio (x) = 0.36059 0.06552
# Poissons Ratio (y) = 0.24176 0.18750
# Poissons Ratio (z) = 0.05182 0.22118
#
# Static dielectric constant tensor:
#      x y z
#    x 1.910550 0.024030 -0.002550 
#    y 0.024030 1.891220 0.019800 
#    z -0.002550 0.019800 1.828980 
# 
# From -- ./inp_files/591632.got.cif
#   From: 2010.05.17/outbox.cif.g08.bks.cpg/sg2_296_cif.got.tgz:591632.got - 2010.06.03 11:33:40.
