data_PCOD9020677
_publ_section_title
;
Structure prediction by ZEFSAII (Michael W. Deem and Ramdas Pophale) SiO2 
 PCOD9020677
Probable space group: P -1
;
_chemical_formula_sum "Si O2"
_cell_formula_units_Z 15
_cell_length_a 8.909451
_cell_length_b 17.529907
_cell_length_c 6.114262
_cell_angle_alpha 77.568273
_cell_angle_beta 80.516395
_cell_angle_gamma 42.928368
_cell_volume 635.105457
_symmetry_space_group_name_H-M "P -1"
_symmetry_group_IT_number 2
_symmetry_cell_setting 'triclinic'
loop_
_space_group_symop_operation_xyz
x,y,z
-x,-y,-z
loop_
_atom_site_type_symbol
_atom_site_label
_atom_site_fract_x
_atom_site_fract_y
_atom_site_fract_z
Si Si1 0.000000 0.500000 0.000000
Si Si2 0.052273 0.275590 0.029635
Si Si3 0.635761 0.752976 0.332054
Si Si4 0.567442 0.892019 0.646191
Si Si5 0.252604 0.523000 0.681170
Si Si6 0.635859 0.589248 0.681092
Si Si7 0.316103 0.689445 0.047918
Si Si8 0.262338 0.894449 0.000380
O O1 0.901495 0.495258 0.242292
O O2 0.220568 0.444954 0.120284
O O3 0.256199 0.159448 0.172635
O O4 0.885591 0.367696 0.199737
O O5 0.172960 0.305062 0.863023
O O6 0.917880 0.267060 0.913690
O O7 0.677279 0.798795 0.487395
O O8 0.614803 0.675584 0.490403
O O9 0.403665 0.860693 0.205439
O O10 0.500000 0.000000 0.500000
O O11 0.372873 0.909613 0.781515
O O12 0.272851 0.516194 0.418920
O O13 0.500556 0.416538 0.773346
O O14 0.405119 0.649820 0.802959
O O15 0.305863 0.786051 0.025995
O O16 0.000000 0.000000 0.000000
#
# Coordination Sequence:
#
# PCOD9020677 Si02
#       8
#     1   2   2   2   2   2   2   2
#     4  10  22  36  66 100 132 182 230 282 340 404
#     4  11  27  44  69 104 147 185 232 293 350 417
#     4  11  24  47  72 101 140 182 237 290 353 422
#     4  11  27  47  70 105 137 183 240 290 359 422
#     4  11  22  41  68 101 142 189 232 280 353 412
#     4  11  22  42  70 100 142 181 240 285 341 424
#     4  11  25  44  67 108 143 180 237 291 349 416
#     4  11  26  46  75 102 137 183 237 295 352 417
#
# _framework density 23.618124000000002
#
# number of rings (size 3 to 8) (size 9 to 14) (size 15 to 20)
#    0.000    1.067    2.667    2.400    7.467    7.467 
#    0.000    0.000    0.000    2.400    0.000    0.000 
#    0.000    0.000    0.000    0.000    0.000    0.000 
#
# Total GULP energy -83631.069438 kJ/mol
# GULP energy per Si atom -5575.404629 kJ/mol
# Density = 2.356437 g / cm^3
# Si number density = 23.618124 Si / 1000 Ang^3
#
#
#
# Elastic Constant Matrix: (Units=GPa)
#
#
# Indices 1 2 3 4 5 6 
#
# 1 149.3172 34.2500 25.7537 -19.8944 -11.5164 -21.2757
# 2 34.2500 82.3553 13.8492 -18.8138 -8.3984 -17.5105
# 3 25.7537 13.8492 58.2351 -8.4846 0.7663 -1.8350
# 4 -19.8944 -18.8138 -8.4846 40.4671 4.0945 -0.2117
# 5 -11.5164 -8.3984 0.7663 4.0945 23.2361 -10.4973
# 6 -21.2757 -17.5105 -1.8350 -0.2117 -10.4973 39.4294
#
#
#
# Elastic Compliance Matrix: (Units=1/GPa)
#
#
# Indices 1 2 3 4 5 6 
#
# 1 0.009250 -0.000528 -0.003428 0.002919 0.006908 0.006452
# 2 -0.000528 0.017318 -0.002781 0.006308 0.009413 0.009816
# 3 -0.003428 -0.002781 0.019543 0.001632 -0.005245 -0.003563
# 4 0.002919 0.006308 0.001632 0.029379 0.000657 0.004785
# 5 0.006908 0.009413 -0.005245 0.000657 0.060681 0.023822
# 6 0.006452 0.009816 -0.003563 0.004785 0.023822 0.039405
#
#
# Mechanical properties :
#
#
# Convention : Reuss Voigt Hill
#
# Bulk Modulus (GPa) = 30.63768 48.62372 39.63070
# Shear Modulus (GPa) = 25.00890 35.03017 30.01953
#
# Velocity S-wave (km/s) = 3.25758 3.85540 3.56903
# Velocity P-wave (km/s) = 5.21051 6.36011 5.81379
#
# Compressibility (1/GPa) = 0.03263954
#
# Stress axis : x y z
#
# Youngs Moduli (GPa) = 108.10391 57.74483 51.16812
#
# Poissons Ratio (x) = 0.03046 0.17539
# Poissons Ratio (y) = 0.05703 0.14228
# Poissons Ratio (z) = 0.37055 0.16056
#
# Static dielectric constant tensor:
#      x y z
#    x 1.893200 0.033490 -0.083330 
#    y 0.033490 1.904910 -0.138570 
#    z -0.083330 -0.138570 1.517870 
# 
# From -- ./inp_files/47400.got.cif
#   From: 2010.05.17/outbox.cif.g08.bks.cpg/sg2_24_cif.got.tgz:47400.got - 2010.06.03 11:33:40.
