data_PCOD9020916
_publ_section_title
;
Structure prediction by ZEFSAII (Michael W. Deem and Ramdas Pophale) SiO2 
 PCOD9020916
Probable space group: P -1
;
_chemical_formula_sum "Si O2"
_cell_formula_units_Z 14
_cell_length_a 4.892920
_cell_length_b 25.502933
_cell_length_c 5.597003
_cell_angle_alpha 105.682604
_cell_angle_beta 83.506255
_cell_angle_gamma 121.041435
_cell_volume 575.829748
_symmetry_space_group_name_H-M "P -1"
_symmetry_group_IT_number 2
_symmetry_cell_setting 'triclinic'
loop_
_space_group_symop_operation_xyz
x,y,z
-x,-y,-z
loop_
_atom_site_type_symbol
_atom_site_label
_atom_site_fract_x
_atom_site_fract_y
_atom_site_fract_z
Si Si1 0.269923 0.866091 0.868493
Si Si2 0.401506 0.199128 0.005632
Si Si3 0.271369 0.015270 0.798387
Si Si4 0.396300 0.658250 0.906462
Si Si5 0.688731 0.590838 0.000829
Si Si6 0.361382 0.554884 0.492486
Si Si7 0.183348 0.101438 0.527122
O O1 0.341289 0.821181 0.978596
O O2 0.518368 0.877808 0.650541
O O3 0.894634 0.830623 0.814958
O O4 0.391016 0.935529 0.057384
O O5 0.542391 0.272877 0.057527
O O6 0.227445 0.162015 0.735086
O O7 0.224031 0.057644 0.662127
O O8 0.162884 0.947033 0.613432
O O9 0.000000 0.000000 0.000000
O O10 0.655244 0.652480 0.032730
O O11 0.380679 0.622425 0.617188
O O12 0.057106 0.613301 0.010958
O O13 0.553775 0.555076 0.714031
O O14 0.497548 0.556974 0.217755
O O15 0.000000 0.500000 0.500000
#
# Coordination Sequence:
#
# PCOD9020916 Si02
#       7
#     2   2   2   2   2   2   2
#     4  10  22  37  62  87 121 156 205 256 308 379
#     4  11  23  41  60  90 120 162 207 252 313 375
#     4   8  16  36  58  86 117 153 202 253 312 373
#     4  10  25  41  65  95 133 174 222 267 324 390
#     4  10  24  42  70  98 136 174 218 272 325 384
#     4  10  24  44  70 102 135 175 219 272 326 386
#     4   9  19  36  60  86 119 159 198 256 316 371
#
# _framework density 24.312745
#
# number of rings (size 3 to 8) (size 9 to 14) (size 15 to 20)
#    0.857    1.429    0.000    1.286    2.000    6.286 
#    0.000   24.286    0.000    0.000    0.000    0.000 
#    0.000    0.000    0.000    0.000    0.000    0.000 
#
# Total GULP energy -78232.312793 kJ/mol
# GULP energy per Si atom -5588.022342 kJ/mol
# Density = 2.425741 g / cm^3
# Si number density = 24.312745 Si / 1000 Ang^3
#
#
#
# Elastic Constant Matrix: (Units=GPa)
#
#
# Indices 1 2 3 4 5 6 
#
# 1 97.9036 7.9555 13.4416 -1.1826 -8.2854 -1.4323
# 2 7.9555 106.0478 46.3435 12.1763 -0.8974 -1.7781
# 3 13.4416 46.3435 132.0384 -9.7471 -5.1310 -0.7150
# 4 -1.1826 12.1763 -9.7471 36.8668 3.6569 -8.7674
# 5 -8.2854 -0.8974 -5.1310 3.6569 26.2163 -3.0297
# 6 -1.4323 -1.7781 -0.7150 -8.7674 -3.0297 33.6228
#
#
#
# Elastic Compliance Matrix: (Units=1/GPa)
#
#
# Indices 1 2 3 4 5 6 
#
# 1 0.010646 -0.000426 -0.000794 0.000125 0.003263 0.000741
# 2 -0.000426 0.012082 -0.004602 -0.005436 0.000034 -0.000892
# 3 -0.000794 -0.004602 0.009626 0.004204 0.001018 0.001115
# 4 0.000125 -0.005436 0.004204 0.032213 -0.002899 0.007946
# 5 0.003263 0.000034 0.001018 -0.002899 0.040129 0.003022
# 6 0.000741 -0.000892 0.001115 0.007946 0.003022 0.032094
#
#
# Mechanical properties :
#
#
# Convention : Reuss Voigt Hill
#
# Bulk Modulus (GPa) = 48.28694 52.38564 50.33629
# Shear Modulus (GPa) = 32.18779 37.22447 34.70613
#
# Velocity S-wave (km/s) = 3.64250 3.91713 3.78231
# Velocity P-wave (km/s) = 6.13142 6.48474 6.31055
#
# Compressibility (1/GPa) = 0.02070953
#
# Stress axis : x y z
#
# Youngs Moduli (GPa) = 93.92978 82.76511 103.88911
#
# Poissons Ratio (x) = 0.03524 0.08252
# Poissons Ratio (y) = 0.04000 0.47812
# Poissons Ratio (z) = 0.07461 0.38090
#
# Static dielectric constant tensor:
#      x y z
#    x 1.956440 -0.039010 0.047050 
#    y -0.039010 1.914330 0.013480 
#    z 0.047050 0.013480 2.033710 
# 
# From -- ./inp_files/9624.got.cif
#   From: 2010.05.17/outbox.cif.g08.bks.cpg/sg2_5_cif.got.tgz:9624.got - 2010.06.03 11:33:40.
