data_PCOD9020299
_publ_section_title
;
Structure prediction by ZEFSAII (Michael W. Deem and Ramdas Pophale) SiO2 
 PCOD9020299
Probable space group: P -1
;
_chemical_formula_sum "Si O2"
_cell_formula_units_Z 16
_cell_length_a 19.632231
_cell_length_b 9.367811
_cell_length_c 11.178485
_cell_angle_alpha 50.096211
_cell_angle_beta 29.860748
_cell_angle_gamma 47.401806
_cell_volume 745.106322
_symmetry_space_group_name_H-M "P -1"
_symmetry_group_IT_number 2
_symmetry_cell_setting 'triclinic'
loop_
_space_group_symop_operation_xyz
x,y,z
-x,-y,-z
loop_
_atom_site_type_symbol
_atom_site_label
_atom_site_fract_x
_atom_site_fract_y
_atom_site_fract_z
Si Si1 0.709662 0.426025 0.132551
Si Si2 0.955584 0.193874 0.048640
Si Si3 0.737432 0.082736 0.611637
Si Si4 0.799766 0.635552 0.437617
Si Si5 0.537917 0.191131 0.625909
Si Si6 0.163503 0.360335 0.346415
Si Si7 0.341450 0.667564 0.163367
Si Si8 0.506844 0.116147 0.309375
O O1 0.647189 0.245269 0.337275
O O2 0.594431 0.612868 0.266191
O O3 0.850913 0.361043 0.034161
O O4 0.742280 0.505546 0.913799
O O5 0.080992 0.283364 0.846885
O O6 0.867652 0.145129 0.319442
O O7 0.000000 0.000000 0.000000
O O8 0.616146 0.134004 0.664449
O O9 0.674609 0.212803 0.752873
O O10 0.793269 0.848279 0.676027
O O11 0.803387 0.704083 0.532346
O O12 0.793692 0.415535 0.585775
O O13 0.650647 0.724549 0.547211
O O14 0.488715 0.020540 0.738104
O O15 0.000000 0.500000 0.500000
O O16 0.500000 0.500000 0.000000
O O17 0.358821 0.803540 0.953912
O O18 0.500000 0.000000 0.500000
#
# Coordination Sequence:
#
# PCOD9020299 Si02
#       8
#     2   2   2   2   2   2   2   2
#     4  10  22  33  62  98 129 159 222 280 326 392
#     4  11  20  43  66  99 132 174 230 275 339 408
#     4  11  23  43  72  99 138 179 229 284 335 411
#     4  11  23  43  66  96 134 181 217 279 347 390
#     4  10  22  40  65  99 126 174 227 282 342 389
#     4  12  22  39  69 101 134 174 224 282 331 408
#     4  10  26  44  64 100 136 178 227 279 346 404
#     4  11  24  43  65  93 133 176 226 278 341 406
#
# _framework density 21.473445999999999
#
# number of rings (size 3 to 8) (size 9 to 14) (size 15 to 20)
#    0.000    1.250    3.750    1.500    5.250    6.500 
#    0.000    0.625    0.000    0.000    0.000    0.000 
#    0.000    0.000    0.000    0.000    0.000    0.000 
#
# Total GULP energy -89226.464244 kJ/mol
# GULP energy per Si atom -5576.654015 kJ/mol
# Density = 2.142457 g / cm^3
# Si number density = 21.473446 Si / 1000 Ang^3
#
#
#
# Elastic Constant Matrix: (Units=GPa)
#
#
# Indices 1 2 3 4 5 6 
#
# 1 43.3473 19.7134 36.9981 -0.5033 4.8621 0.6199
# 2 19.7134 88.0904 41.0211 1.3810 -5.0707 4.7393
# 3 36.9981 41.0211 126.4929 -21.7483 2.5810 5.1729
# 4 -0.5033 1.3810 -21.7483 35.7328 5.8527 -1.2175
# 5 4.8621 -5.0707 2.5810 5.8527 37.8267 -2.5923
# 6 0.6199 4.7393 5.1729 -1.2175 -2.5923 36.8084
#
#
#
# Elastic Compliance Matrix: (Units=1/GPa)
#
#
# Indices 1 2 3 4 5 6 
#
# 1 0.032738 -0.003156 -0.009294 -0.004515 -0.003245 0.000783
# 2 -0.003156 0.014427 -0.004439 -0.003859 0.003165 -0.001085
# 3 -0.009294 -0.004439 0.013615 0.008575 -0.001726 -0.001023
# 4 -0.004515 -0.003859 0.008575 0.034246 -0.005814 0.000091
# 5 -0.003245 0.003165 -0.001726 -0.005814 0.028412 0.001698
# 6 0.000783 -0.001085 -0.001023 0.000091 0.001698 0.027561
#
#
# Mechanical properties :
#
#
# Convention : Reuss Voigt Hill
#
# Bulk Modulus (GPa) = 37.03639 50.37733 43.70686
# Shear Modulus (GPa) = 25.80292 32.75346 29.27819
#
# Velocity S-wave (km/s) = 3.47020 3.90975 3.69651
# Velocity P-wave (km/s) = 5.77420 6.62516 6.21426
#
# Compressibility (1/GPa) = 0.02700047
#
# Stress axis : x y z
#
# Youngs Moduli (GPa) = 30.54545 69.31680 73.44853
#
# Poissons Ratio (x) = 0.21879 0.68264
# Poissons Ratio (y) = 0.09642 0.32603
# Poissons Ratio (z) = 0.28389 0.30769
#
# Static dielectric constant tensor:
#      x y z
#    x 1.777980 0.009670 -0.010610 
#    y 0.009670 1.850340 -0.040900 
#    z -0.010610 -0.040900 1.877280 
# 
# From -- ./inp_files/469820.got.cif
#   From: 2010.05.17/outbox.cif.g08.bks.cpg/sg2_235_cif.got.tgz:469820.got - 2010.06.03 11:33:40.
