data_PCOD9020482
_publ_section_title
;
Structure prediction by ZEFSAII (Michael W. Deem and Ramdas Pophale) SiO2 
 PCOD9020482
Probable space group: P -1
;
_chemical_formula_sum "Si O2"
_cell_formula_units_Z 13
_cell_length_a 14.706645
_cell_length_b 14.821692
_cell_length_c 7.629942
_cell_angle_alpha 62.384441
_cell_angle_beta 134.120025
_cell_angle_gamma 151.348341
_cell_volume 517.347802
_symmetry_space_group_name_H-M "P -1"
_symmetry_group_IT_number 2
_symmetry_cell_setting 'triclinic'
loop_
_space_group_symop_operation_xyz
x,y,z
-x,-y,-z
loop_
_atom_site_type_symbol
_atom_site_label
_atom_site_fract_x
_atom_site_fract_y
_atom_site_fract_z
Si Si1 0.570808 0.646027 0.578598
Si Si2 0.433419 0.784052 0.751780
Si Si3 0.755773 0.187458 0.951733
Si Si4 0.895580 0.953081 0.210944
Si Si5 0.191974 0.435205 0.564505
Si Si6 0.740783 0.383715 0.953642
Si Si7 0.500000 0.500000 0.000000
O O1 0.500000 0.500000 0.500000
O O2 0.413021 0.528185 0.657627
O O3 0.460904 0.671355 0.322744
O O4 0.876287 0.867880 0.781399
O O5 0.277543 0.613169 0.543370
O O6 0.707499 0.917706 0.997791
O O7 0.270565 0.645125 0.831319
O O8 0.528789 0.966697 0.749291
O O9 0.920959 0.241211 0.275086
O O10 0.981810 0.379121 0.948763
O O11 0.670294 0.230039 0.896860
O O12 0.733050 0.741752 0.136714
O O13 0.000000 0.000000 0.500000
O O14 0.267154 0.424481 0.844289
#
# Coordination Sequence:
#
# PCOD9020482 Si02
#       7
#     2   2   2   2   2   2   1
#     4  11  22  40  67  92 128 170 210 263 322 380
#     4  11  22  40  64  94 126 164 216 257 317 377
#     4  10  22  45  65  88 133 166 209 268 309 376
#     4  11  20  37  61  87 125 160 206 256 316 371
#     4  10  24  40  61  97 124 162 215 257 316 380
#     4  10  22  41  67  95 121 172 216 252 322 381
#     4  10  22  36  56  92 124 156 204 252 310 376
#
# _framework density 25.128164000000002
#
# number of rings (size 3 to 8) (size 9 to 14) (size 15 to 20)
#    0.000    1.538    1.538    4.154    2.154    3.077 
#    5.538    6.923    0.000    0.000    0.000    0.000 
#    0.000    0.000    0.000    0.000    0.000    0.000 
#
# Total GULP energy -72543.793461 kJ/mol
# GULP energy per Si atom -5580.291805 kJ/mol
# Density = 2.507097 g / cm^3
# Si number density = 25.128164 Si / 1000 Ang^3
#
#
#
# Elastic Constant Matrix: (Units=GPa)
#
#
# Indices 1 2 3 4 5 6 
#
# 1 128.7033 50.4587 5.4022 15.5236 -8.4705 -13.8398
# 2 50.4587 109.6606 12.5908 17.4612 -16.2541 -16.7487
# 3 5.4022 12.5908 68.7629 -2.9247 -1.9275 -10.5181
# 4 15.5236 17.4612 -2.9247 32.5837 -18.0002 -11.0003
# 5 -8.4705 -16.2541 -1.9275 -18.0002 37.5594 7.4098
# 6 -13.8398 -16.7487 -10.5181 -11.0003 7.4098 60.1501
#
#
#
# Elastic Compliance Matrix: (Units=1/GPa)
#
#
# Indices 1 2 3 4 5 6 
#
# 1 0.009710 -0.004063 -0.000058 -0.002794 -0.001051 0.000711
# 2 -0.004063 0.012244 -0.001770 -0.002875 0.002655 0.001312
# 3 -0.000058 -0.001770 0.015511 0.004098 0.001433 0.002779
# 4 -0.002794 -0.002875 0.004098 0.046569 0.019593 0.005376
# 5 -0.001051 0.002655 0.001433 0.019593 0.037046 -0.000232
# 6 0.000711 0.001312 0.002779 0.005376 -0.000232 0.018652
#
#
# Mechanical properties :
#
#
# Convention : Reuss Voigt Hill
#
# Bulk Modulus (GPa) = 38.93908 49.33667 44.13787
# Shear Modulus (GPa) = 31.23563 41.97031 36.60297
#
# Velocity S-wave (km/s) = 3.52952 4.09130 3.82075
# Velocity P-wave (km/s) = 5.66920 6.48035 6.08830
#
# Compressibility (1/GPa) = 0.02568114
#
# Stress axis : x y z
#
# Youngs Moduli (GPa) = 102.99082 81.67575 64.47068
#
# Poissons Ratio (x) = 0.33187 0.00376
# Poissons Ratio (y) = 0.41848 0.11410
# Poissons Ratio (z) = 0.00601 0.14455
#
# Static dielectric constant tensor:
#      x y z
#    x 2.139490 -0.029000 -0.063760 
#    y -0.029000 2.121660 -0.143450 
#    z -0.063760 -0.143450 2.300230 
# 
# From -- ./inp_files/315001.got.cif
#   From: 2010.05.17/outbox.cif.g08.bks.cpg/sg2_158_cif.got.tgz:315001.got - 2010.06.03 11:33:40.
