data_PCOD9020495
_publ_section_title
;
Structure prediction by ZEFSAII (Michael W. Deem and Ramdas Pophale) SiO2 
 PCOD9020495
Probable space group: P -1
;
_chemical_formula_sum "Si O2"
_cell_formula_units_Z 16
_cell_length_a 7.473794
_cell_length_b 5.515060
_cell_length_c 26.866801
_cell_angle_alpha 60.063280
_cell_angle_beta 39.987244
_cell_angle_gamma 69.984747
_cell_volume 615.089653
_symmetry_space_group_name_H-M "P -1"
_symmetry_group_IT_number 2
_symmetry_cell_setting 'triclinic'
loop_
_space_group_symop_operation_xyz
x,y,z
-x,-y,-z
loop_
_atom_site_type_symbol
_atom_site_label
_atom_site_fract_x
_atom_site_fract_y
_atom_site_fract_z
Si Si1 0.778474 0.709576 0.211246
Si Si2 0.308248 0.131749 0.238807
Si Si3 0.189054 0.076582 0.021609
Si Si4 0.579848 0.621157 0.361257
Si Si5 0.331145 0.211607 0.334457
Si Si6 0.787021 0.883593 0.500362
Si Si7 0.342050 0.689618 0.946049
Si Si8 0.236214 0.213816 0.596004
O O1 0.556223 0.944310 0.224556
O O2 0.824806 0.642879 0.266250
O O3 0.594436 0.434753 0.261553
O O4 0.045881 0.830305 0.111906
O O5 0.027463 0.947796 0.304884
O O6 0.245347 0.282194 0.288557
O O7 0.426948 0.284621 0.149130
O O8 0.943144 0.206423 0.028249
O O9 0.301177 0.355685 0.999243
O O10 0.385295 0.916353 0.958179
O O11 0.326926 0.404987 0.418940
O O12 0.660877 0.560870 0.407068
O O13 0.461662 0.923213 0.351707
O O14 0.027733 0.131142 0.433303
O O15 0.864524 0.761624 0.441766
O O16 0.498687 0.031477 0.550963
#
# Coordination Sequence:
#
# PCOD9020495 Si02
#       8
#     2   2   2   2   2   2   2   2
#     4  10  22  36  57  89 117 155 189 248 301 358
#     4   9  21  36  58  88 116 155 196 241 302 349
#     4   9  19  32  58  88 127 153 199 247 310 357
#     4  11  22  37  58  82 114 158 194 245 299 357
#     4  10  22  37  57  83 121 148 200 246 295 360
#     4  10  22  40  58  85 109 157 198 247 298 348
#     4   9  18  33  57  91 121 159 195 253 300 366
#     4  10  22  39  59  82 117 152 197 246 288 368
#
# _framework density 26.012466
#
# number of rings (size 3 to 8) (size 9 to 14) (size 15 to 20)
#    0.000    2.250    0.000    1.500   10.500    8.000 
#    0.000    0.000    0.000    1.500    0.000    0.000 
#    0.000    0.000    0.000    0.000    0.000    0.000 
#
# Total GULP energy -89168.377657 kJ/mol
# GULP energy per Si atom -5573.023604 kJ/mol
# Density = 2.595326 g / cm^3
# Si number density = 26.012466 Si / 1000 Ang^3
#
#
#
# Elastic Constant Matrix: (Units=GPa)
#
#
# Indices 1 2 3 4 5 6 
#
# 1 51.3569 23.8022 10.2299 0.2092 7.0090 3.5594
# 2 23.8022 78.5492 43.6820 -10.0408 11.6162 13.5782
# 3 10.2299 43.6820 156.1944 -8.6955 13.0753 1.8933
# 4 0.2092 -10.0408 -8.6955 36.6344 -1.5456 -5.7425
# 5 7.0090 11.6162 13.0753 -1.5456 27.9103 -1.5954
# 6 3.5594 13.5782 1.8933 -5.7425 -1.5954 28.2825
#
#
#
# Elastic Compliance Matrix: (Units=1/GPa)
#
#
# Indices 1 2 3 4 5 6 
#
# 1 0.023106 -0.007115 0.000635 -0.002091 -0.003263 -0.000143
# 2 -0.007115 0.019791 -0.004416 0.002970 -0.004673 -0.007971
# 3 0.000635 -0.004416 0.007774 0.000802 -0.001829 0.001579
# 4 -0.002091 0.002970 0.000802 0.029089 0.000795 0.004735
# 5 -0.003263 -0.004673 -0.001829 0.000795 0.039790 0.005182
# 6 -0.000143 -0.007971 0.001579 0.004735 0.005182 0.040350
#
#
# Mechanical properties :
#
#
# Convention : Reuss Voigt Hill
#
# Bulk Modulus (GPa) = 34.62573 49.05874 41.84224
# Shear Modulus (GPa) = 26.13433 32.45788 29.29611
#
# Velocity S-wave (km/s) = 3.17312 3.53623 3.35958
# Velocity P-wave (km/s) = 5.17349 5.96438 5.58296
#
# Compressibility (1/GPa) = 0.02888025
#
# Stress axis : x y z
#
# Youngs Moduli (GPa) = 43.27809 50.52788 128.63029
#
# Poissons Ratio (x) = 0.35950 -0.08166
# Poissons Ratio (y) = 0.30792 0.56800
# Poissons Ratio (z) = -0.02748 0.22312
#
# Static dielectric constant tensor:
#      x y z
#    x 2.165820 0.062250 0.049590 
#    y 0.062250 2.135310 0.068460 
#    z 0.049590 0.068460 2.027900 
# 
# From -- ./inp_files/118468.got.cif
#   From: 2010.05.17/outbox.cif.g08.bks.cpg/sg2_60_cif.got.tgz:118468.got - 2010.06.03 11:33:40.
