data_PCOD9021476
_publ_section_title
;
Structure prediction by ZEFSAII (Michael W. Deem and Ramdas Pophale) SiO2 
 PCOD9021476
Probable space group: P -1
;
_chemical_formula_sum "Si O2"
_cell_formula_units_Z 16
_cell_length_a 8.077147
_cell_length_b 17.071957
_cell_length_c 8.043194
_cell_angle_alpha 85.301724
_cell_angle_beta 125.033422
_cell_angle_gamma 63.880709
_cell_volume 726.048294
_symmetry_space_group_name_H-M "P -1"
_symmetry_group_IT_number 2
_symmetry_cell_setting 'triclinic'
loop_
_space_group_symop_operation_xyz
x,y,z
-x,-y,-z
loop_
_atom_site_type_symbol
_atom_site_label
_atom_site_fract_x
_atom_site_fract_y
_atom_site_fract_z
Si Si1 0.488806 0.087703 0.891964
Si Si2 0.425227 0.392887 0.548846
Si Si3 0.977934 0.256312 0.019000
Si Si4 0.745488 0.956838 0.761519
Si Si5 0.434825 0.543088 0.716198
Si Si6 0.861092 0.097039 0.292506
Si Si7 0.006802 0.581052 0.894336
Si Si8 0.950799 0.244354 0.400925
O O1 0.215064 0.175284 0.657383
O O2 0.669023 0.036451 0.843458
O O3 0.599175 0.125167 0.073780
O O4 0.500000 0.000000 0.000000
O O5 0.345212 0.476817 0.624221
O O6 0.488265 0.428451 0.413627
O O7 0.211075 0.379347 0.377705
O O8 0.698050 0.300034 0.785912
O O9 0.990066 0.248160 0.227305
O O10 0.168693 0.145417 0.087254
O O11 0.035969 0.335583 0.018065
O O12 0.963289 0.930490 0.763569
O O13 0.500000 0.000000 0.500000
O O14 0.223159 0.646576 0.652956
O O15 0.700223 0.476679 0.980883
O O16 0.829689 0.185925 0.355078
O O17 0.000000 0.000000 0.500000
O O18 0.000000 0.500000 0.000000
#
# Coordination Sequence:
#
# PCOD9021476 Si02
#       8
#     2   2   2   2   2   2   2   2
#     4  12  24  44  65  94 136 178 220 274 333 391
#     4   9  19  38  62  89 119 156 213 256 321 388
#     4  10  22  38  62  89 127 161 208 263 321 381
#     4  11  22  45  66  95 135 176 216 275 329 388
#     4   9  20  39  61  87 123 160 201 269 315 382
#     4  11  23  44  64  92 131 173 225 270 323 393
#     4   9  19  40  60  91 123 157 211 261 318 388
#     4  11  24  42  59  94 131 163 220 265 334 386
#
# _framework density 22.037101
#
# number of rings (size 3 to 8) (size 9 to 14) (size 15 to 20)
#    0.000    1.750    3.750    1.125    1.750    5.000 
#   11.250    1.250    0.000    0.000    0.000    0.000 
#    0.000    0.000    0.000    0.000    0.000    0.000 
#
# Total GULP energy -89370.952644 kJ/mol
# GULP energy per Si atom -5585.684540 kJ/mol
# Density = 2.198694 g / cm^3
# Si number density = 22.037101 Si / 1000 Ang^3
#
#
#
# Elastic Constant Matrix: (Units=GPa)
#
#
# Indices 1 2 3 4 5 6 
#
# 1 45.9868 12.2800 20.3394 -0.3198 6.9654 5.7023
# 2 12.2800 127.2117 54.8399 -12.9024 24.2960 -1.6392
# 3 20.3394 54.8399 191.5438 -3.9585 37.9600 8.9931
# 4 -0.3198 -12.9024 -3.9585 33.8649 8.0272 -1.5223
# 5 6.9654 24.2960 37.9600 8.0272 37.3294 -1.2521
# 6 5.7023 -1.6392 8.9931 -1.5223 -1.2521 24.4253
#
#
#
# Elastic Compliance Matrix: (Units=1/GPa)
#
#
# Indices 1 2 3 4 5 6 
#
# 1 0.023726 -0.001319 -0.001459 -0.000156 -0.002226 -0.005214
# 2 -0.001319 0.010370 -0.001624 0.005225 -0.005921 0.001624
# 3 -0.001459 -0.001624 0.007296 0.001649 -0.006535 -0.002687
# 4 -0.000156 0.005225 0.001649 0.034726 -0.012472 0.001305
# 5 -0.002226 -0.005921 -0.006535 -0.012472 0.040513 0.003828
# 6 -0.005214 0.001624 -0.002687 0.001305 0.003828 0.043534
#
#
# Mechanical properties :
#
#
# Convention : Reuss Voigt Hill
#
# Bulk Modulus (GPa) = 30.68619 59.96232 45.32425
# Shear Modulus (GPa) = 27.80388 37.60944 32.70666
#
# Velocity S-wave (km/s) = 3.55587 4.13563 3.85666
# Velocity P-wave (km/s) = 5.55104 7.07626 6.35954
#
# Compressibility (1/GPa) = 0.03258795
#
# Stress axis : x y z
#
# Youngs Moduli (GPa) = 42.14866 96.43211 137.06567
#
# Poissons Ratio (x) = 0.12721 0.19996
# Poissons Ratio (y) = 0.05560 0.22255
# Poissons Ratio (z) = 0.06149 0.15658
#
# Static dielectric constant tensor:
#      x y z
#    x 1.853480 0.020690 -0.025020 
#    y 0.020690 1.845190 0.003800 
#    z -0.025020 0.003800 1.812810 
# 
# From -- ./inp_files/215201.got.cif
#   From: 2010.05.17/outbox.cif.g08.bks.cpg/sg2_108_cif.got.tgz:215201.got - 2010.06.03 11:33:40.
