data_PCOD9021017
_publ_section_title
;
Structure prediction by ZEFSAII (Michael W. Deem and Ramdas Pophale) SiO2 
 PCOD9021017
Probable space group: P -1
;
_chemical_formula_sum "Si O2"
_cell_formula_units_Z 14
_cell_length_a 9.899917
_cell_length_b 11.956968
_cell_length_c 17.223513
_cell_angle_alpha 33.299193
_cell_angle_beta 74.821933
_cell_angle_gamma 101.940006
_cell_volume 643.155028
_symmetry_space_group_name_H-M "P -1"
_symmetry_group_IT_number 2
_symmetry_cell_setting 'triclinic'
loop_
_space_group_symop_operation_xyz
x,y,z
-x,-y,-z
loop_
_atom_site_type_symbol
_atom_site_label
_atom_site_fract_x
_atom_site_fract_y
_atom_site_fract_z
Si Si1 0.138400 0.394381 0.837679
Si Si2 0.310157 0.372631 0.205071
Si Si3 0.715052 0.340671 0.496958
Si Si4 0.821118 0.010686 0.711853
Si Si5 0.797182 0.744298 0.380032
Si Si6 0.378397 0.112583 0.574550
Si Si7 0.049193 0.741000 0.708571
O O1 0.116828 0.355656 0.769449
O O2 0.410259 0.640903 0.663349
O O3 0.113956 0.605520 0.737074
O O4 0.962872 0.072080 0.107657
O O5 0.225595 0.160697 0.262167
O O6 0.206928 0.479238 0.149883
O O7 0.201604 0.112554 0.440739
O O8 0.588168 0.700468 0.977260
O O9 0.679740 0.440133 0.518912
O O10 0.470262 0.040103 0.659547
O O11 0.824269 0.253838 0.553086
O O12 0.042894 0.184349 0.622690
O O13 0.628017 0.696373 0.480955
O O14 0.129508 0.805496 0.747943
#
# Coordination Sequence:
#
# PCOD9021017 Si02
#       7
#     2   2   2   2   2   2   2
#     4  10  24  38  66  93 126 162 207 257 315 362
#     4  10  22  37  64  92 129 159 208 260 313 376
#     4  10  24  43  62  90 132 164 209 257 303 372
#     4  11  22  42  63  93 122 169 208 254 314 369
#     4  12  23  43  65  92 129 167 210 254 305 375
#     4  10  23  39  65  93 125 162 208 258 313 359
#     4  11  20  41  63  93 130 159 203 268 316 365
#
# _framework density 21.767690999999999
#
# number of rings (size 3 to 8) (size 9 to 14) (size 15 to 20)
#    0.857    0.571    2.857    2.571    2.000    2.857 
#    0.000    0.000    0.000    3.429    0.000    0.000 
#    0.000    0.000    0.000    0.000    0.000    0.000 
#
# Total GULP energy -78103.486597 kJ/mol
# GULP energy per Si atom -5578.820471 kJ/mol
# Density = 2.171815 g / cm^3
# Si number density = 21.767691 Si / 1000 Ang^3
#
#
#
# Elastic Constant Matrix: (Units=GPa)
#
#
# Indices 1 2 3 4 5 6 
#
# 1 137.2337 26.4970 16.6748 2.6418 9.3453 -13.2827
# 2 26.4970 72.7567 -17.6515 0.1241 3.3925 -18.5900
# 3 16.6748 -17.6515 37.1420 5.2924 18.8194 5.0274
# 4 2.6418 0.1241 5.2924 10.2597 3.5921 -3.9204
# 5 9.3453 3.3925 18.8194 3.5921 26.6369 3.5388
# 6 -13.2827 -18.5900 5.0274 -3.9204 3.5388 34.2722
#
#
#
# Elastic Compliance Matrix: (Units=1/GPa)
#
#
# Indices 1 2 3 4 5 6 
#
# 1 0.009276 -0.005106 -0.008636 0.001846 0.002983 0.001996
# 2 -0.005106 0.024124 0.021412 -0.000088 -0.017697 0.009783
# 3 -0.008636 0.021412 0.065261 -0.015801 -0.043863 0.001416
# 4 0.001846 -0.000088 -0.015801 0.114027 -0.007076 0.016760
# 5 0.002983 -0.017697 -0.043863 -0.007076 0.072056 -0.010258
# 6 0.001996 0.009783 0.001416 0.016760 -0.010258 0.038027
#
#
# Mechanical properties :
#
#
# Convention : Reuss Voigt Hill
#
# Bulk Modulus (GPa) = 8.77178 33.13034 20.95106
# Shear Modulus (GPa) = 14.47470 29.00790 21.74130
#
# Velocity S-wave (km/s) = 2.58148 3.65446 3.16379
# Velocity P-wave (km/s) = 3.59498 5.74976 4.79498
#
# Compressibility (1/GPa) = 0.11400191
#
# Stress axis : x y z
#
# Youngs Moduli (GPa) = 107.79981 41.45335 15.32305
#
# Poissons Ratio (x) = 0.21165 0.13233
# Poissons Ratio (y) = 0.55040 -0.32810
# Poissons Ratio (z) = 0.93093 -0.88760
#
# Static dielectric constant tensor:
#      x y z
#    x 1.787060 0.006790 -0.025240 
#    y 0.006790 1.790760 0.021670 
#    z -0.025240 0.021670 1.844430 
# 
# From -- ./inp_files/277268.got.cif
#   From: 2010.05.17/outbox.cif.g08.bks.cpg/sg2_139_cif.got.tgz:277268.got - 2010.06.03 11:33:40.
