data_PCOD9021792
_publ_section_title
;
Structure prediction by ZEFSAII (Michael W. Deem and Ramdas Pophale) SiO2 
 PCOD9021792
Probable space group: P -1
;
_chemical_formula_sum "Si O2"
_cell_formula_units_Z 10
_cell_length_a 15.785299
_cell_length_b 5.637740
_cell_length_c 9.496409
_cell_angle_alpha 137.151283
_cell_angle_beta 46.531915
_cell_angle_gamma 132.559824
_cell_volume 390.974650
_symmetry_space_group_name_H-M "P -1"
_symmetry_group_IT_number 2
_symmetry_cell_setting 'triclinic'
loop_
_space_group_symop_operation_xyz
x,y,z
-x,-y,-z
loop_
_atom_site_type_symbol
_atom_site_label
_atom_site_fract_x
_atom_site_fract_y
_atom_site_fract_z
Si Si1 0.360330 0.297107 0.512700
Si Si2 0.573304 0.330124 0.948592
Si Si3 0.784887 0.650538 0.031682
Si Si4 0.961160 0.861588 0.698160
Si Si5 0.800774 0.828991 0.605179
O O1 0.500000 0.500000 0.500000
O O2 0.320563 0.399399 0.447666
O O3 0.356473 0.878670 0.318127
O O4 0.255326 0.310378 0.747936
O O5 0.666861 0.653057 0.075604
O O6 0.500000 0.500000 0.000000
O O7 0.500000 0.000000 0.000000
O O8 0.909369 0.925502 0.936409
O O9 0.789899 0.238052 0.819675
O O10 0.847691 0.766423 0.676925
O O11 0.000000 0.500000 0.500000
O O12 0.082070 0.162165 0.623009
#
# Coordination Sequence:
#
# PCOD9021792 Si02
#       5
#     2   2   2   2   2
#     4  11  23  42  65 102 135 177 226 278 344 409
#     4  11  25  45  67  96 141 186 228 282 341 408
#     4  10  22  38  65  95 131 173 226 278 337 403
#     4   9  19  41  65  90 125 177 222 276 341 399
#     4   9  21  41  65  91 133 173 221 281 339 404
#
# _framework density 25.577107999999999
#
# number of rings (size 3 to 8) (size 9 to 14) (size 15 to 20)
#    0.000    2.000    2.000    0.000    5.600    1.600 
#    3.600    9.000    0.000    0.000    0.000    0.000 
#    0.000    0.000    0.000    0.000    0.000    0.000 
#
# Total GULP energy -55825.149254 kJ/mol
# GULP energy per Si atom -5582.514925 kJ/mol
# Density = 2.551889 g / cm^3
# Si number density = 25.577108 Si / 1000 Ang^3
#
#
#
# Elastic Constant Matrix: (Units=GPa)
#
#
# Indices 1 2 3 4 5 6 
#
# 1 209.2093 28.3506 24.5905 1.1352 8.9394 -28.8883
# 2 28.3506 48.1266 33.6238 -21.7781 -5.8858 -3.8333
# 3 24.5905 33.6238 153.9943 -32.7960 9.3259 -7.8036
# 4 1.1352 -21.7781 -32.7960 45.0019 -2.6826 -2.7378
# 5 8.9394 -5.8858 9.3259 -2.6826 32.7071 -1.3620
# 6 -28.8883 -3.8333 -7.8036 -2.7378 -1.3620 37.6507
#
#
#
# Elastic Compliance Matrix: (Units=1/GPa)
#
#
# Indices 1 2 3 4 5 6 
#
# 1 0.006068 -0.004539 -0.000132 -0.002355 -0.002468 0.003906
# 2 -0.004539 0.034045 -0.004276 0.014084 0.009761 0.000475
# 3 -0.000132 -0.004276 0.008562 0.004095 -0.002779 0.001435
# 4 -0.002355 0.014084 0.004095 0.032551 0.004806 0.003016
# 5 -0.002468 0.009761 -0.002779 0.004806 0.034197 0.000111
# 6 0.003906 0.000475 0.001435 0.003016 0.000111 0.030126
#
#
# Mechanical properties :
#
#
# Convention : Reuss Voigt Hill
#
# Bulk Modulus (GPa) = 32.48856 64.94001 48.71428
# Shear Modulus (GPa) = 28.78472 44.72297 36.75385
#
# Velocity S-wave (km/s) = 3.35835 4.18611 3.79487
# Velocity P-wave (km/s) = 5.26952 6.98639 6.18779
#
# Compressibility (1/GPa) = 0.03078006
#
# Stress axis : x y z
#
# Youngs Moduli (GPa) = 164.79653 29.37284 116.79952
#
# Poissons Ratio (x) = 0.13332 0.01544
# Poissons Ratio (y) = 0.74800 0.49947
# Poissons Ratio (z) = 0.02178 0.12561
#
# Static dielectric constant tensor:
#      x y z
#    x 2.041080 0.014120 -0.007300 
#    y 0.014120 2.117820 -0.085280 
#    z -0.007300 -0.085280 2.030810 
# 
# From -- ./inp_files/2524.got.cif
#   From: 2010.05.17/outbox.cif.g08.bks.cpg/sg2_2_cif.got.tgz:2524.got - 2010.06.03 11:33:40.
