data_PCOD9021305
_publ_section_title
;
Structure prediction by ZEFSAII (Michael W. Deem and Ramdas Pophale) SiO2 
 PCOD9021305
Probable space group: P -1
;
_chemical_formula_sum "Si O2"
_cell_formula_units_Z 14
_cell_length_a 5.439799
_cell_length_b 18.316078
_cell_length_c 9.634262
_cell_angle_alpha 53.211997
_cell_angle_beta 129.586819
_cell_angle_gamma 115.994231
_cell_volume 589.947594
_symmetry_space_group_name_H-M "P -1"
_symmetry_group_IT_number 2
_symmetry_cell_setting 'triclinic'
loop_
_space_group_symop_operation_xyz
x,y,z
-x,-y,-z
loop_
_atom_site_type_symbol
_atom_site_label
_atom_site_fract_x
_atom_site_fract_y
_atom_site_fract_z
Si Si1 0.213373 0.461262 0.240304
Si Si2 0.942310 0.792684 0.682146
Si Si3 0.979786 0.892580 0.146434
Si Si4 0.439817 0.791641 0.244774
Si Si5 0.886709 0.364602 0.880150
Si Si6 0.534726 0.106986 0.426174
Si Si7 0.828386 0.467613 0.333825
O O1 0.346735 0.557608 0.251801
O O2 0.496907 0.417699 0.318118
O O3 0.011150 0.411983 0.347965
O O4 0.000000 0.500000 0.000000
O O5 0.691137 0.784306 0.471553
O O6 0.783611 0.852965 0.675055
O O7 0.280664 0.839356 0.694206
O O8 0.018358 0.698771 0.889102
O O9 0.138667 0.842164 0.134436
O O10 0.218907 0.880931 0.372353
O O11 0.638029 0.848801 0.129530
O O12 0.000000 0.000000 0.000000
O O13 0.283602 0.697923 0.228270
O O14 0.191213 0.433872 0.862129
O O15 0.500000 0.000000 0.500000
O O16 0.000000 0.500000 0.500000
#
# Coordination Sequence:
#
# PCOD9021305 Si02
#       7
#     2   2   2   2   2   2   2
#     4  10  23  43  66  99 131 166 220 260 329 395
#     4  10  23  40  57  91 126 161 212 264 315 372
#     4  10  22  38  60  87 121 164 212 262 317 373
#     4  10  23  40  57  91 126 161 212 264 315 372
#     4  10  26  38  72  90 132 168 214 256 336 370
#     4  10  22  38  60  87 121 164 212 262 317 373
#     4  10  23  43  66  99 131 166 220 260 329 395
#
# _framework density 23.730924000000002
#
# number of rings (size 3 to 8) (size 9 to 14) (size 15 to 20)
#    0.857    1.143    0.000    1.714    8.000    1.143 
#    0.000    0.000    0.000    0.000    0.000    0.000 
#    0.000    0.000    0.000    0.000    0.000    0.000 
#
# Total GULP energy -78169.130127 kJ/mol
# GULP energy per Si atom -5583.509295 kJ/mol
# Density = 2.367691 g / cm^3
# Si number density = 23.730924 Si / 1000 Ang^3
#
#
#
# Elastic Constant Matrix: (Units=GPa)
#
#
# Indices 1 2 3 4 5 6 
#
# 1 209.0164 43.8993 37.6526 -3.5085 -28.4266 -20.8545
# 2 43.8993 110.4740 3.5632 -7.4276 -15.3510 2.6430
# 3 37.6526 3.5632 90.5590 -5.5144 -24.3201 -4.2278
# 4 -3.5085 -7.4276 -5.5144 45.7781 6.8384 -7.6279
# 5 -28.4266 -15.3510 -24.3201 6.8384 24.0469 -0.0503
# 6 -20.8545 2.6430 -4.2278 -7.6279 -0.0503 17.3076
#
#
#
# Elastic Compliance Matrix: (Units=1/GPa)
#
#
# Indices 1 2 3 4 5 6 
#
# 1 0.007110 -0.002124 -0.000774 0.000703 0.006086 0.009030
# 2 -0.002124 0.010817 0.002010 0.000293 0.006337 -0.003572
# 3 -0.000774 0.002010 0.015804 0.000194 0.016302 0.002754
# 4 0.000703 0.000293 0.000194 0.024797 -0.005813 0.011761
# 5 0.006086 0.006337 0.016302 -0.005813 0.070983 0.007992
# 6 0.009030 -0.003572 0.002754 0.011761 0.007992 0.075083
#
#
# Mechanical properties :
#
#
# Convention : Reuss Voigt Hill
#
# Bulk Modulus (GPa) = 31.29309 64.47553 47.88431
# Shear Modulus (GPa) = 23.03934 39.08882 31.06408
#
# Velocity S-wave (km/s) = 3.11924 4.06293 3.62195
# Velocity P-wave (km/s) = 5.11743 7.01700 6.14111
#
# Compressibility (1/GPa) = 0.03195593
#
# Stress axis : x y z
#
# Youngs Moduli (GPa) = 140.64367 92.45030 63.27661
#
# Poissons Ratio (x) = 0.19632 0.04897
# Poissons Ratio (y) = 0.29866 -0.12720
# Poissons Ratio (z) = 0.10885 -0.18585
#
# Static dielectric constant tensor:
#      x y z
#    x 2.011820 -0.042780 0.005510 
#    y -0.042780 1.927950 0.030510 
#    z 0.005510 0.030510 1.917620 
# 
# From -- ./inp_files/138776.got.cif
#   From: 2010.05.17/outbox.cif.g08.bks.cpg/sg2_70_cif.got.tgz:138776.got - 2010.06.03 11:33:40.
