data_PCOD9021019
_publ_section_title
;
Structure prediction by ZEFSAII (Michael W. Deem and Ramdas Pophale) SiO2 
 PCOD9021019
Probable space group: P -1
;
_chemical_formula_sum "Si O2"
_cell_formula_units_Z 16
_cell_length_a 6.971398
_cell_length_b 17.595636
_cell_length_c 15.756271
_cell_angle_alpha 32.323267
_cell_angle_beta 48.636052
_cell_angle_gamma 64.284885
_cell_volume 737.326809
_symmetry_space_group_name_H-M "P -1"
_symmetry_group_IT_number 2
_symmetry_cell_setting 'triclinic'
loop_
_space_group_symop_operation_xyz
x,y,z
-x,-y,-z
loop_
_atom_site_type_symbol
_atom_site_label
_atom_site_fract_x
_atom_site_fract_y
_atom_site_fract_z
Si Si1 0.156294 0.284567 0.904371
Si Si2 0.577294 0.178170 0.203430
Si Si3 0.387094 0.122641 0.131443
Si Si4 0.389929 0.147867 0.477784
Si Si5 0.900916 0.218718 0.512354
Si Si6 0.485216 0.601693 0.540309
Si Si7 0.836880 0.382278 0.225731
Si Si8 0.996107 0.840762 0.113654
O O1 0.382624 0.442647 0.675294
O O2 0.116732 0.185219 0.925057
O O3 0.238489 0.205719 0.035257
O O4 0.864273 0.305301 0.989100
O O5 0.390383 0.169403 0.184851
O O6 0.442333 0.174936 0.336583
O O7 0.656472 0.024136 0.324983
O O8 0.248903 0.945885 0.325116
O O9 0.699059 0.161989 0.976694
O O10 0.652505 0.240616 0.362811
O O11 0.133839 0.202038 0.520389
O O12 0.680975 0.288824 0.548306
O O13 0.009343 0.327844 0.297009
O O14 0.371041 0.565718 0.703689
O O15 0.793978 0.700192 0.354451
O O16 0.000000 0.500000 0.000000
O O17 0.000000 0.000000 0.000000
#
# Coordination Sequence:
#
# PCOD9021019 Si02
#       8
#     2   2   2   2   2   2   2   2
#     4  11  24  43  67  96 132 167 217 275 335 374
#     4  10  22  37  64  93 133 164 221 273 317 380
#     4  11  22  43  67  97 126 175 221 266 325 396
#     4  11  21  38  64  94 125 181 218 264 320 388
#     4  10  22  40  64  92 130 174 222 257 324 394
#     4  10  23  45  63  96 139 167 213 280 318 381
#     4  10  22  41  62  88 136 169 216 260 324 381
#     4  11  23  44  71  95 131 169 222 269 323 394
#
# _framework density 21.700012000000001
#
# number of rings (size 3 to 8) (size 9 to 14) (size 15 to 20)
#    0.750    0.750    3.750    1.125    1.750    4.000 
#    6.750    0.000    0.000    0.000    0.000    0.000 
#    0.000    0.000    0.000    0.000    0.000    0.000 
#
# Total GULP energy -89323.048521 kJ/mol
# GULP energy per Si atom -5582.690533 kJ/mol
# Density = 2.165062 g / cm^3
# Si number density = 21.700012 Si / 1000 Ang^3
#
#
#
# Elastic Constant Matrix: (Units=GPa)
#
#
# Indices 1 2 3 4 5 6 
#
# 1 68.2694 6.9172 -2.8460 -4.9889 12.0300 16.3905
# 2 6.9172 59.0217 11.1865 -5.6483 4.3188 21.3916
# 3 -2.8460 11.1865 106.5067 0.7136 -6.6417 14.2263
# 4 -4.9889 -5.6483 0.7136 34.8515 6.2280 -0.1723
# 5 12.0300 4.3188 -6.6417 6.2280 23.7171 0.7834
# 6 16.3905 21.3916 14.2263 -0.1723 0.7834 23.4670
#
#
#
# Elastic Compliance Matrix: (Units=1/GPa)
#
#
# Indices 1 2 3 4 5 6 
#
# 1 0.022126 0.006638 0.002026 0.006380 -0.012804 -0.022259
# 2 0.006638 0.028499 0.000657 0.007050 -0.009211 -0.030654
# 3 0.002026 0.000657 0.010654 -0.000254 0.002185 -0.008547
# 4 0.006380 0.007050 -0.000254 0.033015 -0.012928 -0.010054
# 5 -0.012804 -0.009211 0.002185 -0.012928 0.053876 0.014121
# 6 -0.022259 -0.030654 -0.008547 -0.010054 0.014121 0.090738
#
#
# Mechanical properties :
#
#
# Convention : Reuss Voigt Hill
#
# Bulk Modulus (GPa) = 12.51246 29.36814 20.94030
# Shear Modulus (GPa) = 20.25045 30.97645 25.61345
#
# Velocity S-wave (km/s) = 3.05815 3.78231 3.43934
# Velocity P-wave (km/s) = 4.27180 5.71293 5.04410
#
# Compressibility (1/GPa) = 0.07992031
#
# Stress axis : x y z
#
# Youngs Moduli (GPa) = 45.19517 35.08874 93.86250
#
# Poissons Ratio (x) = -0.23291 -0.19016
# Poissons Ratio (y) = -0.29999 -0.06166
# Poissons Ratio (z) = -0.09156 -0.02305
#
# Static dielectric constant tensor:
#      x y z
#    x 1.768630 0.007250 -0.006580 
#    y 0.007250 1.819360 0.020390 
#    z -0.006580 0.020390 1.817200 
# 
# From -- ./inp_files/485006.got.cif
#   From: 2010.05.17/outbox.cif.g08.bks.cpg/sg2_243_cif.got.tgz:485006.got - 2010.06.03 11:33:40.
