data_PCOD9021103
_publ_section_title
;
Structure prediction by ZEFSAII (Michael W. Deem and Ramdas Pophale) SiO2 
 PCOD9021103
Probable space group: P -1
;
_chemical_formula_sum "Si O2"
_cell_formula_units_Z 16
_cell_length_a 14.426784
_cell_length_b 12.427566
_cell_length_c 9.915904
_cell_angle_alpha 36.773955
_cell_angle_beta 44.104772
_cell_angle_gamma 43.799071
_cell_volume 693.366724
_symmetry_space_group_name_H-M "P -1"
_symmetry_group_IT_number 2
_symmetry_cell_setting 'triclinic'
loop_
_space_group_symop_operation_xyz
x,y,z
-x,-y,-z
loop_
_atom_site_type_symbol
_atom_site_label
_atom_site_fract_x
_atom_site_fract_y
_atom_site_fract_z
Si Si1 0.168057 0.292233 0.263839
Si Si2 0.473581 0.311737 0.271885
Si Si3 0.050379 0.009004 0.092995
Si Si4 0.936613 0.196737 0.452990
Si Si5 0.808361 0.327979 0.179272
Si Si6 0.536182 0.793626 0.099247
Si Si7 0.531684 0.525174 0.616717
Si Si8 0.271283 0.092043 0.618315
O O1 0.167983 0.177545 0.514069
O O2 0.064800 0.269817 0.279098
O O3 0.136689 0.513336 0.100899
O O4 0.328607 0.218500 0.117277
O O5 0.408663 0.392732 0.403152
O O6 0.363041 0.231206 0.395769
O O7 0.619210 0.124452 0.307474
O O8 0.500000 0.500000 0.000000
O O9 0.910546 0.139208 0.189356
O O10 0.112987 0.836752 0.310783
O O11 0.178300 0.089466 0.849598
O O12 0.000000 0.000000 0.000000
O O13 0.831222 0.322623 0.322891
O O14 0.000000 0.000000 0.500000
O O15 0.641139 0.382109 0.274744
O O16 0.565971 0.633995 0.344752
O O17 0.438182 0.704097 0.200214
O O18 0.500000 0.000000 0.000000
#
# Coordination Sequence:
#
# PCOD9021103 Si02
#       8
#     2   2   2   2   2   2   2   2
#     4  11  22  45  67  91 137 175 222 285 342 401
#     4  11  24  46  68  97 140 180 227 288 343 405
#     4  11  22  43  68  99 137 181 227 279 338 413
#     4  10  23  40  65  96 131 175 221 275 338 402
#     4  10  23  42  67  97 138 176 221 280 345 400
#     4  10  22  37  67  93 122 174 221 273 341 395
#     4  10  22  42  62  97 133 172 222 278 341 406
#     4  11  25  44  70 103 133 183 234 278 345 415
#
# _framework density 23.075811000000002
#
# number of rings (size 3 to 8) (size 9 to 14) (size 15 to 20)
#    0.000    1.500    1.250    3.375    5.250    3.500 
#   13.500    0.000    0.000    0.000    0.000    0.000 
#    0.000    0.000    0.000    0.000    0.000    0.000 
#
# Total GULP energy -89173.441760 kJ/mol
# GULP energy per Si atom -5573.340110 kJ/mol
# Density = 2.302329 g / cm^3
# Si number density = 23.075811 Si / 1000 Ang^3
#
#
#
# Elastic Constant Matrix: (Units=GPa)
#
#
# Indices 1 2 3 4 5 6 
#
# 1 94.3783 34.4694 24.9066 -12.5967 8.5385 18.7140
# 2 34.4694 88.1625 24.1641 -19.8833 -0.8151 19.5617
# 3 24.9066 24.1641 137.4366 -1.4114 0.9155 10.9016
# 4 -12.5967 -19.8833 -1.4114 42.0330 9.9009 -0.8250
# 5 8.5385 -0.8151 0.9155 9.9009 30.4483 1.4626
# 6 18.7140 19.5617 10.9016 -0.8250 1.4626 27.5382
#
#
#
# Elastic Compliance Matrix: (Units=1/GPa)
#
#
# Indices 1 2 3 4 5 6 
#
# 1 0.014352 -0.002863 -0.001489 0.003946 -0.005016 -0.006746
# 2 -0.002863 0.016382 -0.001588 0.006780 -0.000491 -0.008833
# 3 -0.001489 -0.001588 0.007893 -0.001080 0.000539 -0.001046
# 4 0.003946 0.006780 -0.001080 0.030519 -0.010548 -0.005596
# 5 -0.005016 -0.000491 0.000539 -0.010548 0.037590 0.001232
# 6 -0.006746 -0.008833 -0.001046 -0.005596 0.001232 0.047353
#
#
# Mechanical properties :
#
#
# Convention : Reuss Voigt Hill
#
# Bulk Modulus (GPa) = 37.38547 54.11752 45.75149
# Shear Modulus (GPa) = 28.59019 35.76637 32.17828
#
# Velocity S-wave (km/s) = 3.52372 3.94121 3.73830
# Velocity P-wave (km/s) = 5.72641 6.64935 6.20506
#
# Compressibility (1/GPa) = 0.02674836
#
# Stress axis : x y z
#
# Youngs Moduli (GPa) = 69.67599 61.04305 126.68937
#
# Poissons Ratio (x) = 0.17477 0.18858
# Poissons Ratio (y) = 0.19949 0.20116
# Poissons Ratio (z) = 0.10372 0.09693
#
# Static dielectric constant tensor:
#      x y z
#    x 1.945770 0.014840 0.042140 
#    y 0.014840 1.885390 0.028370 
#    z 0.042140 0.028370 1.909440 
# 
# From -- ./inp_files/306132.got.cif
#   From: 2010.05.17/outbox.cif.g08.bks.cpg/sg2_154_cif.got.tgz:306132.got - 2010.06.03 11:33:40.
