data_PCOD9021657
_publ_section_title
;
Structure prediction by ZEFSAII (Michael W. Deem and Ramdas Pophale) SiO2 
 PCOD9021657
Probable space group: P -1
;
_chemical_formula_sum "Si O2"
_cell_formula_units_Z 14
_cell_length_a 12.725169
_cell_length_b 11.438650
_cell_length_c 7.989213
_cell_angle_alpha 113.912872
_cell_angle_beta 120.703506
_cell_angle_gamma 114.827464
_cell_volume 551.457493
_symmetry_space_group_name_H-M "P -1"
_symmetry_group_IT_number 2
_symmetry_cell_setting 'triclinic'
loop_
_space_group_symop_operation_xyz
x,y,z
-x,-y,-z
loop_
_atom_site_type_symbol
_atom_site_label
_atom_site_fract_x
_atom_site_fract_y
_atom_site_fract_z
Si Si1 0.136406 0.779436 0.268693
Si Si2 0.494207 0.924172 0.635724
Si Si3 0.069964 0.167051 0.284111
Si Si4 0.382537 0.235898 0.723127
Si Si5 0.288085 0.502234 0.119812
Si Si6 0.211033 0.154359 0.864191
Si Si7 0.950773 0.344385 0.242999
O O1 0.321571 0.860508 0.552226
O O2 0.235206 0.995671 0.411782
O O3 0.065414 0.643457 0.965075
O O4 0.945818 0.653025 0.154821
O O5 0.414759 0.713539 0.443762
O O6 0.500000 0.000000 0.500000
O O7 0.723255 0.122378 0.988082
O O8 0.272007 0.272323 0.588728
O O9 0.088767 0.331179 0.348530
O O10 0.875830 0.003235 0.153203
O O11 0.000000 0.000000 0.000000
O O12 0.599566 0.401764 0.911614
O O13 0.369231 0.227063 0.906801
O O14 0.290252 0.359058 0.104461
O O15 0.000000 0.000000 0.500000
O O16 0.000000 0.500000 0.500000
#
# Coordination Sequence:
#
# PCOD9021657 Si02
#       7
#     2   2   2   2   2   2   2
#     4  11  22  44  72 103 139 188 243 292 356 429
#     4  10  22  42  69  99 137 189 241 288 351 433
#     4  11  20  44  72  97 148 185 229 297 358 429
#     4  11  22  41  69 105 140 179 245 291 354 424
#     4  12  20  41  70 102 141 184 234 296 361 409
#     4  10  22  38  64 107 135 179 237 295 348 423
#     4  11  24  47  72 104 147 190 238 301 361 427
#
# _framework density 25.387269
#
# number of rings (size 3 to 8) (size 9 to 14) (size 15 to 20)
#    0.000    1.143    7.143    0.857    0.000    4.571 
#    5.143    7.143    0.000    0.000    0.000    1.000 
#    0.000    0.000    0.000    0.000    0.000    0.000 
#
# Total GULP energy -78253.907620 kJ/mol
# GULP energy per Si atom -5589.564830 kJ/mol
# Density = 2.532949 g / cm^3
# Si number density = 25.387269 Si / 1000 Ang^3
#
#
#
# Elastic Constant Matrix: (Units=GPa)
#
#
# Indices 1 2 3 4 5 6 
#
# 1 172.8758 29.3920 58.2198 2.7368 16.9981 13.4233
# 2 29.3920 51.5206 19.4977 11.7405 6.5406 -1.1358
# 3 58.2198 19.4977 96.7634 26.8706 0.7631 -9.2883
# 4 2.7368 11.7405 26.8706 34.8575 3.2814 3.0353
# 5 16.9981 6.5406 0.7631 3.2814 49.0823 30.0624
# 6 13.4233 -1.1358 -9.2883 3.0353 30.0624 54.5823
#
#
#
# Elastic Compliance Matrix: (Units=1/GPa)
#
#
# Indices 1 2 3 4 5 6 
#
# 1 0.008898 -0.003936 -0.006539 0.006032 -0.000877 -0.003235
# 2 -0.003936 0.023959 0.000136 -0.007860 -0.003752 0.003993
# 3 -0.006539 0.000136 0.018864 -0.014528 -0.000790 0.006064
# 4 0.006032 -0.007860 -0.014528 0.042605 0.000468 -0.006746
# 5 -0.000877 -0.003752 -0.000790 0.000468 0.031951 -0.017621
# 6 -0.003235 0.003993 0.006064 -0.006746 -0.017621 0.030312
#
#
# Mechanical properties :
#
#
# Convention : Reuss Voigt Hill
#
# Bulk Modulus (GPa) = 32.21353 59.48655 45.85004
# Shear Modulus (GPa) = 26.65031 41.97442 34.31236
#
# Velocity S-wave (km/s) = 3.24350 4.07057 3.68034
# Velocity P-wave (km/s) = 5.17141 6.75094 6.01326
#
# Compressibility (1/GPa) = 0.03104285
#
# Stress axis : x y z
#
# Youngs Moduli (GPa) = 112.38587 41.73755 53.01038
#
# Poissons Ratio (x) = 0.16428 0.34665
# Poissons Ratio (y) = 0.44236 -0.00721
# Poissons Ratio (z) = 0.73493 -0.00568
#
# Static dielectric constant tensor:
#      x y z
#    x 2.067440 0.011310 -0.036420 
#    y 0.011310 2.085520 -0.008350 
#    z -0.036420 -0.008350 2.018290 
# 
# From -- ./inp_files/308155.got.cif
#   From: 2010.05.17/outbox.cif.g08.bks.cpg/sg2_155_cif.got.tgz:308155.got - 2010.06.03 11:33:40.
