data_PCOD9021433
_publ_section_title
;
Structure prediction by ZEFSAII (Michael W. Deem and Ramdas Pophale) SiO2 
 PCOD9021433
Probable space group: P -1
;
_chemical_formula_sum "Si O2"
_cell_formula_units_Z 14
_cell_length_a 6.900736
_cell_length_b 8.709626
_cell_length_c 16.242609
_cell_angle_alpha 68.340620
_cell_angle_beta 88.598724
_cell_angle_gamma 44.695727
_cell_volume 594.375140
_symmetry_space_group_name_H-M "P -1"
_symmetry_group_IT_number 2
_symmetry_cell_setting 'triclinic'
loop_
_space_group_symop_operation_xyz
x,y,z
-x,-y,-z
loop_
_atom_site_type_symbol
_atom_site_label
_atom_site_fract_x
_atom_site_fract_y
_atom_site_fract_z
Si Si1 0.748945 0.820973 0.626025
Si Si2 0.654086 0.260367 0.601852
Si Si3 0.167241 0.331212 0.166203
Si Si4 0.708819 0.102052 0.800018
Si Si5 0.492410 0.198568 0.960768
Si Si6 0.370536 0.731130 0.900669
Si Si7 0.137901 0.060563 0.540882
O O1 0.896818 0.652537 0.739233
O O2 0.932224 0.736232 0.557127
O O3 0.639024 0.079931 0.602536
O O4 0.480952 0.872812 0.593067
O O5 0.500000 0.500000 0.500000
O O6 0.573381 0.301751 0.690188
O O7 0.987197 0.117452 0.617656
O O8 0.373408 0.355145 0.140734
O O9 0.855941 0.534561 0.081580
O O10 0.348506 0.053281 0.189613
O O11 0.608912 0.200002 0.874242
O O12 0.064020 0.888248 0.830217
O O13 0.693236 0.106498 0.055224
O O14 0.500000 0.000000 0.000000
O O15 0.500000 0.500000 0.000000
O O16 0.000000 0.000000 0.500000
#
# Coordination Sequence:
#
# PCOD9021433 Si02
#       7
#     2   2   2   2   2   2   2
#     4   9  20  38  63  89 121 169 211 261 321 387
#     4  10  22  38  61  92 132 163 209 267 324 383
#     4  11  23  42  65  94 133 171 216 269 333 391
#     4  11  24  43  65  98 133 173 222 271 327 395
#     4  12  24  43  67  95 133 169 220 274 326 392
#     4  12  23  43  69  94 133 177 216 273 337 388
#     4   9  18  38  61  87 120 161 213 257 311 380
#
# _framework density 23.554148000000001
#
# number of rings (size 3 to 8) (size 9 to 14) (size 15 to 20)
#    0.000    1.429    2.857    2.571    2.000    0.571 
#    0.000    5.714    0.000    0.000    0.000    0.000 
#    0.000    0.000    0.000    0.000    0.000    0.000 
#
# Total GULP energy -78018.254685 kJ/mol
# GULP energy per Si atom -5572.732478 kJ/mol
# Density = 2.350054 g / cm^3
# Si number density = 23.554148 Si / 1000 Ang^3
#
#
#
# Elastic Constant Matrix: (Units=GPa)
#
#
# Indices 1 2 3 4 5 6 
#
# 1 118.4374 -3.7925 27.0862 -8.3052 -14.1677 -10.6767
# 2 -3.7925 12.7163 8.5066 1.7741 -14.3922 -3.7748
# 3 27.0862 8.5066 137.9253 9.1402 -18.3139 -10.8617
# 4 -8.3052 1.7741 9.1402 39.9712 -8.9967 -4.7469
# 5 -14.1677 -14.3922 -18.3139 -8.9967 38.1524 3.0061
# 6 -10.6767 -3.7748 -10.8617 -4.7469 3.0061 30.9361
#
#
#
# Elastic Compliance Matrix: (Units=1/GPa)
#
#
# Indices 1 2 3 4 5 6 
#
# 1 0.011593 0.017992 -0.001851 0.005135 0.010999 0.005265
# 2 0.017992 0.171834 -0.003990 0.015662 0.071608 0.021221
# 3 -0.001851 -0.003990 0.008247 -0.001642 0.001269 0.001394
# 4 0.005135 0.015662 -0.001642 0.029555 0.013497 0.006330
# 5 0.010999 0.071608 0.001269 0.013497 0.060376 0.009183
# 6 0.005265 0.021221 0.001394 0.006330 0.009183 0.037300
#
#
# Mechanical properties :
#
#
# Convention : Reuss Voigt Hill
#
# Bulk Modulus (GPa) = 4.63015 36.96439 20.79727
# Shear Modulus (GPa) = 13.63901 37.63054 25.63478
#
# Velocity S-wave (km/s) = 2.40895 4.00136 3.30257
# Velocity P-wave (km/s) = 3.11568 6.08895 4.83646
#
# Compressibility (1/GPa) = 0.21597550
#
# Stress axis : x y z
#
# Youngs Moduli (GPa) = 86.25659 5.81958 121.25444
#
# Poissons Ratio (x) = -0.10470 0.22450
# Poissons Ratio (y) = -1.55191 0.48377
# Poissons Ratio (z) = 0.15970 0.02322
#
# Static dielectric constant tensor:
#      x y z
#    x 1.750800 -0.083200 -0.037220 
#    y -0.083200 2.013420 0.010160 
#    z -0.037220 0.010160 1.894220 
# 
# From -- ./inp_files/547730.got.cif
#   From: 2010.05.17/outbox.cif.g08.bks.cpg/sg2_274_cif.got.tgz:547730.got - 2010.06.03 11:33:40.
