data_PCOD9021971
_publ_section_title
;
Structure prediction by ZEFSAII (Michael W. Deem and Ramdas Pophale) SiO2 
 PCOD9021971
Probable space group: P -1
;
_chemical_formula_sum "Si O2"
_cell_formula_units_Z 16
_cell_length_a 26.252779
_cell_length_b 21.349630
_cell_length_c 14.685577
_cell_angle_alpha 159.173741
_cell_angle_beta 18.791484
_cell_angle_gamma 158.446164
_cell_volume 866.049588
_symmetry_space_group_name_H-M "P -1"
_symmetry_group_IT_number 2
_symmetry_cell_setting 'triclinic'
loop_
_space_group_symop_operation_xyz
x,y,z
-x,-y,-z
loop_
_atom_site_type_symbol
_atom_site_label
_atom_site_fract_x
_atom_site_fract_y
_atom_site_fract_z
Si Si1 0.256292 0.209781 0.329079
Si Si2 0.937179 0.144374 0.508802
Si Si3 0.591736 0.449163 0.187687
Si Si4 0.237897 0.601256 0.866570
Si Si5 0.638580 0.792276 0.444627
Si Si6 0.022248 0.898289 0.183930
Si Si7 0.913254 0.463220 0.759438
Si Si8 0.118458 0.217631 0.121187
O O1 0.446328 0.289359 0.157327
O O2 0.232413 0.390999 0.567847
O O3 0.127441 0.148224 0.549762
O O4 0.197799 0.032123 0.118503
O O5 0.091595 0.231470 0.292942
O O6 0.769042 0.999465 0.540492
O O7 0.878498 0.309637 0.868855
O O8 0.983040 0.020046 0.336685
O O9 0.500000 0.500000 0.500000
O O10 0.661073 0.640888 0.270989
O O11 0.747754 0.395758 0.882717
O O12 0.437239 0.746409 0.723540
O O13 0.166623 0.577395 0.058494
O O14 0.698498 0.750760 0.187880
O O15 0.011515 0.691438 0.890538
O O16 0.038762 0.353209 0.390599
O O17 0.000000 0.000000 0.000000
#
# Coordination Sequence:
#
# PCOD9021971 Si02
#       8
#     2   2   2   2   2   2   2   2
#     4   9  19  31  49  80 109 127 167 218 252 295
#     4  10  18  31  50  76 104 138 169 202 256 307
#     4  11  16  31  55  80 102 129 170 214 258 297
#     4   9  18  30  52  75 104 134 164 209 257 296
#     4  10  17  31  50  76 107 130 171 215 253 291
#     4  10  18  32  52  76 108 134 168 207 258 303
#     4  10  18  33  55  78 101 136 166 210 261 300
#     4   9  21  35  47  79 107 133 168 216 249 303
#
# _framework density 18.474692999999998
#
# number of rings (size 3 to 8) (size 9 to 14) (size 15 to 20)
#    0.000    2.250    5.000    0.375    0.000    1.000 
#    0.000    0.000    0.000    6.000    0.000    0.000 
#    0.000    0.000    0.000    0.000    0.000    0.000 
#
# Total GULP energy -89162.982338 kJ/mol
# GULP energy per Si atom -5572.686396 kJ/mol
# Density = 1.843264 g / cm^3
# Si number density = 18.474693 Si / 1000 Ang^3
#
#
#
# Elastic Constant Matrix: (Units=GPa)
#
#
# Indices 1 2 3 4 5 6 
#
# 1 51.2687 35.5692 33.3972 15.4280 -15.5370 0.4720
# 2 35.5692 71.7996 25.2111 9.4547 -2.3793 2.5575
# 3 33.3972 25.2111 67.1294 12.4481 -12.5332 -0.4134
# 4 15.4280 9.4547 12.4481 23.7741 -12.1130 3.3821
# 5 -15.5370 -2.3793 -12.5332 -12.1130 17.0400 2.9707
# 6 0.4720 2.5575 -0.4134 3.3821 2.9707 35.2506
#
#
#
# Elastic Compliance Matrix: (Units=1/GPa)
#
#
# Indices 1 2 3 4 5 6 
#
# 1 0.052635 -0.020610 -0.011478 -0.001156 0.036250 -0.002288
# 2 -0.020610 0.024939 -0.001903 -0.006695 -0.021628 0.000909
# 3 -0.011478 -0.001903 0.022449 -0.001031 0.005007 0.000232
# 4 -0.001156 -0.006695 -0.001031 0.073922 0.051711 -0.010961
# 5 0.036250 -0.021628 0.005007 0.051711 0.131762 -0.014923
# 6 -0.002288 0.000909 0.000232 -0.010961 -0.014923 0.030645
#
#
# Mechanical properties :
#
#
# Convention : Reuss Voigt Hill
#
# Bulk Modulus (GPa) = 31.21009 42.06143 36.63576
# Shear Modulus (GPa) = 12.04780 21.61427 16.83104
#
# Velocity S-wave (km/s) = 2.55644 3.42415 3.02161
# Velocity P-wave (km/s) = 5.06399 6.20077 5.66099
#
# Compressibility (1/GPa) = 0.03204092
#
# Stress axis : x y z
#
# Youngs Moduli (GPa) = 18.99872 40.09851 44.54530
#
# Poissons Ratio (x) = 0.82643 0.51128
# Poissons Ratio (y) = 0.39156 0.08477
# Poissons Ratio (z) = 0.21806 0.07631
#
# Static dielectric constant tensor:
#      x y z
#    x 1.649170 -0.010280 0.019520 
#    y -0.010280 1.650600 0.013860 
#    z 0.019520 0.013860 1.653450 
# 
# From -- ./inp_files/200247.got.cif
#   From: 2010.05.17/outbox.cif.g08.bks.cpg/sg2_101_cif.got.tgz:200247.got - 2010.06.03 11:33:40.
