data_PCOD9021762
_publ_section_title
;
Structure prediction by ZEFSAII (Michael W. Deem and Ramdas Pophale) SiO2 
 PCOD9021762
Probable space group: P -1
;
_chemical_formula_sum "Si O2"
_cell_formula_units_Z 14
_cell_length_a 9.070178
_cell_length_b 28.980255
_cell_length_c 22.155086
_cell_angle_alpha 16.491113
_cell_angle_beta 25.380914
_cell_angle_gamma 36.779020
_cell_volume 597.667759
_symmetry_space_group_name_H-M "P -1"
_symmetry_group_IT_number 2
_symmetry_cell_setting 'triclinic'
loop_
_space_group_symop_operation_xyz
x,y,z
-x,-y,-z
loop_
_atom_site_type_symbol
_atom_site_label
_atom_site_fract_x
_atom_site_fract_y
_atom_site_fract_z
Si Si1 0.594947 0.682592 0.068319
Si Si2 0.918749 0.364157 0.144057
Si Si3 0.519771 0.956461 0.668405
Si Si4 0.764293 0.591080 0.714857
Si Si5 0.882609 0.816030 0.492157
Si Si6 0.930248 0.064295 0.595585
Si Si7 0.663415 0.392211 0.613743
O O1 0.690625 0.568452 0.127201
O O2 0.049957 0.851603 0.711012
O O3 0.422941 0.796914 0.954344
O O4 0.333989 0.566432 0.368387
O O5 0.565411 0.356037 0.246233
O O6 0.801859 0.159999 0.471789
O O7 0.000000 0.500000 0.000000
O O8 0.195447 0.016255 0.704660
O O9 0.632479 0.892570 0.644119
O O10 0.063148 0.756519 0.444710
O O11 0.938136 0.570487 0.613786
O O12 0.553813 0.384123 0.084223
O O13 0.073482 0.853936 0.440285
O O14 0.640470 0.837060 0.991081
O O15 0.500000 0.500000 0.500000
#
# Coordination Sequence:
#
# PCOD9021762 Si02
#       7
#     2   2   2   2   2   2   2
#     4   9  19  38  60  86 120 165 201 255 307 361
#     4  11  21  41  67  93 123 164 215 254 297 380
#     4   9  17  34  62  87 114 159 215 246 296 367
#     4  11  24  38  65  94 125 167 205 255 319 364
#     4  11  21  38  64  93 121 163 217 254 298 374
#     4  10  22  38  65  92 124 165 206 257 307 365
#     4  11  25  42  62  91 132 163 202 261 322 364
#
# _framework density 23.424388
#
# number of rings (size 3 to 8) (size 9 to 14) (size 15 to 20)
#    0.000    1.714    2.857    3.000    2.000    1.143 
#    0.000    0.714    0.000    0.000    0.000    0.000 
#    0.000    0.000    0.000    0.000    0.000    0.000 
#
# Total GULP energy -78264.470036 kJ/mol
# GULP energy per Si atom -5590.319288 kJ/mol
# Density = 2.337107 g / cm^3
# Si number density = 23.424388 Si / 1000 Ang^3
#
#
#
# Elastic Constant Matrix: (Units=GPa)
#
#
# Indices 1 2 3 4 5 6 
#
# 1 86.8870 39.9427 30.0662 1.0915 30.9943 7.9043
# 2 39.9427 139.2107 44.1037 7.0215 28.2845 17.1781
# 3 30.0662 44.1037 68.4567 -0.4908 35.4108 -3.4017
# 4 1.0915 7.0215 -0.4908 34.1763 7.5032 10.9952
# 5 30.9943 28.2845 35.4108 7.5032 40.1550 -11.8820
# 6 7.9043 17.1781 -3.4017 10.9952 -11.8820 54.2761
#
#
#
# Elastic Compliance Matrix: (Units=1/GPa)
#
#
# Indices 1 2 3 4 5 6 
#
# 1 0.018735 -0.001693 0.002075 0.006190 -0.018430 -0.007351
# 2 -0.001693 0.010186 -0.004409 -0.000166 -0.003102 -0.003899
# 3 0.002075 -0.004409 0.031846 0.009625 -0.029983 -0.005424
# 4 0.006190 -0.000166 0.009625 0.038929 -0.024410 -0.013476
# 5 -0.018430 -0.003102 -0.029983 -0.024410 0.079455 0.024126
# 6 -0.007351 -0.003899 -0.005424 -0.013476 0.024126 0.028400
#
#
# Mechanical properties :
#
#
# Convention : Reuss Voigt Hill
#
# Bulk Modulus (GPa) = 18.97105 58.08663 38.52884
# Shear Modulus (GPa) = 21.44309 37.75092 29.59701
#
# Velocity S-wave (km/s) = 3.02887 4.01884 3.55845
# Velocity P-wave (km/s) = 4.51093 6.81073 5.77644
#
# Compressibility (1/GPa) = 0.05271190
#
# Stress axis : x y z
#
# Youngs Moduli (GPa) = 53.37630 98.17575 31.40155
#
# Poissons Ratio (x) = 0.16626 -0.06516
# Poissons Ratio (y) = 0.09039 0.13844
# Poissons Ratio (z) = -0.11076 0.43283
#
# Static dielectric constant tensor:
#      x y z
#    x 1.920180 0.062500 -0.047660 
#    y 0.062500 1.946550 0.022460 
#    z -0.047660 0.022460 1.895750 
# 
# From -- ./inp_files/198730.got.cif
#   From: 2010.05.17/outbox.cif.g08.bks.cpg/sg2_100_cif.got.tgz:198730.got - 2010.06.03 11:33:40.
