data_PCOD9021865
_publ_section_title
;
Structure prediction by ZEFSAII (Michael W. Deem and Ramdas Pophale) SiO2 
 PCOD9021865
Probable space group: P -1
;
_chemical_formula_sum "Si O2"
_cell_formula_units_Z 16
_cell_length_a 7.685300
_cell_length_b 17.472362
_cell_length_c 12.167897
_cell_angle_alpha 152.112792
_cell_angle_beta 105.898702
_cell_angle_gamma 66.200860
_cell_volume 686.056128
_symmetry_space_group_name_H-M "P -1"
_symmetry_group_IT_number 2
_symmetry_cell_setting 'triclinic'
loop_
_space_group_symop_operation_xyz
x,y,z
-x,-y,-z
loop_
_atom_site_type_symbol
_atom_site_label
_atom_site_fract_x
_atom_site_fract_y
_atom_site_fract_z
Si Si1 0.186120 0.939799 0.211190
Si Si2 0.249423 0.576812 0.091437
Si Si3 0.590416 0.866495 0.109430
Si Si4 0.788732 0.769086 0.255894
Si Si5 0.879119 0.141898 0.245954
Si Si6 0.350482 0.483808 0.363430
Si Si7 0.568192 0.221938 0.450602
Si Si8 0.344573 0.571443 0.852483
O O1 0.364328 0.890662 0.095386
O O2 0.240637 0.053590 0.457755
O O3 0.183249 0.753440 0.015458
O O4 0.997960 0.070738 0.287157
O O5 0.321000 0.678236 0.327213
O O6 0.018834 0.674116 0.157316
O O7 0.274239 0.377164 0.877159
O O8 0.345833 0.593160 0.012315
O O9 0.674995 0.827970 0.197786
O O10 0.594234 0.046206 0.294610
O O11 0.701215 0.686619 0.837154
O O12 0.838377 0.341620 0.457969
O O13 0.662118 0.164275 0.273855
O O14 0.000000 0.000000 0.000000
O O15 0.500000 0.500000 0.500000
O O16 0.472766 0.447437 0.222433
O O17 0.353567 0.370610 0.590039
#
# Coordination Sequence:
#
# PCOD9021865 Si02
#       8
#     2   2   2   2   2   2   2   2
#     4  11  22  40  64  97 132 178 219 263 332 387
#     4  11  22  38  63  97 136 177 217 272 328 389
#     4  11  24  41  67  97 132 175 220 269 327 395
#     4  11  23  37  63  97 140 175 221 267 329 390
#     4  11  23  43  71  96 127 175 221 274 327 388
#     4  10  23  48  72  95 130 173 218 271 332 390
#     4  11  23  43  63  97 135 174 222 269 330 387
#     4  10  22  38  66  93 130 173 217 265 323 391
#
# _framework density 23.321705000000001
#
# number of rings (size 3 to 8) (size 9 to 14) (size 15 to 20)
#    0.000    1.250    1.250    6.000    3.500    2.000 
#    0.000    7.500    0.000    0.000    0.000    0.000 
#    0.000    0.000    0.000    0.000    0.000    0.000 
#
# Total GULP energy -89220.868597 kJ/mol
# GULP energy per Si atom -5576.304287 kJ/mol
# Density = 2.326862 g / cm^3
# Si number density = 23.321705 Si / 1000 Ang^3
#
#
#
# Elastic Constant Matrix: (Units=GPa)
#
#
# Indices 1 2 3 4 5 6 
#
# 1 55.9211 26.6428 31.3395 7.8748 -11.3579 5.8773
# 2 26.6428 133.0208 79.9925 40.5628 9.3762 0.5615
# 3 31.3395 79.9925 168.9854 44.8337 -11.4374 4.6348
# 4 7.8748 40.5628 44.8337 59.0229 4.5285 -9.1009
# 5 -11.3579 9.3762 -11.4374 4.5285 32.2374 3.6990
# 6 5.8773 0.5615 4.6348 -9.1009 3.6990 26.8686
#
#
#
# Elastic Compliance Matrix: (Units=1/GPa)
#
#
# Indices 1 2 3 4 5 6 
#
# 1 0.023489 -0.004378 -0.001148 -0.001039 0.010043 -0.006583
# 2 -0.004378 0.012908 -0.004686 -0.004073 -0.006503 0.001012
# 3 -0.001148 -0.004686 0.010337 -0.005566 0.005882 -0.004129
# 4 -0.001039 -0.004073 -0.005566 0.026275 -0.006111 0.011014
# 5 0.010043 -0.006503 0.005882 -0.006111 0.040627 -0.010739
# 6 -0.006583 0.001012 -0.004129 0.011014 -0.010739 0.044558
#
#
# Mechanical properties :
#
#
# Convention : Reuss Voigt Hill
#
# Bulk Modulus (GPa) = 38.00641 70.43078 54.21859
# Shear Modulus (GPa) = 26.68248 38.28927 32.48587
#
# Velocity S-wave (km/s) = 3.38613 4.05629 3.73627
# Velocity P-wave (km/s) = 5.62315 7.22518 6.47391
#
# Compressibility (1/GPa) = 0.02631135
#
# Stress axis : x y z
#
# Youngs Moduli (GPa) = 42.57249 77.46939 96.74068
#
# Poissons Ratio (x) = 0.33913 0.11107
# Poissons Ratio (y) = 0.18636 0.45332
# Poissons Ratio (z) = 0.04888 0.36302
#
# Static dielectric constant tensor:
#      x y z
#    x 1.944990 0.002460 -0.025420 
#    y 0.002460 1.954630 0.070180 
#    z -0.025420 0.070180 1.958270 
# 
# From -- ./inp_files/224284.got.cif
#   From: 2010.05.17/outbox.cif.g08.bks.cpg/sg2_113_cif.got.tgz:224284.got - 2010.06.03 11:33:40.
