data_PCOD9021882
_publ_section_title
;
Structure prediction by ZEFSAII (Michael W. Deem and Ramdas Pophale) SiO2 
 PCOD9021882
Probable space group: P -1
;
_chemical_formula_sum "Si O2"
_cell_formula_units_Z 13
_cell_length_a 13.840598
_cell_length_b 9.934937
_cell_length_c 11.757133
_cell_angle_alpha 48.636887
_cell_angle_beta 46.691121
_cell_angle_gamma 28.325689
_cell_volume 550.513470
_symmetry_space_group_name_H-M "P -1"
_symmetry_group_IT_number 2
_symmetry_cell_setting 'triclinic'
loop_
_space_group_symop_operation_xyz
x,y,z
-x,-y,-z
loop_
_atom_site_type_symbol
_atom_site_label
_atom_site_fract_x
_atom_site_fract_y
_atom_site_fract_z
Si Si1 0.301690 0.675115 0.646793
Si Si2 0.000000 0.000000 0.500000
Si Si3 0.253376 0.707235 0.088947
Si Si4 0.215951 0.454904 0.452627
Si Si5 0.563782 0.101421 0.543412
Si Si6 0.862822 0.377404 0.000917
Si Si7 0.193367 0.177867 0.286064
O O1 0.500000 0.500000 0.500000
O O2 0.300659 0.863462 0.612095
O O3 0.295963 0.529817 0.826933
O O4 0.106061 0.858343 0.618105
O O5 0.147928 0.033018 0.349295
O O6 0.216929 0.624394 0.276002
O O7 0.500000 0.500000 0.000000
O O8 0.200038 0.639336 0.061133
O O9 0.095012 0.045493 0.024588
O O10 0.331178 0.384051 0.519222
O O11 0.989254 0.620056 0.580750
O O12 0.345474 0.164921 0.446218
O O13 0.592039 0.036557 0.691137
O O14 0.845804 0.608964 0.878453
#
# Coordination Sequence:
#
# PCOD9021882 Si02
#       7
#     2   1   2   2   2   2   2
#     4  11  24  46  66  90 134 182 231 280 330 398
#     4  10  24  44  68  90 128 188 226 272 334 398
#     4  11  24  41  66 103 145 172 213 279 348 411
#     4  11  22  38  67  97 132 180 215 271 348 403
#     4  10  22  38  66  96 128 178 226 264 337 406
#     4  11  26  40  67 104 135 175 225 283 337 400
#     4  11  23  42  67  98 139 173 226 280 331 403
#
# _framework density 23.614318000000001
#
# number of rings (size 3 to 8) (size 9 to 14) (size 15 to 20)
#    0.000    1.231    1.538    4.154    8.615    1.846 
#    0.000    3.077    0.000    0.000    0.000    3.231 
#    0.000    0.000    0.000    0.000    0.000    0.000 
#
# Total GULP energy -72437.686450 kJ/mol
# GULP energy per Si atom -5572.129727 kJ/mol
# Density = 2.356057 g / cm^3
# Si number density = 23.614318 Si / 1000 Ang^3
#
#
#
# Elastic Constant Matrix: (Units=GPa)
#
#
# Indices 1 2 3 4 5 6 
#
# 1 127.6282 43.9259 34.5173 -20.6549 -2.9963 -15.8994
# 2 43.9259 68.4841 69.1526 -1.6809 11.2845 -13.1181
# 3 34.5173 69.1526 187.9149 -33.3568 -14.8453 2.7026
# 4 -20.6549 -1.6809 -33.3568 42.6653 8.2849 1.7964
# 5 -2.9963 11.2845 -14.8453 8.2849 28.7956 -11.3497
# 6 -15.8994 -13.1181 2.7026 1.7964 -11.3497 41.4774
#
#
#
# Elastic Compliance Matrix: (Units=1/GPa)
#
#
# Indices 1 2 3 4 5 6 
#
# 1 0.012979 -0.013600 0.004569 0.007745 0.007648 0.002134
# 2 -0.013600 0.048087 -0.019984 -0.015917 -0.023828 0.005467
# 3 0.004569 -0.019984 0.014713 0.010775 0.011690 -0.002796
# 4 0.007745 -0.015917 0.010775 0.034969 0.000952 -0.004021
# 5 0.007648 -0.023828 0.011690 0.000952 0.054344 0.009463
# 6 0.002134 0.005467 -0.002796 -0.004021 0.009463 0.029602
#
#
# Mechanical properties :
#
#
# Convention : Reuss Voigt Hill
#
# Bulk Modulus (GPa) = 56.34232 75.46876 65.90554
# Shear Modulus (GPa) = 19.33192 38.34974 28.84083
#
# Velocity S-wave (km/s) = 2.86431 4.03427 3.49854
# Velocity P-wave (km/s) = 5.90341 7.32998 6.65503
#
# Compressibility (1/GPa) = 0.01774865
#
# Stress axis : x y z
#
# Youngs Moduli (GPa) = 77.04823 20.79576 67.96746
#
# Poissons Ratio (x) = 0.28281 -0.31053
# Poissons Ratio (y) = 1.04782 1.35828
# Poissons Ratio (z) = -0.35202 0.41559
#
# Static dielectric constant tensor:
#      x y z
#    x 1.990190 0.090170 0.012520 
#    y 0.090170 2.086360 -0.042630 
#    z 0.012520 -0.042630 1.829460 
# 
# From -- ./inp_files/449612.got.cif
#   From: 2010.05.17/outbox.cif.g08.bks.cpg/sg2_225_cif.got.tgz:449612.got - 2010.06.03 11:33:40.
