data_PCOD9021690
_publ_section_title
;
Structure prediction by ZEFSAII (Michael W. Deem and Ramdas Pophale) SiO2 
 PCOD9021690
Probable space group: P -1
;
_chemical_formula_sum "Si O2"
_cell_formula_units_Z 14
_cell_length_a 9.084945
_cell_length_b 10.881676
_cell_length_c 8.580162
_cell_angle_alpha 56.531072
_cell_angle_beta 70.715187
_cell_angle_gamma 53.210121
_cell_volume 566.656913
_symmetry_space_group_name_H-M "P -1"
_symmetry_group_IT_number 2
_symmetry_cell_setting 'triclinic'
loop_
_space_group_symop_operation_xyz
x,y,z
-x,-y,-z
loop_
_atom_site_type_symbol
_atom_site_label
_atom_site_fract_x
_atom_site_fract_y
_atom_site_fract_z
Si Si1 0.091845 0.621290 0.051469
Si Si2 0.210213 0.442560 0.793244
Si Si3 0.091863 0.786862 0.448515
Si Si4 0.628305 0.151312 0.851148
Si Si5 0.492059 0.003976 0.749995
Si Si6 0.210205 0.847236 0.706749
Si Si7 0.371705 0.279622 0.351124
O O1 0.218198 0.476772 0.234798
O O2 0.885981 0.667177 0.114867
O O3 0.158400 0.524595 0.927345
O O4 0.124069 0.777696 0.910359
O O5 0.124104 0.598226 0.589621
O O6 0.428355 0.327770 0.787700
O O7 0.218194 0.805039 0.265175
O O8 0.158425 0.817007 0.572629
O O9 0.885988 0.946832 0.385144
O O10 0.620623 0.032030 0.801735
O O11 0.626643 0.058455 0.074478
O O12 0.373375 0.185109 0.574455
O O13 0.620622 0.847350 0.698270
O O14 0.428347 0.743871 0.712335
#
# Coordination Sequence:
#
# PCOD9021690 Si02
#       7
#     2   2   2   2   2   2   2
#     4  10  22  38  64  93 122 160 208 252 303 367
#     4  10  22  38  64  93 122 160 208 252 303 367
#     4  10  22  38  64  93 122 160 208 252 303 367
#     4  11  21  42  62  92 124 166 196 264 296 374
#     4  10  24  34  70  90 124 156 214 240 326 346
#     4  10  22  38  64  93 122 160 208 252 303 367
#     4  11  21  42  62  92 124 166 196 264 296 374
#
# _framework density 24.706310999999999
#
# number of rings (size 3 to 8) (size 9 to 14) (size 15 to 20)
#    0.000    1.714    2.857    0.857    8.000    0.000 
#    0.000    1.429    0.000    0.000    0.000    0.000 
#    0.000    0.000    0.000    0.000    0.000    0.000 
#
# Total GULP energy -78419.555907 kJ/mol
# GULP energy per Si atom -5601.396850 kJ/mol
# Density = 2.465008 g / cm^3
# Si number density = 24.706311 Si / 1000 Ang^3
#
#
#
# Elastic Constant Matrix: (Units=GPa)
#
#
# Indices 1 2 3 4 5 6 
#
# 1 59.0991 4.9183 17.4420 -4.2309 -15.6418 -8.2973
# 2 4.9183 49.4935 18.6081 -14.1630 3.1690 -7.3357
# 3 17.4420 18.6081 184.4012 -27.3495 -18.0488 1.2707
# 4 -4.2309 -14.1630 -27.3495 40.2547 0.6601 5.9731
# 5 -15.6418 3.1690 -18.0488 0.6601 39.6505 -0.2885
# 6 -8.2973 -7.3357 1.2707 5.9731 -0.2885 26.5865
#
#
#
# Elastic Compliance Matrix: (Units=1/GPa)
#
#
# Indices 1 2 3 4 5 6 
#
# 1 0.020216 -0.001197 -0.001100 -0.000078 0.007616 0.006132
# 2 -0.001197 0.023702 -0.001672 0.006422 -0.003200 0.004769
# 3 -0.001100 -0.001672 0.006558 0.004004 0.002604 -0.001989
# 4 -0.000078 0.006422 0.004004 0.030589 0.000731 -0.005308
# 5 0.007616 -0.003200 0.002604 0.000731 0.029665 0.001527
# 6 0.006132 0.004769 -0.001989 -0.005308 0.001527 0.042147
#
#
# Mechanical properties :
#
#
# Convention : Reuss Voigt Hill
#
# Bulk Modulus (GPa) = 23.50804 41.65895 32.58349
# Shear Modulus (GPa) = 28.57255 38.10005 33.33630
#
# Velocity S-wave (km/s) = 3.40441 3.93124 3.67727
# Velocity P-wave (km/s) = 4.99890 6.12409 5.58988
#
# Compressibility (1/GPa) = 0.04253864
#
# Stress axis : x y z
#
# Youngs Moduli (GPa) = 49.46595 42.19117 152.48102
#
# Poissons Ratio (x) = 0.05049 0.16770
# Poissons Ratio (y) = 0.05919 0.25496
# Poissons Ratio (z) = 0.05440 0.07055
#
# Static dielectric constant tensor:
#      x y z
#    x 1.922480 0.026030 0.010740 
#    y 0.026030 1.940040 0.013670 
#    z 0.010740 0.013670 1.967590 
# 
# From -- ./inp_files/184014.got.cif
#   From: 2010.05.17/outbox.cif.g08.bks.cpg/sg2_93_cif.got.tgz:184014.got - 2010.06.03 11:33:40.
