data_PCOD9021464
_publ_section_title
;
Structure prediction by ZEFSAII (Michael W. Deem and Ramdas Pophale) SiO2 
 PCOD9021464
Probable space group: P -1
;
_chemical_formula_sum "Si O2"
_cell_formula_units_Z 16
_cell_length_a 15.481052
_cell_length_b 20.137991
_cell_length_c 16.590026
_cell_angle_alpha 18.738868
_cell_angle_beta 140.190779
_cell_angle_gamma 150.012657
_cell_volume 785.625456
_symmetry_space_group_name_H-M "P -1"
_symmetry_group_IT_number 2
_symmetry_cell_setting 'triclinic'
loop_
_space_group_symop_operation_xyz
x,y,z
-x,-y,-z
loop_
_atom_site_type_symbol
_atom_site_label
_atom_site_fract_x
_atom_site_fract_y
_atom_site_fract_z
Si Si1 0.887471 0.578314 0.863918
Si Si2 0.199817 0.898914 0.832540
Si Si3 0.176399 0.206736 0.583692
Si Si4 0.563322 0.317806 0.046398
Si Si5 0.461719 0.770248 0.594088
Si Si6 0.555387 0.357093 0.455414
Si Si7 0.675658 0.331082 0.731409
Si Si8 0.245125 0.268992 0.137184
O O1 0.845213 0.672139 0.649258
O O2 0.022978 0.802061 0.772612
O O3 0.697681 0.364551 0.020566
O O4 0.000000 0.500000 0.000000
O O5 0.242236 0.064693 0.753773
O O6 0.360207 0.091915 0.660276
O O7 0.170612 0.638420 0.144811
O O8 0.317899 0.446772 0.472253
O O9 0.972583 0.969899 0.744578
O O10 0.455186 0.998295 0.359467
O O11 0.451300 0.399931 0.837803
O O12 0.678557 0.534909 0.953405
O O13 0.423242 0.716043 0.533371
O O14 0.657004 0.855068 0.649856
O O15 0.320803 0.478782 0.875641
O O16 0.692675 0.404619 0.565517
O O17 0.500000 0.000000 0.000000
#
# Coordination Sequence:
#
# PCOD9021464 Si02
#       8
#     2   2   2   2   2   2   2   2
#     4  12  20  33  59  95 121 147 182 241 314 355
#     4  11  21  37  58  90 122 153 191 244 305 363
#     4  12  22  37  59  88 124 154 191 250 297 357
#     4  11  20  36  62  88 121 152 190 243 299 358
#     4  10  22  38  62  86 122 159 195 245 289 351
#     4  10  22  39  57  85 116 162 205 237 287 355
#     4  10  25  40  56  85 121 162 202 238 296 351
#     4  10  22  39  58  93 121 153 198 239 301 356
#
# _framework density 20.365939000000001
#
# number of rings (size 3 to 8) (size 9 to 14) (size 15 to 20)
#    0.000    1.250    3.750    3.750    1.750    3.000 
#    0.000    0.625    0.000    1.500    0.000    0.000 
#    0.000    0.000    0.000    0.000    0.000    0.000 
#
# Total GULP energy -89220.959783 kJ/mol
# GULP energy per Si atom -5576.309986 kJ/mol
# Density = 2.031959 g / cm^3
# Si number density = 20.365939 Si / 1000 Ang^3
#
#
#
# Elastic Constant Matrix: (Units=GPa)
#
#
# Indices 1 2 3 4 5 6 
#
# 1 51.9407 10.7881 14.8950 -2.3154 -9.4396 -14.5396
# 2 10.7881 71.6329 28.3920 1.7094 -8.9637 -16.2699
# 3 14.8950 28.3920 84.9310 10.9392 6.9420 -12.9614
# 4 -2.3154 1.7094 10.9392 29.7599 -4.7749 4.5083
# 5 -9.4396 -8.9637 6.9420 -4.7749 34.7238 -3.4266
# 6 -14.5396 -16.2699 -12.9614 4.5083 -3.4266 22.6322
#
#
#
# Elastic Compliance Matrix: (Units=1/GPa)
#
#
# Indices 1 2 3 4 5 6 
#
# 1 0.027122 0.003117 -0.004216 0.002480 0.011182 0.018449
# 2 0.003117 0.020154 -0.005863 0.000461 0.008702 0.014358
# 3 -0.004216 -0.005863 0.016452 -0.007566 -0.006694 0.002992
# 4 0.002480 0.000461 -0.007566 0.039023 0.006768 -0.009157
# 5 0.011182 0.008702 -0.006694 0.006768 0.037733 0.013971
# 6 0.018449 0.014358 0.002992 -0.009157 0.013971 0.072011
#
#
# Mechanical properties :
#
#
# Convention : Reuss Voigt Hill
#
# Bulk Modulus (GPa) = 20.07974 35.18386 27.63180
# Shear Modulus (GPa) = 20.57437 27.71849 24.14643
#
# Velocity S-wave (km/s) = 3.18187 3.69321 3.44703
# Velocity P-wave (km/s) = 4.83528 5.95816 5.42585
#
# Compressibility (1/GPa) = 0.04980144
#
# Stress axis : x y z
#
# Youngs Moduli (GPa) = 36.87104 49.61848 60.78253
#
# Poissons Ratio (x) = -0.15466 0.25629
# Poissons Ratio (y) = -0.11492 0.35639
# Poissons Ratio (z) = 0.15547 0.29093
#
# Static dielectric constant tensor:
#      x y z
#    x 1.654110 0.052950 -0.038310 
#    y 0.052950 1.755950 0.029760 
#    z -0.038310 0.029760 1.691640 
# 
# From -- ./inp_files/423563.got.cif
#   From: 2010.05.17/outbox.cif.g08.bks.cpg/sg2_212_cif.got.tgz:423563.got - 2010.06.03 11:33:40.
