data_PCOD9021514
_publ_section_title
;
Structure prediction by ZEFSAII (Michael W. Deem and Ramdas Pophale) SiO2 
 PCOD9021514
Probable space group: P -1
;
_chemical_formula_sum "Si O2"
_cell_formula_units_Z 14
_cell_length_a 10.023095
_cell_length_b 8.061525
_cell_length_c 12.094147
_cell_angle_alpha 60.977120
_cell_angle_beta 130.522707
_cell_angle_gamma 91.443815
_cell_volume 584.456465
_symmetry_space_group_name_H-M "P -1"
_symmetry_group_IT_number 2
_symmetry_cell_setting 'triclinic'
loop_
_space_group_symop_operation_xyz
x,y,z
-x,-y,-z
loop_
_atom_site_type_symbol
_atom_site_label
_atom_site_fract_x
_atom_site_fract_y
_atom_site_fract_z
Si Si1 0.822843 0.185095 0.402108
Si Si2 0.737081 0.404078 0.659274
Si Si3 0.343048 0.008646 0.003396
Si Si4 0.037573 0.478774 0.657363
Si Si5 0.499486 0.043206 0.299420
Si Si6 0.756607 0.706628 0.730669
Si Si7 0.962352 0.993584 0.774584
O O1 0.845426 0.383545 0.303298
O O2 0.637214 0.143480 0.293924
O O3 0.865411 0.151025 0.567300
O O4 0.000000 0.000000 0.500000
O O5 0.500000 0.500000 0.500000
O O6 0.795962 0.476009 0.783986
O O7 0.847126 0.154680 0.762702
O O8 0.834015 0.517851 0.592641
O O9 0.185780 0.249529 0.848388
O O10 0.195152 0.910120 0.926436
O O11 0.435360 0.946730 0.193363
O O12 0.500000 0.000000 0.000000
O O13 0.000000 0.500000 0.500000
O O14 0.335543 0.233318 0.217448
O O15 0.605196 0.865155 0.506791
O O16 0.917862 0.794698 0.793193
#
# Coordination Sequence:
#
# PCOD9021514 Si02
#       7
#     2   2   2   2   2   2   2
#     4  11  20  37  66  92 130 174 220 273 326 396
#     4  11  21  37  67  95 124 169 224 274 320 386
#     4  11  24  40  64  98 137 170 216 284 335 381
#     4  11  23  40  65  95 131 173 223 264 327 406
#     4  10  22  38  62  93 131 168 224 272 321 399
#     4  10  22  41  66  91 127 179 220 264 335 398
#     4  10  22  41  60  96 130 169 224 271 321 404
#
# _framework density 23.953880999999999
#
# number of rings (size 3 to 8) (size 9 to 14) (size 15 to 20)
#    0.000    1.429    2.857    5.143    2.000    1.143 
#    0.000    4.286    0.000    0.000    0.000    0.000 
#    0.000    0.000    0.000    0.000    0.000    0.000 
#
# Total GULP energy -78170.101248 kJ/mol
# GULP energy per Si atom -5583.578661 kJ/mol
# Density = 2.389936 g / cm^3
# Si number density = 23.953881 Si / 1000 Ang^3
#
#
#
# Elastic Constant Matrix: (Units=GPa)
#
#
# Indices 1 2 3 4 5 6 
#
# 1 118.5874 -5.4492 12.6697 -1.8794 34.4493 -0.0422
# 2 -5.4492 70.5301 -0.2797 16.0165 11.8751 -0.1188
# 3 12.6697 -0.2797 80.1675 8.7447 12.2026 1.1811
# 4 -1.8794 16.0165 8.7447 21.5857 13.3974 0.8411
# 5 34.4493 11.8751 12.2026 13.3974 35.5618 10.1682
# 6 -0.0422 -0.1188 1.1811 0.8411 10.1682 51.8851
#
#
#
# Elastic Compliance Matrix: (Units=1/GPa)
#
#
# Indices 1 2 3 4 5 6 
#
# 1 0.014787 0.001676 -0.000660 0.012979 -0.020653 0.003868
# 2 0.001676 0.017504 0.001612 -0.010934 -0.004190 0.001003
# 3 -0.000660 0.001612 0.013547 -0.005059 -0.002731 0.000312
# 4 0.012979 -0.010934 -0.005059 0.082221 -0.040054 0.006617
# 5 -0.020653 -0.004190 -0.002731 -0.040054 0.069237 -0.012884
# 6 0.003868 0.001003 0.000312 0.006617 -0.012884 0.021689
#
#
# Mechanical properties :
#
#
# Convention : Reuss Voigt Hill
#
# Bulk Modulus (GPa) = 19.57181 31.46296 25.51738
# Shear Modulus (GPa) = 21.66746 39.29613 30.48179
#
# Velocity S-wave (km/s) = 3.01083 4.05469 3.57111
# Velocity P-wave (km/s) = 4.50280 5.92318 5.26114
#
# Compressibility (1/GPa) = 0.05109390
#
# Stress axis : x y z
#
# Youngs Moduli (GPa) = 67.62723 57.12880 73.81888
#
# Poissons Ratio (x) = -0.09577 0.04873
# Poissons Ratio (y) = -0.11337 -0.11898
# Poissons Ratio (z) = 0.04464 -0.09208
#
# Static dielectric constant tensor:
#      x y z
#    x 2.643380 0.296620 -0.356180 
#    y 0.296620 2.075590 -0.109170 
#    z -0.356180 -0.109170 2.176520 
# 
# From -- ./inp_files/375970.got.cif
#   From: 2010.05.17/outbox.cif.g08.bks.cpg/sg2_188_cif.got.tgz:375970.got - 2010.06.03 11:33:40.
