data_PCOD9021570
_publ_section_title
;
Structure prediction by ZEFSAII (Michael W. Deem and Ramdas Pophale) SiO2 
 PCOD9021570
Probable space group: P -1
;
_chemical_formula_sum "Si O2"
_cell_formula_units_Z 16
_cell_length_a 16.794657
_cell_length_b 8.158178
_cell_length_c 12.100464
_cell_angle_alpha 118.928655
_cell_angle_beta 53.243851
_cell_angle_gamma 147.234693
_cell_volume 718.158031
_symmetry_space_group_name_H-M "P -1"
_symmetry_group_IT_number 2
_symmetry_cell_setting 'triclinic'
loop_
_space_group_symop_operation_xyz
x,y,z
-x,-y,-z
loop_
_atom_site_type_symbol
_atom_site_label
_atom_site_fract_x
_atom_site_fract_y
_atom_site_fract_z
Si Si1 0.926405 0.335097 0.829739
Si Si2 0.988751 0.200044 0.950921
Si Si3 0.556466 0.383138 0.530643
Si Si4 0.318559 0.494309 0.995734
Si Si5 0.360809 0.684137 0.255073
Si Si6 0.618082 0.696497 0.791028
Si Si7 0.249009 0.688652 0.559251
Si Si8 0.346268 0.630234 0.765629
O O1 0.913109 0.212898 0.919932
O O2 0.076177 0.473008 0.683099
O O3 0.760596 0.052193 0.812824
O O4 0.967970 0.608281 0.917253
O O5 0.157812 0.378794 0.822169
O O6 0.859189 0.853373 0.974862
O O7 0.599934 0.616563 0.651067
O O8 0.667162 0.370204 0.474934
O O9 0.593270 0.444840 0.389833
O O10 0.372973 0.043754 0.590450
O O11 0.450870 0.529544 0.919826
O O12 0.365147 0.632689 0.881189
O O13 0.327988 0.648582 0.141027
O O14 0.342627 0.441840 0.226930
O O15 0.247751 0.639574 0.413766
O O16 0.541053 0.024430 0.243228
#
# Coordination Sequence:
#
# PCOD9021570 Si02
#       8
#     2   2   2   2   2   2   2   2
#     4  11  22  37  62  91 119 150 195 255 293 336
#     4  11  24  37  60  88 120 156 197 241 296 349
#     4   9  19  36  61  88 116 155 195 239 294 352
#     4  12  24  40  60  88 123 159 196 240 290 357
#     4  10  22  38  63  90 118 154 197 245 289 351
#     4  11  23  38  62  90 120 151 202 246 290 341
#     4   9  18  36  60  89 119 148 195 247 294 339
#     4  11  23  41  62  86 124 157 194 237 299 357
#
# _framework density 22.279219000000001
#
# number of rings (size 3 to 8) (size 9 to 14) (size 15 to 20)
#    0.000    1.500    2.500    3.375    3.500    3.500 
#    0.000    0.000    0.000    4.500    0.000    0.000 
#    0.000    0.000    0.000    0.000    0.000    0.000 
#
# Total GULP energy -89480.652403 kJ/mol
# GULP energy per Si atom -5592.540775 kJ/mol
# Density = 2.222851 g / cm^3
# Si number density = 22.279219 Si / 1000 Ang^3
#
#
#
# Elastic Constant Matrix: (Units=GPa)
#
#
# Indices 1 2 3 4 5 6 
#
# 1 34.7964 13.4931 20.1792 7.9737 13.0728 8.0951
# 2 13.4931 140.9146 64.4258 8.4885 -3.6012 22.2142
# 3 20.1792 64.4258 147.8043 14.3710 25.0249 14.7478
# 4 7.9737 8.4885 14.3710 39.5662 14.0086 7.9050
# 5 13.0728 -3.6012 25.0249 14.0086 38.5183 -0.1166
# 6 8.0951 22.2142 14.7478 7.9050 -0.1166 19.4353
#
#
#
# Elastic Compliance Matrix: (Units=1/GPa)
#
#
# Indices 1 2 3 4 5 6 
#
# 1 0.037595 -0.001254 -0.001193 0.000128 -0.012188 -0.013445
# 2 -0.001254 0.010621 -0.004347 -0.000359 0.004349 -0.008147
# 3 -0.001193 -0.004347 0.010175 0.000354 -0.006748 -0.002440
# 4 0.000128 -0.000359 0.000354 0.032047 -0.012001 -0.013018
# 5 -0.012188 0.004349 -0.006748 -0.012001 0.039285 0.010344
# 6 -0.013445 -0.008147 -0.002440 -0.013018 0.010344 0.073573
#
#
# Mechanical properties :
#
#
# Convention : Reuss Voigt Hill
#
# Bulk Modulus (GPa) = 22.32024 57.74573 40.03299
# Shear Modulus (GPa) = 21.56871 34.53179 28.05025
#
# Velocity S-wave (km/s) = 3.11482 3.94122 3.55213
# Velocity P-wave (km/s) = 4.79336 6.83274 5.90180
#
# Compressibility (1/GPa) = 0.04480239
#
# Stress axis : x y z
#
# Youngs Moduli (GPa) = 26.59956 94.15363 98.28128
#
# Poissons Ratio (x) = 0.11806 0.11729
# Poissons Ratio (y) = 0.03335 0.42721
# Poissons Ratio (z) = 0.03174 0.40927
#
# Static dielectric constant tensor:
#      x y z
#    x 1.899730 -0.011560 0.038010 
#    y -0.011560 1.759580 0.028570 
#    z 0.038010 0.028570 1.812480 
# 
# From -- ./inp_files/209037.got.cif
#   From: 2010.05.17/outbox.cif.g08.bks.cpg/sg2_105_cif.got.tgz:209037.got - 2010.06.03 11:33:40.
