data_PCOD9021340
_publ_section_title
;
Structure prediction by ZEFSAII (Michael W. Deem and Ramdas Pophale) SiO2 
 PCOD9021340
Probable space group: P -1
;
_chemical_formula_sum "Si O2"
_cell_formula_units_Z 13
_cell_length_a 15.221121
_cell_length_b 13.445334
_cell_length_c 6.628174
_cell_angle_alpha 63.530592
_cell_angle_beta 122.981058
_cell_angle_gamma 152.876176
_cell_volume 516.103723
_symmetry_space_group_name_H-M "P -1"
_symmetry_group_IT_number 2
_symmetry_cell_setting 'triclinic'
loop_
_space_group_symop_operation_xyz
x,y,z
-x,-y,-z
loop_
_atom_site_type_symbol
_atom_site_label
_atom_site_fract_x
_atom_site_fract_y
_atom_site_fract_z
Si Si1 0.820036 0.954507 0.508848
Si Si2 0.500000 0.000000 0.000000
Si Si3 0.191338 0.141541 0.835087
Si Si4 0.470278 0.603298 0.643019
Si Si5 0.187038 0.556326 0.337291
Si Si6 0.140390 0.769872 0.485624
Si Si7 0.766075 0.155201 0.932280
O O1 0.849143 0.984684 0.277100
O O2 0.584952 0.706950 0.480603
O O3 0.867883 0.112023 0.541523
O O4 0.971317 0.995559 0.740944
O O5 0.430500 0.059064 0.990574
O O6 0.692393 0.148887 0.259941
O O7 0.317743 0.361960 0.704374
O O8 0.340594 0.231452 0.111272
O O9 0.346057 0.603180 0.508671
O O10 0.290010 0.760881 0.184656
O O11 0.081736 0.481382 0.490879
O O12 0.992057 0.352087 0.134398
O O13 0.205959 0.839181 0.272616
#
# Coordination Sequence:
#
# PCOD9021340 Si02
#       7
#     2   1   2   2   2   2   2
#     4  11  23  42  64  93 127 167 211 263 316 373
#     4  10  22  38  60  92 122 158 214 252 306 388
#     4  10  24  43  63  92 129 164 216 264 311 375
#     4  11  22  42  66  93 123 169 213 260 320 371
#     4  10  22  40  61  92 126 164 214 255 319 376
#     4  11  22  39  62  92 128 167 210 260 320 373
#     4  10  22  40  63  91 128 168 205 263 313 380
#
# _framework density 25.188734
#
# number of rings (size 3 to 8) (size 9 to 14) (size 15 to 20)
#    0.000    1.538    1.538    2.769    0.000    4.923 
#    2.769    0.000    0.000    0.000    0.000    0.000 
#    0.000    0.000    0.000    0.000    0.000    0.000 
#
# Total GULP energy -72540.845759 kJ/mol
# GULP energy per Si atom -5580.065058 kJ/mol
# Density = 2.513140 g / cm^3
# Si number density = 25.188734 Si / 1000 Ang^3
#
#
#
# Elastic Constant Matrix: (Units=GPa)
#
#
# Indices 1 2 3 4 5 6 
#
# 1 151.4495 19.3473 63.1190 23.0845 0.9436 28.1992
# 2 19.3473 71.3923 5.4114 2.1019 17.4053 15.4730
# 3 63.1190 5.4114 95.6674 11.8263 -10.3492 14.1336
# 4 23.0845 2.1019 11.8263 36.4762 6.0858 11.8164
# 5 0.9436 17.4053 -10.3492 6.0858 50.5429 3.3931
# 6 28.1992 15.4730 14.1336 11.8164 3.3931 54.2464
#
#
#
# Elastic Compliance Matrix: (Units=1/GPa)
#
#
# Indices 1 2 3 4 5 6 
#
# 1 0.010303 -0.001630 -0.005903 -0.003650 -0.000230 -0.002543
# 2 -0.001630 0.016670 -0.000194 0.002398 -0.005769 -0.004019
# 3 -0.005903 -0.000194 0.015019 -0.001481 0.003477 -0.000684
# 4 -0.003650 0.002398 -0.001481 0.032522 -0.004628 -0.005196
# 5 -0.000230 -0.005769 0.003477 -0.004628 0.023017 0.000427
# 6 -0.002543 -0.004019 -0.000684 -0.005196 0.000427 0.022186
#
#
# Mechanical properties :
#
#
# Convention : Reuss Voigt Hill
#
# Bulk Modulus (GPa) = 37.68337 54.91829 46.30083
# Shear Modulus (GPa) = 34.71804 43.62854 39.17329
#
# Velocity S-wave (km/s) = 3.71660 4.16632 3.94787
# Velocity P-wave (km/s) = 5.78017 6.70779 6.26118
#
# Compressibility (1/GPa) = 0.02653690
#
# Stress axis : x y z
#
# Youngs Moduli (GPa) = 97.06255 59.98647 66.58327
#
# Poissons Ratio (x) = 0.09777 0.39305
# Poissons Ratio (y) = 0.15821 0.01295
# Poissons Ratio (z) = 0.57297 0.01166
#
# Static dielectric constant tensor:
#      x y z
#    x 1.889560 -0.405460 0.133970 
#    y -0.405460 1.402640 0.195730 
#    z 0.133970 0.195730 1.902740 
# 
# From -- ./inp_files/24556.got.cif
#   From: 2010.05.17/outbox.cif.g08.bks.cpg/sg2_13_cif.got.tgz:24556.got - 2010.06.03 11:33:40.
