data_PCOD9021422
_publ_section_title
;
Structure prediction by ZEFSAII (Michael W. Deem and Ramdas Pophale) SiO2 
 PCOD9021422
Probable space group: P -1
;
_chemical_formula_sum "Si O2"
_cell_formula_units_Z 16
_cell_length_a 8.423351
_cell_length_b 11.077596
_cell_length_c 10.140033
_cell_angle_alpha 54.899440
_cell_angle_beta 101.547969
_cell_angle_gamma 122.967416
_cell_volume 640.642620
_symmetry_space_group_name_H-M "P -1"
_symmetry_group_IT_number 2
_symmetry_cell_setting 'triclinic'
loop_
_space_group_symop_operation_xyz
x,y,z
-x,-y,-z
loop_
_atom_site_type_symbol
_atom_site_label
_atom_site_fract_x
_atom_site_fract_y
_atom_site_fract_z
Si Si1 0.813613 0.834649 0.503800
Si Si2 0.887236 0.084097 0.869212
Si Si3 0.500145 0.845527 0.874337
Si Si4 0.391657 0.517630 0.210432
Si Si5 0.254402 0.976808 0.831192
Si Si6 0.091477 0.391347 0.031967
Si Si7 0.450945 0.804823 0.602069
Si Si8 0.203344 0.447942 0.712524
O O1 0.767486 0.635700 0.624604
O O2 0.638847 0.816483 0.571728
O O3 0.773060 0.873733 0.324301
O O4 0.000000 0.000000 0.500000
O O5 0.029760 0.279193 0.717743
O O6 0.727962 0.949983 0.826442
O O7 0.761725 0.061759 0.992516
O O8 0.000000 0.000000 0.000000
O O9 0.438659 0.983520 0.801422
O O10 0.409535 0.745151 0.785755
O O11 0.428316 0.709637 0.070166
O O12 0.285483 0.431150 0.108887
O O13 0.600172 0.552395 0.254323
O O14 0.075695 0.806063 0.842476
O O15 0.120197 0.402453 0.874824
O O16 0.000000 0.500000 0.000000
O O17 0.277891 0.652464 0.581151
O O18 0.500000 0.000000 0.500000
#
# Coordination Sequence:
#
# PCOD9021422 Si02
#       8
#     2   2   2   2   2   2   2   2
#     4  11  24  36  60  99 133 162 204 266 331 372
#     4  11  25  42  68  91 127 177 220 263 308 382
#     4  12  23  43  67  96 126 170 219 260 320 381
#     4  11  21  35  62  91 124 163 207 263 309 374
#     4  11  23  41  62  92 134 165 213 263 323 380
#     4  11  19  32  60  94 119 155 207 269 311 368
#     4  11  23  40  68  96 131 162 207 272 327 378
#     4  10  22  38  61  92 123 161 215 256 317 368
#
# _framework density 24.974924999999999
#
# number of rings (size 3 to 8) (size 9 to 14) (size 15 to 20)
#    0.000    1.000    6.250    0.750    3.500    0.000 
#    0.000    1.250    0.000    0.000    0.000    0.000 
#    0.000    0.000    0.000    0.000    0.000    0.000 
#
# Total GULP energy -89223.526370 kJ/mol
# GULP energy per Si atom -5576.470398 kJ/mol
# Density = 2.491808 g / cm^3
# Si number density = 24.974925 Si / 1000 Ang^3
#
#
#
# Elastic Constant Matrix: (Units=GPa)
#
#
# Indices 1 2 3 4 5 6 
#
# 1 49.9801 15.2386 -0.0746 -0.3058 -8.6293 11.2115
# 2 15.2386 85.7303 26.0449 -37.2880 1.7218 20.6319
# 3 -0.0746 26.0449 108.7127 -39.1841 4.4826 6.0243
# 4 -0.3058 -37.2880 -39.1841 47.2108 -2.8079 -11.0897
# 5 -8.6293 1.7218 4.4826 -2.8079 27.5282 -3.2139
# 6 11.2115 20.6319 6.0243 -11.0897 -3.2139 37.6461
#
#
#
# Elastic Compliance Matrix: (Units=1/GPa)
#
#
# Indices 1 2 3 4 5 6 
#
# 1 0.023906 -0.005287 -0.000642 -0.005352 0.006786 -0.005116
# 2 -0.005287 0.020388 0.001126 0.015616 -0.002149 -0.005363
# 3 -0.000642 0.001126 0.013263 0.012041 -0.001098 0.000905
# 4 -0.005352 0.015616 0.012041 0.044498 0.000420 0.004253
# 5 0.006786 -0.002149 -0.001098 0.000420 0.039136 0.002798
# 6 -0.005116 -0.005363 0.000905 0.004253 0.002798 0.032373
#
#
# Mechanical properties :
#
#
# Convention : Reuss Voigt Hill
#
# Bulk Modulus (GPa) = 20.85490 36.31565 28.58528
# Shear Modulus (GPa) = 25.10620 36.02466 30.56543
#
# Velocity S-wave (km/s) = 3.17402 3.80206 3.50214
# Velocity P-wave (km/s) = 4.66915 5.81778 5.27483
#
# Compressibility (1/GPa) = 0.04795036
#
# Stress axis : x y z
#
# Youngs Moduli (GPa) = 41.83130 49.04891 75.39504
#
# Poissons Ratio (x) = 0.25932 0.04844
# Poissons Ratio (y) = 0.22116 -0.08491
# Poissons Ratio (z) = 0.02687 -0.05524
#
# Static dielectric constant tensor:
#      x y z
#    x 1.992900 0.004900 0.012620 
#    y 0.004900 2.065760 -0.068850 
#    z 0.012620 -0.068850 2.118620 
# 
# From -- ./inp_files/347377.got.cif
#   From: 2010.05.17/outbox.cif.g08.bks.cpg/sg2_174_cif.got.tgz:347377.got - 2010.06.03 11:33:40.
