data_PCOD9021234
_publ_section_title
;
Structure prediction by ZEFSAII (Michael W. Deem and Ramdas Pophale) SiO2 
 PCOD9021234
Probable space group: P -1
;
_chemical_formula_sum "Si O2"
_cell_formula_units_Z 16
_cell_length_a 11.603932
_cell_length_b 11.189987
_cell_length_c 9.255071
_cell_angle_alpha 143.354566
_cell_angle_beta 88.919661
_cell_angle_gamma 94.497235
_cell_volume 713.107366
_symmetry_space_group_name_H-M "P -1"
_symmetry_group_IT_number 2
_symmetry_cell_setting 'triclinic'
loop_
_space_group_symop_operation_xyz
x,y,z
-x,-y,-z
loop_
_atom_site_type_symbol
_atom_site_label
_atom_site_fract_x
_atom_site_fract_y
_atom_site_fract_z
Si Si1 0.288879 0.180704 0.656780
Si Si2 0.301608 0.941583 0.157102
Si Si3 0.092969 0.649160 0.803688
Si Si4 0.170179 0.459823 0.325537
Si Si5 0.939167 0.658740 0.249144
Si Si6 0.829377 0.155917 0.477211
Si Si7 0.690664 0.907031 0.015593
Si Si8 0.488460 0.150277 0.783880
O O1 0.171406 0.279778 0.770506
O O2 0.398501 0.288198 0.844956
O O3 0.312262 0.138990 0.449037
O O4 0.253663 0.959033 0.513642
O O5 0.386350 0.797969 0.096205
O O6 0.333090 0.004677 0.054235
O O7 0.170852 0.836410 0.052316
O O8 0.146448 0.593895 0.596026
O O9 0.102255 0.454885 0.714264
O O10 0.955984 0.667575 0.815997
O O11 0.193092 0.617896 0.347105
O O12 0.271735 0.318932 0.211159
O O13 0.039154 0.832151 0.459220
O O14 0.000000 0.500000 0.000000
O O15 0.800828 0.028179 0.209450
O O16 0.585710 0.930104 0.151312
O O17 0.500000 0.000000 0.500000
#
# Coordination Sequence:
#
# PCOD9021234 Si02
#       8
#     2   2   2   2   2   2   2   2
#     4  10  22  39  64  89 126 172 214 259 326 369
#     4  11  21  41  65  93 126 176 215 259 319 376
#     4  10  22  38  58  92 138 161 207 267 308 380
#     4  10  22  40  60  99 133 165 206 264 319 385
#     4  11  23  37  61  94 133 167 212 264 315 386
#     4  10  22  38  62  96 130 161 211 258 317 388
#     4  11  22  39  73  90 128 169 213 260 333 373
#     4   9  22  42  66  92 124 167 222 271 308 373
#
# _framework density 22.437011999999999
#
# number of rings (size 3 to 8) (size 9 to 14) (size 15 to 20)
#    0.000    1.750    1.250    2.250    8.750    0.500 
#    0.000    1.250   11.000    0.000    0.000    0.000 
#    0.000    0.000    0.000    0.000    0.000    0.000 
#
# Total GULP energy -89210.597936 kJ/mol
# GULP energy per Si atom -5575.662371 kJ/mol
# Density = 2.238594 g / cm^3
# Si number density = 22.437012 Si / 1000 Ang^3
#
#
#
# Elastic Constant Matrix: (Units=GPa)
#
#
# Indices 1 2 3 4 5 6 
#
# 1 89.9617 27.5032 26.1556 -6.9474 -6.4811 -29.2856
# 2 27.5032 69.5237 19.2238 -26.8228 -7.3753 1.3722
# 3 26.1556 19.2238 61.3892 -28.4314 2.4829 -6.4454
# 4 -6.9474 -26.8228 -28.4314 29.1224 -3.6574 2.0227
# 5 -6.4811 -7.3753 2.4829 -3.6574 25.1260 -11.5200
# 6 -29.2856 1.3722 -6.4454 2.0227 -11.5200 34.9387
#
#
#
# Elastic Compliance Matrix: (Units=1/GPa)
#
#
# Indices 1 2 3 4 5 6 
#
# 1 0.027948 -0.014115 -0.014983 -0.021096 0.013858 0.027007
# 2 -0.014115 0.033288 0.013730 0.042200 0.005812 -0.011133
# 3 -0.014983 0.013730 0.040016 0.048656 -0.000729 -0.008773
# 4 -0.021096 0.042200 0.048656 0.118256 0.013501 -0.012759
# 5 0.013858 0.005812 -0.000729 0.013501 0.061165 0.030639
# 6 0.027007 -0.011133 -0.008773 -0.012759 0.030639 0.060919
#
#
# Mechanical properties :
#
#
# Convention : Reuss Voigt Hill
#
# Bulk Modulus (GPa) = 14.18097 40.73775 27.45936
# Shear Modulus (GPa) = 12.63155 27.70356 20.16756
#
# Velocity S-wave (km/s) = 2.37529 3.51768 3.00134
# Velocity P-wave (km/s) = 3.72246 5.89022 4.92704
#
# Compressibility (1/GPa) = 0.07051705
#
# Stress axis : x y z
#
# Youngs Moduli (GPa) = 35.78039 30.04047 24.98982
#
# Poissons Ratio (x) = 0.42403 0.37442
# Poissons Ratio (y) = 0.50505 -0.34311
# Poissons Ratio (z) = 0.53609 -0.41246
#
# Static dielectric constant tensor:
#      x y z
#    x 1.886900 -0.022640 0.000070 
#    y -0.022640 1.899760 -0.019470 
#    z 0.000070 -0.019470 1.873220 
# 
# From -- ./inp_files/261040.got.cif
#   From: 2010.05.17/outbox.cif.g08.bks.cpg/sg2_131_cif.got.tgz:261040.got - 2010.06.03 11:33:40.
