data_PCOD9021266
_publ_section_title
;
Structure prediction by ZEFSAII (Michael W. Deem and Ramdas Pophale) SiO2 
 PCOD9021266
Probable space group: P -1
;
_chemical_formula_sum "Si O2"
_cell_formula_units_Z 14
_cell_length_a 12.982321
_cell_length_b 17.463815
_cell_length_c 8.764036
_cell_angle_alpha 99.486823
_cell_angle_beta 60.803766
_cell_angle_gamma 154.419661
_cell_volume 511.827097
_symmetry_space_group_name_H-M "P -1"
_symmetry_group_IT_number 2
_symmetry_cell_setting 'triclinic'
loop_
_space_group_symop_operation_xyz
x,y,z
-x,-y,-z
loop_
_atom_site_type_symbol
_atom_site_label
_atom_site_fract_x
_atom_site_fract_y
_atom_site_fract_z
Si Si1 0.152880 0.320196 0.839463
Si Si2 0.352265 0.194587 0.913863
Si Si3 0.437944 0.870089 0.021343
Si Si4 0.701677 0.576100 0.747757
Si Si5 0.620593 0.193660 0.625802
Si Si6 0.563230 0.189613 0.325919
Si Si7 0.731767 0.820519 0.491315
O O1 0.450475 0.444265 0.736932
O O2 0.389869 0.544640 0.688369
O O3 0.880096 0.121052 0.831024
O O4 0.809418 0.119325 0.150117
O O5 0.646328 0.451756 0.791325
O O6 0.529512 0.226529 0.738051
O O7 0.000000 0.000000 0.000000
O O8 0.087483 0.016551 0.192563
O O9 0.281255 0.730328 0.934677
O O10 0.206079 0.719017 0.301042
O O11 0.500000 0.000000 0.000000
O O12 0.151599 0.883544 0.512572
O O13 0.500000 0.500000 0.000000
O O14 0.756296 0.279715 0.377176
O O15 0.445775 0.206692 0.435597
O O16 0.000000 0.000000 0.500000
#
# Coordination Sequence:
#
# PCOD9021266 Si02
#       7
#     2   2   2   2   2   2   2
#     4  10  22  38  59  90 134 162 206 254 313 373
#     4  12  20  33  56  86 137 161 190 243 308 393
#     4  10  25  46  65  86 120 168 225 272 301 351
#     4  12  19  36  58  97 132 164 197 242 321 398
#     4  10  23  41  59  93 122 167 205 255 311 374
#     4  12  23  39  65  93 130 166 205 254 320 382
#     4  12  22  33  58  96 132 170 195 242 318 389
#
# _framework density 27.352985
#
# number of rings (size 3 to 8) (size 9 to 14) (size 15 to 20)
#    0.857    0.000    7.143    0.857    2.000    1.714 
#    0.000    0.714    0.000    3.429    0.000    0.000 
#    0.000    0.000    0.000    0.000    0.000    0.000 
#
# Total GULP energy -78203.974807 kJ/mol
# GULP energy per Si atom -5585.998200 kJ/mol
# Density = 2.729073 g / cm^3
# Si number density = 27.352985 Si / 1000 Ang^3
#
#
#
# Elastic Constant Matrix: (Units=GPa)
#
#
# Indices 1 2 3 4 5 6 
#
# 1 141.0467 56.8185 52.9646 18.2617 41.3771 -24.8458
# 2 56.8185 150.6133 55.8265 -1.2050 21.9086 -17.7084
# 3 52.9646 55.8265 160.1139 14.6270 26.4608 5.9374
# 4 18.2617 -1.2050 14.6270 68.9778 6.6163 18.2159
# 5 41.3771 21.9086 26.4608 6.6163 43.3153 5.9838
# 6 -24.8458 -17.7084 5.9374 18.2159 5.9838 60.0883
#
#
#
# Elastic Compliance Matrix: (Units=1/GPa)
#
#
# Indices 1 2 3 4 5 6 
#
# 1 0.013922 -0.001981 -0.001903 -0.004269 -0.011560 0.007806
# 2 -0.001981 0.008668 -0.002264 0.000807 -0.001490 0.001863
# 3 -0.001903 -0.002264 0.008054 -0.000584 -0.001603 -0.001913
# 4 -0.004269 0.000807 -0.000584 0.017383 0.002335 -0.006972
# 5 -0.011560 -0.001490 -0.001603 0.002335 0.036809 -0.009434
# 6 0.007806 0.001863 -0.001913 -0.006972 -0.009434 0.023661
#
#
# Mechanical properties :
#
#
# Convention : Reuss Voigt Hill
#
# Bulk Modulus (GPa) = 54.50392 86.99923 70.75158
# Shear Modulus (GPa) = 39.39839 53.55389 46.47614
#
# Velocity S-wave (km/s) = 3.79934 4.42960 4.12652
# Velocity P-wave (km/s) = 6.26227 7.61820 6.97327
#
# Compressibility (1/GPa) = 0.01834730
#
# Stress axis : x y z
#
# Youngs Moduli (GPa) = 71.82929 115.36607 124.16647
#
# Poissons Ratio (x) = 0.22856 0.23634
# Poissons Ratio (y) = 0.14231 0.28105
# Poissons Ratio (z) = 0.13672 0.26113
#
# Static dielectric constant tensor:
#      x y z
#    x 1.568880 -0.076290 -0.431920 
#    y -0.076290 2.095000 -0.095710 
#    z -0.431920 -0.095710 1.817840 
# 
# From -- ./inp_files/317717.got.cif
#   From: 2010.05.17/outbox.cif.g08.bks.cpg/sg2_159_cif.got.tgz:317717.got - 2010.06.03 11:33:40.
