data_PCOD9021304
_publ_section_title
;
Structure prediction by ZEFSAII (Michael W. Deem and Ramdas Pophale) SiO2 
 PCOD9021304
Probable space group: P -1
;
_chemical_formula_sum "Si O2"
_cell_formula_units_Z 14
_cell_length_a 7.849993
_cell_length_b 11.551189
_cell_length_c 17.160450
_cell_angle_alpha 30.038039
_cell_angle_beta 125.726226
_cell_angle_gamma 127.275189
_cell_volume 612.835575
_symmetry_space_group_name_H-M "P -1"
_symmetry_group_IT_number 2
_symmetry_cell_setting 'triclinic'
loop_
_space_group_symop_operation_xyz
x,y,z
-x,-y,-z
loop_
_atom_site_type_symbol
_atom_site_label
_atom_site_fract_x
_atom_site_fract_y
_atom_site_fract_z
Si Si1 0.226917 0.044116 0.427436
Si Si2 0.667158 0.354045 0.018859
Si Si3 0.512048 0.363809 0.503068
Si Si4 0.975026 0.881024 0.814750
Si Si5 0.602697 0.496995 0.273998
Si Si6 0.963848 0.290076 0.676862
Si Si7 0.795482 0.128469 0.319494
O O1 0.130637 0.963878 0.364382
O O2 0.463247 0.223687 0.384292
O O3 0.045589 0.190263 0.321900
O O4 0.215012 0.847890 0.604697
O O5 0.807947 0.623190 0.915842
O O6 0.495751 0.368191 0.898493
O O7 0.638339 0.255230 0.156740
O O8 0.806795 0.179911 0.121336
O O9 0.500000 0.500000 0.500000
O O10 0.555614 0.516998 0.344241
O O11 0.708108 0.241693 0.645736
O O12 0.298215 0.153689 0.555776
O O13 0.011193 0.041396 0.807141
O O14 0.860578 0.590692 0.281545
O O15 0.000000 0.500000 0.500000
#
# Coordination Sequence:
#
# PCOD9021304 Si02
#       7
#     2   2   2   2   2   2   2
#     4   8  16  32  60  87 115 148 198 243 282 337
#     4   9  18  34  63  89 118 158 194 233 295 362
#     4  10  22  39  60  82 117 158 201 243 292 347
#     4   9  18  35  60  88 118 154 200 238 285 351
#     4   9  19  37  59  91 117 153 199 240 292 350
#     4  10  22  38  60  87 121 152 201 249 287 341
#     4   9  17  33  59  88 117 148 197 241 286 343
#
# _framework density 22.844625000000001
#
# number of rings (size 3 to 8) (size 9 to 14) (size 15 to 20)
#    0.000    2.857    0.000    0.857    8.000    0.571 
#    0.000   19.286    0.000    0.000    0.000    0.000 
#    0.000    0.000    0.000    0.000    0.000    0.000 
#
# Total GULP energy -77944.018429 kJ/mol
# GULP energy per Si atom -5567.429888 kJ/mol
# Density = 2.279263 g / cm^3
# Si number density = 22.844625 Si / 1000 Ang^3
#
#
#
# Elastic Constant Matrix: (Units=GPa)
#
#
# Indices 1 2 3 4 5 6 
#
# 1 36.6908 28.5497 10.0682 -5.7376 7.2672 8.7965
# 2 28.5497 120.1441 43.1936 15.4452 15.1444 9.7646
# 3 10.0682 43.1936 119.3524 41.3597 -0.0628 -2.4049
# 4 -5.7376 15.4452 41.3597 49.7100 -6.0599 9.7917
# 5 7.2672 15.1444 -0.0628 -6.0599 26.7627 5.9361
# 6 8.7965 9.7646 -2.4049 9.7917 5.9361 34.8940
#
#
#
# Elastic Compliance Matrix: (Units=1/GPa)
#
#
# Indices 1 2 3 4 5 6 
#
# 1 0.040588 -0.008451 -0.005573 0.014318 -0.000300 -0.012218
# 2 -0.008451 0.012366 -0.002563 -0.003446 -0.005580 0.000410
# 3 -0.005573 -0.002563 0.014665 -0.013689 -0.001713 0.007266
# 4 0.014318 -0.003446 -0.013689 0.038689 0.010386 -0.016212
# 5 -0.000300 -0.005580 -0.001713 0.010386 0.044958 -0.009044
# 6 -0.012218 0.000410 0.007266 -0.016212 -0.009044 0.038212
#
#
# Mechanical properties :
#
#
# Convention : Reuss Voigt Hill
#
# Bulk Modulus (GPa) = 29.03192 48.86782 38.94987
# Shear Modulus (GPa) = 21.35531 35.23171 28.29351
#
# Velocity S-wave (km/s) = 3.06078 3.93139 3.52308
# Velocity P-wave (km/s) = 5.02266 6.48425 5.79969
#
# Compressibility (1/GPa) = 0.03444485
#
# Stress axis : x y z
#
# Youngs Moduli (GPa) = 24.63813 80.86701 68.18802
#
# Poissons Ratio (x) = 0.68339 0.38004
# Poissons Ratio (y) = 0.20821 0.17475
# Poissons Ratio (z) = 0.13732 0.20725
#
# Static dielectric constant tensor:
#      x y z
#    x 1.954500 -0.013380 -0.010830 
#    y -0.013380 1.836950 0.025970 
#    z -0.010830 0.025970 1.921710 
# 
# From -- ./inp_files/559587.got.cif
#   From: 2010.05.17/outbox.cif.g08.bks.cpg/sg2_280_cif.got.tgz:559587.got - 2010.06.03 11:33:40.
