data_PCOD9021558
_publ_section_title
;
Structure prediction by ZEFSAII (Michael W. Deem and Ramdas Pophale) SiO2 
 PCOD9021558
Probable space group: P -1
;
_chemical_formula_sum "Si O2"
_cell_formula_units_Z 16
_cell_length_a 8.290868
_cell_length_b 11.454200
_cell_length_c 14.917951
_cell_angle_alpha 74.710727
_cell_angle_beta 96.805271
_cell_angle_gamma 139.154519
_cell_volume 886.356253
_symmetry_space_group_name_H-M "P -1"
_symmetry_group_IT_number 2
_symmetry_cell_setting 'triclinic'
loop_
_space_group_symop_operation_xyz
x,y,z
-x,-y,-z
loop_
_atom_site_type_symbol
_atom_site_label
_atom_site_fract_x
_atom_site_fract_y
_atom_site_fract_z
Si Si1 0.982984 0.933227 0.109419
Si Si2 0.113477 0.028715 0.720707
Si Si3 0.611374 0.020776 0.343138
Si Si4 0.496085 0.545915 0.388464
Si Si5 0.037685 0.688463 0.552943
Si Si6 0.605643 0.847338 0.768481
Si Si7 0.267409 0.444114 0.768964
Si Si8 0.068940 0.643873 0.374376
O O1 0.870204 0.959180 0.172462
O O2 0.808853 0.716446 0.147202
O O3 0.254638 0.058464 0.145816
O O4 0.000000 0.000000 0.000000
O O5 0.312628 0.235359 0.653036
O O6 0.181058 0.935415 0.707390
O O7 0.839052 0.931016 0.706013
O O8 0.733273 0.113253 0.428894
O O9 0.519063 0.098292 0.283169
O O10 0.364060 0.799641 0.371856
O O11 0.500000 0.500000 0.500000
O O12 0.570599 0.500550 0.319929
O O13 0.209599 0.423927 0.384755
O O14 0.999616 0.689835 0.444673
O O15 0.071993 0.562834 0.585240
O O16 0.405442 0.626892 0.794982
O O17 0.012531 0.346157 0.726366
#
# Coordination Sequence:
#
# PCOD9021558 Si02
#       8
#     2   2   2   2   2   2   2   2
#     4   9  21  42  64  87 116 150 195 248 303 356
#     4   9  22  40  59  87 118 154 197 244 298 349
#     4  12  20  39  59  85 121 156 200 242 291 347
#     4  11  20  37  56  81 121 162 201 244 285 341
#     4  11  23  33  56  82 118 163 203 234 286 340
#     4  10  22  38  63  87 117 153 193 244 303 348
#     4  11  20  39  62  82 119 157 195 241 297 349
#     4  11  21  37  51  83 120 159 199 241 282 340
#
# _framework density 18.051432999999999
#
# number of rings (size 3 to 8) (size 9 to 14) (size 15 to 20)
#    0.750    0.750    5.000    1.125    0.000    0.500 
#    2.250    1.875    0.000    0.750    0.000    0.000 
#    0.000    0.000    0.000    0.000    0.000    0.000 
#
# Total GULP energy -89083.282549 kJ/mol
# GULP energy per Si atom -5567.705159 kJ/mol
# Density = 1.801035 g / cm^3
# Si number density = 18.051433 Si / 1000 Ang^3
#
#
#
# Elastic Constant Matrix: (Units=GPa)
#
#
# Indices 1 2 3 4 5 6 
#
# 1 81.2350 21.0839 17.1871 0.6443 -1.9983 -5.7703
# 2 21.0839 95.1981 28.3485 1.9702 0.0822 -3.3636
# 3 17.1871 28.3485 94.6690 -8.0279 -1.3250 -3.8353
# 4 0.6443 1.9702 -8.0279 14.9586 1.3372 1.4842
# 5 -1.9983 0.0822 -1.3250 1.3372 12.4099 2.7104
# 6 -5.7703 -3.3636 -3.8353 1.4842 2.7104 24.6453
#
#
#
# Elastic Compliance Matrix: (Units=1/GPa)
#
#
# Indices 1 2 3 4 5 6 
#
# 1 0.013523 -0.002350 -0.001765 -0.001613 0.001635 0.002488
# 2 -0.002350 0.012161 -0.003478 -0.003393 -0.000649 0.000844
# 3 -0.001765 -0.003478 0.012563 0.007200 0.000170 0.000615
# 4 -0.001613 -0.003393 0.007200 0.072146 -0.006511 -0.003349
# 5 0.001635 -0.000649 0.000170 -0.006511 0.083416 -0.008461
# 6 0.002488 0.000844 0.000615 -0.003349 -0.008461 0.042501
#
#
# Mechanical properties :
#
#
# Convention : Reuss Voigt Hill
#
# Bulk Modulus (GPa) = 43.35958 44.92679 44.14319
# Shear Modulus (GPa) = 19.29157 24.03495 21.66326
#
# Velocity S-wave (km/s) = 3.27264 3.65289 3.46798
# Velocity P-wave (km/s) = 6.19293 6.53710 6.36734
#
# Compressibility (1/GPa) = 0.02306295
#
# Stress axis : x y z
#
# Youngs Moduli (GPa) = 73.94872 82.23043 79.60097
#
# Poissons Ratio (x) = 0.19321 0.14046
# Poissons Ratio (y) = 0.17375 0.27682
# Poissons Ratio (z) = 0.13049 0.28596
#
# Static dielectric constant tensor:
#      x y z
#    x 1.702830 0.012390 -0.006400 
#    y 0.012390 1.634980 0.000870 
#    z -0.006400 0.000870 1.598700 
# 
# From -- ./inp_files/272729.got.cif
#   From: 2010.05.17/outbox.cif.g08.bks.cpg/sg2_137_cif.got.tgz:272729.got - 2010.06.03 11:33:40.
