data_PCOD9021978
_publ_section_title
;
Structure prediction by ZEFSAII (Michael W. Deem and Ramdas Pophale) SiO2 
 PCOD9021978
Probable space group: P -1
;
_chemical_formula_sum "Si O2"
_cell_formula_units_Z 15
_cell_length_a 18.430737
_cell_length_b 16.489481
_cell_length_c 6.327924
_cell_angle_alpha 44.388294
_cell_angle_beta 56.910081
_cell_angle_gamma 29.592239
_cell_volume 648.287628
_symmetry_space_group_name_H-M "P -1"
_symmetry_group_IT_number 2
_symmetry_cell_setting 'triclinic'
loop_
_space_group_symop_operation_xyz
x,y,z
-x,-y,-z
loop_
_atom_site_type_symbol
_atom_site_label
_atom_site_fract_x
_atom_site_fract_y
_atom_site_fract_z
Si Si1 0.000000 0.000000 0.500000
Si Si2 0.553824 0.072430 0.749283
Si Si3 0.458792 0.718303 0.287577
Si Si4 0.349654 0.446667 0.090608
Si Si5 0.893046 0.663589 0.050355
Si Si6 0.281709 0.753176 0.796511
Si Si7 0.824735 0.020285 0.032570
Si Si8 0.065074 0.602719 0.251257
O O1 0.126214 0.924178 0.594713
O O2 0.910975 0.038270 0.772014
O O3 0.515009 0.192237 0.793076
O O4 0.468732 0.224281 0.404605
O O5 0.734474 0.877838 0.809909
O O6 0.500000 0.000000 0.000000
O O7 0.419155 0.661181 0.621934
O O8 0.591078 0.557003 0.208952
O O9 0.306295 0.887256 0.078959
O O10 0.318382 0.576851 0.075713
O O11 0.191768 0.558578 0.082939
O O12 0.863804 0.589011 0.398955
O O13 0.976812 0.665338 0.062029
O O14 0.000000 0.500000 0.000000
O O15 0.253651 0.855745 0.859224
O O16 0.952606 0.781739 0.267857
#
# Coordination Sequence:
#
# PCOD9021978 Si02
#       8
#     1   2   2   2   2   2   2   2
#     4  10  22  38  68 106 142 184 242 298 350 426
#     4  12  27  49  71 110 141 194 244 306 376 437
#     4  11  27  46  73 104 152 194 242 305 369 441
#     4  12  27  46  74 110 152 192 246 303 369 445
#     4  11  27  48  76 106 143 189 249 303 374 440
#     4  11  25  47  73 111 148 202 245 304 368 436
#     4  11  23  46  74 104 149 191 245 299 364 440
#     4  11  25  47  74 110 142 195 243 307 366 438
#
# _framework density 23.137878000000001
#
# number of rings (size 3 to 8) (size 9 to 14) (size 15 to 20)
#    0.000    0.800    4.000    1.600    5.600    4.800 
#    0.000    0.000    0.000    0.000    0.000    0.933 
#    0.000    0.000    0.000    0.000    0.000    0.000 
#
# Total GULP energy -83726.131807 kJ/mol
# GULP energy per Si atom -5581.742120 kJ/mol
# Density = 2.308522 g / cm^3
# Si number density = 23.137878 Si / 1000 Ang^3
#
#
#
# Elastic Constant Matrix: (Units=GPa)
#
#
# Indices 1 2 3 4 5 6 
#
# 1 159.3392 48.6120 38.6141 8.4569 -8.8807 -7.1538
# 2 48.6120 111.2476 38.1425 -0.4894 2.8413 -1.2339
# 3 38.6141 38.1425 62.2108 11.2967 -5.7790 -0.1624
# 4 8.4569 -0.4894 11.2967 27.2284 -2.1439 -4.6249
# 5 -8.8807 2.8413 -5.7790 -2.1439 31.0368 2.0518
# 6 -7.1538 -1.2339 -0.1624 -4.6249 2.0518 43.6517
#
#
#
# Elastic Compliance Matrix: (Units=1/GPa)
#
#
# Indices 1 2 3 4 5 6 
#
# 1 0.007974 -0.002457 -0.003108 -0.000913 0.001796 0.001045
# 2 -0.002457 0.012622 -0.007181 0.003816 -0.002963 0.000471
# 3 -0.003108 -0.007181 0.024444 -0.009310 0.003795 -0.001786
# 4 -0.000913 0.003816 -0.009310 0.041696 0.000250 0.004330
# 5 0.001796 -0.002963 0.003795 0.000250 0.033817 -0.001338
# 6 0.001045 0.000471 -0.001786 0.004330 -0.001338 0.023608
#
#
# Mechanical properties :
#
#
# Convention : Reuss Voigt Hill
#
# Bulk Modulus (GPa) = 51.15203 64.83721 57.99462
# Shear Modulus (GPa) = 28.38161 34.21198 31.29679
#
# Velocity S-wave (km/s) = 3.50613 3.84945 3.68179
# Velocity P-wave (km/s) = 6.20855 6.91669 6.57216
#
# Compressibility (1/GPa) = 0.01954957
#
# Stress axis : x y z
#
# Youngs Moduli (GPa) = 125.40549 79.22415 40.90921
#
# Poissons Ratio (x) = 0.19468 0.12713
# Poissons Ratio (y) = 0.30816 0.29376
# Poissons Ratio (z) = 0.38971 0.56889
#
# Static dielectric constant tensor:
#      x y z
#    x 1.828750 0.024400 -0.009620 
#    y 0.024400 1.872260 -0.024090 
#    z -0.009620 -0.024090 1.940890 
# 
# From -- ./inp_files/50417.got.cif
#   From: 2010.05.17/outbox.cif.g08.bks.cpg/sg2_26_cif.got.tgz:50417.got - 2010.06.03 11:33:40.
