data_PCOD9021922
_publ_section_title
;
Structure prediction by ZEFSAII (Michael W. Deem and Ramdas Pophale) SiO2 
 PCOD9021922
Probable space group: P -1
;
_chemical_formula_sum "Si O2"
_cell_formula_units_Z 14
_cell_length_a 25.355682
_cell_length_b 14.417931
_cell_length_c 13.909086
_cell_angle_alpha 159.215925
_cell_angle_beta 157.603292
_cell_angle_gamma 23.196524
_cell_volume 628.576047
_symmetry_space_group_name_H-M "P -1"
_symmetry_group_IT_number 2
_symmetry_cell_setting 'triclinic'
loop_
_space_group_symop_operation_xyz
x,y,z
-x,-y,-z
loop_
_atom_site_type_symbol
_atom_site_label
_atom_site_fract_x
_atom_site_fract_y
_atom_site_fract_z
Si Si1 0.777389 0.587632 0.263665
Si Si2 0.447898 0.883546 0.497702
Si Si3 0.751645 0.674606 0.929902
Si Si4 0.534649 0.343510 0.007507
Si Si5 0.328914 0.545975 0.232295
Si Si6 0.939403 0.874147 0.686648
Si Si7 0.147234 0.876604 0.560803
O O1 0.697357 0.877101 0.467522
O O2 0.865648 0.673144 0.411043
O O3 0.900683 0.340107 0.296181
O O4 0.670881 0.504009 0.931148
O O5 0.585082 0.793408 0.716830
O O6 0.437030 0.599984 0.164415
O O7 0.493901 0.069486 0.676987
O O8 0.720318 0.641412 0.956654
O O9 0.844593 0.376984 0.742567
O O10 0.829309 0.886169 0.236247
O O11 0.705874 0.245994 0.239971
O O12 0.500000 0.500000 0.000000
O O13 0.500000 0.500000 0.500000
O O14 0.195875 0.860263 0.330826
O O15 0.000000 0.000000 0.000000
O O16 0.000000 0.000000 0.500000
#
# Coordination Sequence:
#
# PCOD9021922 Si02
#       7
#     2   2   2   2   2   2   2
#     4  10  22  40  62  89 131 176 216 260 329 381
#     4  10  22  38  67  90 125 166 205 265 323 384
#     4  10  23  39  64  98 129 167 218 260 326 396
#     4  10  22  42  64  93 120 155 215 268 321 389
#     4  11  24  37  66  96 138 174 222 267 319 396
#     4   9  21  40  57  84 132 171 213 264 314 374
#     4  10  22  44  66  89 129 167 208 275 335 377
#
# _framework density 22.272562000000001
#
# number of rings (size 3 to 8) (size 9 to 14) (size 15 to 20)
#    0.000    2.000    0.000    1.714   12.000    1.143 
#    2.571    0.000    0.000    0.000    0.000    0.000 
#    0.000    0.000    0.000    0.000    0.000    0.000 
#
# Total GULP energy -78106.349857 kJ/mol
# GULP energy per Si atom -5579.024990 kJ/mol
# Density = 2.222187 g / cm^3
# Si number density = 22.272562 Si / 1000 Ang^3
#
#
#
# Elastic Constant Matrix: (Units=GPa)
#
#
# Indices 1 2 3 4 5 6 
#
# 1 116.5645 49.5706 12.9524 -6.8671 2.2310 5.7854
# 2 49.5706 147.7228 32.3271 2.2479 0.6792 -13.2048
# 3 12.9524 32.3271 62.6127 6.5978 -1.3107 -0.5345
# 4 -6.8671 2.2479 6.5978 34.5103 -3.5092 4.5745
# 5 2.2310 0.6792 -1.3107 -3.5092 23.1407 8.8960
# 6 5.7854 -13.2048 -0.5345 4.5745 8.8960 48.1801
#
#
#
# Elastic Compliance Matrix: (Units=1/GPa)
#
#
# Indices 1 2 3 4 5 6 
#
# 1 0.010495 -0.003675 -0.000585 0.002841 0.000508 -0.002638
# 2 -0.003675 0.009168 -0.003852 -0.001193 -0.001589 0.003318
# 3 -0.000585 -0.003852 0.018434 -0.003203 0.000981 -0.000658
# 4 0.002841 -0.001193 -0.003203 0.031507 0.006220 -0.004844
# 5 0.000508 -0.001589 0.000981 0.006220 0.048034 -0.009945
# 6 -0.002638 0.003318 -0.000658 -0.004844 -0.009945 0.024270
#
#
# Mechanical properties :
#
#
# Convention : Reuss Voigt Hill
#
# Bulk Modulus (GPa) = 45.72050 57.40002 51.56026
# Shear Modulus (GPa) = 30.22560 36.63622 33.43091
#
# Velocity S-wave (km/s) = 3.68785 4.06014 3.87847
# Velocity P-wave (km/s) = 6.22141 6.91428 6.57697
#
# Compressibility (1/GPa) = 0.02187203
#
# Stress axis : x y z
#
# Youngs Moduli (GPa) = 95.27959 109.07753 54.24904
#
# Poissons Ratio (x) = 0.40089 0.03173
# Poissons Ratio (y) = 0.35018 0.20898
# Poissons Ratio (z) = 0.05572 0.42020
#
# Static dielectric constant tensor:
#      x y z
#    x 1.856780 -0.013880 -0.010690 
#    y -0.013880 1.884540 -0.016150 
#    z -0.010690 -0.016150 1.924580 
# 
# From -- ./inp_files/36238.got.cif
#   From: 2010.05.17/outbox.cif.g08.bks.cpg/sg2_19_cif.got.tgz:36238.got - 2010.06.03 11:33:40.
