data_PCOD9022812
_publ_section_title
;
Structure prediction by ZEFSAII (Michael W. Deem and Ramdas Pophale) SiO2 
 PCOD9022812
Probable space group: P -1
;
_chemical_formula_sum "Si O2"
_cell_formula_units_Z 16
_cell_length_a 15.055555
_cell_length_b 5.130157
_cell_length_c 16.546233
_cell_angle_alpha 120.939324
_cell_angle_beta 144.808974
_cell_angle_gamma 75.888815
_cell_volume 590.137687
_symmetry_space_group_name_H-M "P -1"
_symmetry_group_IT_number 2
_symmetry_cell_setting 'triclinic'
loop_
_space_group_symop_operation_xyz
x,y,z
-x,-y,-z
loop_
_atom_site_type_symbol
_atom_site_label
_atom_site_fract_x
_atom_site_fract_y
_atom_site_fract_z
Si Si1 0.147384 0.536883 0.820258
Si Si2 0.634528 0.735038 0.577984
Si Si3 0.434246 0.376171 0.232651
Si Si4 0.133551 0.586293 0.303707
Si Si5 0.810705 0.430788 0.844141
Si Si6 0.129874 0.822035 0.561482
Si Si7 0.687058 0.016113 0.124730
Si Si8 0.389301 0.122845 0.677342
O O1 0.265613 0.849308 0.909721
O O2 0.059981 0.521854 0.839910
O O3 0.977414 0.448770 0.624874
O O4 0.249250 0.288645 0.861324
O O5 0.500000 0.500000 0.500000
O O6 0.521589 0.688195 0.407009
O O7 0.788079 0.663137 0.641128
O O8 0.716554 0.061652 0.740458
O O9 0.247433 0.323892 0.107926
O O10 0.494670 0.091643 0.261967
O O11 0.506714 0.524019 0.223373
O O12 0.203595 0.575280 0.264540
O O13 0.236578 0.935080 0.474559
O O14 0.000000 0.500000 0.000000
O O15 0.192586 0.731947 0.678632
O O16 0.296373 0.075804 0.685973
O O17 0.000000 0.000000 0.500000
O O18 0.500000 0.000000 0.000000
#
# Coordination Sequence:
#
# PCOD9022812 Si02
#       8
#     2   2   2   2   2   2   2   2
#     4  10  23  41  69  97 127 174 222 271 323 396
#     4  11  21  40  69  88 124 176 231 271 321 393
#     4  11  22  41  63  92 125 170 224 267 323 385
#     4  10  22  39  64  93 125 171 219 273 321 394
#     4  12  25  41  61  94 136 178 218 275 339 395
#     4   9  21  41  69  96 131 165 220 273 328 392
#     4  11  23  43  66  97 133 172 212 267 342 407
#     4  10  22  39  67  96 121 165 225 275 313 385
#
# _framework density 27.112317999999998
#
# number of rings (size 3 to 8) (size 9 to 14) (size 15 to 20)
#    0.000    1.500    2.500    2.625    1.750    8.500 
#    4.500    0.000    0.000    0.000    0.000    0.000 
#    0.000    0.000    0.000    0.000    0.000    0.000 
#
# Total GULP energy -89318.210362 kJ/mol
# GULP energy per Si atom -5582.388148 kJ/mol
# Density = 2.705061 g / cm^3
# Si number density = 27.112318 Si / 1000 Ang^3
#
#
#
# Elastic Constant Matrix: (Units=GPa)
#
#
# Indices 1 2 3 4 5 6 
#
# 1 165.1497 44.4918 31.4524 -9.1301 54.4755 8.2316
# 2 44.4918 127.5095 36.8821 4.5626 38.4311 13.3643
# 3 31.4524 36.8821 112.4301 -20.8056 31.7002 -7.5744
# 4 -9.1301 4.5626 -20.8056 26.8385 -2.5214 9.5416
# 5 54.4755 38.4311 31.7002 -2.5214 61.0380 -7.5948
# 6 8.2316 13.3643 -7.5744 9.5416 -7.5948 43.7232
#
#
#
# Elastic Compliance Matrix: (Units=1/GPa)
#
#
# Indices 1 2 3 4 5 6 
#
# 1 0.009375 -0.000574 0.000512 0.004273 -0.008584 -0.003924
# 2 -0.000574 0.011093 -0.002766 -0.003329 -0.005674 -0.004021
# 3 0.000512 -0.002766 0.012973 0.010270 -0.005044 -0.000121
# 4 0.004273 -0.003329 0.010270 0.050229 -0.006227 -0.010051
# 5 -0.008584 -0.005674 -0.005044 -0.006227 0.031129 0.009243
# 6 -0.003924 -0.004021 -0.000121 -0.010051 0.009243 0.028617
#
#
# Mechanical properties :
#
#
# Convention : Reuss Voigt Hill
#
# Bulk Modulus (GPa) = 35.98825 70.08245 53.03535
# Shear Modulus (GPa) = 31.57866 45.80413 38.69139
#
# Velocity S-wave (km/s) = 3.41652 4.11472 3.78177
# Velocity P-wave (km/s) = 5.37272 6.96273 6.21875
#
# Compressibility (1/GPa) = 0.02778685
#
# Stress axis : x y z
#
# Youngs Moduli (GPa) = 106.66165 90.14320 77.08283
#
# Poissons Ratio (x) = 0.05173 -0.03947
# Poissons Ratio (y) = 0.06121 0.21319
# Poissons Ratio (z) = -0.05461 0.24931
#
# Static dielectric constant tensor:
#      x y z
#    x 2.335590 0.039240 -0.112820 
#    y 0.039240 2.709820 -0.295560 
#    z -0.112820 -0.295560 2.495650 
# 
# From -- ./inp_files/571771.got.cif
#   From: 2010.05.17/outbox.cif.g08.bks.cpg/sg2_286_cif.got.tgz:571771.got - 2010.06.03 11:33:40.
