data_PCOD9022975
_publ_section_title
;
Structure prediction by ZEFSAII (Michael W. Deem and Ramdas Pophale) SiO2 
 PCOD9022975
Probable space group: P -1
;
_chemical_formula_sum "Si O2"
_cell_formula_units_Z 14
_cell_length_a 24.253450
_cell_length_b 7.030904
_cell_length_c 15.349994
_cell_angle_alpha 53.620139
_cell_angle_beta 18.155138
_cell_angle_gamma 52.614570
_cell_volume 646.664404
_symmetry_space_group_name_H-M "P -1"
_symmetry_group_IT_number 2
_symmetry_cell_setting 'triclinic'
loop_
_space_group_symop_operation_xyz
x,y,z
-x,-y,-z
loop_
_atom_site_type_symbol
_atom_site_label
_atom_site_fract_x
_atom_site_fract_y
_atom_site_fract_z
Si Si1 0.050808 0.769482 0.928628
Si Si2 0.902193 0.383932 0.601167
Si Si3 0.540706 0.741803 0.054869
Si Si4 0.459543 0.694843 0.383782
Si Si5 0.533961 0.806377 0.425427
Si Si6 0.846960 0.334042 0.380387
Si Si7 0.087118 0.157201 0.218202
O O1 0.257821 0.673104 0.666257
O O2 0.054102 0.819208 0.807131
O O3 0.921978 0.581626 0.194228
O O4 0.000000 0.000000 0.000000
O O5 0.000000 0.500000 0.500000
O O6 0.034627 0.315499 0.339528
O O7 0.858901 0.124234 0.764891
O O8 0.722068 0.571208 0.798792
O O9 0.548004 0.767842 0.142362
O O10 0.365176 0.627811 0.326028
O O11 0.500000 0.000000 0.000000
O O12 0.459735 0.862129 0.423214
O O13 0.542793 0.427277 0.363388
O O14 0.500000 0.000000 0.500000
O O15 0.747698 0.759541 0.101121
O O16 0.912971 0.200826 0.406070
#
# Coordination Sequence:
#
# PCOD9022975 Si02
#       7
#     2   2   2   2   2   2   2
#     4  10  22  39  65  94 135 177 214 274 341 407
#     4  11  25  45  68  96 138 182 233 287 336 409
#     4  11  24  46  72 101 139 188 235 288 347 418
#     4  10  23  42  63 103 133 168 231 273 338 416
#     4  11  23  40  69 100 137 174 217 287 348 405
#     4  10  23  42  64  97 140 169 234 275 334 418
#     4  11  24  42  68 102 133 181 231 282 347 406
#
# _framework density 21.649557999999999
#
# number of rings (size 3 to 8) (size 9 to 14) (size 15 to 20)
#    0.000    1.429    1.429    2.571    2.000    7.429 
#    0.000    1.429    0.000    0.000    0.000    0.000 
#    0.000    0.000    0.000    0.000    0.000    0.000 
#
# Total GULP energy -78231.102149 kJ/mol
# GULP energy per Si atom -5587.935868 kJ/mol
# Density = 2.160028 g / cm^3
# Si number density = 21.649558 Si / 1000 Ang^3
#
#
#
# Elastic Constant Matrix: (Units=GPa)
#
#
# Indices 1 2 3 4 5 6 
#
# 1 126.4546 55.6661 21.7783 10.0367 12.2144 20.2383
# 2 55.6661 114.0212 48.7974 17.6686 20.3601 20.6810
# 3 21.7783 48.7974 84.4498 9.9656 -0.1561 6.6020
# 4 10.0367 17.6686 9.9656 12.5877 2.1317 -4.8934
# 5 12.2144 20.3601 -0.1561 2.1317 41.6017 0.9456
# 6 20.2383 20.6810 6.6020 -4.8934 0.9456 40.5279
#
#
#
# Elastic Compliance Matrix: (Units=1/GPa)
#
#
# Indices 1 2 3 4 5 6 
#
# 1 0.010591 -0.003571 0.000246 -0.005046 -0.001009 -0.004092
# 2 -0.003571 0.020278 -0.007404 -0.022317 -0.007535 -0.009877
# 3 0.000246 -0.007404 0.016405 -0.003233 0.003767 0.000505
# 4 -0.005046 -0.022317 -0.003233 0.128052 0.005153 0.029775
# 5 -0.001009 -0.007535 0.003767 0.005153 0.027687 0.003712
# 6 -0.004092 -0.009877 0.000505 0.029775 0.003712 0.035184
#
#
# Mechanical properties :
#
#
# Convention : Reuss Voigt Hill
#
# Bulk Modulus (GPa) = 38.73835 64.15658 51.44747
# Shear Modulus (GPa) = 18.63855 32.18905 25.41380
#
# Velocity S-wave (km/s) = 2.93733 3.86012 3.42990
# Velocity P-wave (km/s) = 5.42550 7.04030 6.28498
#
# Compressibility (1/GPa) = 0.02581421
#
# Stress axis : x y z
#
# Youngs Moduli (GPa) = 94.42309 49.31490 60.95568
#
# Poissons Ratio (x) = 0.17612 -0.01499
# Poissons Ratio (y) = 0.33722 0.45134
# Poissons Ratio (z) = -0.02323 0.36515
#
# Static dielectric constant tensor:
#      x y z
#    x 1.840750 -0.015760 0.007980 
#    y -0.015760 1.768220 -0.013970 
#    z 0.007980 -0.013970 1.755570 
# 
# From -- ./inp_files/482515.got.cif
#   From: 2010.05.17/outbox.cif.g08.bks.cpg/sg2_242_cif.got.tgz:482515.got - 2010.06.03 11:33:40.
