data_PCOD9022019
_publ_section_title
;
Structure prediction by ZEFSAII (Michael W. Deem and Ramdas Pophale) SiO2 
 PCOD9022019
Probable space group: P -1
;
_chemical_formula_sum "Si O2"
_cell_formula_units_Z 15
_cell_length_a 9.153433
_cell_length_b 22.878707
_cell_length_c 8.156134
_cell_angle_alpha 41.368456
_cell_angle_beta 47.453621
_cell_angle_gamma 38.970301
_cell_volume 692.064364
_symmetry_space_group_name_H-M "P -1"
_symmetry_group_IT_number 2
_symmetry_cell_setting 'triclinic'
loop_
_space_group_symop_operation_xyz
x,y,z
-x,-y,-z
loop_
_atom_site_type_symbol
_atom_site_label
_atom_site_fract_x
_atom_site_fract_y
_atom_site_fract_z
Si Si1 0.954450 0.435926 0.036701
Si Si2 0.612858 0.049715 0.203870
Si Si3 0.632672 0.623795 0.655492
Si Si4 0.500000 0.500000 0.500000
Si Si5 0.766876 0.298920 0.969407
Si Si6 0.094839 0.860073 0.092685
Si Si7 0.363226 0.644828 0.512783
Si Si8 0.816980 0.733037 0.052293
O O1 0.835539 0.513742 0.809179
O O2 0.121706 0.322672 0.057373
O O3 0.756426 0.420376 0.311644
O O4 0.000000 0.500000 0.000000
O O5 0.500000 0.000000 0.500000
O O6 0.734420 0.096957 0.121261
O O7 0.401890 0.146353 0.057783
O O8 0.829146 0.957164 0.127639
O O9 0.459404 0.691919 0.792184
O O10 0.466647 0.611040 0.683158
O O11 0.731859 0.677562 0.356857
O O12 0.562983 0.587917 0.343111
O O13 0.670964 0.407968 0.714537
O O14 0.883809 0.203006 0.953458
O O15 0.956414 0.278715 0.007900
O O16 0.194151 0.769170 0.351287
#
# Coordination Sequence:
#
# PCOD9022019 Si02
#       8
#     2   2   2   1   2   2   2   2
#     4  12  27  40  68 107 143 190 233 277 346 422
#     4  11  25  48  77 102 133 180 238 298 355 412
#     4  12  25  42  67  99 145 184 222 283 349 411
#     4  10  22  38  68  96 136 190 224 268 336 416
#     4  11  25  45  70 104 145 188 230 283 344 417
#     4  10  25  46  75 102 135 186 232 288 354 417
#     4  11  21  43  67  95 144 179 230 278 346 409
#     4  12  27  45  69 105 142 181 240 295 341 413
#
# _framework density 21.674284
#
# number of rings (size 3 to 8) (size 9 to 14) (size 15 to 20)
#    0.000    0.800    4.000    2.400    7.467    1.600 
#    0.000    1.333    0.000    0.000    0.000    0.000 
#    0.000    0.000    0.000    0.000    0.000    0.000 
#
# Total GULP energy -83667.580601 kJ/mol
# GULP energy per Si atom -5577.838707 kJ/mol
# Density = 2.162495 g / cm^3
# Si number density = 21.674284 Si / 1000 Ang^3
#
#
#
# Elastic Constant Matrix: (Units=GPa)
#
#
# Indices 1 2 3 4 5 6 
#
# 1 91.1053 46.7742 19.0861 -11.1798 0.3203 9.6051
# 2 46.7742 155.6709 36.5089 -19.6874 7.3346 -2.7764
# 3 19.0861 36.5089 106.4628 -4.0568 -8.2596 -6.8915
# 4 -11.1798 -19.6874 -4.0568 30.4596 0.2510 0.3774
# 5 0.3203 7.3346 -8.2596 0.2510 39.9866 -2.6694
# 6 9.6051 -2.7764 -6.8915 0.3774 -2.6694 30.2131
#
#
#
# Elastic Compliance Matrix: (Units=1/GPa)
#
#
# Indices 1 2 3 4 5 6 
#
# 1 0.014020 -0.003603 -0.001521 0.002680 -0.000128 -0.005180
# 2 -0.003603 0.008649 -0.002243 0.003970 -0.001965 0.001205
# 3 -0.001521 -0.002243 0.010828 -0.000627 0.002865 0.003008
# 4 0.002680 0.003970 -0.000627 0.036321 -0.001187 -0.001189
# 5 -0.000128 -0.001965 0.002865 -0.001187 0.026159 0.002840
# 6 -0.005180 0.001205 0.003008 -0.001189 0.002840 0.035808
#
#
# Mechanical properties :
#
#
# Convention : Reuss Voigt Hill
#
# Bulk Modulus (GPa) = 53.29859 61.99748 57.64803
# Shear Modulus (GPa) = 32.72822 36.85650 34.79236
#
# Velocity S-wave (km/s) = 3.89009 4.12815 4.01089
# Velocity P-wave (km/s) = 6.69486 7.16857 6.93576
#
# Compressibility (1/GPa) = 0.01876222
#
# Stress axis : x y z
#
# Youngs Moduli (GPa) = 71.32477 115.62346 92.35376
#
# Poissons Ratio (x) = 0.41664 0.14046
# Poissons Ratio (y) = 0.25701 0.20715
# Poissons Ratio (z) = 0.10848 0.25935
#
# Static dielectric constant tensor:
#      x y z
#    x 1.871400 0.009170 -0.027780 
#    y 0.009170 2.032390 0.141040 
#    z -0.027780 0.141040 1.859240 
# 
# From -- ./inp_files/224774.got.cif
#   From: 2010.05.17/outbox.cif.g08.bks.cpg/sg2_113_cif.got.tgz:224774.got - 2010.06.03 11:33:40.
