data_PCOD9022616
_publ_section_title
;
Structure prediction by ZEFSAII (Michael W. Deem and Ramdas Pophale) SiO2 
 PCOD9022616
Probable space group: P -1
;
_chemical_formula_sum "Si O2"
_cell_formula_units_Z 16
_cell_length_a 12.232803
_cell_length_b 9.709397
_cell_length_c 21.766575
_cell_angle_alpha 25.912054
_cell_angle_beta 141.017821
_cell_angle_gamma 142.449370
_cell_volume 668.213415
_symmetry_space_group_name_H-M "P -1"
_symmetry_group_IT_number 2
_symmetry_cell_setting 'triclinic'
loop_
_space_group_symop_operation_xyz
x,y,z
-x,-y,-z
loop_
_atom_site_type_symbol
_atom_site_label
_atom_site_fract_x
_atom_site_fract_y
_atom_site_fract_z
Si Si1 0.961140 0.790769 0.982268
Si Si2 0.127813 0.058989 0.639227
Si Si3 0.456816 0.914272 0.615838
Si Si4 0.661065 0.228830 0.243239
Si Si5 0.101808 0.283606 0.212569
Si Si6 0.304529 0.129967 0.071498
Si Si7 0.115229 0.784369 0.314838
Si Si8 0.483608 0.471759 0.696623
O O1 0.774740 0.710484 0.971109
O O2 0.968510 0.500045 0.056904
O O3 0.994997 0.131638 0.822938
O O4 0.125493 0.845530 0.080821
O O5 0.101362 0.404641 0.469216
O O6 0.314353 0.166080 0.719883
O O7 0.175546 0.857010 0.684948
O O8 0.957485 0.861689 0.686829
O O9 0.343271 0.834650 0.660789
O O10 0.408909 0.613250 0.666835
O O11 0.671175 0.004656 0.691116
O O12 0.463179 0.236675 0.449243
O O13 0.464011 0.000913 0.217682
O O14 0.644638 0.585864 0.072953
O O15 0.313412 0.535119 0.196676
O O16 0.074167 0.963178 0.285909
#
# Coordination Sequence:
#
# PCOD9022616 Si02
#       8
#     2   2   2   2   2   2   2   2
#     4  11  21  42  59  89 122 166 209 253 309 372
#     4  11  23  40  65  96 126 163 207 257 317 370
#     4   9  19  39  62  86 126 163 201 254 313 363
#     4  11  21  41  63  93 123 165 206 259 311 372
#     4  11  22  41  65  90 126 165 207 258 310 372
#     4  10  23  38  63  85 128 163 206 256 309 370
#     4  10  22  39  63  91 125 163 206 257 312 369
#     4   9  21  39  61  91 123 162 204 257 309 365
#
# _framework density 23.944447
#
# number of rings (size 3 to 8) (size 9 to 14) (size 15 to 20)
#    0.000    1.750    2.500    2.250    0.000    4.000 
#    4.500    1.250    0.000    6.000    0.000    0.000 
#    0.000    0.000    0.000    0.000    0.000    0.000 
#
# Total GULP energy -89395.011329 kJ/mol
# GULP energy per Si atom -5587.188208 kJ/mol
# Density = 2.388995 g / cm^3
# Si number density = 23.944447 Si / 1000 Ang^3
#
#
#
# Elastic Constant Matrix: (Units=GPa)
#
#
# Indices 1 2 3 4 5 6 
#
# 1 126.7311 33.7344 22.1829 -3.4896 0.3153 -18.9899
# 2 33.7344 55.2818 12.7478 6.8776 -0.5161 -3.5280
# 3 22.1829 12.7478 75.1622 -6.8843 -1.6690 -16.3816
# 4 -3.4896 6.8776 -6.8843 31.2570 -1.7710 3.6420
# 5 0.3153 -0.5161 -1.6690 -1.7710 37.1375 3.2154
# 6 -18.9899 -3.5280 -16.3816 3.6420 3.2154 30.4151
#
#
#
# Elastic Compliance Matrix: (Units=1/GPa)
#
#
# Indices 1 2 3 4 5 6 
#
# 1 0.010490 -0.006104 -0.000766 0.001696 -0.000585 0.005288
# 2 -0.006104 0.023184 -0.003153 -0.006227 0.000116 -0.002087
# 3 -0.000766 -0.003153 0.015971 0.003282 0.000201 0.007344
# 4 0.001696 -0.006227 0.003282 0.034644 0.001893 -0.002244
# 5 -0.000585 0.000116 0.000201 0.001893 0.027324 -0.003359
# 6 0.005288 -0.002087 0.007344 -0.002244 -0.003359 0.040517
#
#
# Mechanical properties :
#
#
# Convention : Reuss Voigt Hill
#
# Bulk Modulus (GPa) = 33.78493 43.83392 38.80942
# Shear Modulus (GPa) = 27.46632 32.32926 29.89779
#
# Velocity S-wave (km/s) = 3.39054 3.67846 3.53743
# Velocity P-wave (km/s) = 5.42845 6.03222 5.73828
#
# Compressibility (1/GPa) = 0.02959900
#
# Stress axis : x y z
#
# Youngs Moduli (GPa) = 95.32874 43.13403 62.61343
#
# Poissons Ratio (x) = 0.26328 0.04796
# Poissons Ratio (y) = 0.58186 0.19743
# Poissons Ratio (z) = 0.07302 0.13601
#
# Static dielectric constant tensor:
#      x y z
#    x 1.916530 0.015640 0.036260 
#    y 0.015640 2.012500 0.015590 
#    z 0.036260 0.015590 1.960560 
# 
# From -- ./inp_files/199496.got.cif
#   From: 2010.05.17/outbox.cif.g08.bks.cpg/sg2_100_cif.got.tgz:199496.got - 2010.06.03 11:33:40.
