data_PCOD9022461
_publ_section_title
;
Structure prediction by ZEFSAII (Michael W. Deem and Ramdas Pophale) SiO2 
 PCOD9022461
Probable space group: P -1
;
_chemical_formula_sum "Si O2"
_cell_formula_units_Z 16
_cell_length_a 8.680517
_cell_length_b 11.905354
_cell_length_c 9.816189
_cell_angle_alpha 84.633110
_cell_angle_beta 58.628215
_cell_angle_gamma 116.670611
_cell_volume 699.198784
_symmetry_space_group_name_H-M "P -1"
_symmetry_group_IT_number 2
_symmetry_cell_setting 'triclinic'
loop_
_space_group_symop_operation_xyz
x,y,z
-x,-y,-z
loop_
_atom_site_type_symbol
_atom_site_label
_atom_site_fract_x
_atom_site_fract_y
_atom_site_fract_z
Si Si1 0.443718 0.774165 0.236598
Si Si2 0.660968 0.502125 0.732592
Si Si3 0.362078 0.119343 0.580438
Si Si4 0.281556 0.356350 0.567627
Si Si5 0.780696 0.532679 0.987721
Si Si6 0.095907 0.046149 0.104529
Si Si7 0.186302 0.822183 0.131420
Si Si8 0.720620 0.259049 0.167059
O O1 0.318899 0.611042 0.338281
O O2 0.521380 0.859581 0.330731
O O3 0.304851 0.807154 0.204126
O O4 0.661319 0.813604 0.045000
O O5 0.766384 0.633008 0.569101
O O6 0.759448 0.524508 0.834797
O O7 0.407310 0.452121 0.871489
O O8 0.319129 0.238497 0.586214
O O9 0.110409 0.977050 0.713887
O O10 0.468335 0.838008 0.624719
O O11 0.500000 0.500000 0.500000
O O12 0.064382 0.316923 0.752472
O O13 0.030711 0.659332 0.895990
O O14 0.717710 0.386497 0.095247
O O15 0.155917 0.944299 0.145352
O O16 0.000000 0.000000 0.000000
O O17 0.309066 0.834854 0.935616
#
# Coordination Sequence:
#
# PCOD9022461 Si02
#       8
#     2   2   2   2   2   2   2   2
#     4  11  22  39  66  89 118 157 211 255 290 348
#     4  11  21  37  59  91 124 164 200 236 305 361
#     4  10  22  39  62  88 123 160 202 245 302 358
#     4  11  21  35  59  88 124 161 203 237 294 368
#     4  10  23  35  57  89 134 159 188 248 301 369
#     4   9  22  44  66  85 116 159 210 251 298 356
#     4  11  24  39  65  92 119 159 203 254 299 349
#     4  11  22  39  59  90 126 160 194 244 311 354
#
# _framework density 22.883336
#
# number of rings (size 3 to 8) (size 9 to 14) (size 15 to 20)
#    0.000    1.500    3.750    1.125    7.000    0.500 
#    0.000    3.125    0.000    0.000    0.000    0.000 
#    0.000    0.000    0.000    0.000    0.000    0.000 
#
# Total GULP energy -89447.685927 kJ/mol
# GULP energy per Si atom -5590.480370 kJ/mol
# Density = 2.283125 g / cm^3
# Si number density = 22.883336 Si / 1000 Ang^3
#
#
#
# Elastic Constant Matrix: (Units=GPa)
#
#
# Indices 1 2 3 4 5 6 
#
# 1 125.4417 17.7591 48.4248 6.9084 20.8960 -8.0807
# 2 17.7591 25.3226 5.6958 2.1552 5.1565 -10.5635
# 3 48.4248 5.6958 126.8798 21.0198 -4.5947 -1.3703
# 4 6.9084 2.1552 21.0198 31.1118 -4.3628 -3.6138
# 5 20.8960 5.1565 -4.5947 -4.3628 40.1037 -3.7018
# 6 -8.0807 -10.5635 -1.3703 -3.6138 -3.7018 11.5340
#
#
#
# Elastic Compliance Matrix: (Units=1/GPa)
#
#
# Indices 1 2 3 4 5 6 
#
# 1 0.011410 -0.005691 -0.004304 0.000028 -0.005661 0.000463
# 2 -0.005691 0.068234 -0.000924 0.004101 0.000042 0.059694
# 3 -0.004304 -0.000924 0.010654 -0.006254 0.002557 -0.003735
# 4 0.000028 0.004101 -0.006254 0.038629 0.004473 0.016572
# 5 -0.005661 0.000042 0.002557 0.004473 0.029323 0.007189
# 6 0.000463 0.059694 -0.003735 0.016572 0.007189 0.148753
#
#
# Mechanical properties :
#
#
# Convention : Reuss Voigt Hill
#
# Bulk Modulus (GPa) = 14.60712 46.82261 30.71487
# Shear Modulus (GPa) = 14.21827 30.26752 22.24289
#
# Velocity S-wave (km/s) = 2.49537 3.64082 3.12109
# Velocity P-wave (km/s) = 3.83401 6.17900 5.14197
#
# Compressibility (1/GPa) = 0.06845975
#
# Stress axis : x y z
#
# Youngs Moduli (GPa) = 87.64070 14.65550 93.86218
#
# Poissons Ratio (x) = 0.08340 0.40399
# Poissons Ratio (y) = 0.49873 0.08677
# Poissons Ratio (z) = 0.37721 0.01355
#
# Static dielectric constant tensor:
#      x y z
#    x 1.842130 0.004370 -0.034600 
#    y 0.004370 1.834520 -0.017550 
#    z -0.034600 -0.017550 1.907490 
# 
# From -- ./inp_files/389375.got.cif
#   From: 2010.05.17/outbox.cif.g08.bks.cpg/sg2_195_cif.got.tgz:389375.got - 2010.06.03 11:33:40.
