data_PCOD9022172
_publ_section_title
;
Structure prediction by ZEFSAII (Michael W. Deem and Ramdas Pophale) SiO2 
 PCOD9022172
Probable space group: P -1
;
_chemical_formula_sum "Si O2"
_cell_formula_units_Z 14
_cell_length_a 14.055337
_cell_length_b 27.124152
_cell_length_c 13.797733
_cell_angle_alpha 157.601407
_cell_angle_beta 157.741419
_cell_angle_gamma 20.538337
_cell_volume 629.208895
_symmetry_space_group_name_H-M "P -1"
_symmetry_group_IT_number 2
_symmetry_cell_setting 'triclinic'
loop_
_space_group_symop_operation_xyz
x,y,z
-x,-y,-z
loop_
_atom_site_type_symbol
_atom_site_label
_atom_site_fract_x
_atom_site_fract_y
_atom_site_fract_z
Si Si1 0.337235 0.110922 0.299700
Si Si2 0.448708 0.486432 0.539160
Si Si3 0.836781 0.345576 0.120057
Si Si4 0.351008 0.837239 0.776227
Si Si5 0.161077 0.386479 0.321688
Si Si6 0.182851 0.931131 0.448831
Si Si7 0.771232 0.611798 0.197534
O O1 0.005693 0.244966 0.192666
O O2 0.525942 0.068428 0.300124
O O3 0.409362 0.205017 0.612770
O O4 0.385107 0.950636 0.085377
O O5 0.500000 0.500000 0.500000
O O6 0.632382 0.304727 0.413790
O O7 0.093644 0.558031 0.355169
O O8 0.579714 0.568051 0.873303
O O9 0.049840 0.338007 0.220535
O O10 0.683240 0.523062 0.332878
O O11 0.706496 0.249246 0.782498
O O12 0.615470 0.752949 0.791790
O O13 0.047328 0.957169 0.649240
O O14 0.873660 0.512012 0.213035
O O15 0.000000 0.000000 0.500000
#
# Coordination Sequence:
#
# PCOD9022172 Si02
#       7
#     2   2   2   2   2   2   2
#     4  10  22  39  58  90 130 174 212 257 318 376
#     4  11  25  47  72  98 122 160 213 272 331 387
#     4   9  19  35  53  83 127 169 218 258 303 369
#     4  10  23  37  61  86 128 161 214 260 321 372
#     4   9  18  37  56  88 122 169 215 262 309 367
#     4  11  22  33  58  88 130 174 214 255 307 370
#     4  10  24  42  71  92 131 165 210 266 325 383
#
# _framework density 22.250163000000001
#
# number of rings (size 3 to 8) (size 9 to 14) (size 15 to 20)
#    0.000    2.000    0.000    2.143   14.000    2.286 
#    0.000    4.286    0.000    0.000    0.000    0.000 
#    0.000    0.000    0.000    0.000    0.000    0.000 
#
# Total GULP energy -78159.867379 kJ/mol
# GULP energy per Si atom -5582.847670 kJ/mol
# Density = 2.219952 g / cm^3
# Si number density = 22.250163 Si / 1000 Ang^3
#
#
#
# Elastic Constant Matrix: (Units=GPa)
#
#
# Indices 1 2 3 4 5 6 
#
# 1 109.6787 35.2644 52.8783 13.4022 3.5523 3.3022
# 2 35.2644 90.3639 55.7562 29.1347 -7.6715 -4.3112
# 3 52.8783 55.7562 146.4892 37.4637 -5.0893 4.3780
# 4 13.4022 29.1347 37.4637 42.0135 -4.2051 4.5036
# 5 3.5523 -7.6715 -5.0893 -4.2051 23.7889 -3.8594
# 6 3.3022 -4.3112 4.3780 4.5036 -3.8594 19.0971
#
#
#
# Elastic Compliance Matrix: (Units=1/GPa)
#
#
# Indices 1 2 3 4 5 6 
#
# 1 0.011933 -0.003581 -0.003412 0.001679 -0.003901 -0.003274
# 2 -0.003581 0.018374 -0.003505 -0.008859 0.005570 0.008785
# 3 -0.003412 -0.003505 0.011010 -0.006126 0.000459 -0.001188
# 4 0.001679 -0.008859 -0.006126 0.035908 0.000426 -0.009268
# 5 -0.003901 0.005570 0.000459 0.000426 0.046390 0.011101
# 6 -0.003274 0.008785 -0.001188 -0.009268 0.011101 0.059615
#
#
# Mechanical properties :
#
#
# Convention : Reuss Voigt Hill
#
# Bulk Modulus (GPa) = 49.20356 70.48106 59.84231
# Shear Modulus (GPa) = 23.69683 30.48875 27.09279
#
# Velocity S-wave (km/s) = 3.26700 3.70573 3.49326
# Velocity P-wave (km/s) = 6.03265 7.07498 6.57451
#
# Compressibility (1/GPa) = 0.02032373
#
# Stress axis : x y z
#
# Youngs Moduli (GPa) = 83.79802 54.42396 90.82647
#
# Poissons Ratio (x) = 0.19487 0.30989
# Poissons Ratio (y) = 0.30004 0.31830
# Poissons Ratio (z) = 0.28591 0.19073
#
# Static dielectric constant tensor:
#      x y z
#    x 1.785340 -0.039290 0.004940 
#    y -0.039290 1.880500 -0.055990 
#    z 0.004940 -0.055990 1.949910 
# 
# From -- ./inp_files/32127.got.cif
#   From: 2010.05.17/outbox.cif.g08.bks.cpg/sg2_17_cif.got.tgz:32127.got - 2010.06.03 11:33:40.
