data_PCOD9022646
_publ_section_title
;
Structure prediction by ZEFSAII (Michael W. Deem and Ramdas Pophale) SiO2 
 PCOD9022646
Probable space group: P -1
;
_chemical_formula_sum "Si O2"
_cell_formula_units_Z 16
_cell_length_a 6.716390
_cell_length_b 14.298216
_cell_length_c 8.973954
_cell_angle_alpha 107.599746
_cell_angle_beta 76.159060
_cell_angle_gamma 116.497180
_cell_volume 729.645023
_symmetry_space_group_name_H-M "P -1"
_symmetry_group_IT_number 2
_symmetry_cell_setting 'triclinic'
loop_
_space_group_symop_operation_xyz
x,y,z
-x,-y,-z
loop_
_atom_site_type_symbol
_atom_site_label
_atom_site_fract_x
_atom_site_fract_y
_atom_site_fract_z
Si Si1 0.672745 0.224219 0.410768
Si Si2 0.671752 0.671271 0.455897
Si Si3 0.554041 0.435486 0.827570
Si Si4 0.869376 0.116959 0.541131
Si Si5 0.986531 0.958147 0.241016
Si Si6 0.827730 0.636100 0.722065
Si Si7 0.618384 0.759072 0.040509
Si Si8 0.568128 0.905909 0.893242
O O1 0.542655 0.299375 0.497483
O O2 0.535288 0.140406 0.269212
O O3 0.698884 0.161660 0.522343
O O4 0.917105 0.294367 0.333918
O O5 0.641428 0.600538 0.280010
O O6 0.888214 0.783328 0.463944
O O7 0.691215 0.619521 0.583708
O O8 0.775022 0.520725 0.749598
O O9 0.543372 0.328488 0.858042
O O10 0.500000 0.500000 0.000000
O O11 0.859575 0.077550 0.692485
O O12 0.872125 0.020901 0.390387
O O13 0.805486 0.855196 0.144796
O O14 0.161888 0.044863 0.142612
O O15 0.738809 0.702411 0.883820
O O16 0.493750 0.810851 0.980253
O O17 0.500000 0.000000 0.000000
#
# Coordination Sequence:
#
# PCOD9022646 Si02
#       8
#     2   2   2   2   2   2   2   2
#     4  11  22  39  64  95 129 164 214 257 315 378
#     4  11  20  43  67  91 129 162 212 266 312 384
#     4  10  23  41  69  93 120 170 213 264 326 366
#     4  10  22  39  63  93 128 170 209 261 311 379
#     4  11  21  39  61  92 130 171 214 254 316 372
#     4  10  22  42  67  92 125 170 214 259 319 375
#     4  11  21  41  65  91 133 167 214 262 310 378
#     4  12  23  36  60  95 133 172 207 257 314 377
#
# _framework density 21.928471999999999
#
# number of rings (size 3 to 8) (size 9 to 14) (size 15 to 20)
#    0.000    1.250    3.750    3.000    0.000    2.000 
#    0.000    0.625    2.750    0.000    0.000    0.000 
#    0.000    0.000    0.000    0.000    0.000    0.000 
#
# Total GULP energy -89465.493514 kJ/mol
# GULP energy per Si atom -5591.593345 kJ/mol
# Density = 2.187856 g / cm^3
# Si number density = 21.928472 Si / 1000 Ang^3
#
#
#
# Elastic Constant Matrix: (Units=GPa)
#
#
# Indices 1 2 3 4 5 6 
#
# 1 60.5373 16.7973 17.1282 1.6251 10.1829 -7.6118
# 2 16.7973 112.8432 30.8990 -10.6091 9.0772 5.0642
# 3 17.1282 30.8990 108.5699 18.2072 13.7633 -0.8687
# 4 1.6251 -10.6091 18.2072 49.0559 0.7940 9.7534
# 5 10.1829 9.0772 13.7633 0.7940 21.9748 -1.6463
# 6 -7.6118 5.0642 -0.8687 9.7534 -1.6463 17.5526
#
#
#
# Elastic Compliance Matrix: (Units=1/GPa)
#
#
# Indices 1 2 3 4 5 6 
#
# 1 0.020122 -0.002966 -0.000908 -0.002963 -0.006632 0.010561
# 2 -0.002966 0.011272 -0.003473 0.005427 -0.001895 -0.007903
# 3 -0.000908 -0.003473 0.012016 -0.005891 -0.005159 0.003993
# 4 -0.002963 0.005427 -0.005891 0.027489 0.000451 -0.018375
# 5 -0.006632 -0.001895 -0.005159 0.000451 0.052735 0.002111
# 6 0.010561 -0.007903 0.003993 -0.018375 0.002111 0.074438
#
#
# Mechanical properties :
#
#
# Convention : Reuss Voigt Hill
#
# Bulk Modulus (GPa) = 34.82449 45.73326 40.27888
# Shear Modulus (GPa) = 22.48830 32.19173 27.34002
#
# Velocity S-wave (km/s) = 3.20586 3.83565 3.53481
# Velocity P-wave (km/s) = 5.44232 6.36531 5.92183
#
# Compressibility (1/GPa) = 0.02871543
#
# Stress axis : x y z
#
# Youngs Moduli (GPa) = 49.69780 88.71801 83.22046
#
# Poissons Ratio (x) = 0.26310 0.07558
# Poissons Ratio (y) = 0.14738 0.28904
# Poissons Ratio (z) = 0.04514 0.30814
#
# Static dielectric constant tensor:
#      x y z
#    x 1.763370 -0.016510 0.002990 
#    y -0.016510 1.830510 -0.007990 
#    z 0.002990 -0.007990 1.830030 
# 
# From -- ./inp_files/80097.got.cif
#   From: 2010.05.17/outbox.cif.g08.bks.cpg/sg2_41_cif.got.tgz:80097.got - 2010.06.03 11:33:40.
