data_PCOD9022213
_publ_section_title
;
Structure prediction by ZEFSAII (Michael W. Deem and Ramdas Pophale) SiO2 
 PCOD9022213
Probable space group: P -1
;
_chemical_formula_sum "Si O2"
_cell_formula_units_Z 16
_cell_length_a 9.853479
_cell_length_b 9.457258
_cell_length_c 10.013366
_cell_angle_alpha 130.971439
_cell_angle_beta 121.932190
_cell_angle_gamma 72.095173
_cell_volume 596.792155
_symmetry_space_group_name_H-M "P -1"
_symmetry_group_IT_number 2
_symmetry_cell_setting 'triclinic'
loop_
_space_group_symop_operation_xyz
x,y,z
-x,-y,-z
loop_
_atom_site_type_symbol
_atom_site_label
_atom_site_fract_x
_atom_site_fract_y
_atom_site_fract_z
Si Si1 0.681245 0.850739 0.675053
Si Si2 0.420462 0.251899 0.704018
Si Si3 0.775126 0.344204 0.663125
Si Si4 0.147734 0.541317 0.504891
Si Si5 0.267653 0.239586 0.079717
Si Si6 0.102997 0.784475 0.068230
Si Si7 0.192720 0.050277 0.640319
Si Si8 0.332654 0.668193 0.907541
O O1 0.549182 0.831504 0.477119
O O2 0.759993 0.649089 0.576870
O O3 0.637529 0.857756 0.813244
O O4 0.812923 0.012168 0.797173
O O5 0.247899 0.181263 0.626387
O O6 0.417533 0.473925 0.823128
O O7 0.545020 0.207504 0.857982
O O8 0.886794 0.398426 0.626295
O O9 0.684961 0.535912 0.757516
O O10 0.852166 0.300088 0.817837
O O11 0.716494 0.139086 0.454629
O O12 0.265706 0.696330 0.741342
O O13 0.000000 0.500000 0.500000
O O14 0.253151 0.152572 0.871009
O O15 0.085583 0.207576 0.019284
O O16 0.177054 0.658050 0.914990
O O17 0.000000 0.000000 0.500000
#
# Coordination Sequence:
#
# PCOD9022213 Si02
#       8
#     2   2   2   2   2   2   2   2
#     4  10  22  39  59  90 129 164 214 269 320 393
#     4  10  22  45  62  96 127 177 222 266 331 394
#     4  11  24  39  60  99 128 172 211 270 335 384
#     4  10  23  40  65  95 133 171 216 270 331 390
#     4  11  24  39  62  98 136 162 218 272 337 389
#     4  12  22  38  64  96 126 168 216 274 332 384
#     4  12  24  39  68  94 135 171 222 277 328 386
#     4  10  23  40  70  91 133 174 219 270 326 398
#
# _framework density 26.810002999999998
#
# number of rings (size 3 to 8) (size 9 to 14) (size 15 to 20)
#    0.000    1.250    2.500    3.000    8.750    0.500 
#    0.000    1.875    0.000    6.000    0.000    0.000 
#    0.000    0.000    0.000    0.000    0.000    0.000 
#
# Total GULP energy -89423.825434 kJ/mol
# GULP energy per Si atom -5588.989090 kJ/mol
# Density = 2.674898 g / cm^3
# Si number density = 26.810003 Si / 1000 Ang^3
#
#
#
# Elastic Constant Matrix: (Units=GPa)
#
#
# Indices 1 2 3 4 5 6 
#
# 1 99.0367 11.4496 28.3575 -8.6516 -14.8838 9.2275
# 2 11.4496 126.5375 61.0160 -15.7379 -10.9421 7.4675
# 3 28.3575 61.0160 211.5729 -19.2362 -41.0292 8.7460
# 4 -8.6516 -15.7379 -19.2362 47.4047 11.2191 -12.3694
# 5 -14.8838 -10.9421 -41.0292 11.2191 40.4340 -6.0103
# 6 9.2275 7.4675 8.7460 -12.3694 -6.0103 28.2588
#
#
#
# Elastic Compliance Matrix: (Units=1/GPa)
#
#
# Indices 1 2 3 4 5 6 
#
# 1 0.011019 -0.000207 -0.000744 0.000308 0.002775 -0.002588
# 2 -0.000207 0.009421 -0.002645 0.001988 -0.000899 -0.000924
# 3 -0.000744 -0.002645 0.006735 0.000425 0.005766 0.000270
# 4 0.000308 0.001988 0.000425 0.025536 -0.004599 0.009442
# 5 0.002775 -0.000899 0.005766 -0.004599 0.033017 0.002556
# 6 -0.002588 -0.000924 0.000270 0.009442 0.002556 0.041069
#
#
# Mechanical properties :
#
#
# Convention : Reuss Voigt Hill
#
# Bulk Modulus (GPa) = 50.04223 70.97702 60.50963
# Shear Modulus (GPa) = 35.54925 45.64109 40.59517
#
# Velocity S-wave (km/s) = 3.64534 4.13048 3.89547
# Velocity P-wave (km/s) = 6.03523 7.01993 6.54612
#
# Compressibility (1/GPa) = 0.01998312
#
# Stress axis : x y z
#
# Youngs Moduli (GPa) = 90.74926 106.14795 148.48646
#
# Poissons Ratio (x) = 0.02200 0.11048
# Poissons Ratio (y) = 0.01881 0.39268
# Poissons Ratio (z) = 0.06752 0.28071
#
# Static dielectric constant tensor:
#      x y z
#    x 2.217300 -0.029130 0.097030 
#    y -0.029130 2.131480 0.019900 
#    z 0.097030 0.019900 2.210860 
# 
# From -- ./inp_files/245688.got.cif
#   From: 2010.05.17/outbox.cif.g08.bks.cpg/sg2_123_cif.got.tgz:245688.got - 2010.06.03 11:33:40.
