data_PCOD9022540
_publ_section_title
;
Structure prediction by ZEFSAII (Michael W. Deem and Ramdas Pophale) SiO2 
 PCOD9022540
Probable space group: P -1
;
_chemical_formula_sum "Si O2"
_cell_formula_units_Z 14
_cell_length_a 7.879074
_cell_length_b 16.171168
_cell_length_c 7.265344
_cell_angle_alpha 127.817085
_cell_angle_beta 128.141598
_cell_angle_gamma 47.899212
_cell_volume 507.786077
_symmetry_space_group_name_H-M "P -1"
_symmetry_group_IT_number 2
_symmetry_cell_setting 'triclinic'
loop_
_space_group_symop_operation_xyz
x,y,z
-x,-y,-z
loop_
_atom_site_type_symbol
_atom_site_label
_atom_site_fract_x
_atom_site_fract_y
_atom_site_fract_z
Si Si1 0.852205 0.772865 0.922571
Si Si2 0.574786 0.602099 0.156777
Si Si3 0.776374 0.352906 0.327604
Si Si4 0.920576 0.874234 0.552477
Si Si5 0.110307 0.458459 0.219139
Si Si6 0.477865 0.027256 0.276755
Si Si7 0.256670 0.838136 0.434989
O O1 0.618462 0.892908 0.863557
O O2 0.004117 0.699575 0.745650
O O3 0.807615 0.678631 0.880542
O O4 0.040266 0.815640 0.182861
O O5 0.861403 0.535128 0.267753
O O6 0.475250 0.705550 0.382010
O O7 0.500000 0.500000 0.000000
O O8 0.448485 0.651376 0.938258
O O9 0.899468 0.262307 0.455395
O O10 0.718516 0.484561 0.529382
O O11 0.767128 0.938067 0.722231
O O12 0.126220 0.900601 0.624983
O O13 0.684179 0.896131 0.294757
O O14 0.000000 0.500000 0.000000
O O15 0.655510 0.086478 0.530185
#
# Coordination Sequence:
#
# PCOD9022540 Si02
#       7
#     2   2   2   2   2   2   2
#     4  10  22  39  62  95 127 167 216 258 321 390
#     4  11  23  40  60  90 127 169 208 256 323 379
#     4  10  22  39  64  87 133 165 204 269 319 372
#     4  10  22  44  65  98 126 165 225 264 313 394
#     4  12  24  39  63  96 128 167 215 262 319 388
#     4  10  23  43  69  90 131 172 208 272 329 362
#     4  11  22  41  66  92 130 167 215 266 319 382
#
# _framework density 27.570668000000001
#
# number of rings (size 3 to 8) (size 9 to 14) (size 15 to 20)
#    0.000    1.429    2.857    3.429    2.000    2.286 
#    0.000   15.714    0.000    0.000    0.000    0.000 
#    0.000    0.000    0.000    0.000    0.000    0.000 
#
# Total GULP energy -78107.526129 kJ/mol
# GULP energy per Si atom -5579.109009 kJ/mol
# Density = 2.750792 g / cm^3
# Si number density = 27.570668 Si / 1000 Ang^3
#
#
#
# Elastic Constant Matrix: (Units=GPa)
#
#
# Indices 1 2 3 4 5 6 
#
# 1 133.0464 37.0236 5.6257 11.7854 19.4578 -7.3334
# 2 37.0236 190.6174 39.3587 -14.2796 -2.4969 -3.3753
# 3 5.6257 39.3587 72.3616 -9.6801 11.7742 -0.4451
# 4 11.7854 -14.2796 -9.6801 61.4458 4.2198 -11.1874
# 5 19.4578 -2.4969 11.7742 4.2198 24.7792 -7.7596
# 6 -7.3334 -3.3753 -0.4451 -11.1874 -7.7596 48.9224
#
#
#
# Elastic Compliance Matrix: (Units=1/GPa)
#
#
# Indices 1 2 3 4 5 6 
#
# 1 0.009461 -0.002432 0.001729 -0.001612 -0.008355 -0.000428
# 2 -0.002432 0.006730 -0.004049 0.001273 0.004636 0.001089
# 3 0.001729 -0.004049 0.017953 0.002108 -0.011006 -0.001121
# 4 -0.001612 0.001273 0.002108 0.017996 -0.001500 0.003743
# 5 -0.008355 0.004636 -0.011006 -0.001500 0.055179 0.007376
# 6 -0.000428 0.001089 -0.001121 0.003743 0.007376 0.022467
#
#
# Mechanical properties :
#
#
# Convention : Reuss Voigt Hill
#
# Bulk Modulus (GPa) = 40.58567 62.22683 51.40625
# Shear Modulus (GPa) = 33.89722 47.96398 40.93060
#
# Velocity S-wave (km/s) = 3.51018 4.17547 3.85719
# Velocity P-wave (km/s) = 5.58400 6.77237 6.20669
#
# Compressibility (1/GPa) = 0.02463924
#
# Stress axis : x y z
#
# Youngs Moduli (GPa) = 105.69645 148.59053 55.70030
#
# Poissons Ratio (x) = 0.36142 -0.09629
# Poissons Ratio (y) = 0.25709 0.22552
# Poissons Ratio (z) = -0.18272 0.60162
#
# Static dielectric constant tensor:
#      x y z
#    x 2.355750 0.018070 -0.203690 
#    y 0.018070 2.327400 -0.155710 
#    z -0.203690 -0.155710 2.442900 
# 
# From -- ./inp_files/211203.got.cif
#   From: 2010.05.17/outbox.cif.g08.bks.cpg/sg2_106_cif.got.tgz:211203.got - 2010.06.03 11:33:40.
