data_PCOD9022622
_publ_section_title
;
Structure prediction by ZEFSAII (Michael W. Deem and Ramdas Pophale) SiO2 
 PCOD9022622
Probable space group: P -1
;
_chemical_formula_sum "Si O2"
_cell_formula_units_Z 13
_cell_length_a 6.640883
_cell_length_b 9.998726
_cell_length_c 8.131482
_cell_angle_alpha 99.599080
_cell_angle_beta 77.205156
_cell_angle_gamma 104.298483
_cell_volume 506.615762
_symmetry_space_group_name_H-M "P -1"
_symmetry_group_IT_number 2
_symmetry_cell_setting 'triclinic'
loop_
_space_group_symop_operation_xyz
x,y,z
-x,-y,-z
loop_
_atom_site_type_symbol
_atom_site_label
_atom_site_fract_x
_atom_site_fract_y
_atom_site_fract_z
Si Si1 0.697310 0.406225 0.582963
Si Si2 0.964931 0.506263 0.229199
Si Si3 0.708228 0.867934 0.714439
Si Si4 0.559162 0.138468 0.711664
Si Si5 0.763126 0.736161 0.352497
Si Si6 0.279074 0.761490 0.939967
Si Si7 0.000000 0.000000 0.000000
O O1 0.446997 0.387294 0.624172
O O2 0.694553 0.242592 0.576766
O O3 0.828756 0.462211 0.412275
O O4 0.800628 0.487435 0.743214
O O5 0.935730 0.662488 0.232870
O O6 0.864788 0.391132 0.093863
O O7 0.813949 0.796247 0.536174
O O8 0.488474 0.770457 0.792202
O O9 0.624150 0.993592 0.668804
O O10 0.858395 0.924443 0.850557
O O11 0.313980 0.148554 0.723536
O O12 0.618568 0.202303 0.892446
O O13 0.148730 0.879124 0.945218
#
# Coordination Sequence:
#
# PCOD9022622 Si02
#       7
#     2   2   2   2   2   2   1
#     4   9  22  39  58  91 126 151 209 245 288 366
#     4  11  22  39  64  91 119 165 202 239 306 358
#     4  11  22  42  65  88 122 161 202 249 298 362
#     4   9  21  41  57  91 125 157 199 252 295 350
#     4  10  22  39  63  92 120 162 197 250 302 352
#     4  11  23  42  64  87 127 159 199 252 297 363
#     4  10  24  38  60  92 114 162 200 242 306 346
#
# _framework density 25.660475999999999
#
# number of rings (size 3 to 8) (size 9 to 14) (size 15 to 20)
#    0.923    0.923    1.538    2.769    4.308    1.231 
#   11.077    0.769    0.000    0.000    0.000    0.000 
#    0.000    0.000    0.000    0.000    0.000    0.000 
#
# Total GULP energy -72462.516429 kJ/mol
# GULP energy per Si atom -5574.039725 kJ/mol
# Density = 2.560207 g / cm^3
# Si number density = 25.660476 Si / 1000 Ang^3
#
#
#
# Elastic Constant Matrix: (Units=GPa)
#
#
# Indices 1 2 3 4 5 6 
#
# 1 97.0586 28.3846 66.5715 16.4568 19.7937 -7.3893
# 2 28.3846 74.5570 29.1527 13.9584 6.2688 -6.5047
# 3 66.5715 29.1527 137.4505 49.5831 10.4642 -17.1055
# 4 16.4568 13.9584 49.5831 50.7516 4.7458 7.0683
# 5 19.7937 6.2688 10.4642 4.7458 35.4194 8.1854
# 6 -7.3893 -6.5047 -17.1055 7.0683 8.1854 24.7234
#
#
#
# Elastic Compliance Matrix: (Units=1/GPa)
#
#
# Indices 1 2 3 4 5 6 
#
# 1 0.018552 -0.003772 -0.009759 0.005421 -0.007230 -0.001356
# 2 -0.003772 0.015994 0.001002 -0.004790 -0.001695 0.005704
# 3 -0.009759 0.001002 0.022094 -0.021158 -0.002960 0.019662
# 4 0.005421 -0.004790 -0.021158 0.043425 0.004786 -0.028278
# 5 -0.007230 -0.001695 -0.002960 0.004786 0.037032 -0.018283
# 6 -0.001356 0.005704 0.019662 -0.028278 -0.018283 0.069285
#
#
# Mechanical properties :
#
#
# Convention : Reuss Voigt Hill
#
# Bulk Modulus (GPa) = 31.66483 61.92041 46.79262
# Shear Modulus (GPa) = 20.66383 34.50936 27.58660
#
# Velocity S-wave (km/s) = 2.84082 3.67119 3.28237
# Velocity P-wave (km/s) = 4.80906 6.49255 5.71316
#
# Compressibility (1/GPa) = 0.03158078
#
# Stress axis : x y z
#
# Youngs Moduli (GPa) = 53.90288 62.52330 45.26047
#
# Poissons Ratio (x) = 0.23586 0.44170
# Poissons Ratio (y) = 0.20334 -0.04534
# Poissons Ratio (z) = 0.52605 -0.06263
#
# Static dielectric constant tensor:
#      x y z
#    x 1.960510 -0.030140 0.057470 
#    y -0.030140 2.104950 -0.124880 
#    z 0.057470 -0.124880 2.032840 
# 
# From -- ./inp_files/131146.got.cif
#   From: 2010.05.17/outbox.cif.g08.bks.cpg/sg2_66_cif.got.tgz:131146.got - 2010.06.03 11:33:40.
