data_PCOD9022004
_publ_section_title
;
Structure prediction by ZEFSAII (Michael W. Deem and Ramdas Pophale) SiO2 
 PCOD9022004
Probable space group: P -1
;
_chemical_formula_sum "Si O2"
_cell_formula_units_Z 16
_cell_length_a 17.749312
_cell_length_b 8.648831
_cell_length_c 17.700138
_cell_angle_alpha 148.811939
_cell_angle_beta 30.652410
_cell_angle_gamma 138.235766
_cell_volume 716.859515
_symmetry_space_group_name_H-M "P -1"
_symmetry_group_IT_number 2
_symmetry_cell_setting 'triclinic'
loop_
_space_group_symop_operation_xyz
x,y,z
-x,-y,-z
loop_
_atom_site_type_symbol
_atom_site_label
_atom_site_fract_x
_atom_site_fract_y
_atom_site_fract_z
Si Si1 0.434869 0.711082 0.579046
Si Si2 0.789798 0.850584 0.969949
Si Si3 0.917332 0.192576 0.210135
Si Si4 0.008396 0.789163 0.332644
Si Si5 0.398031 0.365542 0.306130
Si Si6 0.715633 0.117814 0.467668
Si Si7 0.999731 0.851921 0.662857
Si Si8 0.325657 0.680564 0.060874
O O1 0.500000 0.500000 0.500000
O O2 0.416031 0.534558 0.441754
O O3 0.561828 0.967964 0.561154
O O4 0.289529 0.875592 0.805506
O O5 0.688483 0.559997 0.959183
O O6 0.954497 0.765279 0.819989
O O7 0.842284 0.920260 0.868274
O O8 0.778965 0.006789 0.286236
O O9 0.893674 0.512194 0.327301
O O10 0.000000 0.000000 0.000000
O O11 0.170768 0.661213 0.142614
O O12 0.000000 0.000000 0.500000
O O13 0.988471 0.969004 0.349783
O O14 0.296098 0.536756 0.404115
O O15 0.350838 0.018016 0.210958
O O16 0.550640 0.376211 0.131635
O O17 0.845897 0.068495 0.393546
O O18 0.000000 0.500000 0.500000
#
# Coordination Sequence:
#
# PCOD9022004 Si02
#       8
#     2   2   2   2   2   2   2   2
#     4  12  28  44  66 100 147 187 228 283 348 414
#     4  10  23  44  64 101 136 178 227 278 347 407
#     4  10  22  38  68  94 126 175 227 273 332 400
#     4  11  23  42  70  98 132 177 227 283 343 405
#     4  11  23  43  69  98 139 184 234 279 343 411
#     4  11  24  43  67 101 135 183 226 278 348 403
#     4  11  24  43  72 103 144 175 229 292 344 411
#     4  10  22  41  72 100 129 183 237 284 339 404
#
# _framework density 22.319576000000001
#
# number of rings (size 3 to 8) (size 9 to 14) (size 15 to 20)
#    0.000    1.250    1.250    4.875    5.250    4.000 
#    0.000    3.750    0.000    0.000    0.000    0.000 
#    0.000    0.000    0.000    0.000    0.000    0.000 
#
# Total GULP energy -89259.651517 kJ/mol
# GULP energy per Si atom -5578.728220 kJ/mol
# Density = 2.226878 g / cm^3
# Si number density = 22.319576 Si / 1000 Ang^3
#
#
#
# Elastic Constant Matrix: (Units=GPa)
#
#
# Indices 1 2 3 4 5 6 
#
# 1 102.3191 56.6644 43.7253 -1.3421 5.3408 -28.9120
# 2 56.6644 127.0863 47.3678 -5.3015 6.0467 -19.5157
# 3 43.7253 47.3678 127.3396 -13.0203 11.9889 -11.5485
# 4 -1.3421 -5.3015 -13.0203 42.7517 1.2551 -4.6125
# 5 5.3408 6.0467 11.9889 1.2551 32.9727 0.9446
# 6 -28.9120 -19.5157 -11.5485 -4.6125 0.9446 38.9542
#
#
#
# Elastic Compliance Matrix: (Units=1/GPa)
#
#
# Indices 1 2 3 4 5 6 
#
# 1 0.016169 -0.004731 -0.002904 0.000013 -0.000948 0.008794
# 2 -0.004731 0.011098 -0.002247 0.000718 -0.000522 0.001480
# 3 -0.002904 -0.002247 0.010274 0.002865 -0.002967 0.000176
# 4 0.000013 0.000718 0.002865 0.024874 -0.002243 0.004219
# 5 -0.000948 -0.000522 -0.002967 -0.002243 0.031824 -0.002882
# 6 0.008794 0.001480 0.000176 0.004219 -0.002882 0.033561
#
#
# Mechanical properties :
#
#
# Convention : Reuss Voigt Hill
#
# Bulk Modulus (GPa) = 56.25138 72.47335 64.36237
# Shear Modulus (GPa) = 32.57548 36.86823 34.72185
#
# Velocity S-wave (km/s) = 3.82449 4.06868 3.94847
# Velocity P-wave (km/s) = 6.69027 7.39010 7.04887
#
# Compressibility (1/GPa) = 0.01777734
#
# Stress axis : x y z
#
# Youngs Moduli (GPa) = 61.84721 90.11027 97.32988
#
# Poissons Ratio (x) = 0.42629 0.28266
# Poissons Ratio (y) = 0.29258 0.21868
# Poissons Ratio (z) = 0.17961 0.20246
#
# Static dielectric constant tensor:
#      x y z
#    x 1.998100 -0.050790 0.071330 
#    y -0.050790 1.856750 -0.063950 
#    z 0.071330 -0.063950 1.941070 
# 
# From -- ./inp_files/575615.got.cif
#   From: 2010.05.17/outbox.cif.g08.bks.cpg/sg2_288_cif.got.tgz:575615.got - 2010.06.03 11:33:40.
