data_PCOD9022394
_publ_section_title
;
Structure prediction by ZEFSAII (Michael W. Deem and Ramdas Pophale) SiO2 
 PCOD9022394
Probable space group: P -1
;
_chemical_formula_sum "Si O2"
_cell_formula_units_Z 16
_cell_length_a 5.232309
_cell_length_b 12.342377
_cell_length_c 16.100824
_cell_angle_alpha 57.804791
_cell_angle_beta 130.528659
_cell_angle_gamma 98.726360
_cell_volume 637.478778
_symmetry_space_group_name_H-M "P -1"
_symmetry_group_IT_number 2
_symmetry_cell_setting 'triclinic'
loop_
_space_group_symop_operation_xyz
x,y,z
-x,-y,-z
loop_
_atom_site_type_symbol
_atom_site_label
_atom_site_fract_x
_atom_site_fract_y
_atom_site_fract_z
Si Si1 0.057701 0.183028 0.782743
Si Si2 0.414458 0.391830 0.249614
Si Si3 0.549422 0.953841 0.398291
Si Si4 0.008385 0.327963 0.875803
Si Si5 0.914545 0.196958 0.564105
Si Si6 0.788340 0.187731 0.298646
Si Si7 0.889019 0.083463 0.026168
Si Si8 0.299096 0.641125 0.941955
O O1 0.878453 0.281251 0.780414
O O2 0.469308 0.141655 0.909928
O O3 0.995124 0.246649 0.651844
O O4 0.988822 0.036219 0.832513
O O5 0.590591 0.297233 0.403840
O O6 0.726441 0.331672 0.273900
O O7 0.259133 0.539448 0.194363
O O8 0.094039 0.371496 0.133632
O O9 0.222156 0.924996 0.385097
O O10 0.746967 0.856334 0.402703
O O11 0.845601 0.906747 0.551783
O O12 0.527216 0.103830 0.305661
O O13 0.039528 0.208212 0.997850
O O14 0.395538 0.346546 0.935892
O O15 0.757793 0.229188 0.180949
O O16 0.000000 0.000000 0.000000
O O17 0.500000 0.500000 0.000000
#
# Coordination Sequence:
#
# PCOD9022394 Si02
#       8
#     2   2   2   2   2   2   2   2
#     4  10  23  41  66  97 130 170 222 284 324 401
#     4  10  23  43  63  95 135 172 220 273 332 409
#     4  10  24  40  68  98 134 175 217 280 339 395
#     4  10  23  40  65  93 131 179 220 270 335 394
#     4  11  24  43  69 100 135 175 222 280 338 394
#     4  10  22  39  63  94 131 173 222 271 334 399
#     4   9  21  42  61  89 127 168 225 268 326 387
#     4  10  22  39  61  92 131 172 220 268 330 401
#
# _framework density 25.098877000000002
#
# number of rings (size 3 to 8) (size 9 to 14) (size 15 to 20)
#    0.000    2.000    1.250    0.000    7.000    9.000 
#    0.000    0.625    0.000    0.000    0.000    0.000 
#    0.000    0.000    0.000    0.000    0.000    0.000 
#
# Total GULP energy -89215.653412 kJ/mol
# GULP energy per Si atom -5575.978338 kJ/mol
# Density = 2.504175 g / cm^3
# Si number density = 25.098877 Si / 1000 Ang^3
#
#
#
# Elastic Constant Matrix: (Units=GPa)
#
#
# Indices 1 2 3 4 5 6 
#
# 1 55.4474 15.0772 21.8142 -7.0133 2.0926 -2.1247
# 2 15.0772 119.2923 36.0682 -18.1363 -2.2251 -17.5865
# 3 21.8142 36.0682 111.0556 -8.4379 -18.9296 -8.2598
# 4 -7.0133 -18.1363 -8.4379 37.3708 -5.7394 3.9542
# 5 2.0926 -2.2251 -18.9296 -5.7394 37.5629 -1.6345
# 6 -2.1247 -17.5865 -8.2598 3.9542 -1.6345 28.9410
#
#
#
# Elastic Compliance Matrix: (Units=1/GPa)
#
#
# Indices 1 2 3 4 5 6 
#
# 1 0.020269 -0.001237 -0.003999 0.001935 -0.002959 -0.000836
# 2 -0.001237 0.010645 -0.002493 0.003865 0.000258 0.005153
# 3 -0.003999 -0.002493 0.011938 0.001533 0.006401 0.001750
# 4 0.001935 0.003865 0.001533 0.030281 0.005481 -0.000899
# 5 -0.002959 0.000258 0.006401 0.005481 0.030986 0.002768
# 6 -0.000836 0.005153 0.001750 -0.000899 0.002768 0.038402
#
#
# Mechanical properties :
#
#
# Convention : Reuss Voigt Hill
#
# Bulk Modulus (GPa) = 36.50612 47.96828 42.23720
# Shear Modulus (GPa) = 29.92038 34.96398 32.44218
#
# Velocity S-wave (km/s) = 3.45643 3.73641 3.59914
# Velocity P-wave (km/s) = 5.52319 6.14553 5.84265
#
# Compressibility (1/GPa) = 0.02739267
#
# Stress axis : x y z
#
# Youngs Moduli (GPa) = 49.33612 93.93982 83.76897
#
# Poissons Ratio (x) = 0.11620 0.33500
# Poissons Ratio (y) = 0.06103 0.20887
# Poissons Ratio (z) = 0.19730 0.23423
#
# Static dielectric constant tensor:
#      x y z
#    x 2.125580 -0.062660 0.008160 
#    y -0.062660 2.232290 0.064520 
#    z 0.008160 0.064520 1.992020 
# 
# From -- ./inp_files/80119.got.cif
#   From: 2010.05.17/outbox.cif.g08.bks.cpg/sg2_41_cif.got.tgz:80119.got - 2010.06.03 11:33:40.
