data_PCOD9022008
_publ_section_title
;
Structure prediction by ZEFSAII (Michael W. Deem and Ramdas Pophale) SiO2 
 PCOD9022008
Probable space group: P -1
;
_chemical_formula_sum "Si O2"
_cell_formula_units_Z 16
_cell_length_a 11.819783
_cell_length_b 8.768161
_cell_length_c 11.769425
_cell_angle_alpha 121.330363
_cell_angle_beta 122.368268
_cell_angle_gamma 52.287071
_cell_volume 780.453010
_symmetry_space_group_name_H-M "P -1"
_symmetry_group_IT_number 2
_symmetry_cell_setting 'triclinic'
loop_
_space_group_symop_operation_xyz
x,y,z
-x,-y,-z
loop_
_atom_site_type_symbol
_atom_site_label
_atom_site_fract_x
_atom_site_fract_y
_atom_site_fract_z
Si Si1 0.725065 0.987105 0.613296
Si Si2 0.845111 0.303213 0.307780
Si Si3 0.574148 0.716176 0.349384
Si Si4 0.814704 0.964908 0.064283
Si Si5 0.483710 0.297853 0.938574
Si Si6 0.919398 0.876658 0.461534
Si Si7 0.826330 0.663251 0.132632
Si Si8 0.979530 0.769182 0.855150
O O1 0.657650 0.831817 0.495204
O O2 0.801835 0.003248 0.545067
O O3 0.839691 0.890560 0.741920
O O4 0.589527 0.202952 0.653569
O O5 0.682206 0.479568 0.317296
O O6 0.959102 0.306391 0.465370
O O7 0.886567 0.312686 0.201446
O O8 0.858587 0.082512 0.228585
O O9 0.544871 0.778127 0.226743
O O10 0.825454 0.768718 0.054460
O O11 0.926169 0.912929 0.994963
O O12 0.642320 0.123489 0.001950
O O13 0.333317 0.344495 0.947036
O O14 0.500000 0.500000 0.000000
O O15 0.844568 0.795079 0.296318
O O16 0.000000 0.000000 0.500000
O O17 0.970532 0.446156 0.141726
#
# Coordination Sequence:
#
# PCOD9022008 Si02
#       8
#     2   2   2   2   2   2   2   2
#     4  10  22  38  68  95 124 166 219 271 307 374
#     4  11  22  40  68  95 126 169 217 261 316 384
#     4  11  20  40  64  95 123 162 224 266 307 367
#     4  12  24  40  61  95 133 170 207 266 322 381
#     4  12  23  42  66  90 125 171 218 260 315 388
#     4  11  22  42  66  94 131 168 207 262 328 375
#     4  12  24  43  64  92 133 169 211 263 327 379
#     4  11  22  39  63  96 123 171 216 260 315 381
#
# _framework density 20.500914000000002
#
# number of rings (size 3 to 8) (size 9 to 14) (size 15 to 20)
#    0.000    0.750    6.250    1.875    0.000    2.000 
#    0.000    0.625    0.000    0.000    0.000    0.000 
#    0.000    0.000    0.000    0.000    0.000    0.000 
#
# Total GULP energy -89156.643393 kJ/mol
# GULP energy per Si atom -5572.290212 kJ/mol
# Density = 2.045425 g / cm^3
# Si number density = 20.500914 Si / 1000 Ang^3
#
#
#
# Elastic Constant Matrix: (Units=GPa)
#
#
# Indices 1 2 3 4 5 6 
#
# 1 118.5246 63.0913 12.6820 3.5440 -14.4930 -17.3636
# 2 63.0913 103.7716 30.5811 4.4613 -19.6086 -14.4994
# 3 12.6820 30.5811 61.9195 -5.3181 -8.7726 -13.4474
# 4 3.5440 4.4613 -5.3181 26.4789 -0.1623 -6.3825
# 5 -14.4930 -19.6086 -8.7726 -0.1623 28.2840 5.7325
# 6 -17.3636 -14.4994 -13.4474 -6.3825 5.7325 33.4468
#
#
#
# Elastic Compliance Matrix: (Units=1/GPa)
#
#
# Indices 1 2 3 4 5 6 
#
# 1 0.013145 -0.007936 0.002434 0.001131 0.001106 0.004389
# 2 -0.007936 0.017636 -0.006687 -0.003428 0.006246 -0.000888
# 3 0.002434 -0.006687 0.021562 0.007093 0.001699 0.008096
# 4 0.001131 -0.003428 0.007093 0.042073 -0.001428 0.010226
# 5 0.001106 0.006246 0.001699 -0.001428 0.041463 -0.003414
# 6 0.004389 -0.000888 0.008096 0.010226 -0.003414 0.037584
#
#
# Mechanical properties :
#
#
# Convention : Reuss Voigt Hill
#
# Bulk Modulus (GPa) = 35.75780 55.21385 45.48582
# Shear Modulus (GPa) = 24.13566 29.49935 26.81751
#
# Velocity S-wave (km/s) = 3.43490 3.79744 3.62071
# Velocity P-wave (km/s) = 5.76292 6.79840 6.30196
#
# Compressibility (1/GPa) = 0.02796593
#
# Stress axis : x y z
#
# Youngs Moduli (GPa) = 76.07295 56.70364 46.37726
#
# Poissons Ratio (x) = 0.44999 -0.11288
# Poissons Ratio (y) = 0.60370 0.31012
# Poissons Ratio (z) = -0.18516 0.37917
#
# Static dielectric constant tensor:
#      x y z
#    x 1.809510 0.000670 0.045980 
#    y 0.000670 1.744990 0.013290 
#    z 0.045980 0.013290 1.761810 
# 
# From -- ./inp_files/180299.got.cif
#   From: 2010.05.17/outbox.cif.g08.bks.cpg/sg2_91_cif.got.tgz:180299.got - 2010.06.03 11:33:40.
