data_PCOD9022474
_publ_section_title
;
Structure prediction by ZEFSAII (Michael W. Deem and Ramdas Pophale) SiO2 
 PCOD9022474
Probable space group: P -1
;
_chemical_formula_sum "Si O2"
_cell_formula_units_Z 14
_cell_length_a 17.691905
_cell_length_b 17.505498
_cell_length_c 11.975703
_cell_angle_alpha 30.135939
_cell_angle_beta 140.804539
_cell_angle_gamma 158.690183
_cell_volume 667.046319
_symmetry_space_group_name_H-M "P -1"
_symmetry_group_IT_number 2
_symmetry_cell_setting 'triclinic'
loop_
_space_group_symop_operation_xyz
x,y,z
-x,-y,-z
loop_
_atom_site_type_symbol
_atom_site_label
_atom_site_fract_x
_atom_site_fract_y
_atom_site_fract_z
Si Si1 0.047813 0.038603 0.827303
Si Si2 0.303329 0.900141 0.388107
Si Si3 0.988184 0.320123 0.840956
Si Si4 0.713673 0.808660 0.874828
Si Si5 0.380699 0.498223 0.445983
Si Si6 0.662360 0.047450 0.180495
Si Si7 0.882268 0.517375 0.965487
O O1 0.202175 0.235057 0.653165
O O2 0.180440 0.167522 0.929646
O O3 0.862715 0.961245 0.743534
O O4 0.945501 0.765101 0.037577
O O5 0.248026 0.898200 0.201257
O O6 0.112535 0.599448 0.594612
O O7 0.500000 0.000000 0.500000
O O8 0.325778 0.066542 0.282520
O O9 0.045084 0.361055 0.982046
O O10 0.500000 0.500000 0.000000
O O11 0.500000 0.500000 0.500000
O O12 0.254122 0.490210 0.236958
O O13 0.541106 0.760696 0.379961
O O14 0.890378 0.270491 0.100743
O O15 0.737519 0.212458 0.172262
O O16 0.500000 0.000000 0.000000
#
# Coordination Sequence:
#
# PCOD9022474 Si02
#       7
#     2   2   2   2   2   2   2
#     4  10  23  41  60  90 127 160 210 262 309 381
#     4  10  22  39  62  90 119 157 206 259 317 378
#     4  10  22  40  60  85 119 158 205 256 311 372
#     4  10  22  41  65  90 122 165 205 259 322 373
#     4  11  24  40  63  96 130 170 215 263 324 383
#     4   9  21  40  59  87 122 163 213 257 312 380
#     4  10  22  41  63  87 124 168 211 264 317 379
#
# _framework density 20.988047999999999
#
# number of rings (size 3 to 8) (size 9 to 14) (size 15 to 20)
#    0.000    2.000    0.000    1.714    0.000   14.857 
#    0.000    0.000    0.000    0.000    0.000    0.000 
#    0.000    0.000    0.000    0.000    0.000    0.000 
#
# Total GULP energy -77986.908041 kJ/mol
# GULP energy per Si atom -5570.493432 kJ/mol
# Density = 2.094028 g / cm^3
# Si number density = 20.988048 Si / 1000 Ang^3
#
#
#
# Elastic Constant Matrix: (Units=GPa)
#
#
# Indices 1 2 3 4 5 6 
#
# 1 118.0527 98.3952 42.8012 -3.5367 11.4022 -3.1119
# 2 98.3952 106.4858 35.2611 -0.4824 27.3800 -5.8106
# 3 42.8012 35.2611 67.9082 -11.4327 15.4356 -3.6138
# 4 -3.5367 -0.4824 -11.4327 39.8393 -8.7921 7.1244
# 5 11.4022 27.3800 15.4356 -8.7921 34.3304 -2.3918
# 6 -3.1119 -5.8106 -3.6138 7.1244 -2.3918 42.5035
#
#
#
# Elastic Compliance Matrix: (Units=1/GPa)
#
#
# Indices 1 2 3 4 5 6 
#
# 1 0.063550 -0.064255 -0.014026 0.010256 0.038733 -0.004863
# 2 -0.064255 0.078642 0.008638 -0.014109 -0.048429 0.006421
# 3 -0.014026 0.008638 0.022166 0.002512 -0.011486 0.000971
# 4 0.010256 -0.014109 0.002512 0.030642 0.014195 -0.005302
# 5 0.038733 -0.048429 -0.011486 0.014195 0.063440 -0.003571
# 6 -0.004863 0.006421 0.000971 -0.005302 -0.003571 0.024819
#
#
# Mechanical properties :
#
#
# Convention : Reuss Voigt Hill
#
# Bulk Modulus (GPa) = 39.88443 71.70686 55.79564
# Shear Modulus (GPa) = 11.60356 31.06726 21.33541
#
# Velocity S-wave (km/s) = 2.35386 3.85156 3.19180
# Velocity P-wave (km/s) = 5.14122 7.34977 6.34237
#
# Compressibility (1/GPa) = 0.02507244
#
# Stress axis : x y z
#
# Youngs Moduli (GPa) = 15.73573 12.71583 45.11370
#
# Poissons Ratio (x) = 0.81705 0.63278
# Poissons Ratio (y) = 1.01110 -0.38971
# Poissons Ratio (z) = 0.22071 -0.10984
#
# Static dielectric constant tensor:
#      x y z
#    x 1.767480 -0.022440 -0.006240 
#    y -0.022440 1.800200 -0.004410 
#    z -0.006240 -0.004410 1.813280 
# 
# From -- ./inp_files/262689.got.cif
#   From: 2010.05.17/outbox.cif.g08.bks.cpg/sg2_132_cif.got.tgz:262689.got - 2010.06.03 11:33:40.
