data_PCOD9022303
_publ_section_title
;
Structure prediction by ZEFSAII (Michael W. Deem and Ramdas Pophale) SiO2 
 PCOD9022303
Probable space group: P -1
;
_chemical_formula_sum "Si O2"
_cell_formula_units_Z 14
_cell_length_a 21.868192
_cell_length_b 9.162395
_cell_length_c 12.270942
_cell_angle_alpha 38.894189
_cell_angle_beta 29.800414
_cell_angle_gamma 56.685313
_cell_volume 701.730577
_symmetry_space_group_name_H-M "P -1"
_symmetry_group_IT_number 2
_symmetry_cell_setting 'triclinic'
loop_
_space_group_symop_operation_xyz
x,y,z
-x,-y,-z
loop_
_atom_site_type_symbol
_atom_site_label
_atom_site_fract_x
_atom_site_fract_y
_atom_site_fract_z
Si Si1 0.856477 0.286965 0.310729
Si Si2 0.774620 0.713865 0.223678
Si Si3 0.937491 0.947378 0.505479
Si Si4 0.347743 0.473908 0.241611
Si Si5 0.860479 0.018338 0.235179
Si Si6 0.646361 0.098860 0.162977
Si Si7 0.141729 0.586281 0.168816
O O1 0.766042 0.447644 0.341478
O O2 0.867545 0.154907 0.259110
O O3 0.835932 0.081734 0.557504
O O4 0.000000 0.500000 0.000000
O O5 0.728355 0.633534 0.465255
O O6 0.689470 0.862665 0.220575
O O7 0.928863 0.916997 0.854971
O O8 0.867076 0.656688 0.746307
O O9 0.000000 0.000000 0.500000
O O10 0.261256 0.257136 0.415987
O O11 0.500000 0.500000 0.000000
O O12 0.347457 0.739939 0.048520
O O13 0.836887 0.189328 0.078924
O O14 0.000000 0.000000 0.000000
O O15 0.500000 0.000000 0.500000
O O16 0.746484 0.296055 0.980235
O O17 0.000000 0.500000 0.500000
#
# Coordination Sequence:
#
# PCOD9022303 Si02
#       7
#     2   2   2   2   2   2   2
#     4  10  22  39  60  93 133 167 211 268 333 387
#     4  11  23  43  63  96 134 173 219 268 334 386
#     4  11  23  39  64  98 133 172 215 275 337 391
#     4  12  24  44  70  95 131 178 223 272 328 393
#     4  12  23  40  66  97 131 169 221 276 327 392
#     4  12  24  42  69  98 132 172 226 274 325 393
#     4  12  21  38  64  98 125 166 222 273 324 387
#
# _framework density 19.950676999999999
#
# number of rings (size 3 to 8) (size 9 to 14) (size 15 to 20)
#    0.000    0.571    4.286    6.000    2.000    0.000 
#    0.000    0.714    0.000    2.571    0.000    0.000 
#    0.000    0.000    0.000    0.000    0.000    0.000 
#
# Total GULP energy -78176.542732 kJ/mol
# GULP energy per Si atom -5584.038767 kJ/mol
# Density = 1.990527 g / cm^3
# Si number density = 19.950677 Si / 1000 Ang^3
#
#
#
# Elastic Constant Matrix: (Units=GPa)
#
#
# Indices 1 2 3 4 5 6 
#
# 1 113.0880 59.2236 35.4128 -2.9578 14.7089 -13.7851
# 2 59.2236 166.3248 35.1187 -21.8966 -1.2752 -18.2705
# 3 35.4128 35.1187 96.3907 0.1669 -1.9845 -7.2235
# 4 -2.9578 -21.8966 0.1669 27.4283 -8.1191 8.7363
# 5 14.7089 -1.2752 -1.9845 -8.1191 46.5618 -11.6629
# 6 -13.7851 -18.2705 -7.2235 8.7363 -11.6629 51.9979
#
#
#
# Elastic Compliance Matrix: (Units=1/GPa)
#
#
# Indices 1 2 3 4 5 6 
#
# 1 0.012689 -0.004275 -0.003118 -0.003725 -0.004655 0.001011
# 2 -0.004275 0.008980 -0.001553 0.007228 0.003114 0.001290
# 3 -0.003118 -0.001553 0.012185 -0.001514 0.001422 0.000894
# 4 -0.003725 0.007228 -0.001514 0.045683 0.008147 -0.004506
# 5 -0.004655 0.003114 0.001422 0.008147 0.025625 0.004436
# 6 0.001011 0.001290 0.000894 -0.004506 0.004436 0.021829
#
#
# Mechanical properties :
#
#
# Convention : Reuss Voigt Hill
#
# Bulk Modulus (GPa) = 62.64958 70.59041 66.62000
# Shear Modulus (GPa) = 33.28844 41.60082 37.44463
#
# Velocity S-wave (km/s) = 4.08920 4.57133 4.33697
# Velocity P-wave (km/s) = 7.33252 7.95752 7.65140
#
# Compressibility (1/GPa) = 0.01596180
#
# Stress axis : x y z
#
# Youngs Moduli (GPa) = 78.80833 111.36468 82.07142
#
# Poissons Ratio (x) = 0.47608 0.25589
# Poissons Ratio (y) = 0.33690 0.12743
# Poissons Ratio (z) = 0.24572 0.17292
#
# Static dielectric constant tensor:
#      x y z
#    x 1.715060 -0.042110 0.047260 
#    y -0.042110 1.769080 -0.005590 
#    z 0.047260 -0.005590 1.665140 
# 
# From -- ./inp_files/255878.got.cif
#   From: 2010.05.17/outbox.cif.g08.bks.cpg/sg2_128_cif.got.tgz:255878.got - 2010.06.03 11:33:40.
