data_PCOD9022085
_publ_section_title
;
Structure prediction by ZEFSAII (Michael W. Deem and Ramdas Pophale) SiO2 
 PCOD9022085
Probable space group: P -1
;
_chemical_formula_sum "Si O2"
_cell_formula_units_Z 12
_cell_length_a 19.853687
_cell_length_b 20.298929
_cell_length_c 10.215371
_cell_angle_alpha 29.975624
_cell_angle_beta 153.196875
_cell_angle_gamma 165.111820
_cell_volume 476.738238
_symmetry_space_group_name_H-M "P -1"
_symmetry_group_IT_number 2
_symmetry_cell_setting 'triclinic'
loop_
_space_group_symop_operation_xyz
x,y,z
-x,-y,-z
loop_
_atom_site_type_symbol
_atom_site_label
_atom_site_fract_x
_atom_site_fract_y
_atom_site_fract_z
Si Si1 0.288996 0.740888 0.005088
Si Si2 0.916229 0.263011 0.861695
Si Si3 0.599013 0.762573 0.209104
Si Si4 0.629647 0.725588 0.605223
Si Si5 0.638087 0.016930 0.520658
Si Si6 0.718235 0.784307 0.076790
O O1 0.247738 0.789119 0.716307
O O2 0.435181 0.708778 0.299175
O O3 0.000000 0.500000 0.000000
O O4 0.500000 0.000000 0.000000
O O5 0.167636 0.819380 0.293812
O O6 0.694917 0.203525 0.637349
O O7 0.257378 0.541174 0.991652
O O8 0.802810 0.042784 0.111110
O O9 0.649750 0.705995 0.517723
O O10 0.684195 0.781987 0.178773
O O11 0.487854 0.494426 0.829657
O O12 0.947118 0.995109 0.746009
O O13 0.650459 0.874947 0.740439
#
# Coordination Sequence:
#
# PCOD9022085 Si02
#       6
#     2   2   2   2   2   2
#     4  12  29  50  74  96 130 190 246 284 327 397
#     4  10  22  38  71 103 140 182 220 283 342 405
#     4  11  21  39  66 107 144 183 216 267 353 426
#     4  12  24  45  66 102 144 180 229 280 341 411
#     4  10  24  46  69 104 140 179 234 281 342 411
#     4  11  24  40  69 105 144 180 212 283 360 416
#
# _framework density 25.171046
#
# number of rings (size 3 to 8) (size 9 to 14) (size 15 to 20)
#    0.000    1.000    1.667    5.000    2.333   11.333 
#    0.000    5.000    0.000    0.000    0.000    0.000 
#    0.000    0.000    0.000    0.000    0.000    0.000 
#
# Total GULP energy -67308.035996 kJ/mol
# GULP energy per Si atom -5609.003000 kJ/mol
# Density = 2.511376 g / cm^3
# Si number density = 25.171046 Si / 1000 Ang^3
#
#
#
# Elastic Constant Matrix: (Units=GPa)
#
#
# Indices 1 2 3 4 5 6 
#
# 1 66.5943 38.6515 34.3202 -7.3631 -8.8395 15.3094
# 2 38.6515 171.6620 48.5925 -3.6383 -0.0387 38.0371
# 3 34.3202 48.5925 144.3301 -26.0074 0.2805 31.0700
# 4 -7.3631 -3.6383 -26.0074 45.9797 1.0172 1.7411
# 5 -8.8395 -0.0387 0.2805 1.0172 30.0256 2.7679
# 6 15.3094 38.0371 31.0700 1.7411 2.7679 28.8695
#
#
#
# Elastic Compliance Matrix: (Units=1/GPa)
#
#
# Indices 1 2 3 4 5 6 
#
# 1 0.020036 -0.002617 -0.002471 0.001661 0.006344 -0.005225
# 2 -0.002617 0.008662 -0.000013 0.000637 0.000147 -0.010062
# 3 -0.002471 -0.000013 0.010981 0.006226 -0.000040 -0.010862
# 4 0.001661 0.000637 0.006226 0.025956 0.000477 -0.010032
# 5 0.006344 0.000147 -0.000040 0.000477 0.035800 -0.006976
# 6 -0.005225 -0.010062 -0.010862 -0.010032 -0.006976 0.063631
#
#
# Mechanical properties :
#
#
# Convention : Reuss Voigt Hill
#
# Bulk Modulus (GPa) = 33.92725 69.52388 51.72556
# Shear Modulus (GPa) = 27.01325 38.37642 32.69483
#
# Velocity S-wave (km/s) = 3.27951 3.90888 3.60794
# Velocity P-wave (km/s) = 5.27714 6.93203 6.16040
#
# Compressibility (1/GPa) = 0.02947484
#
# Stress axis : x y z
#
# Youngs Moduli (GPa) = 49.91020 115.45163 91.06713
#
# Poissons Ratio (x) = 0.30217 0.22506
# Poissons Ratio (y) = 0.13063 0.00120
# Poissons Ratio (z) = 0.12334 0.00153
#
# Static dielectric constant tensor:
#      x y z
#    x 2.054600 -0.030470 0.009480 
#    y -0.030470 1.928450 -0.018100 
#    z 0.009480 -0.018100 1.993400 
# 
# From -- ./inp_files/544570.got.cif
#   From: 2010.05.17/outbox.cif.g08.bks.cpg/sg2_273_cif.got.tgz:544570.got - 2010.06.03 11:33:40.
