data_PCOD9022446
_publ_section_title
;
Structure prediction by ZEFSAII (Michael W. Deem and Ramdas Pophale) SiO2 
 PCOD9022446
Probable space group: P -1
;
_chemical_formula_sum "Si O2"
_cell_formula_units_Z 16
_cell_length_a 12.689504
_cell_length_b 23.380158
_cell_length_c 12.275771
_cell_angle_alpha 151.171408
_cell_angle_beta 32.889169
_cell_angle_gamma 152.896621
_cell_volume 769.818778
_symmetry_space_group_name_H-M "P -1"
_symmetry_group_IT_number 2
_symmetry_cell_setting 'triclinic'
loop_
_space_group_symop_operation_xyz
x,y,z
-x,-y,-z
loop_
_atom_site_type_symbol
_atom_site_label
_atom_site_fract_x
_atom_site_fract_y
_atom_site_fract_z
Si Si1 0.372300 0.318444 0.435204
Si Si2 0.675230 0.010471 0.691032
Si Si3 0.761650 0.490164 0.209735
Si Si4 0.663966 0.376625 0.880182
Si Si5 0.400776 0.914942 0.556307
Si Si6 0.732030 0.771103 0.208513
Si Si7 0.160594 0.328105 0.847218
Si Si8 0.775150 0.005435 0.969738
O O1 0.626413 0.417478 0.318121
O O2 0.357708 0.352613 0.630327
O O3 0.278388 0.151749 0.233967
O O4 0.918199 0.166070 0.767107
O O5 0.628865 0.986516 0.560423
O O6 0.674521 0.872208 0.494064
O O7 0.445056 0.005110 0.916714
O O8 0.790842 0.641385 0.418041
O O9 0.594197 0.388712 0.083762
O O10 0.000000 0.500000 0.000000
O O11 0.719023 0.257227 0.637106
O O12 0.460081 0.317824 0.868013
O O13 0.866861 0.543218 0.943724
O O14 0.500000 0.000000 0.500000
O O15 0.225940 0.937806 0.813880
O O16 0.753943 0.670416 0.103937
O O17 0.986017 0.885492 0.121821
#
# Coordination Sequence:
#
# PCOD9022446 Si02
#       8
#     2   2   2   2   2   2   2   2
#     4  10  22  39  62 106 115 170 218 254 324 383
#     4   9  22  39  63  96 124 165 223 260 315 376
#     4  10  23  43  67  91 138 163 208 271 324 380
#     4  10  23  42  63  95 128 169 211 260 334 384
#     4   9  20  41  62  90 129 166 208 263 319 381
#     4  11  22  45  62  91 135 171 215 266 322 380
#     4  11  22  42  67  92 132 170 213 280 312 375
#     4  10  22  39  66  91 128 165 224 255 319 380
#
# _framework density 20.784112
#
# number of rings (size 3 to 8) (size 9 to 14) (size 15 to 20)
#    0.750    1.250    1.250    1.500    3.500    0.500 
#    9.000    2.500    0.000    0.000    0.000    0.000 
#    0.000    0.000    0.000    0.000    0.000    0.000 
#
# Total GULP energy -89224.262711 kJ/mol
# GULP energy per Si atom -5576.516419 kJ/mol
# Density = 2.073681 g / cm^3
# Si number density = 20.784112 Si / 1000 Ang^3
#
#
#
# Elastic Constant Matrix: (Units=GPa)
#
#
# Indices 1 2 3 4 5 6 
#
# 1 44.8058 10.0994 6.2780 4.0673 -0.5543 -1.1047
# 2 10.0994 69.6068 31.6007 11.2661 -7.3295 -15.4594
# 3 6.2780 31.6007 107.2284 17.3483 -13.6929 -3.5995
# 4 4.0673 11.2661 17.3483 33.8507 6.3948 -3.7975
# 5 -0.5543 -7.3295 -13.6929 6.3948 26.7057 2.8018
# 6 -1.1047 -15.4594 -3.5995 -3.7975 2.8018 30.0644
#
#
#
# Elastic Compliance Matrix: (Units=1/GPa)
#
#
# Indices 1 2 3 4 5 6 
#
# 1 0.023205 -0.003246 -0.000147 -0.001761 0.000049 -0.001061
# 2 -0.003246 0.019638 -0.004352 -0.003505 0.003014 0.008734
# 3 -0.000147 -0.004352 0.012488 -0.006505 0.006997 -0.002222
# 4 -0.001761 -0.003505 -0.006505 0.037193 -0.013588 0.003318
# 5 0.000049 0.003014 0.006997 -0.013588 0.045489 -0.003566
# 6 -0.001061 0.008734 -0.002222 0.003318 -0.003566 0.038200
#
#
# Mechanical properties :
#
#
# Convention : Reuss Voigt Hill
#
# Bulk Modulus (GPa) = 25.09918 35.28858 30.19388
# Shear Modulus (GPa) = 24.39246 29.70168 27.04707
#
# Velocity S-wave (km/s) = 3.42952 3.78439 3.61131
# Velocity P-wave (km/s) = 5.27110 6.00924 5.65223
#
# Compressibility (1/GPa) = 0.03984194
#
# Stress axis : x y z
#
# Youngs Moduli (GPa) = 43.09413 50.92279 80.07438
#
# Poissons Ratio (x) = 0.16529 0.01173
# Poissons Ratio (y) = 0.13988 0.34850
# Poissons Ratio (z) = 0.00631 0.22163
#
# Static dielectric constant tensor:
#      x y z
#    x 1.785080 -0.001800 -0.008770 
#    y -0.001800 1.706270 0.025660 
#    z -0.008770 0.025660 1.784100 
# 
# From -- ./inp_files/457534.got.cif
#   From: 2010.05.17/outbox.cif.g08.bks.cpg/sg2_229_cif.got.tgz:457534.got - 2010.06.03 11:33:40.
