data_PCOD9022178
_publ_section_title
;
Structure prediction by ZEFSAII (Michael W. Deem and Ramdas Pophale) SiO2 
 PCOD9022178
Probable space group: P -1
;
_chemical_formula_sum "Si O2"
_cell_formula_units_Z 16
_cell_length_a 14.639090
_cell_length_b 14.982255
_cell_length_c 9.343941
_cell_angle_alpha 27.813909
_cell_angle_beta 136.827987
_cell_angle_gamma 132.071098
_cell_volume 652.241084
_symmetry_space_group_name_H-M "P -1"
_symmetry_group_IT_number 2
_symmetry_cell_setting 'triclinic'
loop_
_space_group_symop_operation_xyz
x,y,z
-x,-y,-z
loop_
_atom_site_type_symbol
_atom_site_label
_atom_site_fract_x
_atom_site_fract_y
_atom_site_fract_z
Si Si1 0.697874 0.490166 0.665814
Si Si2 0.167585 0.088695 0.732646
Si Si3 0.143865 0.918692 0.258045
Si Si4 0.551628 0.207999 0.433160
Si Si5 0.319338 0.447681 0.758639
Si Si6 0.402574 0.837199 0.787499
Si Si7 0.103724 0.797377 0.833630
Si Si8 0.016103 0.459812 0.410696
O O1 0.758838 0.697910 0.493596
O O2 0.632563 0.530373 0.380820
O O3 0.610108 0.357617 0.862425
O O4 0.811242 0.346809 0.952952
O O5 0.007137 0.111155 0.517569
O O6 0.184251 0.957777 0.796386
O O7 0.193868 0.989630 0.056329
O O8 0.264722 0.946824 0.468787
O O9 0.105548 0.691001 0.550814
O O10 0.000000 0.000000 0.000000
O O11 0.665089 0.342666 0.449412
O O12 0.575424 0.199513 0.302952
O O13 0.518911 0.991512 0.756311
O O14 0.415933 0.318233 0.137843
O O15 0.162538 0.378889 0.670764
O O16 0.020914 0.654762 0.051634
O O17 0.000000 0.500000 0.500000
#
# Coordination Sequence:
#
# PCOD9022178 Si02
#       8
#     2   2   2   2   2   2   2   2
#     4  11  23  42  64  95 129 172 214 278 326 386
#     4  11  22  38  59  92 138 176 211 258 330 396
#     4  12  22  36  64  98 129 169 214 267 325 396
#     4  10  23  46  66  91 128 170 224 274 313 392
#     4  10  23  43  66  94 129 173 218 267 330 381
#     4  11  24  42  68  96 127 171 220 269 330 383
#     4  10  22  39  58  93 137 178 209 263 323 397
#     4  11  20  37  62  94 130 165 209 262 323 387
#
# _framework density 24.530808
#
# number of rings (size 3 to 8) (size 9 to 14) (size 15 to 20)
#    0.000    1.250    1.250    5.625    1.750    1.000 
#    4.500    0.000    0.000    0.000    0.000    0.000 
#    0.000    0.000    0.000    0.000    0.000    0.000 
#
# Total GULP energy -89524.836289 kJ/mol
# GULP energy per Si atom -5595.302268 kJ/mol
# Density = 2.447497 g / cm^3
# Si number density = 24.530808 Si / 1000 Ang^3
#
#
#
# Elastic Constant Matrix: (Units=GPa)
#
#
# Indices 1 2 3 4 5 6 
#
# 1 73.8038 14.1850 31.1010 -19.5010 -15.8486 5.8041
# 2 14.1850 142.2543 41.7341 -54.6429 -28.1419 4.9139
# 3 31.1010 41.7341 111.0266 -13.1095 -7.3029 1.3939
# 4 -19.5010 -54.6429 -13.1095 51.2724 12.2226 0.5694
# 5 -15.8486 -28.1419 -7.3029 12.2226 51.1975 -0.5702
# 6 5.8041 4.9139 1.3939 0.5694 -0.5702 28.0051
#
#
#
# Elastic Compliance Matrix: (Units=1/GPa)
#
#
# Indices 1 2 3 4 5 6 
#
# 1 0.018990 0.004563 -0.005512 0.009466 0.005290 -0.004547
# 2 0.004563 0.015006 -0.004720 0.015298 0.005296 -0.003547
# 3 -0.005512 -0.004720 0.011754 -0.003727 -0.001718 0.001426
# 4 0.009466 0.015298 -0.003727 0.038119 0.001649 -0.005202
# 5 0.005290 0.005296 -0.001718 0.001649 0.023425 -0.001497
# 6 -0.004547 -0.003547 0.001426 -0.005202 -0.001497 0.037277
#
#
# Mechanical properties :
#
#
# Convention : Reuss Voigt Hill
#
# Bulk Modulus (GPa) = 29.05923 55.68055 42.36989
# Shear Modulus (GPa) = 29.87245 42.09932 35.98588
#
# Velocity S-wave (km/s) = 3.49342 4.14718 3.83426
# Velocity P-wave (km/s) = 5.30506 6.75867 6.07549
#
# Compressibility (1/GPa) = 0.03441247
#
# Stress axis : x y z
#
# Youngs Moduli (GPa) = 52.65980 66.64132 85.07805
#
# Poissons Ratio (x) = -0.30409 0.46895
# Poissons Ratio (y) = -0.24029 0.40153
# Poissons Ratio (z) = 0.29026 0.31452
#
# Static dielectric constant tensor:
#      x y z
#    x 2.014510 0.032540 0.109650 
#    y 0.032540 1.939190 -0.002490 
#    z 0.109650 -0.002490 2.022430 
# 
# From -- ./inp_files/207655.got.cif
#   From: 2010.05.17/outbox.cif.g08.bks.cpg/sg2_104_cif.got.tgz:207655.got - 2010.06.03 11:33:40.
