data_PCOD9022663
_publ_section_title
;
Structure prediction by ZEFSAII (Michael W. Deem and Ramdas Pophale) SiO2 
 PCOD9022663
Probable space group: P -1
;
_chemical_formula_sum "Si O2"
_cell_formula_units_Z 16
_cell_length_a 11.583812
_cell_length_b 12.110650
_cell_length_c 13.511818
_cell_angle_alpha 47.275956
_cell_angle_beta 129.990704
_cell_angle_gamma 91.475951
_cell_volume 730.369077
_symmetry_space_group_name_H-M "P -1"
_symmetry_group_IT_number 2
_symmetry_cell_setting 'triclinic'
loop_
_space_group_symop_operation_xyz
x,y,z
-x,-y,-z
loop_
_atom_site_type_symbol
_atom_site_label
_atom_site_fract_x
_atom_site_fract_y
_atom_site_fract_z
Si Si1 0.928299 0.242595 0.570308
Si Si2 0.179637 0.909106 0.235377
Si Si3 0.631624 0.755860 0.759867
Si Si4 0.672195 0.643917 0.074168
Si Si5 0.142080 0.470640 0.463956
Si Si6 0.617987 0.483965 0.772082
Si Si7 0.414085 0.847727 0.999906
Si Si8 0.983224 0.338138 0.925941
O O1 0.879566 0.123103 0.672225
O O2 0.745404 0.420481 0.279682
O O3 0.906266 0.373462 0.571180
O O4 0.171762 0.073282 0.761965
O O5 0.410241 0.673192 0.473130
O O6 0.170590 0.093431 0.132219
O O7 0.000000 0.000000 0.000000
O O8 0.597187 0.630335 0.753800
O O9 0.889298 0.615223 0.985639
O O10 0.500000 0.000000 0.500000
O O11 0.591652 0.741550 0.861261
O O12 0.491077 0.825197 0.944290
O O13 0.912451 0.546231 0.284980
O O14 0.383378 0.237255 0.770440
O O15 0.165869 0.512237 0.340537
O O16 0.594545 0.329010 0.886531
O O17 0.841440 0.352217 0.918021
#
# Coordination Sequence:
#
# PCOD9022663 Si02
#       8
#     2   2   2   2   2   2   2   2
#     4  11  21  39  63  97 134 165 207 258 320 382
#     4  12  22  38  66  98 135 170 206 264 322 378
#     4  11  25  48  69  87 126 173 216 277 320 369
#     4  10  24  45  61  93 129 166 220 261 320 378
#     4  10  22  39  63  93 138 166 206 265 312 384
#     4  12  24  41  67  94 129 169 220 267 314 379
#     4  11  22  39  65  98 126 171 209 257 322 388
#     4  11  23  41  64  98 128 170 218 260 320 378
#
# _framework density 21.906734
#
# number of rings (size 3 to 8) (size 9 to 14) (size 15 to 20)
#    0.000    1.000    6.250    1.875    1.750    3.500 
#    6.750    0.625    0.000    0.000    0.000    0.000 
#    0.000    0.000    0.000    0.000    0.000    0.000 
#
# Total GULP energy -89277.767024 kJ/mol
# GULP energy per Si atom -5579.860439 kJ/mol
# Density = 2.185687 g / cm^3
# Si number density = 21.906734 Si / 1000 Ang^3
#
#
#
# Elastic Constant Matrix: (Units=GPa)
#
#
# Indices 1 2 3 4 5 6 
#
# 1 94.5177 13.0821 19.9002 7.0732 -7.3335 -14.2374
# 2 13.0821 57.0710 39.4061 2.1431 -5.0811 2.2121
# 3 19.9002 39.4061 102.9747 -2.5856 -14.4111 -13.9292
# 4 7.0732 2.1431 -2.5856 30.8668 -10.0301 7.6342
# 5 -7.3335 -5.0811 -14.4111 -10.0301 43.8083 -1.5514
# 6 -14.2374 2.2121 -13.9292 7.6342 -1.5514 31.0810
#
#
#
# Elastic Compliance Matrix: (Units=1/GPa)
#
#
# Indices 1 2 3 4 5 6 
#
# 1 0.012419 -0.002524 -0.000502 -0.004065 0.000927 0.006688
# 2 -0.002524 0.025570 -0.010529 -0.000631 -0.001334 -0.007606
# 3 -0.000502 -0.010529 0.015486 0.001801 0.004458 0.007240
# 4 -0.004065 -0.000631 0.001801 0.038737 0.008350 -0.010108
# 5 0.000927 -0.001334 0.004458 0.008350 0.026268 0.001778
# 6 0.006688 -0.007606 0.007240 -0.010108 0.001778 0.041595
#
#
# Mechanical properties :
#
#
# Convention : Reuss Voigt Hill
#
# Bulk Modulus (GPa) = 37.92900 44.37116 41.15008
# Shear Modulus (GPa) = 25.51376 33.29620 29.40498
#
# Velocity S-wave (km/s) = 3.41640 3.90283 3.66769
# Velocity P-wave (km/s) = 5.73706 6.37244 6.06308
#
# Compressibility (1/GPa) = 0.02636505
#
# Stress axis : x y z
#
# Youngs Moduli (GPa) = 80.52378 39.10789 64.57637
#
# Poissons Ratio (x) = 0.09873 0.03239
# Poissons Ratio (y) = 0.20328 0.67991
# Poissons Ratio (z) = 0.04038 0.41176
#
# Static dielectric constant tensor:
#      x y z
#    x 1.858560 0.053310 -0.021570 
#    y 0.053310 1.805120 -0.014140 
#    z -0.021570 -0.014140 1.831790 
# 
# From -- ./inp_files/427882.got.cif
#   From: 2010.05.17/outbox.cif.g08.bks.cpg/sg2_214_cif.got.tgz:427882.got - 2010.06.03 11:33:40.
