data_PCOD9022999
_publ_section_title
;
Structure prediction by ZEFSAII (Michael W. Deem and Ramdas Pophale) SiO2 
 PCOD9022999
Probable space group: P -1
;
_chemical_formula_sum "Si O2"
_cell_formula_units_Z 14
_cell_length_a 9.086656
_cell_length_b 9.261871
_cell_length_c 11.334489
_cell_angle_alpha 115.221410
_cell_angle_beta 121.240973
_cell_angle_gamma 48.025969
_cell_volume 601.611146
_symmetry_space_group_name_H-M "P -1"
_symmetry_group_IT_number 2
_symmetry_cell_setting 'triclinic'
loop_
_space_group_symop_operation_xyz
x,y,z
-x,-y,-z
loop_
_atom_site_type_symbol
_atom_site_label
_atom_site_fract_x
_atom_site_fract_y
_atom_site_fract_z
Si Si1 0.688089 0.739943 0.243665
Si Si2 0.906605 0.385848 0.372309
Si Si3 0.828865 0.854510 0.002783
Si Si4 0.516023 0.763469 0.917690
Si Si5 0.245370 0.007613 0.239019
Si Si6 0.743714 0.353341 0.782393
Si Si7 0.077700 0.776482 0.440366
O O1 0.755501 0.536153 0.260411
O O2 0.491748 0.920540 0.297049
O O3 0.879465 0.763097 0.329434
O O4 0.605330 0.743533 0.079875
O O5 0.823867 0.336790 0.435133
O O6 0.000000 0.500000 0.500000
O O7 0.100580 0.182545 0.328699
O O8 0.654249 0.808825 0.911003
O O9 0.855389 0.910048 0.903125
O O10 0.042839 0.680437 0.088931
O O11 0.724322 0.047987 0.108817
O O12 0.556709 0.565671 0.821725
O O13 0.252669 0.821007 0.216875
O O14 0.769071 0.322155 0.642264
O O15 0.000000 0.000000 0.500000
#
# Coordination Sequence:
#
# PCOD9022999 Si02
#       7
#     2   2   2   2   2   2   2
#     4  10  23  44  68  89 128 166 206 266 308 382
#     4  10  23  41  64  87 124 169 213 253 306 368
#     4  10  22  39  65  96 128 164 201 263 315 379
#     4  10  22  40  66 100 124 162 211 252 326 374
#     4  11  24  41  64  99 124 165 211 256 322 371
#     4  12  23  40  66  94 133 162 204 266 312 372
#     4  11  23  44  64  92 127 168 214 260 308 366
#
# _framework density 23.270845000000001
#
# number of rings (size 3 to 8) (size 9 to 14) (size 15 to 20)
#    0.000    1.429    2.857    1.714    4.000    5.714 
#    0.000    2.143    0.000    0.000    0.000    0.000 
#    0.000    0.000    0.000    0.000    0.000    0.000 
#
# Total GULP energy -78347.922524 kJ/mol
# GULP energy per Si atom -5596.280180 kJ/mol
# Density = 2.321788 g / cm^3
# Si number density = 23.270845 Si / 1000 Ang^3
#
#
#
# Elastic Constant Matrix: (Units=GPa)
#
#
# Indices 1 2 3 4 5 6 
#
# 1 61.1087 7.7517 43.9271 -10.1755 -12.6698 20.2202
# 2 7.7517 113.7243 43.5157 9.4005 -6.7192 23.1094
# 3 43.9271 43.5157 76.2704 5.1816 -17.9963 11.0695
# 4 -10.1755 9.4005 5.1816 43.0705 4.3997 -4.6111
# 5 -12.6698 -6.7192 -17.9963 4.3997 33.4510 -13.8447
# 6 20.2202 23.1094 11.0695 -4.6111 -13.8447 43.8922
#
#
#
# Elastic Compliance Matrix: (Units=1/GPa)
#
#
# Indices 1 2 3 4 5 6 
#
# 1 0.044997 0.012141 -0.032440 0.010504 -0.007746 -0.020280
# 2 0.012141 0.016016 -0.015791 0.000588 -0.005622 -0.011755
# 3 -0.032440 -0.015791 0.042707 -0.009183 0.015520 0.016419
# 4 0.010504 0.000588 -0.009183 0.027022 -0.005056 -0.001588
# 5 -0.007746 -0.005622 0.015520 -0.005056 0.041070 0.015038
# 6 -0.020280 -0.011755 0.016419 -0.001588 0.015038 0.038750
#
#
# Mechanical properties :
#
#
# Convention : Reuss Voigt Hill
#
# Bulk Modulus (GPa) = 31.70599 49.05471 40.38035
# Shear Modulus (GPa) = 17.04999 34.47665 25.76332
#
# Velocity S-wave (km/s) = 2.70974 3.85325 3.33093
# Velocity P-wave (km/s) = 4.84196 6.39706 5.67305
#
# Compressibility (1/GPa) = 0.03153978
#
# Stress axis : x y z
#
# Youngs Moduli (GPa) = 22.22374 62.43902 23.41517
#
# Poissons Ratio (x) = -0.75808 0.75960
# Poissons Ratio (y) = -0.26982 0.36974
# Poissons Ratio (z) = 0.72095 0.98596
#
# Static dielectric constant tensor:
#      x y z
#    x 1.901880 0.000290 0.010680 
#    y 0.000290 1.863080 -0.030180 
#    z 0.010680 -0.030180 1.866560 
# 
# From -- ./inp_files/178468.got.cif
#   From: 2010.05.17/outbox.cif.g08.bks.cpg/sg2_90_cif.got.tgz:178468.got - 2010.06.03 11:33:40.
