data_PCOD9022598
_publ_section_title
;
Structure prediction by ZEFSAII (Michael W. Deem and Ramdas Pophale) SiO2 
 PCOD9022598
Probable space group: P -1
;
_chemical_formula_sum "Si O2"
_cell_formula_units_Z 16
_cell_length_a 16.479871
_cell_length_b 8.515714
_cell_length_c 9.615847
_cell_angle_alpha 130.316465
_cell_angle_beta 104.566941
_cell_angle_gamma 109.233256
_cell_volume 742.080026
_symmetry_space_group_name_H-M "P -1"
_symmetry_group_IT_number 2
_symmetry_cell_setting 'triclinic'
loop_
_space_group_symop_operation_xyz
x,y,z
-x,-y,-z
loop_
_atom_site_type_symbol
_atom_site_label
_atom_site_fract_x
_atom_site_fract_y
_atom_site_fract_z
Si Si1 0.720985 0.024170 0.333931
Si Si2 0.924500 0.591101 0.653133
Si Si3 0.668551 0.877162 0.738446
Si Si4 0.392859 0.951587 0.963986
Si Si5 0.826115 0.488400 0.254032
Si Si6 0.164326 0.145641 0.085912
Si Si7 0.385740 0.946515 0.424921
Si Si8 0.780627 0.677921 0.108197
O O1 0.853588 0.290325 0.518137
O O2 0.660848 0.009168 0.161793
O O3 0.663679 0.058302 0.452477
O O4 0.715431 0.769105 0.192674
O O5 0.905801 0.572836 0.467712
O O6 0.055157 0.822888 0.875933
O O7 0.866490 0.694491 0.758367
O O8 0.617915 0.851122 0.553477
O O9 0.582423 0.838031 0.787372
O O10 0.780550 0.205611 0.999203
O O11 0.719030 0.745541 0.735954
O O12 0.293388 0.641091 0.800780
O O13 0.500000 0.000000 0.000000
O O14 0.860060 0.712159 0.282599
O O15 0.173016 0.186054 0.946088
O O16 0.500000 0.000000 0.500000
O O17 0.300892 0.644959 0.146775
#
# Coordination Sequence:
#
# PCOD9022598 Si02
#       8
#     2   2   2   2   2   2   2   2
#     4  11  22  39  63  91 119 165 203 249 306 369
#     4  10  22  39  63  89 122 165 201 255 311 362
#     4   9  20  38  59  86 118 159 200 251 299 367
#     4   9  17  36  59  84 118 156 199 250 302 352
#     4   8  20  37  56  88 119 155 197 256 292 362
#     4  11  21  40  63  89 123 161 207 253 309 364
#     4  11  24  43  61  90 130 159 198 260 306 357
#     4  11  22  40  63  90 124 156 207 252 298 366
#
# _framework density 21.561019000000002
#
# number of rings (size 3 to 8) (size 9 to 14) (size 15 to 20)
#    0.750    1.250    2.500    0.750    1.750    3.000 
#    0.000    2.500    0.000    0.000    0.000    0.000 
#    0.000    0.000    0.000    0.000    0.000    0.000 
#
# Total GULP energy -89123.338413 kJ/mol
# GULP energy per Si atom -5570.208651 kJ/mol
# Density = 2.151195 g / cm^3
# Si number density = 21.561019 Si / 1000 Ang^3
#
#
#
# Elastic Constant Matrix: (Units=GPa)
#
#
# Indices 1 2 3 4 5 6 
#
# 1 62.8662 18.0689 -6.4474 -2.5081 -10.0696 -8.1149
# 2 18.0689 69.3205 4.5345 -26.5397 -12.2480 -1.6536
# 3 -6.4474 4.5345 27.1631 -14.1209 -22.6454 12.2242
# 4 -2.5081 -26.5397 -14.1209 27.3344 -0.0618 0.8816
# 5 -10.0696 -12.2480 -22.6454 -0.0618 18.4858 11.5766
# 6 -8.1149 -1.6536 12.2242 0.8816 11.5766 11.5685
#
#
#
# Elastic Compliance Matrix: (Units=1/GPa)
#
#
# Indices 1 2 3 4 5 6 
#
# 1 0.019123 -0.005825 0.001224 -0.003567 0.002157 0.009402
# 2 -0.005825 0.021729 -0.008016 0.015991 -0.006617 0.012894
# 3 0.001224 -0.008016 -0.002659 -0.010075 -0.026778 0.030088
# 4 -0.003567 0.015991 -0.010075 0.045623 -0.021142 0.028111
# 5 0.002157 -0.006617 -0.026778 -0.021142 -0.002873 0.033350
# 6 0.009402 0.012894 0.030088 0.028111 0.033350 0.027572
#
#
# Mechanical properties :
#
#
# Convention : Reuss Voigt Hill
#
# Bulk Modulus (GPa) = 77.16976 21.29576 49.23276
# Shear Modulus (GPa) = 36.21388 21.02399 28.61893
#
# Velocity S-wave (km/s) = 4.10274 3.12603 3.64723
# Velocity P-wave (km/s) = 7.63625 4.78831 6.37339
#
# Compressibility (1/GPa) = 0.01295844
#
# Stress axis : x y z
#
# Youngs Moduli (GPa) = 52.29221 46.02134 -376.03545
#
# Poissons Ratio (x) = 0.26808 0.46021
# Poissons Ratio (y) = 0.30460 -3.01435
# Poissons Ratio (z) = -0.06400 0.36891
#
# Static dielectric constant tensor:
#      x y z
#    x 1.760920 0.003120 0.007400 
#    y 0.003120 1.928470 0.020810 
#    z 0.007400 0.020810 1.827100 
# 
# From -- ./inp_files/329606.got.cif
#   From: 2010.05.17/outbox.cif.g08.bks.cpg/sg2_165_cif.got.tgz:329606.got - 2010.06.03 11:33:40.
