data_PCOD9022918
_publ_section_title
;
Structure prediction by ZEFSAII (Michael W. Deem and Ramdas Pophale) SiO2 
 PCOD9022918
Probable space group: P -1
;
_chemical_formula_sum "Si O2"
_cell_formula_units_Z 14
_cell_length_a 7.376491
_cell_length_b 8.848065
_cell_length_c 18.633881
_cell_angle_alpha 130.347778
_cell_angle_beta 122.770560
_cell_angle_gamma 94.334684
_cell_volume 582.215915
_symmetry_space_group_name_H-M "P -1"
_symmetry_group_IT_number 2
_symmetry_cell_setting 'triclinic'
loop_
_space_group_symop_operation_xyz
x,y,z
-x,-y,-z
loop_
_atom_site_type_symbol
_atom_site_label
_atom_site_fract_x
_atom_site_fract_y
_atom_site_fract_z
Si Si1 0.300406 0.156889 0.534491
Si Si2 0.852120 0.750782 0.078961
Si Si3 0.745564 0.712264 0.823177
Si Si4 0.827108 0.184178 0.150744
Si Si5 0.272360 0.175786 0.772030
Si Si6 0.297564 0.724449 0.471957
Si Si7 0.544344 0.934624 0.746049
O O1 0.472709 0.418892 0.701349
O O2 0.477317 0.254765 0.526023
O O3 0.301821 0.946452 0.508546
O O4 0.974034 0.003470 0.394787
O O5 0.849636 0.772370 0.171002
O O6 0.869969 0.988157 0.128545
O O7 0.558961 0.471679 0.903767
O O8 0.128842 0.807366 0.125983
O O9 0.582941 0.769731 0.754470
O O10 0.958506 0.670372 0.826239
O O11 0.000000 0.000000 0.000000
O O12 0.976669 0.434676 0.310979
O O13 0.500000 0.000000 0.000000
O O14 0.381661 0.023749 0.771490
O O15 0.399852 0.784727 0.594106
#
# Coordination Sequence:
#
# PCOD9022918 Si02
#       7
#     2   2   2   2   2   2   2
#     4  10  22  42  66  92 134 168 214 265 324 381
#     4  10  23  41  61  96 134 161 219 264 312 385
#     4  10  25  42  62  95 132 168 211 273 324 375
#     4  10  22  39  65  89 130 175 210 265 322 380
#     4  11  23  39  67  96 126 176 207 265 324 373
#     4  10  22  41  66  96 128 173 215 265 323 375
#     4  11  24  42  67  94 128 170 217 268 314 385
#
# _framework density 24.046060000000001
#
# number of rings (size 3 to 8) (size 9 to 14) (size 15 to 20)
#    0.000    1.714    1.429    1.286    4.000    7.429 
#    0.000    0.000    0.000    0.000    0.000    0.000 
#    0.000    0.000    0.000    0.000    0.000    0.000 
#
# Total GULP energy -78177.747285 kJ/mol
# GULP energy per Si atom -5584.124806 kJ/mol
# Density = 2.399133 g / cm^3
# Si number density = 24.046060 Si / 1000 Ang^3
#
#
#
# Elastic Constant Matrix: (Units=GPa)
#
#
# Indices 1 2 3 4 5 6 
#
# 1 66.3079 3.6360 12.3450 -1.4222 10.9228 -4.3310
# 2 3.6360 74.3343 54.9469 8.8698 1.3804 -18.6429
# 3 12.3450 54.9469 205.3868 20.4192 30.9692 -2.4300
# 4 -1.4222 8.8698 20.4192 38.4380 0.2645 -2.0040
# 5 10.9228 1.3804 30.9692 0.2645 30.9728 -4.8819
# 6 -4.3310 -18.6429 -2.4300 -2.0040 -4.8819 26.2733
#
#
#
# Elastic Compliance Matrix: (Units=1/GPa)
#
#
# Indices 1 2 3 4 5 6 
#
# 1 0.016114 -0.000291 -0.000163 0.000866 -0.005274 0.001520
# 2 -0.000291 0.023071 -0.007252 -0.000643 0.009055 0.017285
# 3 -0.000163 -0.007252 0.008404 -0.003064 -0.008989 -0.006299
# 4 0.000866 -0.000643 -0.003064 0.027912 0.002874 0.002066
# 5 -0.005274 0.009055 -0.008989 0.002874 0.044797 0.013268
# 6 0.001520 0.017285 -0.006299 0.002066 0.013268 0.052618
#
#
# Mechanical properties :
#
#
# Convention : Reuss Voigt Hill
#
# Bulk Modulus (GPa) = 31.07853 54.20941 42.64397
# Shear Modulus (GPa) = 25.11873 37.47691 31.29782
#
# Velocity S-wave (km/s) = 3.23555 3.95213 3.61165
# Velocity P-wave (km/s) = 5.18758 6.58928 5.92999
#
# Compressibility (1/GPa) = 0.03217655
#
# Stress axis : x y z
#
# Youngs Moduli (GPa) = 62.05692 43.34446 118.98875
#
# Poissons Ratio (x) = 0.01263 0.01945
# Poissons Ratio (y) = 0.01809 0.86285
# Poissons Ratio (z) = 0.01014 0.31431
#
# Static dielectric constant tensor:
#      x y z
#    x 2.028360 0.082890 -0.076730 
#    y 0.082890 1.895530 -0.019480 
#    z -0.076730 -0.019480 1.982940 
# 
# From -- ./inp_files/465136.got.cif
#   From: 2010.05.17/outbox.cif.g08.bks.cpg/sg2_233_cif.got.tgz:465136.got - 2010.06.03 11:33:40.
