data_PCOD9022456
_publ_section_title
;
Structure prediction by ZEFSAII (Michael W. Deem and Ramdas Pophale) SiO2 
 PCOD9022456
Probable space group: P -1
;
_chemical_formula_sum "Si O2"
_cell_formula_units_Z 16
_cell_length_a 16.314540
_cell_length_b 7.799415
_cell_length_c 15.794141
_cell_angle_alpha 104.592172
_cell_angle_beta 28.736684
_cell_angle_gamma 84.960188
_cell_volume 699.516764
_symmetry_space_group_name_H-M "P -1"
_symmetry_group_IT_number 2
_symmetry_cell_setting 'triclinic'
loop_
_space_group_symop_operation_xyz
x,y,z
-x,-y,-z
loop_
_atom_site_type_symbol
_atom_site_label
_atom_site_fract_x
_atom_site_fract_y
_atom_site_fract_z
Si Si1 0.373940 0.386994 0.503890
Si Si2 0.269202 0.677523 0.471316
Si Si3 0.505597 0.265968 0.071016
Si Si4 0.448270 0.922126 0.165037
Si Si5 0.036117 0.887539 0.306575
Si Si6 0.830849 0.215363 0.117701
Si Si7 0.020680 0.396548 0.877701
Si Si8 0.322881 0.356378 0.913273
O O1 0.270284 0.543489 0.532271
O O2 0.644366 0.219282 0.242886
O O3 0.291175 0.559480 0.681045
O O4 0.265496 0.268989 0.600269
O O5 0.369179 0.507279 0.276981
O O6 0.043419 0.926905 0.673597
O O7 0.453028 0.701126 0.332468
O O8 0.452998 0.115665 0.146334
O O9 0.447016 0.278042 0.027207
O O10 0.772321 0.136329 0.818262
O O11 0.196386 0.020442 0.426930
O O12 0.596942 0.814712 0.101985
O O13 0.162088 0.625028 0.127360
O O14 0.961719 0.235265 0.930063
O O15 0.000000 0.000000 0.000000
O O16 0.829445 0.618353 0.019483
O O17 0.000000 0.500000 0.000000
#
# Coordination Sequence:
#
# PCOD9022456 Si02
#       8
#     2   2   2   2   2   2   2   2
#     4  10  22  39  62  87 123 156 202 250 308 367
#     4  10  22  40  63  93 125 162 203 256 304 371
#     4  10  23  41  62  92 127 157 212 250 308 366
#     4  10  23  42  63  91 123 166 202 260 303 367
#     4  10  23  38  64  91 121 168 203 248 313 361
#     4  10  22  41  63  89 120 158 201 254 306 364
#     4  10  22  41  61  90 122 159 204 254 303 364
#     4  10  22  42  63  90 130 157 211 258 303 365
#
# _framework density 22.872934999999998
#
# number of rings (size 3 to 8) (size 9 to 14) (size 15 to 20)
#    0.000    2.000    1.250    0.375    5.250    6.000 
#    2.250    2.500    0.000    0.000    0.000    0.000 
#    0.000    0.000    0.000    0.000    0.000    0.000 
#
# Total GULP energy -89422.725994 kJ/mol
# GULP energy per Si atom -5588.920375 kJ/mol
# Density = 2.282087 g / cm^3
# Si number density = 22.872935 Si / 1000 Ang^3
#
#
#
# Elastic Constant Matrix: (Units=GPa)
#
#
# Indices 1 2 3 4 5 6 
#
# 1 105.9342 9.4389 21.5696 -3.0881 -4.1796 -12.5715
# 2 9.4389 64.5659 46.1844 -17.1405 -7.8561 -17.8552
# 3 21.5696 46.1844 66.8888 -19.8322 -12.1433 -3.1743
# 4 -3.0881 -17.1405 -19.8322 32.1283 3.4132 2.1185
# 5 -4.1796 -7.8561 -12.1433 3.4132 30.8206 0.3005
# 6 -12.5715 -17.8552 -3.1743 2.1185 0.3005 32.4507
#
#
#
# Elastic Compliance Matrix: (Units=1/GPa)
#
#
# Indices 1 2 3 4 5 6 
#
# 1 0.011143 0.004789 -0.006900 -0.001059 0.000068 0.006345
# 2 0.004789 0.042444 -0.028712 0.003974 -0.000500 0.022146
# 3 -0.006900 -0.028712 0.040205 0.009124 0.006724 -0.015196
# 4 -0.001059 0.003974 0.009124 0.038748 0.000172 0.000137
# 5 0.000068 -0.000500 0.006724 0.000172 0.034957 0.000074
# 6 0.006345 0.022146 -0.015196 0.000137 0.000074 0.043963
#
#
# Mechanical properties :
#
#
# Convention : Reuss Voigt Hill
#
# Bulk Modulus (GPa) = 31.10939 43.53053 37.31996
# Shear Modulus (GPa) = 17.61661 29.75965 23.68813
#
# Velocity S-wave (km/s) = 2.77825 3.61097 3.22163
# Velocity P-wave (km/s) = 4.89102 6.03807 5.49456
#
# Compressibility (1/GPa) = 0.03214464
#
# Stress axis : x y z
#
# Youngs Moduli (GPa) = 89.74314 23.56027 24.87262
#
# Poissons Ratio (x) = -0.11282 0.17162
# Poissons Ratio (y) = -0.42974 0.71415
# Poissons Ratio (z) = 0.61923 0.67647
#
# Static dielectric constant tensor:
#      x y z
#    x 1.884950 0.048200 -0.007290 
#    y 0.048200 1.872310 -0.021000 
#    z -0.007290 -0.021000 1.872470 
# 
# From -- ./inp_files/47755.got.cif
#   From: 2010.05.17/outbox.cif.g08.bks.cpg/sg2_24_cif.got.tgz:47755.got - 2010.06.03 11:33:40.
