data_PCOD9023723
_publ_section_title
;
Structure prediction by ZEFSAII (Michael W. Deem and Ramdas Pophale) SiO2 
 PCOD9023723
Probable space group: P -1
;
_chemical_formula_sum "Si O2"
_cell_formula_units_Z 12
_cell_length_a 11.692990
_cell_length_b 8.817627
_cell_length_c 8.749935
_cell_angle_alpha 79.257189
_cell_angle_beta 81.513022
_cell_angle_gamma 129.831285
_cell_volume 636.614961
_symmetry_space_group_name_H-M "P -1"
_symmetry_group_IT_number 2
_symmetry_cell_setting 'triclinic'
loop_
_space_group_symop_operation_xyz
x,y,z
-x,-y,-z
loop_
_atom_site_type_symbol
_atom_site_label
_atom_site_fract_x
_atom_site_fract_y
_atom_site_fract_z
Si Si1 0.084180 0.723902 0.516883
Si Si2 0.971835 0.153827 0.987501
Si Si3 0.855424 0.402050 0.168640
Si Si4 0.591835 0.226252 0.017717
Si Si5 0.723739 0.906828 0.828931
Si Si6 0.857978 0.691742 0.759548
O O1 0.150749 0.714346 0.663636
O O2 0.211179 0.912517 0.342012
O O3 0.000000 0.500000 0.500000
O O4 0.957367 0.742882 0.579313
O O5 0.692662 0.255552 0.135188
O O6 0.000000 0.500000 0.000000
O O7 0.097245 0.379746 0.834043
O O8 0.000000 0.000000 0.000000
O O9 0.014302 0.214528 0.145752
O O10 0.806415 0.024712 0.954305
O O11 0.723669 0.435970 0.850841
O O12 0.500000 0.000000 0.000000
O O13 0.463007 0.236200 0.090171
O O14 0.778658 0.786448 0.785524
#
# Coordination Sequence:
#
# PCOD9023723 Si02
#       6
#     2   2   2   2   2   2
#     4  12  22  36  63  89 119 155 197 248 289 347
#     4   9  18  35  60  84 111 154 198 234 282 354
#     4  11  20  39  61  84 116 155 202 236 289 359
#     4  11  22  37  64  87 116 155 200 247 289 348
#     4  11  22  37  60  93 120 150 197 248 302 337
#     4  10  22  40  61  84 120 163 198 237 288 359
#
# _framework density 18.849696999999999
#
# number of rings (size 3 to 8) (size 9 to 14) (size 15 to 20)
#    0.000    1.333    5.000    3.000    0.000    0.667 
#    0.000    0.000    0.000    2.000    0.000    0.000 
#    0.000    0.000    0.000    0.000    0.000    0.000 
#
# Total GULP energy -66819.694030 kJ/mol
# GULP energy per Si atom -5568.307836 kJ/mol
# Density = 1.880679 g / cm^3
# Si number density = 18.849697 Si / 1000 Ang^3
#
#
#
# Elastic Constant Matrix: (Units=GPa)
#
#
# Indices 1 2 3 4 5 6 
#
# 1 130.9942 19.7104 20.3819 8.2139 4.5849 -0.4865
# 2 19.7104 90.8244 -8.2100 -4.2259 2.0840 1.3210
# 3 20.3819 -8.2100 52.0397 -4.1011 -2.0747 -4.5319
# 4 8.2139 -4.2259 -4.1011 27.0369 -10.5161 -3.2053
# 5 4.5849 2.0840 -2.0747 -10.5161 20.8340 -8.0496
# 6 -0.4865 1.3210 -4.5319 -3.2053 -8.0496 30.8631
#
#
#
# Elastic Compliance Matrix: (Units=1/GPa)
#
#
# Indices 1 2 3 4 5 6 
#
# 1 0.009572 -0.002686 -0.005321 -0.007357 -0.007312 -0.003187
# 2 -0.002686 0.012036 0.003455 0.004202 0.002226 0.000967
# 3 -0.005321 0.003455 0.023856 0.011248 0.011781 0.007512
# 4 -0.007357 0.004202 0.011248 0.058741 0.038755 0.017564
# 5 -0.007312 0.002226 0.011781 0.038755 0.080360 0.026504
# 6 -0.003187 0.000967 0.007512 0.017564 0.026504 0.042149
#
#
# Mechanical properties :
#
#
# Convention : Reuss Voigt Hill
#
# Bulk Modulus (GPa) = 27.50456 37.51364 32.50910
# Shear Modulus (GPa) = 20.16630 31.87855 26.02242
#
# Velocity S-wave (km/s) = 3.27440 4.11688 3.71957
# Velocity P-wave (km/s) = 5.37762 6.52249 5.97753
#
# Compressibility (1/GPa) = 0.03635760
#
# Stress axis : x y z
#
# Youngs Moduli (GPa) = 104.47648 83.08452 41.91878
#
# Poissons Ratio (x) = 0.22320 0.22307
# Poissons Ratio (y) = 0.28066 -0.14483
# Poissons Ratio (z) = 0.55596 -0.28706
#
# Static dielectric constant tensor:
#      x y z
#    x 1.627370 -0.040390 0.020450 
#    y -0.040390 1.751860 0.022680 
#    z 0.020450 0.022680 1.635310 
# 
# From -- ./inp_files/510159.got.cif
#   From: 2010.05.17/outbox.cif.g08.bks.cpg/sg2_256_cif.got.tgz:510159.got - 2010.06.03 11:33:40.
