data_PCOD9023266
_publ_section_title
;
Structure prediction by ZEFSAII (Michael W. Deem and Ramdas Pophale) SiO2 
 PCOD9023266
Probable space group: P -1
;
_chemical_formula_sum "Si O2"
_cell_formula_units_Z 12
_cell_length_a 15.040674
_cell_length_b 7.331321
_cell_length_c 11.852372
_cell_angle_alpha 89.870117
_cell_angle_beta 26.926094
_cell_angle_gamma 75.019910
_cell_volume 487.771167
_symmetry_space_group_name_H-M "P -1"
_symmetry_group_IT_number 2
_symmetry_cell_setting 'triclinic'
loop_
_space_group_symop_operation_xyz
x,y,z
-x,-y,-z
loop_
_atom_site_type_symbol
_atom_site_label
_atom_site_fract_x
_atom_site_fract_y
_atom_site_fract_z
Si Si1 0.757357 0.224888 0.741371
Si Si2 0.219496 0.902096 0.642293
Si Si3 0.721336 0.066363 0.174323
Si Si4 0.598388 0.666290 0.021470
Si Si5 0.987316 0.650650 0.715848
Si Si6 0.204639 0.471024 0.687323
O O1 0.536732 0.222811 0.944036
O O2 0.834231 0.303443 0.545315
O O3 0.667278 0.415314 0.935959
O O4 0.000000 0.000000 0.500000
O O5 0.285745 0.967899 0.683132
O O6 0.414455 0.818711 0.326525
O O7 0.210079 0.689451 0.681342
O O8 0.949446 0.084229 0.907413
O O9 0.468171 0.273415 0.423303
O O10 0.801540 0.858263 0.004761
O O11 0.841341 0.635510 0.781192
O O12 0.132317 0.453359 0.641410
O O13 0.000000 0.500000 0.000000
#
# Coordination Sequence:
#
# PCOD9023266 Si02
#       6
#     2   2   2   2   2   2
#     4  11  26  47  71  99 132 183 230 282 347 391
#     4  10  22  41  64 102 137 186 218 277 335 405
#     4  10  22  39  67  94 147 172 226 264 341 405
#     4  11  24  45  73  96 143 171 229 291 331 400
#     4  11  25  45  68 107 134 178 228 280 334 407
#     4  11  23  40  63 101 142 182 220 273 338 403
#
# _framework density 24.601700999999998
#
# number of rings (size 3 to 8) (size 9 to 14) (size 15 to 20)
#    0.000    1.333    3.333    2.000    2.333    9.333 
#    0.000    0.000    0.000    0.000    0.000    0.000 
#    0.000    0.000    0.000    0.000    0.000    0.000 
#
# Total GULP energy -67110.319715 kJ/mol
# GULP energy per Si atom -5592.526643 kJ/mol
# Density = 2.454571 g / cm^3
# Si number density = 24.601701 Si / 1000 Ang^3
#
#
#
# Elastic Constant Matrix: (Units=GPa)
#
#
# Indices 1 2 3 4 5 6 
#
# 1 163.2289 18.3117 56.5762 19.7170 -29.9891 6.3236
# 2 18.3117 36.7135 24.4292 9.0914 -20.5203 -6.9422
# 3 56.5762 24.4292 148.1703 35.9791 -15.9826 -19.7986
# 4 19.7170 9.0914 35.9791 45.5736 -14.0855 -4.5203
# 5 -29.9891 -20.5203 -15.9826 -14.0855 65.7841 9.2754
# 6 6.3236 -6.9422 -19.7986 -4.5203 9.2754 36.7535
#
#
#
# Elastic Compliance Matrix: (Units=1/GPa)
#
#
# Indices 1 2 3 4 5 6 
#
# 1 0.008059 -0.000915 -0.003047 -0.000326 0.003147 -0.004035
# 2 -0.000915 0.036332 -0.004222 -0.000357 0.009488 0.002307
# 3 -0.003047 -0.004222 0.010618 -0.006394 -0.002232 0.005223
# 4 -0.000326 -0.000357 -0.006394 0.028467 0.004433 -0.001073
# 5 0.003147 0.009488 -0.002232 0.004433 0.020654 -0.004619
# 6 -0.004035 0.002307 0.005223 -0.001073 -0.004619 0.032186
#
#
# Mechanical properties :
#
#
# Convention : Reuss Voigt Hill
#
# Bulk Modulus (GPa) = 25.87951 60.74966 43.31458
# Shear Modulus (GPa) = 30.19976 46.20862 38.20419
#
# Velocity S-wave (km/s) = 3.50744 4.33860 3.94497
# Velocity P-wave (km/s) = 5.19086 7.06009 6.19637
#
# Compressibility (1/GPa) = 0.03864060
#
# Stress axis : x y z
#
# Youngs Moduli (GPa) = 124.08439 27.52401 94.17700
#
# Poissons Ratio (x) = 0.02520 0.28693
# Poissons Ratio (y) = 0.11360 0.39762
# Poissons Ratio (z) = 0.37805 0.11621
#
# Static dielectric constant tensor:
#      x y z
#    x 2.014100 0.012390 -0.015600 
#    y 0.012390 1.979740 0.002640 
#    z -0.015600 0.002640 1.940270 
# 
# From -- ./inp_files/443147.got.cif
#   From: 2010.05.17/outbox.cif.g08.bks.cpg/sg2_222_cif.got.tgz:443147.got - 2010.06.03 11:33:40.
