data_PCOD9023335
_publ_section_title
;
Structure prediction by ZEFSAII (Michael W. Deem and Ramdas Pophale) SiO2 
 PCOD9023335
Probable space group: P -1
;
_chemical_formula_sum "Si O2"
_cell_formula_units_Z 12
_cell_length_a 19.096012
_cell_length_b 8.288971
_cell_length_c 14.619485
_cell_angle_alpha 149.715657
_cell_angle_beta 25.826571
_cell_angle_gamma 149.488564
_cell_volume 469.520631
_symmetry_space_group_name_H-M "P -1"
_symmetry_group_IT_number 2
_symmetry_cell_setting 'triclinic'
loop_
_space_group_symop_operation_xyz
x,y,z
-x,-y,-z
loop_
_atom_site_type_symbol
_atom_site_label
_atom_site_fract_x
_atom_site_fract_y
_atom_site_fract_z
Si Si1 0.293416 0.830765 0.672243
Si Si2 0.670123 0.228202 0.969090
Si Si3 0.684368 0.846717 0.373734
Si Si4 0.500273 0.151705 0.865946
Si Si5 0.110543 0.255392 0.740327
Si Si6 0.171932 0.391654 0.189422
O O1 0.230008 0.455457 0.612213
O O2 0.500000 0.000000 0.500000
O O3 0.224001 0.846235 0.657687
O O4 0.246316 0.104104 0.924302
O O5 0.622375 0.516054 0.219570
O O6 0.668329 0.994142 0.942663
O O7 0.835212 0.422229 0.807260
O O8 0.500000 0.000000 0.000000
O O9 0.797967 0.769497 0.282708
O O10 0.525302 0.908379 0.639451
O O11 0.685038 0.294669 0.771405
O O12 0.500000 0.500000 0.000000
O O13 0.984278 0.849313 0.681461
O O14 0.000000 0.500000 0.000000
#
# Coordination Sequence:
#
# PCOD9023335 Si02
#       6
#     2   2   2   2   2   2
#     4  10  22  39  68 102 132 171 236 285 337 412
#     4   9  21  40  66  98 130 173 225 282 342 404
#     4  11  24  41  72  99 136 184 227 278 356 401
#     4  11  23  39  65 104 133 177 229 285 339 407
#     4  10  24  42  67 101 138 183 229 282 344 414
#     4   9  21  42  60  91 139 175 219 283 338 397
#
# _framework density 25.557981999999999
#
# number of rings (size 3 to 8) (size 9 to 14) (size 15 to 20)
#    0.000    2.000    0.000    1.500   11.667    6.667 
#    3.000    0.833    0.000    0.000    0.000    0.000 
#    0.000    0.000    0.000    0.000    0.000    0.000 
#
# Total GULP energy -66918.187180 kJ/mol
# GULP energy per Si atom -5576.515598 kJ/mol
# Density = 2.549981 g / cm^3
# Si number density = 25.557982 Si / 1000 Ang^3
#
#
#
# Elastic Constant Matrix: (Units=GPa)
#
#
# Indices 1 2 3 4 5 6 
#
# 1 125.0458 60.2740 34.3910 -6.5968 6.8138 -40.7059
# 2 60.2740 204.9596 27.0291 -19.2856 26.8583 -57.6922
# 3 34.3910 27.0291 81.6886 -12.0030 14.2065 -16.3540
# 4 -6.5968 -19.2856 -12.0030 34.3436 -1.1510 10.7811
# 5 6.8138 26.8583 14.2065 -1.1510 37.5578 1.1075
# 6 -40.7059 -57.6922 -16.3540 10.7811 1.1075 56.7707
#
#
#
# Elastic Compliance Matrix: (Units=1/GPa)
#
#
# Indices 1 2 3 4 5 6 
#
# 1 0.011522 -0.001325 -0.003390 -0.001684 -0.000097 0.006261
# 2 -0.001325 0.008234 0.000661 0.002097 -0.006050 0.007328
# 3 -0.003390 0.000661 0.015461 0.004311 -0.005632 0.001986
# 4 -0.001684 0.002097 0.004311 0.032679 -0.001705 -0.004007
# 5 -0.000097 -0.006050 -0.005632 -0.001705 0.033288 -0.008166
# 6 0.006261 0.007328 0.001986 -0.004007 -0.008166 0.031043
#
#
# Mechanical properties :
#
#
# Convention : Reuss Voigt Hill
#
# Bulk Modulus (GPa) = 36.88808 72.78688 54.83748
# Shear Modulus (GPa) = 33.47333 45.06776 39.27054
#
# Velocity S-wave (km/s) = 3.62291 4.20379 3.92411
# Velocity P-wave (km/s) = 5.65376 7.21827 6.48338
#
# Compressibility (1/GPa) = 0.02710903
#
# Stress axis : x y z
#
# Youngs Moduli (GPa) = 86.78715 121.44225 64.68060
#
# Poissons Ratio (x) = 0.16091 0.21925
# Poissons Ratio (y) = 0.11499 -0.04273
# Poissons Ratio (z) = 0.29419 -0.08022
#
# Static dielectric constant tensor:
#      x y z
#    x 86.353610 34.195790 -37.912010 
#    y 34.195790 16.089430 -15.475430 
#    z -37.912010 -15.475430 19.157420 
# 
# From -- ./inp_files/540601.got.cif
#   From: 2010.05.17/outbox.cif.g08.bks.cpg/sg2_271_cif.got.tgz:540601.got - 2010.06.03 11:33:40.
