data_PCOD9023861
_publ_section_title
;
Structure prediction by ZEFSAII (Michael W. Deem and Ramdas Pophale) SiO2 
 PCOD9023861
Probable space group: P -1
;
_chemical_formula_sum "Si O2"
_cell_formula_units_Z 14
_cell_length_a 9.428311
_cell_length_b 16.905130
_cell_length_c 17.543577
_cell_angle_alpha 157.270650
_cell_angle_beta 50.190690
_cell_angle_gamma 117.885629
_cell_volume 755.566783
_symmetry_space_group_name_H-M "P -1"
_symmetry_group_IT_number 2
_symmetry_cell_setting 'triclinic'
loop_
_space_group_symop_operation_xyz
x,y,z
-x,-y,-z
loop_
_atom_site_type_symbol
_atom_site_label
_atom_site_fract_x
_atom_site_fract_y
_atom_site_fract_z
Si Si1 0.389528 0.842136 0.200626
Si Si2 0.682838 0.066442 0.517779
Si Si3 0.722489 0.368970 0.637698
Si Si4 0.140768 0.768437 0.086137
Si Si5 0.189747 0.089018 0.224280
Si Si6 0.463330 0.749380 0.708666
Si Si7 0.538452 0.726427 0.487635
O O1 0.342064 0.846802 0.310204
O O2 0.224683 0.804763 0.171234
O O3 0.401044 0.073941 0.380324
O O4 0.603962 0.635644 0.925190
O O5 0.687255 0.251385 0.621410
O O6 0.500000 0.000000 0.500000
O O7 0.899519 0.853844 0.247129
O O8 0.616631 0.296993 0.540874
O O9 0.961871 0.274014 0.457990
O O10 0.190381 0.924109 0.146409
O O11 0.263923 0.510120 0.791120
O O12 0.342787 0.201637 0.291547
O O13 0.275178 0.933532 0.982527
O O14 0.500000 0.500000 0.500000
O O15 0.444313 0.768969 0.641867
#
# Coordination Sequence:
#
# PCOD9023861 Si02
#       7
#     2   2   2   2   2   2   2
#     4  11  22  41  60  88 124 160 199 244 297 351
#     4  11  22  41  61  91 121 162 200 243 294 353
#     4  10  24  41  61  88 128 155 197 247 297 352
#     4  10  22  40  62  87 123 156 203 244 293 355
#     4  10  22  40  62  92 117 158 199 247 298 353
#     4  11  22  39  66  89 119 155 203 244 300 361
#     4  11  22  40  63  92 118 157 200 250 295 354
#
# _framework density 18.529138
#
# number of rings (size 3 to 8) (size 9 to 14) (size 15 to 20)
#    0.000    1.429    4.286    0.857    0.000    3.429 
#    2.571    1.429    0.000    0.000    0.000    0.000 
#    0.000    0.000    0.000    0.000    0.000    0.000 
#
# Total GULP energy -78238.952933 kJ/mol
# GULP energy per Si atom -5588.496638 kJ/mol
# Density = 1.848696 g / cm^3
# Si number density = 18.529138 Si / 1000 Ang^3
#
#
#
# Elastic Constant Matrix: (Units=GPa)
#
#
# Indices 1 2 3 4 5 6 
#
# 1 86.4495 52.3207 67.8468 -17.0132 -9.1601 -10.8341
# 2 52.3207 84.0239 59.2700 -13.5819 4.0822 -1.6393
# 3 67.8468 59.2700 124.7615 -1.4924 -9.5180 5.7743
# 4 -17.0132 -13.5819 -1.4924 34.9254 -6.3718 6.3261
# 5 -9.1601 4.0822 -9.5180 -6.3718 36.9630 -14.5352
# 6 -10.8341 -1.6393 5.7743 6.3261 -14.5352 36.3163
#
#
#
# Elastic Compliance Matrix: (Units=1/GPa)
#
#
# Indices 1 2 3 4 5 6 
#
# 1 0.033641 -0.010408 -0.012835 0.011615 0.014185 0.015261
# 2 -0.010408 0.023214 -0.005714 0.003141 -0.007999 -0.004897
# 3 -0.012835 -0.005714 0.017797 -0.006860 -0.001661 -0.006387
# 4 0.011615 0.003141 -0.006860 0.036348 0.007582 0.001400
# 5 0.014185 -0.007999 -0.001661 0.007582 0.039684 0.018697
# 6 0.015261 -0.004897 -0.006387 0.001400 0.018697 0.040123
#
#
# Mechanical properties :
#
#
# Convention : Reuss Voigt Hill
#
# Bulk Modulus (GPa) = 59.74786 72.67888 66.21337
# Shear Modulus (GPa) = 19.66174 29.36077 24.51126
#
# Velocity S-wave (km/s) = 3.26103 3.98499 3.64105
# Velocity P-wave (km/s) = 6.81868 7.77707 7.31359
#
# Compressibility (1/GPa) = 0.01673700
#
# Stress axis : x y z
#
# Youngs Moduli (GPa) = 29.72535 43.07776 56.19031
#
# Poissons Ratio (x) = 0.44835 0.72122
# Poissons Ratio (y) = 0.30938 0.32108
# Poissons Ratio (z) = 0.38153 0.24615
#
# Static dielectric constant tensor:
#      x y z
#    x 1.617450 -0.011330 -0.001140 
#    y -0.011330 1.615480 -0.005610 
#    z -0.001140 -0.005610 1.622770 
# 
# From -- ./inp_files/31520.got.cif
#   From: 2010.05.17/outbox.cif.g08.bks.cpg/sg2_16_cif.got.tgz:31520.got - 2010.06.03 11:33:40.
