data_PCOD9023414
_publ_section_title
;
Structure prediction by ZEFSAII (Michael W. Deem and Ramdas Pophale) SiO2 
 PCOD9023414
Probable space group: P -1
;
_chemical_formula_sum "Si O2"
_cell_formula_units_Z 16
_cell_length_a 7.192966
_cell_length_b 11.435324
_cell_length_c 14.941229
_cell_angle_alpha 29.945492
_cell_angle_beta 84.329831
_cell_angle_gamma 89.780896
_cell_volume 602.140906
_symmetry_space_group_name_H-M "P -1"
_symmetry_group_IT_number 2
_symmetry_cell_setting 'triclinic'
loop_
_space_group_symop_operation_xyz
x,y,z
-x,-y,-z
loop_
_atom_site_type_symbol
_atom_site_label
_atom_site_fract_x
_atom_site_fract_y
_atom_site_fract_z
Si Si1 0.257488 0.471660 0.156519
Si Si2 0.754501 0.699316 0.373927
Si Si3 0.224045 0.089549 0.943916
Si Si4 0.743182 0.006295 0.631856
Si Si5 0.643403 0.814244 0.496223
Si Si6 0.858080 0.481682 0.227291
Si Si7 0.800617 0.326665 0.143428
Si Si8 0.209557 0.825362 0.291409
O O1 0.212270 0.219280 0.273656
O O2 0.349562 0.390627 0.295804
O O3 0.074711 0.582512 0.123961
O O4 0.332931 0.640602 0.957051
O O5 0.693144 0.864465 0.189351
O O6 0.656243 0.716654 0.461186
O O7 0.729391 0.426901 0.524639
O O8 0.980507 0.778083 0.326276
O O9 0.235388 0.341128 0.826235
O O10 0.286363 0.917790 0.129331
O O11 0.000000 0.000000 0.000000
O O12 0.544155 0.067768 0.564888
O O13 0.879346 0.246839 0.437317
O O14 0.740842 0.996471 0.746029
O O15 0.806824 0.048206 0.339015
O O16 0.747579 0.415197 0.184103
O O17 0.000000 0.500000 0.000000
#
# Coordination Sequence:
#
# PCOD9023414 Si02
#       8
#     2   2   2   2   2   2   2   2
#     4  11  25  42  70  93 129 172 216 267 322 382
#     4  10  23  41  67  94 128 168 222 265 317 380
#     4  10  22  39  68  99 127 156 221 280 311 369
#     4  12  24  44  65  96 136 174 211 266 330 389
#     4  12  27  43  64  96 139 172 211 266 329 389
#     4  11  22  42  70  99 125 170 219 269 322 382
#     4  10  25  41  68  99 124 167 221 268 318 386
#     4  10  22  41  69  95 125 169 218 271 319 375
#
# _framework density 26.571853000000001
#
# number of rings (size 3 to 8) (size 9 to 14) (size 15 to 20)
#    0.000    1.250    2.500    2.250   15.750    1.000 
#    2.250    0.625    0.000    0.000    0.000    0.000 
#    0.000    0.000    0.000    0.000    0.000    0.000 
#
# Total GULP energy -89581.465311 kJ/mol
# GULP energy per Si atom -5598.841582 kJ/mol
# Density = 2.651137 g / cm^3
# Si number density = 26.571853 Si / 1000 Ang^3
#
#
#
# Elastic Constant Matrix: (Units=GPa)
#
#
# Indices 1 2 3 4 5 6 
#
# 1 85.2639 17.9546 29.5633 12.5634 8.7574 8.5790
# 2 17.9546 133.0464 33.6411 32.0232 -1.9957 18.8588
# 3 29.5633 33.6411 130.5855 45.4640 24.8179 18.0136
# 4 12.5634 32.0232 45.4640 55.7401 13.2035 14.5340
# 5 8.7574 -1.9957 24.8179 13.2035 22.1521 5.8929
# 6 8.5790 18.8588 18.0136 14.5340 5.8929 25.2855
#
#
#
# Elastic Compliance Matrix: (Units=1/GPa)
#
#
# Indices 1 2 3 4 5 6 
#
# 1 0.013077 -0.001163 -0.002071 0.000530 -0.002806 -0.001744
# 2 -0.001163 0.009955 -0.001275 -0.004758 0.006954 -0.005007
# 3 -0.002071 -0.001275 0.012705 -0.006602 -0.009207 -0.001456
# 4 0.000530 -0.004758 -0.006602 0.029950 -0.009233 -0.006990
# 5 -0.002806 0.006954 -0.009207 -0.009233 0.064676 -0.007441
# 6 -0.001744 -0.005007 -0.001456 -0.006990 -0.007441 0.050664
#
#
# Mechanical properties :
#
#
# Convention : Reuss Voigt Hill
#
# Bulk Modulus (GPa) = 37.43061 56.80152 47.11607
# Shear Modulus (GPa) = 25.13170 38.48466 31.80818
#
# Velocity S-wave (km/s) = 3.07872 3.80981 3.46361
# Velocity P-wave (km/s) = 5.17254 6.38560 5.81081
#
# Compressibility (1/GPa) = 0.02671610
#
# Stress axis : x y z
#
# Youngs Moduli (GPa) = 76.46958 100.45198 78.71162
#
# Poissons Ratio (x) = 0.11686 0.16305
# Poissons Ratio (y) = 0.08896 0.10039
# Poissons Ratio (z) = 0.15841 0.12812
#
# Static dielectric constant tensor:
#      x y z
#    x 2.156360 0.059770 -0.047350 
#    y 0.059770 2.015990 0.019290 
#    z -0.047350 0.019290 2.106300 
# 
# From -- ./inp_files/446633.got.cif
#   From: 2010.05.17/outbox.cif.g08.bks.cpg/sg2_224_cif.got.tgz:446633.got - 2010.06.03 11:33:40.
