data_PCOD9023618
_publ_section_title
;
Structure prediction by ZEFSAII (Michael W. Deem and Ramdas Pophale) SiO2 
 PCOD9023618
Probable space group: P -1
;
_chemical_formula_sum "Si O2"
_cell_formula_units_Z 15
_cell_length_a 6.770779
_cell_length_b 24.150373
_cell_length_c 15.173608
_cell_angle_alpha 18.298214
_cell_angle_beta 58.106488
_cell_angle_gamma 56.158053
_cell_volume 647.007017
_symmetry_space_group_name_H-M "P -1"
_symmetry_group_IT_number 2
_symmetry_cell_setting 'triclinic'
loop_
_space_group_symop_operation_xyz
x,y,z
-x,-y,-z
loop_
_atom_site_type_symbol
_atom_site_label
_atom_site_fract_x
_atom_site_fract_y
_atom_site_fract_z
Si Si1 0.526002 0.401198 0.328651
Si Si2 0.606484 0.077665 0.662033
Si Si3 0.222543 0.912980 0.925516
Si Si4 0.817121 0.248731 0.191669
Si Si5 0.280074 0.146179 0.868537
Si Si6 0.739896 0.569455 0.165177
Si Si7 0.500000 0.500000 0.500000
Si Si8 0.312725 0.886145 0.748426
O O1 0.604914 0.241923 0.480882
O O2 0.336646 0.335161 0.539380
O O3 0.745338 0.427659 0.298555
O O4 0.393810 0.576604 0.041532
O O5 0.729073 0.127899 0.469177
O O6 0.341766 0.055085 0.733796
O O7 0.716332 0.893449 0.967787
O O8 0.200557 0.962297 0.751872
O O9 0.404468 0.720111 0.178802
O O10 0.966547 0.890917 0.052074
O O11 0.849842 0.143639 0.249797
O O12 0.050988 0.321109 0.053528
O O13 0.500000 0.000000 0.000000
O O14 0.708882 0.498472 0.377029
O O15 0.481211 0.693329 0.019149
O O16 0.500000 0.000000 0.500000
#
# Coordination Sequence:
#
# PCOD9023618 Si02
#       8
#     2   2   2   2   2   2   1   2
#     4  10  23  42  60  93 133 171 228 278 327 404
#     4  11  24  40  66  99 130 178 229 273 347 402
#     4  11  23  42  70  95 140 175 222 288 333 409
#     4  11  23  40  67  95 129 180 222 274 342 400
#     4  10  24  42  66  98 131 177 228 277 337 399
#     4  10  23  39  64  89 131 169 220 280 326 401
#     4  10  22  44  66  98 130 186 224 266 348 402
#     4  10  22  40  58  93 130 165 217 273 331 395
#
# _framework density 23.183672000000001
#
# number of rings (size 3 to 8) (size 9 to 14) (size 15 to 20)
#    0.000    1.600    1.333    2.000    1.867    8.533 
#    0.000    6.000    0.000    0.000    0.000    0.000 
#    0.000    0.000    0.000    0.000    0.000    0.000 
#
# Total GULP energy -83535.991257 kJ/mol
# GULP energy per Si atom -5569.066084 kJ/mol
# Density = 2.313091 g / cm^3
# Si number density = 23.183672 Si / 1000 Ang^3
#
#
#
# Elastic Constant Matrix: (Units=GPa)
#
#
# Indices 1 2 3 4 5 6 
#
# 1 123.5172 22.3430 15.3174 -1.0005 -51.3978 3.1106
# 2 22.3430 28.2559 12.4274 -3.8814 -11.5453 -1.8260
# 3 15.3174 12.4274 90.3278 22.4147 -3.9978 2.4019
# 4 -1.0005 -3.8814 22.4147 39.0791 1.7626 -2.5990
# 5 -51.3978 -11.5453 -3.9978 1.7626 44.6437 -5.5808
# 6 3.1106 -1.8260 2.4019 -2.5990 -5.5808 25.8888
#
#
#
# Elastic Compliance Matrix: (Units=1/GPa)
#
#
# Indices 1 2 3 4 5 6 
#
# 1 0.016571 -0.005112 -0.001360 0.000000 0.017836 0.001620
# 2 -0.005112 0.047063 -0.007806 0.009205 0.006084 0.006894
# 3 -0.001360 -0.007806 0.014675 -0.009335 -0.002300 -0.003182
# 4 0.000000 0.009205 -0.009335 0.032146 0.000892 0.004935
# 5 0.017836 0.006084 -0.002300 0.000892 0.045311 0.008357
# 6 0.001620 0.006894 -0.003182 0.004935 0.008357 0.041510
#
#
# Mechanical properties :
#
#
# Convention : Reuss Voigt Hill
#
# Bulk Modulus (GPa) = 20.10035 38.03072 29.06553
# Shear Modulus (GPa) = 20.62571 34.72321 27.67446
#
# Velocity S-wave (km/s) = 2.98596 3.87427 3.45875
# Velocity P-wave (km/s) = 4.53617 6.03763 5.33993
#
# Compressibility (1/GPa) = 0.04975038
#
# Stress axis : x y z
#
# Youngs Moduli (GPa) = 60.34776 21.24829 68.14433
#
# Poissons Ratio (x) = 0.10863 0.09269
# Poissons Ratio (y) = 0.30852 0.53195
# Poissons Ratio (z) = 0.08209 0.16587
#
# Static dielectric constant tensor:
#      x y z
#    x 1.874420 0.017950 0.024590 
#    y 0.017950 1.913830 -0.038500 
#    z 0.024590 -0.038500 1.897070 
# 
# From -- ./inp_files/101286.got.cif
#   From: 2010.05.17/outbox.cif.g08.bks.cpg/sg2_51_cif.got.tgz:101286.got - 2010.06.03 11:33:40.
