data_PCOD9023903
_publ_section_title
;
Structure prediction by ZEFSAII (Michael W. Deem and Ramdas Pophale) SiO2 
 PCOD9023903
Probable space group: P -1
;
_chemical_formula_sum "Si O2"
_cell_formula_units_Z 16
_cell_length_a 8.487309
_cell_length_b 28.064094
_cell_length_c 27.958154
_cell_angle_alpha 9.938283
_cell_angle_beta 140.190211
_cell_angle_gamma 140.221864
_cell_volume 731.571567
_symmetry_space_group_name_H-M "P -1"
_symmetry_group_IT_number 2
_symmetry_cell_setting 'triclinic'
loop_
_space_group_symop_operation_xyz
x,y,z
-x,-y,-z
loop_
_atom_site_type_symbol
_atom_site_label
_atom_site_fract_x
_atom_site_fract_y
_atom_site_fract_z
Si Si1 0.637084 0.917398 0.913564
Si Si2 0.338229 0.072963 0.603457
Si Si3 0.551525 0.739370 0.708283
Si Si4 0.024940 0.774358 0.066855
Si Si5 0.632578 0.674421 0.402216
Si Si6 0.806231 0.287431 0.258749
Si Si7 0.282307 0.544897 0.538799
Si Si8 0.432852 0.412824 0.906385
O O1 0.406569 0.949652 0.792793
O O2 0.710309 0.218353 0.654114
O O3 0.613116 0.713202 0.155107
O O4 0.856298 0.824889 0.023186
O O5 0.524940 0.345900 0.363076
O O6 0.074685 0.189239 0.423839
O O7 0.377263 0.817301 0.830032
O O8 0.330960 0.710904 0.723780
O O9 0.470175 0.586319 0.791966
O O10 0.646895 0.062980 0.409853
O O11 0.777066 0.584575 0.935395
O O12 0.124133 0.477917 0.382208
O O13 0.834088 0.763714 0.988523
O O14 0.261135 0.005027 0.895721
O O15 0.500000 0.500000 0.500000
O O16 0.451637 0.638746 0.440373
O O17 0.000000 0.500000 0.500000
#
# Coordination Sequence:
#
# PCOD9023903 Si02
#       8
#     2   2   2   2   2   2   2   2
#     4  11  23  43  65  92 130 168 209 261 321 382
#     4  11  23  40  64  94 127 168 214 266 323 380
#     4  10  22  40  62  90 127 170 214 264 321 379
#     4  11  23  43  65  92 130 168 209 261 321 382
#     4  12  25  43  67  96 127 166 212 261 318 381
#     4  10  22  40  62  90 127 170 214 264 321 379
#     4  12  25  43  67  96 127 166 212 261 318 381
#     4  11  23  40  64  94 127 168 214 266 323 380
#
# _framework density 21.870722000000001
#
# number of rings (size 3 to 8) (size 9 to 14) (size 15 to 20)
#    0.000    1.000    0.000    8.250    0.000    4.000 
#    0.000   10.000    0.000    0.000    0.000    0.000 
#    0.000    0.000    0.000    0.000    0.000    0.000 
#
# Total GULP energy -89431.263651 kJ/mol
# GULP energy per Si atom -5589.453978 kJ/mol
# Density = 2.182094 g / cm^3
# Si number density = 21.870722 Si / 1000 Ang^3
#
#
#
# Elastic Constant Matrix: (Units=GPa)
#
#
# Indices 1 2 3 4 5 6 
#
# 1 83.9264 39.9418 12.6300 -16.6711 21.3429 -10.3015
# 2 39.9418 112.0033 0.0769 3.5202 3.4395 -8.4299
# 3 12.6300 0.0769 98.1477 -12.0527 7.6914 -6.3929
# 4 -16.6711 3.5202 -12.0527 56.5850 -5.7192 13.1351
# 5 21.3429 3.4395 7.6914 -5.7192 47.0865 -3.9586
# 6 -10.3015 -8.4299 -6.3929 13.1351 -3.9586 30.6475
#
#
#
# Elastic Compliance Matrix: (Units=1/GPa)
#
#
# Indices 1 2 3 4 5 6 
#
# 1 0.017778 -0.006173 -0.001128 0.004399 -0.006781 0.001282
# 2 -0.006173 0.011360 0.000466 -0.002850 0.001764 0.002597
# 3 -0.001128 0.000466 0.010677 0.001537 -0.000980 0.001191
# 4 0.004399 -0.002850 0.001537 0.021353 -0.000129 -0.008153
# 5 -0.006781 0.001764 -0.000980 -0.000129 0.024429 0.001212
# 6 0.001282 0.002597 0.001191 -0.008153 0.001212 0.037673
#
#
# Mechanical properties :
#
#
# Convention : Reuss Voigt Hill
#
# Bulk Modulus (GPa) = 38.24628 44.37497 41.31063
# Shear Modulus (GPa) = 34.32799 42.95904 38.64352
#
# Velocity S-wave (km/s) = 3.96610 4.43677 4.20802
# Velocity P-wave (km/s) = 6.20473 6.82497 6.52223
#
# Compressibility (1/GPa) = 0.02614633
#
# Stress axis : x y z
#
# Youngs Moduli (GPa) = 56.24877 88.02726 93.66235
#
# Poissons Ratio (x) = 0.54337 0.10564
# Poissons Ratio (y) = 0.34721 -0.04367
# Poissons Ratio (z) = 0.06344 -0.04105
#
# Static dielectric constant tensor:
#      x y z
#    x 1.779670 0.036780 -0.016960 
#    y 0.036780 1.939290 0.098200 
#    z -0.016960 0.098200 1.829900 
# 
# From -- ./inp_files/617688.got.cif
#   From: 2010.05.17/outbox.cif.g08.bks.cpg/sg2_309_cif.got.tgz:617688.got - 2010.06.03 11:33:40.
