data_PCOD9023006
_publ_section_title
;
Structure prediction by ZEFSAII (Michael W. Deem and Ramdas Pophale) SiO2 
 PCOD9023006
Probable space group: P -1
;
_chemical_formula_sum "Si O2"
_cell_formula_units_Z 16
_cell_length_a 12.668008
_cell_length_b 9.614640
_cell_length_c 18.250945
_cell_angle_alpha 38.878960
_cell_angle_beta 143.504536
_cell_angle_gamma 141.151068
_cell_volume 756.977549
_symmetry_space_group_name_H-M "P -1"
_symmetry_group_IT_number 2
_symmetry_cell_setting 'triclinic'
loop_
_space_group_symop_operation_xyz
x,y,z
-x,-y,-z
loop_
_atom_site_type_symbol
_atom_site_label
_atom_site_fract_x
_atom_site_fract_y
_atom_site_fract_z
Si Si1 0.804131 0.363749 0.639487
Si Si2 0.910086 0.112844 0.070558
Si Si3 0.402564 0.526403 0.047011
Si Si4 0.750672 0.090036 0.147894
Si Si5 0.156730 0.508753 0.222365
Si Si6 0.687394 0.840652 0.736341
Si Si7 0.221522 0.397910 0.843649
Si Si8 0.552310 0.579007 0.330824
O O1 0.806590 0.368553 0.727222
O O2 0.713027 0.542002 0.485455
O O3 0.025702 0.434525 0.707816
O O4 0.680980 0.094785 0.647748
O O5 0.774937 0.057218 0.088762
O O6 0.114472 0.122624 0.209773
O O7 0.836655 0.889866 0.064372
O O8 0.917697 0.348590 0.936809
O O9 0.363801 0.736843 0.979071
O O10 0.325848 0.529356 0.921355
O O11 0.282970 0.275643 0.123509
O O12 0.617664 0.532523 0.158424
O O13 0.973539 0.247778 0.235275
O O14 0.642150 0.842006 0.234140
O O15 0.361441 0.531560 0.293328
O O16 0.515987 0.632335 0.682626
#
# Coordination Sequence:
#
# PCOD9023006 Si02
#       8
#     2   2   2   2   2   2   2   2
#     4  11  25  47  65  93 134 185 222 264 319 397
#     4  11  21  41  70 100 130 166 219 284 340 375
#     4  11  21  40  65 103 127 164 220 282 341 380
#     4  12  24  42  68 103 135 170 212 281 335 390
#     4  12  23  45  69 100 132 172 222 277 333 388
#     4  11  22  42  69  95 130 171 224 279 325 383
#     4  10  22  39  65  96 132 168 221 272 333 388
#     4  12  27  44  66  97 138 183 222 256 325 406
#
# _framework density 21.136692
#
# number of rings (size 3 to 8) (size 9 to 14) (size 15 to 20)
#    0.000    0.750    3.750    4.125    0.000    5.000 
#    2.250    3.125    0.000    0.000    0.000    0.000 
#    0.000    0.000    0.000    0.000    0.000    0.000 
#
# Total GULP energy -89355.976926 kJ/mol
# GULP energy per Si atom -5584.748558 kJ/mol
# Density = 2.108858 g / cm^3
# Si number density = 21.136692 Si / 1000 Ang^3
#
#
#
# Elastic Constant Matrix: (Units=GPa)
#
#
# Indices 1 2 3 4 5 6 
#
# 1 129.6361 44.7883 43.3387 1.5160 10.3232 9.3555
# 2 44.7883 85.3011 19.8466 -2.4974 8.3019 13.2429
# 3 43.3387 19.8466 84.5060 -9.7536 12.8411 4.3705
# 4 1.5160 -2.4974 -9.7536 24.5821 1.9340 -2.2001
# 5 10.3232 8.3019 12.8411 1.9340 21.1964 4.6026
# 6 9.3555 13.2429 4.3705 -2.2001 4.6026 33.9954
#
#
#
# Elastic Compliance Matrix: (Units=1/GPa)
#
#
# Indices 1 2 3 4 5 6 
#
# 1 0.011047 -0.004619 -0.004879 -0.003145 -0.000156 -0.000796
# 2 -0.004619 0.015190 -0.000401 0.001512 -0.002698 -0.004131
# 3 -0.004879 -0.000401 0.016526 0.007566 -0.008386 0.000999
# 4 -0.003145 0.001512 0.007566 0.044998 -0.008480 0.003364
# 5 -0.000156 -0.002698 -0.008386 -0.008480 0.055442 -0.005883
# 6 -0.000796 -0.004131 0.000999 0.003364 -0.005883 0.032130
#
#
# Mechanical properties :
#
#
# Convention : Reuss Voigt Hill
#
# Bulk Modulus (GPa) = 43.54256 57.26559 50.40407
# Shear Modulus (GPa) = 24.65669 28.71943 26.68806
#
# Velocity S-wave (km/s) = 3.41916 3.69012 3.55722
# Velocity P-wave (km/s) = 6.01936 6.73110 6.38516
#
# Compressibility (1/GPa) = 0.02296604
#
# Stress axis : x y z
#
# Youngs Moduli (GPa) = 90.51896 65.83398 60.51189
#
# Poissons Ratio (x) = 0.30407 0.29525
# Poissons Ratio (y) = 0.41808 0.02424
# Poissons Ratio (z) = 0.44165 0.02637
#
# Static dielectric constant tensor:
#      x y z
#    x 1.782540 0.014270 0.018520 
#    y 0.014270 1.844310 0.042570 
#    z 0.018520 0.042570 1.712130 
# 
# From -- ./inp_files/428338.got.cif
#   From: 2010.05.17/outbox.cif.g08.bks.cpg/sg2_215_cif.got.tgz:428338.got - 2010.06.03 11:33:40.
