data_PCOD9023294
_publ_section_title
;
Structure prediction by ZEFSAII (Michael W. Deem and Ramdas Pophale) SiO2 
 PCOD9023294
Probable space group: P -1
;
_chemical_formula_sum "Si O2"
_cell_formula_units_Z 14
_cell_length_a 19.947231
_cell_length_b 9.108687
_cell_length_c 7.641478
_cell_angle_alpha 81.575082
_cell_angle_beta 123.216380
_cell_angle_gamma 141.582029
_cell_volume 605.738776
_symmetry_space_group_name_H-M "P -1"
_symmetry_group_IT_number 2
_symmetry_cell_setting 'triclinic'
loop_
_space_group_symop_operation_xyz
x,y,z
-x,-y,-z
loop_
_atom_site_type_symbol
_atom_site_label
_atom_site_fract_x
_atom_site_fract_y
_atom_site_fract_z
Si Si1 0.406443 0.710735 0.865707
Si Si2 0.249259 0.863030 0.321496
Si Si3 0.856524 0.786662 0.959465
Si Si4 0.958864 0.259616 0.179036
Si Si5 0.522534 0.293135 0.411545
Si Si6 0.092142 0.293193 0.621865
Si Si7 0.477656 0.392981 0.792578
O O1 0.472008 0.762867 0.765182
O O2 0.235177 0.496695 0.664205
O O3 0.422001 0.597926 0.044013
O O4 0.500000 0.000000 0.000000
O O5 0.119915 0.554158 0.268888
O O6 0.398021 0.030021 0.410803
O O7 0.318473 0.077606 0.539142
O O8 0.159934 0.807647 0.048019
O O9 0.859667 0.651370 0.119151
O O10 0.888705 0.993663 0.063520
O O11 0.693149 0.541895 0.680290
O O12 0.000000 0.000000 0.000000
O O13 0.997897 0.289959 0.433077
O O14 0.484593 0.409391 0.313476
O O15 0.000000 0.000000 0.500000
O O16 0.500000 0.500000 0.000000
#
# Coordination Sequence:
#
# PCOD9023294 Si02
#       7
#     2   2   2   2   2   2   2
#     4  11  24  43  66  98 138 178 229 290 349 408
#     4  11  22  42  70 100 138 179 233 287 345 404
#     4  11  23  42  67 101 134 179 229 281 346 420
#     4  10  23  41  65 100 141 178 220 288 348 406
#     4  11  23  41  70 101 131 182 239 285 341 417
#     4  10  22  40  64  92 134 177 216 273 350 407
#     4  10  22  39  67  97 135 179 232 283 339 413
#
# _framework density 23.112272000000001
#
# number of rings (size 3 to 8) (size 9 to 14) (size 15 to 20)
#    0.000    1.429    1.429    3.857    4.000    1.143 
#    2.571    4.286    0.000    7.714    0.000    0.000 
#    0.000    0.000    0.000    0.000    0.000    0.000 
#
# Total GULP energy -78125.999432 kJ/mol
# GULP energy per Si atom -5580.428531 kJ/mol
# Density = 2.305967 g / cm^3
# Si number density = 23.112272 Si / 1000 Ang^3
#
#
#
# Elastic Constant Matrix: (Units=GPa)
#
#
# Indices 1 2 3 4 5 6 
#
# 1 67.6958 29.5118 38.8626 4.9618 -6.7147 13.5504
# 2 29.5118 77.0189 62.8110 7.9806 4.5525 3.8440
# 3 38.8626 62.8110 140.4408 -7.2898 15.5796 -2.5800
# 4 4.9618 7.9806 -7.2898 61.7729 -1.6335 11.8754
# 5 -6.7147 4.5525 15.5796 -1.6335 32.7863 2.5342
# 6 13.5504 3.8440 -2.5800 11.8754 2.5342 33.3605
#
#
#
# Elastic Compliance Matrix: (Units=1/GPa)
#
#
# Indices 1 2 3 4 5 6 
#
# 1 0.022556 -0.004212 -0.005480 0.000201 0.008578 -0.009823
# 2 -0.004212 0.022339 -0.009035 -0.003549 0.000176 -0.000312
# 3 -0.005480 -0.009035 0.013593 0.002269 -0.006523 0.004006
# 4 0.000201 -0.003549 0.002269 0.018072 0.000819 -0.005993
# 5 0.008578 0.000176 -0.006523 0.000819 0.035917 -0.007029
# 6 -0.009823 -0.000312 0.004006 -0.005993 -0.007029 0.036979
#
#
# Mechanical properties :
#
#
# Convention : Reuss Voigt Hill
#
# Bulk Modulus (GPa) = 47.53982 60.83627 54.18805
# Shear Modulus (GPa) = 25.78396 35.84863 30.81629
#
# Velocity S-wave (km/s) = 3.34368 3.94263 3.65544
# Velocity P-wave (km/s) = 5.95992 6.86331 6.42750
#
# Compressibility (1/GPa) = 0.02103500
#
# Stress axis : x y z
#
# Youngs Moduli (GPa) = 44.33373 44.76518 73.56988
#
# Poissons Ratio (x) = 0.18854 0.40313
# Poissons Ratio (y) = 0.18672 0.66469
# Poissons Ratio (z) = 0.24293 0.40445
#
# Static dielectric constant tensor:
#      x y z
#    x 1.861030 0.010500 -0.023520 
#    y 0.010500 1.859570 -0.072010 
#    z -0.023520 -0.072010 1.939980 
# 
# From -- ./inp_files/343571.got.cif
#   From: 2010.05.17/outbox.cif.g08.bks.cpg/sg2_172_cif.got.tgz:343571.got - 2010.06.03 11:33:40.
