data_PCOD9023457
_publ_section_title
;
Structure prediction by ZEFSAII (Michael W. Deem and Ramdas Pophale) SiO2 
 PCOD9023457
Probable space group: P -1
;
_chemical_formula_sum "Si O2"
_cell_formula_units_Z 16
_cell_length_a 17.752319
_cell_length_b 7.320925
_cell_length_c 8.124864
_cell_angle_alpha 117.530889
_cell_angle_beta 70.769441
_cell_angle_gamma 136.894362
_cell_volume 639.802204
_symmetry_space_group_name_H-M "P -1"
_symmetry_group_IT_number 2
_symmetry_cell_setting 'triclinic'
loop_
_space_group_symop_operation_xyz
x,y,z
-x,-y,-z
loop_
_atom_site_type_symbol
_atom_site_label
_atom_site_fract_x
_atom_site_fract_y
_atom_site_fract_z
Si Si1 0.015554 0.321791 0.027739
Si Si2 0.776733 0.148516 0.724178
Si Si3 0.946553 0.833925 0.640858
Si Si4 0.878112 0.288266 0.366043
Si Si5 0.724644 0.617067 0.624097
Si Si6 0.440324 0.108357 0.067951
Si Si7 0.512831 0.627952 0.362170
Si Si8 0.310128 0.819710 0.710293
O O1 0.930433 0.197471 0.188457
O O2 0.133367 0.546680 0.127866
O O3 0.000000 0.500000 0.000000
O O4 0.996738 0.079630 0.840069
O O5 0.801889 0.119890 0.509024
O O6 0.781985 0.939441 0.726313
O O7 0.656157 0.027628 0.785295
O O8 0.959952 0.611625 0.512812
O O9 0.812305 0.629607 0.663716
O O10 0.000000 0.000000 0.500000
O O11 0.803153 0.265811 0.272034
O O12 0.596660 0.453390 0.664836
O O13 0.715508 0.468275 0.400667
O O14 0.525847 0.448130 0.165199
O O15 0.500000 0.000000 0.000000
O O16 0.374566 0.994152 0.898234
O O17 0.500000 0.500000 0.500000
O O18 0.609300 0.964320 0.406229
#
# Coordination Sequence:
#
# PCOD9023457 Si02
#       8
#     2   2   2   2   2   2   2   2
#     4  12  22  43  74  96 138 183 232 285 352 415
#     4  11  24  45  66 100 139 180 228 292 347 415
#     4  11  23  41  67 103 134 180 231 284 346 428
#     4  11  25  43  68 103 141 178 234 286 356 417
#     4  10  22  39  69  92 133 175 226 272 346 404
#     4  11  25  43  67 100 138 178 235 284 343 417
#     4  11  23  43  67  96 137 178 226 284 346 411
#     4  11  23  42  68 100 132 179 228 283 346 416
#
# _framework density 25.007728
#
# number of rings (size 3 to 8) (size 9 to 14) (size 15 to 20)
#    0.000    1.000    2.500    4.125    3.500    2.500 
#    4.500    0.000    0.000    0.000    0.000    0.000 
#    0.000    0.000    0.000    0.000    0.000    0.000 
#
# Total GULP energy -89347.309729 kJ/mol
# GULP energy per Si atom -5584.206858 kJ/mol
# Density = 2.495081 g / cm^3
# Si number density = 25.007728 Si / 1000 Ang^3
#
#
#
# Elastic Constant Matrix: (Units=GPa)
#
#
# Indices 1 2 3 4 5 6 
#
# 1 105.3391 31.0418 53.1032 3.9643 -23.1512 2.8316
# 2 31.0418 70.4872 41.1014 5.6176 -12.0157 8.3654
# 3 53.1032 41.1014 174.8321 20.4607 0.1621 -7.5871
# 4 3.9643 5.6176 20.4607 52.7240 -1.2943 -1.2444
# 5 -23.1512 -12.0157 0.1621 -1.2943 51.1421 6.5138
# 6 2.8316 8.3654 -7.5871 -1.2444 6.5138 26.1229
#
#
#
# Elastic Compliance Matrix: (Units=1/GPa)
#
#
# Indices 1 2 3 4 5 6 
#
# 1 0.013469 -0.002394 -0.003765 0.000774 0.005979 -0.003241
# 2 -0.002394 0.019471 -0.004174 -0.000360 0.004557 -0.008342
# 3 -0.003765 -0.004174 0.008351 -0.002481 -0.003398 0.004899
# 4 0.000774 -0.000360 -0.002481 0.019930 0.000769 0.000068
# 5 0.005979 0.004557 -0.003398 0.000769 0.024529 -0.009174
# 6 -0.003241 -0.008342 0.004899 0.000068 -0.009174 0.045017
#
#
# Mechanical properties :
#
#
# Convention : Reuss Voigt Hill
#
# Bulk Modulus (GPa) = 48.48786 66.79460 57.64123
# Shear Modulus (GPa) = 31.58408 41.02528 36.30468
#
# Velocity S-wave (km/s) = 3.55769 4.05471 3.81430
# Velocity P-wave (km/s) = 6.02557 6.97771 6.51904
#
# Compressibility (1/GPa) = 0.02062372
#
# Stress axis : x y z
#
# Youngs Moduli (GPa) = 74.24719 51.35857 119.74988
#
# Poissons Ratio (x) = 0.12295 0.45084
# Poissons Ratio (y) = 0.17775 0.49989
# Poissons Ratio (z) = 0.27953 0.21439
#
# Static dielectric constant tensor:
#      x y z
#    x 2.051860 -0.035110 0.038110 
#    y -0.035110 2.040070 -0.062510 
#    z 0.038110 -0.062510 1.953630 
# 
# From -- ./inp_files/343856.got.cif
#   From: 2010.05.17/outbox.cif.g08.bks.cpg/sg2_172_cif.got.tgz:343856.got - 2010.06.03 11:33:40.
