data_PCOD9023792
_publ_section_title
;
Structure prediction by ZEFSAII (Michael W. Deem and Ramdas Pophale) SiO2 
 PCOD9023792
Probable space group: P -1
;
_chemical_formula_sum "Si O2"
_cell_formula_units_Z 12
_cell_length_a 9.023022
_cell_length_b 11.686124
_cell_length_c 11.740219
_cell_angle_alpha 40.370379
_cell_angle_beta 98.690918
_cell_angle_gamma 127.460819
_cell_volume 505.626697
_symmetry_space_group_name_H-M "P -1"
_symmetry_group_IT_number 2
_symmetry_cell_setting 'triclinic'
loop_
_space_group_symop_operation_xyz
x,y,z
-x,-y,-z
loop_
_atom_site_type_symbol
_atom_site_label
_atom_site_fract_x
_atom_site_fract_y
_atom_site_fract_z
Si Si1 0.988023 0.782226 0.285741
Si Si2 0.298844 0.768958 0.242049
Si Si3 0.319854 0.842488 0.819274
Si Si4 0.121122 0.404362 0.957775
Si Si5 0.833397 0.929935 0.440031
Si Si6 0.329380 0.366401 0.826300
O O1 0.837126 0.541449 0.544870
O O2 0.806765 0.740646 0.227507
O O3 0.091799 0.723930 0.258905
O O4 0.225730 0.109173 0.080212
O O5 0.442695 0.907301 0.274247
O O6 0.500000 0.000000 0.000000
O O7 0.900705 0.340811 0.978071
O O8 0.263029 0.956124 0.642355
O O9 0.289100 0.637598 0.898313
O O10 0.262677 0.477836 0.808436
O O11 0.987840 0.106259 0.212377
O O12 0.602338 0.603702 0.653630
O O13 0.000000 0.000000 0.500000
#
# Coordination Sequence:
#
# PCOD9023792 Si02
#       6
#     2   2   2   2   2   2
#     4  10  24  40  63  99 124 166 221 253 312 391
#     4  11  22  43  66  90 127 175 209 261 316 371
#     4   9  20  43  59  93 131 154 223 258 297 397
#     4   9  21  40  62  90 129 168 202 261 329 358
#     4  10  22  40  61  93 128 164 212 262 313 380
#     4  11  22  42  65  92 135 164 206 272 316 377
#
# _framework density 23.732924000000001
#
# number of rings (size 3 to 8) (size 9 to 14) (size 15 to 20)
#    1.000    1.000    1.667    1.000    2.333    2.667 
#    0.000    4.167    0.000    0.000    0.000    0.000 
#    0.000    0.000    0.000    0.000    0.000    0.000 
#
# Total GULP energy -66860.061026 kJ/mol
# GULP energy per Si atom -5571.671752 kJ/mol
# Density = 2.367891 g / cm^3
# Si number density = 23.732924 Si / 1000 Ang^3
#
#
#
# Elastic Constant Matrix: (Units=GPa)
#
#
# Indices 1 2 3 4 5 6 
#
# 1 49.3729 21.0448 33.5925 3.2720 -4.0497 4.1331
# 2 21.0448 63.4964 22.3096 -13.2324 -1.4020 26.5590
# 3 33.5925 22.3096 175.5366 -23.7867 -13.8524 5.8924
# 4 3.2720 -13.2324 -23.7867 29.3464 -0.9949 -6.1317
# 5 -4.0497 -1.4020 -13.8524 -0.9949 25.1163 -2.1555
# 6 4.1331 26.5590 5.8924 -6.1317 -2.1555 42.9903
#
#
#
# Elastic Compliance Matrix: (Units=1/GPa)
#
#
# Indices 1 2 3 4 5 6 
#
# 1 0.030104 -0.012011 -0.006053 -0.012917 0.000637 0.003546
# 2 -0.012011 0.027961 0.000727 0.011454 -0.000776 -0.014624
# 3 -0.006053 0.000727 0.008112 0.007777 0.003874 0.000325
# 4 -0.012917 0.011454 0.007777 0.047157 0.004719 0.000062
# 5 0.000637 -0.000776 0.003874 0.004719 0.042429 0.002688
# 6 0.003546 -0.014624 0.000325 0.000062 0.002688 0.032054
#
#
# Mechanical properties :
#
#
# Convention : Reuss Voigt Hill
#
# Bulk Modulus (GPa) = 31.74534 49.14443 40.44488
# Shear Modulus (GPa) = 21.45992 33.58786 27.52389
#
# Velocity S-wave (km/s) = 3.01030 3.76605 3.40918
# Velocity P-wave (km/s) = 5.04853 6.29787 5.70748
#
# Compressibility (1/GPa) = 0.03150069
#
# Stress axis : x y z
#
# Youngs Moduli (GPa) = 33.21835 35.76362 123.28119
#
# Poissons Ratio (x) = 0.42956 0.74628
# Poissons Ratio (y) = 0.39899 -0.08958
# Poissons Ratio (z) = 0.20109 -0.02599
#
# Static dielectric constant tensor:
#      x y z
#    x 1.918060 -0.049000 0.058610 
#    y -0.049000 1.931860 -0.017350 
#    z 0.058610 -0.017350 1.970110 
# 
# From -- ./inp_files/386103.got.cif
#   From: 2010.05.17/outbox.cif.g08.bks.cpg/sg2_194_cif.got.tgz:386103.got - 2010.06.03 11:33:40.
