data_PCOD9023560
_publ_section_title
;
Structure prediction by ZEFSAII (Michael W. Deem and Ramdas Pophale) SiO2 
 PCOD9023560
Probable space group: P -1
;
_chemical_formula_sum "Si O2"
_cell_formula_units_Z 16
_cell_length_a 7.977073
_cell_length_b 5.173051
_cell_length_c 16.727575
_cell_angle_alpha 101.265166
_cell_angle_beta 118.704647
_cell_angle_gamma 78.256201
_cell_volume 588.932933
_symmetry_space_group_name_H-M "P -1"
_symmetry_group_IT_number 2
_symmetry_cell_setting 'triclinic'
loop_
_space_group_symop_operation_xyz
x,y,z
-x,-y,-z
loop_
_atom_site_type_symbol
_atom_site_label
_atom_site_fract_x
_atom_site_fract_y
_atom_site_fract_z
Si Si1 0.034723 0.744106 0.219039
Si Si2 0.696477 0.803255 0.718205
Si Si3 0.582520 0.313933 0.082397
Si Si4 0.676766 0.971393 0.419130
Si Si5 0.002277 0.255128 0.424823
Si Si6 0.762762 0.607764 0.277819
Si Si7 0.687799 0.979297 0.895973
Si Si8 0.899446 0.348828 0.049890
O O1 0.152016 0.988520 0.248491
O O2 0.877873 0.788727 0.256997
O O3 0.926331 0.633524 0.110528
O O4 0.193074 0.490561 0.262970
O O5 0.523363 0.840861 0.617411
O O6 0.600300 0.910914 0.787332
O O7 0.617927 0.490362 0.178080
O O8 0.454081 0.097892 0.072346
O O9 0.797338 0.215434 0.092858
O O10 0.500000 0.500000 0.000000
O O11 0.784335 0.901669 0.523523
O O12 0.659390 0.717002 0.342629
O O13 0.840257 0.094221 0.413554
O O14 0.000000 0.500000 0.500000
O O15 0.931372 0.383614 0.333501
O O16 0.888691 0.783797 0.931911
O O17 0.763353 0.265863 0.942180
#
# Coordination Sequence:
#
# PCOD9023560 Si02
#       8
#     2   2   2   2   2   2   2   2
#     4  10  25  44  63  98 142 181 227 287 353 412
#     4  11  25  42  69 101 135 180 235 284 348 416
#     4  11  24  38  62 102 140 179 239 286 338 416
#     4  10  22  39  72 101 127 178 235 288 337 426
#     4   9  20  41  69  97 134 170 234 281 353 415
#     4  10  23  42  67  98 137 187 224 289 350 413
#     4  10  22  41  64  88 134 190 231 290 350 399
#     4   9  22  40  58  90 131 180 231 284 338 406
#
# _framework density 27.167778999999999
#
# number of rings (size 3 to 8) (size 9 to 14) (size 15 to 20)
#    0.000    2.000    0.000    1.125   10.500    7.000 
#    4.500    1.250    0.000    0.000    0.000    0.000 
#    0.000    0.000    0.000    0.000    0.000    0.000 
#
# Total GULP energy -89526.049794 kJ/mol
# GULP energy per Si atom -5595.378112 kJ/mol
# Density = 2.710594 g / cm^3
# Si number density = 27.167779 Si / 1000 Ang^3
#
#
#
# Elastic Constant Matrix: (Units=GPa)
#
#
# Indices 1 2 3 4 5 6 
#
# 1 129.4015 25.8002 17.7619 -7.8506 4.1012 19.1196
# 2 25.8002 99.7380 31.8988 -1.3712 8.7004 6.5880
# 3 17.7619 31.8988 126.0927 -29.3728 29.5350 -3.2409
# 4 -7.8506 -1.3712 -29.3728 39.5202 -4.3431 0.5186
# 5 4.1012 8.7004 29.5350 -4.3431 43.6888 -1.1002
# 6 19.1196 6.5880 -3.2409 0.5186 -1.1002 45.0219
#
#
#
# Elastic Compliance Matrix: (Units=1/GPa)
#
#
# Indices 1 2 3 4 5 6 
#
# 1 0.008769 -0.001841 -0.000542 0.001316 -0.000048 -0.003510
# 2 -0.001841 0.011586 -0.003191 -0.002347 -0.000239 -0.001122
# 3 -0.000542 -0.003191 0.012355 0.008198 -0.006818 0.001325
# 4 0.001316 -0.002347 0.008198 0.031348 -0.002083 -0.000037
# 5 -0.000048 -0.000239 -0.006818 -0.002083 0.027349 0.000257
# 6 -0.003510 -0.001122 0.001325 -0.000037 0.000257 0.023968
#
#
# Mechanical properties :
#
#
# Convention : Reuss Voigt Hill
#
# Bulk Modulus (GPa) = 46.37920 56.23933 51.30927
# Shear Modulus (GPa) = 37.39387 44.29759 40.84573
#
# Velocity S-wave (km/s) = 3.71402 4.04235 3.88166
# Velocity P-wave (km/s) = 5.95822 6.52174 6.24634
#
# Compressibility (1/GPa) = 0.02156139
#
# Stress axis : x y z
#
# Youngs Moduli (GPa) = 114.03387 86.31225 80.93925
#
# Poissons Ratio (x) = 0.15890 0.04387
# Poissons Ratio (y) = 0.20994 0.25831
# Poissons Ratio (z) = 0.06181 0.27545
#
# Static dielectric constant tensor:
#      x y z
#    x 2.137090 -0.105580 -0.037750 
#    y -0.105580 2.469820 0.214240 
#    z -0.037750 0.214240 2.375550 
# 
# From -- ./inp_files/553671.got.cif
#   From: 2010.05.17/outbox.cif.g08.bks.cpg/sg2_277_cif.got.tgz:553671.got - 2010.06.03 11:33:40.
