data_PCOD9023387
_publ_section_title
;
Structure prediction by ZEFSAII (Michael W. Deem and Ramdas Pophale) SiO2 
 PCOD9023387
Probable space group: P -1
;
_chemical_formula_sum "Si O2"
_cell_formula_units_Z 16
_cell_length_a 14.753186
_cell_length_b 11.935079
_cell_length_c 14.887107
_cell_angle_alpha 142.825510
_cell_angle_beta 149.515367
_cell_angle_gamma 55.419294
_cell_volume 740.419820
_symmetry_space_group_name_H-M "P -1"
_symmetry_group_IT_number 2
_symmetry_cell_setting 'triclinic'
loop_
_space_group_symop_operation_xyz
x,y,z
-x,-y,-z
loop_
_atom_site_type_symbol
_atom_site_label
_atom_site_fract_x
_atom_site_fract_y
_atom_site_fract_z
Si Si1 0.237641 0.790243 0.557984
Si Si2 0.144046 0.041202 0.006269
Si Si3 0.730704 0.570150 0.753447
Si Si4 0.778225 0.350903 0.205257
Si Si5 0.466792 0.788530 0.929258
Si Si6 0.682844 0.317617 0.902959
Si Si7 0.811153 0.657580 0.082221
Si Si8 0.253082 0.085775 0.322131
O O1 0.213665 0.586602 0.356641
O O2 0.307150 0.779603 0.712651
O O3 0.032752 0.809834 0.383634
O O4 0.414895 0.981583 0.791700
O O5 0.923401 0.918258 0.770469
O O6 0.229147 0.877235 0.946859
O O7 0.168187 0.205107 0.056051
O O8 0.243811 0.155413 0.256532
O O9 0.500000 0.500000 0.500000
O O10 0.785531 0.570394 0.904242
O O11 0.641303 0.355113 0.173002
O O12 0.000000 0.500000 0.500000
O O13 0.710477 0.390084 0.075018
O O14 0.637284 0.734339 0.996328
O O15 0.779496 0.490311 0.024242
O O16 0.769094 0.145572 0.855502
O O17 0.457044 0.210342 0.619302
#
# Coordination Sequence:
#
# PCOD9023387 Si02
#       8
#     2   2   2   2   2   2   2   2
#     4  11  25  46  68 101 140 176 225 276 337 404
#     4  10  22  39  68  96 128 173 226 268 337 394
#     4  12  23  42  71 102 133 177 225 284 335 394
#     4  11  25  44  66  94 135 179 224 272 335 404
#     4  11  26  46  68  96 142 183 217 279 340 404
#     4  10  22  41  63  97 130 169 219 278 330 391
#     4  12  25  43  72 100 136 178 229 274 340 400
#     4   9  20  40  65  94 132 166 217 288 328 382
#
# _framework density 21.609362999999998
#
# number of rings (size 3 to 8) (size 9 to 14) (size 15 to 20)
#    0.000    1.250    1.250    3.750    3.500    4.500 
#    4.500    0.000    0.000    0.000    0.000    0.000 
#    0.000    0.000    0.000    0.000    0.000    0.000 
#
# Total GULP energy -89507.955912 kJ/mol
# GULP energy per Si atom -5594.247244 kJ/mol
# Density = 2.156018 g / cm^3
# Si number density = 21.609363 Si / 1000 Ang^3
#
#
#
# Elastic Constant Matrix: (Units=GPa)
#
#
# Indices 1 2 3 4 5 6 
#
# 1 64.3133 22.0257 38.0489 -10.5002 -1.0230 16.6849
# 2 22.0257 48.9066 19.3362 -1.9151 -4.0804 9.8613
# 3 38.0489 19.3362 104.7715 -25.8483 -5.1726 16.5790
# 4 -10.5002 -1.9151 -25.8483 38.3565 -5.2932 5.7602
# 5 -1.0230 -4.0804 -5.1726 -5.2932 15.5911 -3.3538
# 6 16.6849 9.8613 16.5790 5.7602 -3.3538 42.9734
#
#
#
# Elastic Compliance Matrix: (Units=1/GPa)
#
#
# Indices 1 2 3 4 5 6 
#
# 1 0.023255 -0.007178 -0.005670 0.002698 -0.002556 -0.005755
# 2 -0.007178 0.025093 -0.001736 -0.000948 0.004812 -0.001799
# 3 -0.005670 -0.001736 0.015503 0.010402 0.006938 -0.004234
# 4 0.002698 -0.000948 0.010402 0.037022 0.014076 -0.008707
# 5 -0.002556 0.004812 0.006938 0.014076 0.072523 0.000985
# 6 -0.005755 -0.001799 -0.004234 -0.008707 0.000985 0.028795
#
#
# Mechanical properties :
#
#
# Convention : Reuss Voigt Hill
#
# Bulk Modulus (GPa) = 28.83337 41.86811 35.35074
# Shear Modulus (GPa) = 20.58286 28.62291 24.60289
#
# Velocity S-wave (km/s) = 3.08960 3.64340 3.37787
# Velocity P-wave (km/s) = 5.10877 6.09231 5.62209
#
# Compressibility (1/GPa) = 0.03468204
#
# Stress axis : x y z
#
# Youngs Moduli (GPa) = 43.00177 39.85118 64.50447
#
# Poissons Ratio (x) = 0.28607 0.36576
# Poissons Ratio (y) = 0.30868 0.11197
# Poissons Ratio (z) = 0.24383 0.06918
#
# Static dielectric constant tensor:
#      x y z
#    x 1.778260 -0.039890 -0.004720 
#    y -0.039890 1.810670 0.014780 
#    z -0.004720 0.014780 1.753010 
# 
# From -- ./inp_files/532511.got.cif
#   From: 2010.05.17/outbox.cif.g08.bks.cpg/sg2_267_cif.got.tgz:532511.got - 2010.06.03 11:33:40.
