data_PCOD9023211
_publ_section_title
;
Structure prediction by ZEFSAII (Michael W. Deem and Ramdas Pophale) SiO2 
 PCOD9023211
Probable space group: P -1
;
_chemical_formula_sum "Si O2"
_cell_formula_units_Z 10
_cell_length_a 7.166246
_cell_length_b 15.884696
_cell_length_c 5.033438
_cell_angle_alpha 44.873325
_cell_angle_beta 70.648732
_cell_angle_gamma 76.575570
_cell_volume 381.415817
_symmetry_space_group_name_H-M "P -1"
_symmetry_group_IT_number 2
_symmetry_cell_setting 'triclinic'
loop_
_space_group_symop_operation_xyz
x,y,z
-x,-y,-z
loop_
_atom_site_type_symbol
_atom_site_label
_atom_site_fract_x
_atom_site_fract_y
_atom_site_fract_z
Si Si1 0.752728 0.287677 0.253833
Si Si2 0.230539 0.974915 0.932426
Si Si3 0.376642 0.350831 0.542746
Si Si4 0.138514 0.403440 0.011789
Si Si5 0.477904 0.841544 0.728271
O O1 0.603816 0.371906 0.299920
O O2 0.976567 0.321947 0.117940
O O3 0.654416 0.271327 0.050974
O O4 0.732534 0.149230 0.659302
O O5 0.318483 0.938579 0.684263
O O6 0.365756 0.088420 0.687107
O O7 0.000000 0.000000 0.000000
O O8 0.254795 0.348831 0.329818
O O9 0.386783 0.221147 0.970373
O O10 0.283689 0.434947 0.626720
O O11 0.000000 0.500000 0.000000
#
# Coordination Sequence:
#
# PCOD9023211 Si02
#       5
#     2   2   2   2   2
#     4  11  25  44  73 100 143 185 231 283 346 407
#     4  10  22  39  67 102 141 183 227 276 342 407
#     4  11  25  48  71 101 144 178 230 289 345 414
#     4  12  28  47  73 104 136 182 236 287 352 410
#     4  10  22  44  66 104 140 182 228 278 343 411
#
# _framework density 26.218101999999998
#
# number of rings (size 3 to 8) (size 9 to 14) (size 15 to 20)
#    0.000    1.200    2.000    2.400    5.600    2.400 
#    0.000    0.000    0.000    0.000    0.000    0.000 
#    0.000    0.000    0.000    0.000    0.000    0.000 
#
# Total GULP energy -55855.260395 kJ/mol
# GULP energy per Si atom -5585.526040 kJ/mol
# Density = 2.615843 g / cm^3
# Si number density = 26.218102 Si / 1000 Ang^3
#
#
#
# Elastic Constant Matrix: (Units=GPa)
#
#
# Indices 1 2 3 4 5 6 
#
# 1 198.8321 59.2087 60.2736 13.6874 -5.0236 -12.2154
# 2 59.2087 146.3611 19.5612 23.9059 -6.0051 -17.6435
# 3 60.2736 19.5612 82.9458 9.6298 4.1614 5.1035
# 4 13.6874 23.9059 9.6298 41.4629 2.9749 -4.2072
# 5 -5.0236 -6.0051 4.1614 2.9749 40.3269 4.0397
# 6 -12.2154 -17.6435 5.1035 -4.2072 4.0397 52.0917
#
#
#
# Elastic Compliance Matrix: (Units=1/GPa)
#
#
# Indices 1 2 3 4 5 6 
#
# 1 0.007244 -0.002067 -0.004913 0.000016 0.000959 0.001407
# 2 -0.002067 0.008672 -0.000247 -0.004135 0.001159 0.002053
# 3 -0.004913 -0.000247 0.016204 -0.002154 -0.001876 -0.002852
# 4 0.000016 -0.004135 -0.002154 0.027302 -0.002527 0.001215
# 5 0.000959 0.001159 -0.001876 -0.002527 0.025609 -0.001389
# 6 0.001407 0.002053 -0.002852 0.001215 -0.001389 0.020707
#
#
# Mechanical properties :
#
#
# Convention : Reuss Voigt Hill
#
# Bulk Modulus (GPa) = 56.60862 78.46954 67.53908
# Shear Modulus (GPa) = 39.65708 46.04932 42.85320
#
# Velocity S-wave (km/s) = 3.89341 4.19548 4.04727
# Velocity P-wave (km/s) = 6.46915 7.31190 6.90340
#
# Compressibility (1/GPa) = 0.01766515
#
# Stress axis : x y z
#
# Youngs Moduli (GPa) = 138.04831 115.31065 61.71342
#
# Poissons Ratio (x) = 0.23840 0.30318
# Poissons Ratio (y) = 0.28541 0.01526
# Poissons Ratio (z) = 0.67820 0.02851
#
# Static dielectric constant tensor:
#      x y z
#    x 2.130710 0.152590 0.126230 
#    y 0.152590 2.255710 0.074340 
#    z 0.126230 0.074340 2.142830 
# 
# From -- ./inp_files/2367.got.cif
#   From: 2010.05.17/outbox.cif.g08.bks.cpg/sg2_2_cif.got.tgz:2367.got - 2010.06.03 11:33:40.
