data_PCOD9023540
_publ_section_title
;
Structure prediction by ZEFSAII (Michael W. Deem and Ramdas Pophale) SiO2 
 PCOD9023540
Probable space group: P -1
;
_chemical_formula_sum "Si O2"
_cell_formula_units_Z 15
_cell_length_a 7.533338
_cell_length_b 10.299403
_cell_length_c 15.035873
_cell_angle_alpha 35.949902
_cell_angle_beta 63.686759
_cell_angle_gamma 60.643145
_cell_volume 594.482361
_symmetry_space_group_name_H-M "P -1"
_symmetry_group_IT_number 2
_symmetry_cell_setting 'triclinic'
loop_
_space_group_symop_operation_xyz
x,y,z
-x,-y,-z
loop_
_atom_site_type_symbol
_atom_site_label
_atom_site_fract_x
_atom_site_fract_y
_atom_site_fract_z
Si Si1 0.779098 0.599024 0.260154
Si Si2 0.000000 0.000000 0.000000
Si Si3 0.255553 0.767031 0.753272
Si Si4 0.682203 0.139609 0.818103
Si Si5 0.490710 0.723475 0.052914
Si Si6 0.121133 0.871339 0.401577
Si Si7 0.911820 0.384761 0.950556
Si Si8 0.571759 0.833800 0.775214
O O1 0.533667 0.683828 0.256939
O O2 0.846728 0.376548 0.428050
O O3 0.863514 0.805707 0.164858
O O4 0.896272 0.533896 0.175832
O O5 0.283232 0.810022 0.111970
O O6 0.419058 0.544527 0.803902
O O7 0.393639 0.896886 0.708416
O O8 0.120467 0.662365 0.912804
O O9 0.096584 0.952873 0.628693
O O10 0.843262 0.150161 0.701265
O O11 0.629602 0.893313 0.960535
O O12 0.066043 0.849746 0.976123
O O13 0.487275 0.772888 0.922376
O O14 0.297833 0.984064 0.336928
O O15 0.725136 0.593116 0.848101
#
# Coordination Sequence:
#
# PCOD9023540 Si02
#       8
#     2   1   2   2   2   2   2   2
#     4  10  23  42  72 101 137 187 232 284 350 415
#     4   8  22  36  72  92 132 176 238 272 336 402
#     4  11  24  43  72 108 135 183 235 288 341 418
#     4  10  22  39  71 104 137 187 235 286 344 414
#     4   9  21  39  70 102 137 178 240 283 336 410
#     4  11  26  45  71 102 146 183 227 284 364 405
#     4   9  21  39  69 100 133 183 233 284 338 399
#     4  10  23  41  73 102 140 183 230 289 345 409
#
# _framework density 25.232036999999998
#
# number of rings (size 3 to 8) (size 9 to 14) (size 15 to 20)
#    0.800    1.333    0.000    2.000   13.067    3.200 
#    0.000    1.333    8.800    0.000    0.000    0.000 
#    0.000    0.000    0.000    0.000    0.000    0.000 
#
# Total GULP energy -83737.516975 kJ/mol
# GULP energy per Si atom -5582.501132 kJ/mol
# Density = 2.517461 g / cm^3
# Si number density = 25.232037 Si / 1000 Ang^3
#
#
#
# Elastic Constant Matrix: (Units=GPa)
#
#
# Indices 1 2 3 4 5 6 
#
# 1 92.9635 20.7930 37.0593 -14.0708 9.8196 -2.0051
# 2 20.7930 125.0627 28.7830 -21.5942 -1.3098 -18.4620
# 3 37.0593 28.7830 137.7582 -32.1737 24.3403 -6.4865
# 4 -14.0708 -21.5942 -32.1737 27.8396 -4.0024 0.2762
# 5 9.8196 -1.3098 24.3403 -4.0024 28.3737 -11.7728
# 6 -2.0051 -18.4620 -6.4865 0.2762 -11.7728 54.7309
#
#
#
# Elastic Compliance Matrix: (Units=1/GPa)
#
#
# Indices 1 2 3 4 5 6 
#
# 1 0.012520 -0.001308 -0.002083 0.002544 -0.002578 -0.000797
# 2 -0.001308 0.010260 -0.000699 0.007062 0.004270 0.004213
# 3 -0.002083 -0.000699 0.011990 0.011070 -0.008343 -0.000741
# 4 0.002544 0.007062 0.011070 0.055319 -0.000869 0.003321
# 5 -0.002578 0.004270 -0.008343 -0.000869 0.047782 0.010640
# 6 -0.000797 0.004213 -0.000741 0.003321 0.010640 0.021847
#
#
# Mechanical properties :
#
#
# Convention : Reuss Voigt Hill
#
# Bulk Modulus (GPa) = 37.60488 58.78390 48.19439
# Shear Modulus (GPa) = 28.28683 40.13213 34.20948
#
# Velocity S-wave (km/s) = 3.35187 3.99246 3.68611
# Velocity P-wave (km/s) = 5.46955 6.67839 6.10397
#
# Compressibility (1/GPa) = 0.02659229
#
# Stress axis : x y z
#
# Youngs Moduli (GPa) = 79.87338 97.46328 83.40306
#
# Poissons Ratio (x) = 0.12744 0.17370
# Poissons Ratio (y) = 0.10444 0.05827
# Poissons Ratio (z) = 0.16635 0.06809
#
# Static dielectric constant tensor:
#      x y z
#    x 1.977490 0.055570 -0.056910 
#    y 0.055570 2.088320 0.037370 
#    z -0.056910 0.037370 1.858190 
# 
# From -- ./inp_files/557775.got.cif
#   From: 2010.05.17/outbox.cif.g08.bks.cpg/sg2_279_cif.got.tgz:557775.got - 2010.06.03 11:33:40.
