data_PCOD9023764
_publ_section_title
;
Structure prediction by ZEFSAII (Michael W. Deem and Ramdas Pophale) SiO2 
 PCOD9023764
Probable space group: P -1
;
_chemical_formula_sum "Si O2"
_cell_formula_units_Z 14
_cell_length_a 8.300194
_cell_length_b 12.854997
_cell_length_c 8.914083
_cell_angle_alpha 111.397317
_cell_angle_beta 131.081254
_cell_angle_gamma 75.414275
_cell_volume 667.421026
_symmetry_space_group_name_H-M "P -1"
_symmetry_group_IT_number 2
_symmetry_cell_setting 'triclinic'
loop_
_space_group_symop_operation_xyz
x,y,z
-x,-y,-z
loop_
_atom_site_type_symbol
_atom_site_label
_atom_site_fract_x
_atom_site_fract_y
_atom_site_fract_z
Si Si1 0.683225 0.292154 0.880601
Si Si2 0.025477 0.232945 0.547852
Si Si3 0.537298 0.886221 0.165549
Si Si4 0.558338 0.142725 0.255108
Si Si5 0.983717 0.391765 0.332295
Si Si6 0.896501 0.393323 0.804052
Si Si7 0.430012 0.350344 0.485127
O O1 0.766857 0.379854 0.099461
O O2 0.637199 0.177218 0.874588
O O3 0.859536 0.297507 0.858817
O O4 0.473134 0.329081 0.678737
O O5 0.233293 0.156463 0.657310
O O6 0.999421 0.284231 0.393544
O O7 0.811182 0.166563 0.420728
O O8 0.027377 0.337984 0.719955
O O9 0.515190 0.019436 0.224929
O O10 0.517021 0.850629 0.960112
O O11 0.450887 0.237377 0.342481
O O12 0.189587 0.393719 0.351747
O O13 0.000000 0.500000 0.500000
O O14 0.648224 0.415407 0.613898
O O15 0.000000 0.500000 0.000000
#
# Coordination Sequence:
#
# PCOD9023764 Si02
#       7
#     2   2   2   2   2   2   2
#     4  10  22  40  61  90 124 157 209 248 298 368
#     4  11  21  41  61  91 127 157 204 256 298 367
#     4  11  22  41  66  91 123 162 199 258 308 356
#     4  10  23  42  64  92 122 160 206 249 313 365
#     4  12  24  40  63  92 123 166 207 247 304 363
#     4   9  20  40  60  87 121 159 202 248 304 353
#     4   9  23  42  60  89 126 160 199 258 300 361
#
# _framework density 20.976262999999999
#
# number of rings (size 3 to 8) (size 9 to 14) (size 15 to 20)
#    0.857    0.857    2.857    1.286    2.000    2.286 
#    0.000    2.857    0.000    0.000    0.000    0.000 
#    0.000    0.000    0.000    0.000    0.000    0.000 
#
# Total GULP energy -78089.773425 kJ/mol
# GULP energy per Si atom -5577.840959 kJ/mol
# Density = 2.092852 g / cm^3
# Si number density = 20.976263 Si / 1000 Ang^3
#
#
#
# Elastic Constant Matrix: (Units=GPa)
#
#
# Indices 1 2 3 4 5 6 
#
# 1 82.6209 43.8834 12.5535 9.4153 3.1879 11.2366
# 2 43.8834 59.5072 29.2745 3.5510 6.4287 18.5917
# 3 12.5535 29.2745 97.8073 10.8583 3.9842 -1.5313
# 4 9.4153 3.5510 10.8583 32.0819 8.9561 -2.2967
# 5 3.1879 6.4287 3.9842 8.9561 21.0300 -1.4507
# 6 11.2366 18.5917 -1.5313 -2.2967 -1.4507 39.7910
#
#
#
# Elastic Compliance Matrix: (Units=1/GPa)
#
#
# Indices 1 2 3 4 5 6 
#
# 1 0.021650 -0.018483 0.003330 -0.006574 0.004705 0.002442
# 2 -0.018483 0.040839 -0.010338 0.006595 -0.011519 -0.014299
# 3 0.003330 -0.010338 0.013384 -0.004739 0.002429 0.004220
# 4 -0.006574 0.006595 -0.004739 0.038609 -0.016549 0.000218
# 5 0.004705 -0.011519 0.002429 -0.016549 0.057311 0.005281
# 6 0.002442 -0.014299 0.004220 0.000218 0.005281 0.031490
#
#
# Mechanical properties :
#
#
# Convention : Reuss Voigt Hill
#
# Bulk Modulus (GPa) = 40.17544 45.70647 42.94095
# Shear Modulus (GPa) = 19.04308 28.86217 23.95263
#
# Velocity S-wave (km/s) = 3.01631 3.71340 3.38286
# Velocity P-wave (km/s) = 5.59689 6.34213 5.98113
#
# Compressibility (1/GPa) = 0.02489083
#
# Stress axis : x y z
#
# Youngs Moduli (GPa) = 46.18944 24.48649 74.71449
#
# Poissons Ratio (x) = 0.45258 -0.24877
# Poissons Ratio (y) = 0.85371 0.77239
# Poissons Ratio (z) = -0.15380 0.25314
#
# Static dielectric constant tensor:
#      x y z
#    x 1.759930 0.048300 -0.010480 
#    y 0.048300 1.759800 -0.042810 
#    z -0.010480 -0.042810 1.771550 
# 
# From -- ./inp_files/37521.got.cif
#   From: 2010.05.17/outbox.cif.g08.bks.cpg/sg2_19_cif.got.tgz:37521.got - 2010.06.03 11:33:40.
