data_PCOD9023948
_publ_section_title
;
Structure prediction by ZEFSAII (Michael W. Deem and Ramdas Pophale) SiO2 
 PCOD9023948
Probable space group: P -1
;
_chemical_formula_sum "Si O2"
_cell_formula_units_Z 12
_cell_length_a 16.067560
_cell_length_b 7.231705
_cell_length_c 6.962831
_cell_angle_alpha 123.119248
_cell_angle_beta 114.685330
_cell_angle_gamma 102.158638
_cell_volume 503.022595
_symmetry_space_group_name_H-M "P -1"
_symmetry_group_IT_number 2
_symmetry_cell_setting 'triclinic'
loop_
_space_group_symop_operation_xyz
x,y,z
-x,-y,-z
loop_
_atom_site_type_symbol
_atom_site_label
_atom_site_fract_x
_atom_site_fract_y
_atom_site_fract_z
Si Si1 0.506670 0.830327 0.197658
Si Si2 0.083614 0.788467 0.039631
Si Si3 0.315307 0.262940 0.616891
Si Si4 0.436662 0.191411 0.203501
Si Si5 0.077894 0.278998 0.846060
Si Si6 0.231089 0.170509 0.087988
O O1 0.612752 0.859855 0.414267
O O2 0.478488 0.048318 0.296295
O O3 0.394237 0.533333 0.967410
O O4 0.535620 0.825655 0.998574
O O5 0.974116 0.738083 0.002888
O O6 0.189105 0.016011 0.404632
O O7 0.118253 0.917584 0.935067
O O8 0.081045 0.521419 0.888423
O O9 0.297024 0.350619 0.441205
O O10 0.500000 0.500000 0.500000
O O11 0.305637 0.076943 0.023913
O O12 0.196749 0.323213 0.007931
O O13 0.000000 0.000000 0.500000
#
# Coordination Sequence:
#
# PCOD9023948 Si02
#       6
#     2   2   2   2   2   2
#     4  10  22  40  62  92 130 166 205 248 306 379
#     4   9  23  45  60  91 126 162 199 270 311 356
#     4   9  21  42  61  91 125 168 201 253 311 363
#     4  11  22  38  60  95 125 165 210 253 304 371
#     4  11  24  42  67  91 119 163 213 260 314 373
#     4  10  23  41  63  92 124 164 204 259 314 358
#
# _framework density 23.855786999999999
#
# number of rings (size 3 to 8) (size 9 to 14) (size 15 to 20)
#    1.000    1.000    1.667    0.500    4.667    2.667 
#    6.000    0.000    0.000    0.000    0.000    0.000 
#    0.000    0.000    0.000    0.000    0.000    0.000 
#
# Total GULP energy -66983.787362 kJ/mol
# GULP energy per Si atom -5581.982280 kJ/mol
# Density = 2.380149 g / cm^3
# Si number density = 23.855787 Si / 1000 Ang^3
#
#
#
# Elastic Constant Matrix: (Units=GPa)
#
#
# Indices 1 2 3 4 5 6 
#
# 1 83.4150 35.6204 3.7070 10.2160 -2.5249 -20.3107
# 2 35.6204 116.1884 15.1814 16.9578 -2.0104 -45.7260
# 3 3.7070 15.1814 35.0920 0.4389 1.9781 -18.4585
# 4 10.2160 16.9578 0.4389 35.7497 -9.2174 3.2261
# 5 -2.5249 -2.0104 1.9781 -9.2174 27.6556 -3.0063
# 6 -20.3107 -45.7260 -18.4585 3.2261 -3.0063 47.3764
#
#
#
# Elastic Compliance Matrix: (Units=1/GPa)
#
#
# Indices 1 2 3 4 5 6 
#
# 1 0.014538 -0.002138 0.002193 -0.003539 0.000411 0.005291
# 2 -0.002138 0.016912 0.001831 -0.009016 -0.000284 0.016716
# 3 0.002193 0.001831 0.036635 -0.003939 -0.001737 0.017139
# 4 -0.003539 -0.009016 -0.003939 0.037171 0.010210 -0.013637
# 5 0.000411 -0.000284 -0.001737 0.010210 0.039818 0.001056
# 6 0.005291 0.016716 0.017139 -0.013637 0.001056 0.047182
#
#
# Mechanical properties :
#
#
# Convention : Reuss Voigt Hill
#
# Bulk Modulus (GPa) = 13.91649 38.19033 26.05341
# Shear Modulus (GPa) = 23.53642 34.16879 28.85261
#
# Velocity S-wave (km/s) = 3.14445 3.78869 3.48150
# Velocity P-wave (km/s) = 4.36230 5.93148 5.20635
#
# Compressibility (1/GPa) = 0.07185718
#
# Stress axis : x y z
#
# Youngs Moduli (GPa) = 68.78660 59.12854 27.29634
#
# Poissons Ratio (x) = 0.12640 -0.05986
# Poissons Ratio (y) = 0.14704 -0.04997
# Poissons Ratio (z) = -0.15086 -0.10824
#
# Static dielectric constant tensor:
#      x y z
#    x 1.958410 0.051470 -0.003510 
#    y 0.051470 1.929790 -0.051750 
#    z -0.003510 -0.051750 1.953430 
# 
# From -- ./inp_files/293810.got.cif
#   From: 2010.05.17/outbox.cif.g08.bks.cpg/sg2_147_cif.got.tgz:293810.got - 2010.06.03 11:33:40.
