data_PCOD9023674
_publ_section_title
;
Structure prediction by ZEFSAII (Michael W. Deem and Ramdas Pophale) SiO2 
 PCOD9023674
Probable space group: P -1
;
_chemical_formula_sum "Si O2"
_cell_formula_units_Z 14
_cell_length_a 10.976480
_cell_length_b 14.436870
_cell_length_c 9.363639
_cell_angle_alpha 60.374877
_cell_angle_beta 113.274904
_cell_angle_gamma 150.077710
_cell_volume 641.511257
_symmetry_space_group_name_H-M "P -1"
_symmetry_group_IT_number 2
_symmetry_cell_setting 'triclinic'
loop_
_space_group_symop_operation_xyz
x,y,z
-x,-y,-z
loop_
_atom_site_type_symbol
_atom_site_label
_atom_site_fract_x
_atom_site_fract_y
_atom_site_fract_z
Si Si1 0.528756 0.832216 0.253734
Si Si2 0.017184 0.138866 0.393635
Si Si3 0.530819 0.442813 0.423434
Si Si4 0.746590 0.265720 0.563106
Si Si5 0.264974 0.977745 0.381982
Si Si6 0.733833 0.913657 0.003461
Si Si7 0.282340 0.332670 0.913867
O O1 0.472885 0.678091 0.417827
O O2 0.347694 0.793959 0.271327
O O3 0.543803 0.833155 0.090264
O O4 0.804453 0.043311 0.272341
O O5 0.289533 0.327056 0.318343
O O6 0.954995 0.139795 0.522911
O O7 0.000000 0.000000 0.500000
O O8 0.500000 0.500000 0.500000
O O9 0.724761 0.582626 0.278797
O O10 0.766529 0.163645 0.579566
O O11 0.000000 0.500000 0.500000
O O12 0.517512 0.161478 0.448302
O O13 0.287220 0.063550 0.186553
O O14 0.692748 0.759674 0.095574
O O15 0.012248 0.133110 0.008725
O O16 0.500000 0.500000 0.000000
#
# Coordination Sequence:
#
# PCOD9023674 Si02
#       7
#     2   2   2   2   2   2   2
#     4  10  22  40  60  88 122 163 210 250 308 372
#     4   9  20  35  62  88 122 162 200 249 308 373
#     4  11  20  35  59  90 123 162 202 249 303 375
#     4  10  24  43  67  90 116 166 221 261 303 370
#     4  10  23  42  64  91 125 165 208 261 314 363
#     4  11  24  40  60  91 133 163 200 262 314 372
#     4  11  25  36  58  95 133 167 201 244 319 377
#
# _framework density 21.823467999999998
#
# number of rings (size 3 to 8) (size 9 to 14) (size 15 to 20)
#    0.000    1.714    1.429    1.714   16.000    0.571 
#    0.000    0.714    0.000    0.000    0.000    0.000 
#    0.000    0.000    0.000    0.000    0.000    0.000 
#
# Total GULP energy -78035.158027 kJ/mol
# GULP energy per Si atom -5573.939859 kJ/mol
# Density = 2.177380 g / cm^3
# Si number density = 21.823468 Si / 1000 Ang^3
#
#
#
# Elastic Constant Matrix: (Units=GPa)
#
#
# Indices 1 2 3 4 5 6 
#
# 1 91.5747 12.7723 16.7687 -0.9889 -39.2947 -11.2557
# 2 12.7723 93.2795 12.7292 -8.6879 -5.6457 2.0344
# 3 16.7687 12.7292 97.7451 1.3402 -27.3122 -8.1159
# 4 -0.9889 -8.6879 1.3402 23.8721 -0.5305 -2.0160
# 5 -39.2947 -5.6457 -27.3122 -0.5305 42.0729 4.6478
# 6 -11.2557 2.0344 -8.1159 -2.0160 4.6478 33.0744
#
#
#
# Elastic Compliance Matrix: (Units=1/GPa)
#
#
# Indices 1 2 3 4 5 6 
#
# 1 0.019526 -0.001903 0.002642 0.000797 0.019180 0.004764
# 2 -0.001903 0.011550 -0.001654 0.004078 -0.001099 -0.001361
# 3 0.002642 -0.001654 0.013156 -0.000769 0.010477 0.002710
# 4 0.000797 0.004078 -0.000769 0.043672 0.001084 0.002341
# 5 0.019180 -0.001099 0.010477 0.001084 0.048076 0.002476
# 6 0.004764 -0.001361 0.002710 0.002341 0.002476 0.032399
#
#
# Mechanical properties :
#
#
# Convention : Reuss Voigt Hill
#
# Bulk Modulus (GPa) = 23.58365 40.79329 32.18847
# Shear Modulus (GPa) = 27.12349 35.82583 31.47466
#
# Velocity S-wave (km/s) = 3.52924 4.05609 3.80180
# Velocity P-wave (km/s) = 5.23808 6.37721 5.83550
#
# Compressibility (1/GPa) = 0.04240226
#
# Stress axis : x y z
#
# Youngs Moduli (GPa) = 51.21373 86.58260 76.01192
#
# Poissons Ratio (x) = 0.16476 -0.20083
# Poissons Ratio (y) = 0.09746 0.12570
# Poissons Ratio (z) = -0.13531 0.14318
#
# Static dielectric constant tensor:
#      x y z
#    x 1.836000 0.071500 0.020070 
#    y 0.071500 2.068460 -0.088470 
#    z 0.020070 -0.088470 1.764960 
# 
# From -- ./inp_files/207154.got.cif
#   From: 2010.05.17/outbox.cif.g08.bks.cpg/sg2_104_cif.got.tgz:207154.got - 2010.06.03 11:33:40.
