data_PCOD9023459
_publ_section_title
;
Structure prediction by ZEFSAII (Michael W. Deem and Ramdas Pophale) SiO2 
 PCOD9023459
Probable space group: P -1
;
_chemical_formula_sum "Si O2"
_cell_formula_units_Z 16
_cell_length_a 15.166057
_cell_length_b 9.298641
_cell_length_c 30.028476
_cell_angle_alpha 35.278751
_cell_angle_beta 19.958843
_cell_angle_gamma 45.868173
_cell_volume 778.823068
_symmetry_space_group_name_H-M "P -1"
_symmetry_group_IT_number 2
_symmetry_cell_setting 'triclinic'
loop_
_space_group_symop_operation_xyz
x,y,z
-x,-y,-z
loop_
_atom_site_type_symbol
_atom_site_label
_atom_site_fract_x
_atom_site_fract_y
_atom_site_fract_z
Si Si1 0.778928 0.420277 0.766298
Si Si2 0.651596 0.457346 0.572823
Si Si3 0.546679 0.182705 0.280120
Si Si4 0.478024 0.981542 0.091346
Si Si5 0.070896 0.244118 0.548084
Si Si6 0.112996 0.226713 0.005620
Si Si7 0.538630 0.864132 0.768998
Si Si8 0.064522 0.305748 0.903741
O O1 0.644656 0.271668 0.820994
O O2 0.742429 0.703357 0.716922
O O3 0.100611 0.456425 0.601908
O O4 0.616508 0.231365 0.930724
O O5 0.755603 0.651113 0.516119
O O6 0.349442 0.460022 0.704153
O O7 0.616744 0.153406 0.681265
O O8 0.267085 0.153908 0.445585
O O9 0.724977 0.500887 0.113728
O O10 0.476824 0.071360 0.292151
O O11 0.790366 0.090129 0.206836
O O12 0.707489 0.950107 0.023391
O O13 0.218293 0.978986 0.244452
O O14 0.000000 0.500000 0.500000
O O15 0.121684 0.315160 0.927376
O O16 0.223632 0.661667 0.979784
O O17 0.000000 0.000000 0.000000
#
# Coordination Sequence:
#
# PCOD9023459 Si02
#       8
#     2   2   2   2   2   2   2   2
#     4  10  20  33  49  74 106 141 168 203 252 308
#     4  10  19  32  52  76 102 133 171 209 253 300
#     4  10  18  29  54  80  98 125 172 217 250 291
#     4  10  20  33  50  74 107 137 169 206 255 302
#     4  11  18  31  52  78 100 130 171 214 250 297
#     4  10  17  31  52  76 103 129 166 214 253 295
#     4  10  19  33  53  78 104 131 168 213 254 298
#     4   9  18  31  53  79 101 127 166 216 257 294
#
# _framework density 20.543818000000002
#
# number of rings (size 3 to 8) (size 9 to 14) (size 15 to 20)
#    0.000    2.000    3.750    1.125    0.000    0.000 
#    0.000    1.250    0.000   23.250    0.000    0.000 
#    0.000    0.000    0.000    0.000    0.000    0.000 
#
# Total GULP energy -89161.251829 kJ/mol
# GULP energy per Si atom -5572.578239 kJ/mol
# Density = 2.049706 g / cm^3
# Si number density = 20.543818 Si / 1000 Ang^3
#
#
#
# Elastic Constant Matrix: (Units=GPa)
#
#
# Indices 1 2 3 4 5 6 
#
# 1 20.3945 3.9600 23.4920 9.2471 -2.6026 -0.7130
# 2 3.9600 42.8718 28.0038 25.9988 -0.2732 7.7939
# 3 23.4920 28.0038 147.0679 54.3881 8.0124 -8.6183
# 4 9.2471 25.9988 54.3881 46.0061 2.4045 -2.5571
# 5 -2.6026 -0.2732 8.0124 2.4045 19.4794 1.9813
# 6 -0.7130 7.7939 -8.6183 -2.5571 1.9813 10.1993
#
#
#
# Elastic Compliance Matrix: (Units=1/GPa)
#
#
# Indices 1 2 3 4 5 6 
#
# 1 0.064834 0.007861 -0.011631 -0.005425 0.015827 -0.015738
# 2 0.007861 0.054008 -0.003880 -0.031201 0.012778 -0.054305
# 3 -0.011631 -0.003880 0.015100 -0.012178 -0.007674 0.013349
# 4 -0.005425 -0.031201 -0.012178 0.056761 -0.006067 0.028582
# 5 0.015827 0.012778 -0.007674 -0.006067 0.060424 -0.028402
# 6 -0.015738 -0.054305 0.013349 0.028582 -0.028402 0.162407
#
#
# Mechanical properties :
#
#
# Convention : Reuss Voigt Hill
#
# Bulk Modulus (GPa) = 8.42870 35.69400 22.06135
# Shear Modulus (GPa) = 10.67503 25.46218 18.06861
#
# Velocity S-wave (km/s) = 2.28200 3.52434 2.96888
# Velocity P-wave (km/s) = 3.32491 5.82869 4.74493
#
# Compressibility (1/GPa) = 0.11864222
#
# Stress axis : x y z
#
# Youngs Moduli (GPa) = 15.42407 18.51567 66.22391
#
# Poissons Ratio (x) = -0.14555 0.77028
# Poissons Ratio (y) = -0.12125 0.25692
# Poissons Ratio (z) = 0.17940 0.07183
#
# Static dielectric constant tensor:
#      x y z
#    x 1.797880 0.098050 -0.044170 
#    y 0.098050 1.820440 0.042360 
#    z -0.044170 0.042360 1.820350 
# 
# From -- ./inp_files/347463.got.cif
#   From: 2010.05.17/outbox.cif.g08.bks.cpg/sg2_174_cif.got.tgz:347463.got - 2010.06.03 11:33:40.
