data_PCOD9023493
_publ_section_title
;
Structure prediction by ZEFSAII (Michael W. Deem and Ramdas Pophale) SiO2 
 PCOD9023493
Probable space group: P -1
;
_chemical_formula_sum "Si O2"
_cell_formula_units_Z 13
_cell_length_a 11.601978
_cell_length_b 12.325046
_cell_length_c 14.647242
_cell_angle_alpha 144.913603
_cell_angle_beta 30.157395
_cell_angle_gamma 122.827331
_cell_volume 495.755884
_symmetry_space_group_name_H-M "P -1"
_symmetry_group_IT_number 2
_symmetry_cell_setting 'triclinic'
loop_
_space_group_symop_operation_xyz
x,y,z
-x,-y,-z
loop_
_atom_site_type_symbol
_atom_site_label
_atom_site_fract_x
_atom_site_fract_y
_atom_site_fract_z
Si Si1 0.000000 0.500000 0.500000
Si Si2 0.660299 0.096482 0.618020
Si Si3 0.800869 0.167140 0.385350
Si Si4 0.863078 0.263460 0.740767
Si Si5 0.705892 0.725348 0.660880
Si Si6 0.260950 0.614914 0.890072
Si Si7 0.382009 0.873272 0.719008
O O1 0.838348 0.371133 0.513861
O O2 0.130267 0.380259 0.429858
O O3 0.441065 0.069383 0.804850
O O4 0.695233 0.267754 0.771225
O O5 0.610989 0.168684 0.596252
O O6 0.954384 0.843218 0.239384
O O7 0.711771 0.141414 0.328633
O O8 0.130855 0.947336 0.010450
O O9 0.079854 0.312704 0.589409
O O10 0.723624 0.408265 0.026212
O O11 0.000000 0.000000 0.500000
O O12 0.511635 0.639528 0.711505
O O13 0.500000 0.000000 0.000000
O O14 0.340129 0.378796 0.628630
#
# Coordination Sequence:
#
# PCOD9023493 Si02
#       7
#     1   2   2   2   2   2   2
#     4  12  24  44  76 104 130 184 248 282 356 410
#     4  11  23  42  69 101 132 183 226 287 351 413
#     4  11  25  47  66  97 138 179 232 286 345 418
#     4  10  22  39  70 102 133 178 232 288 348 404
#     4  12  22  44  72 101 143 178 230 302 338 411
#     4  11  24  43  69 103 136 179 234 286 352 415
#     4  11  26  44  65  94 145 180 224 286 347 429
#
# _framework density 26.222586
#
# number of rings (size 3 to 8) (size 9 to 14) (size 15 to 20)
#    0.000    0.923    6.154    0.923    2.154    4.308 
#    2.769    2.308    0.000    0.000    0.000    0.000 
#    0.000    0.000    0.000    0.000    0.000    0.000 
#
# Total GULP energy -72622.283944 kJ/mol
# GULP energy per Si atom -5586.329534 kJ/mol
# Density = 2.616290 g / cm^3
# Si number density = 26.222586 Si / 1000 Ang^3
#
#
#
# Elastic Constant Matrix: (Units=GPa)
#
#
# Indices 1 2 3 4 5 6 
#
# 1 98.0442 28.4004 -11.5477 -1.6774 -11.6731 -10.8326
# 2 28.4004 124.0032 16.1818 -24.7578 1.7257 -3.2815
# 3 -11.5477 16.1818 86.1697 -11.4701 5.6196 -16.4472
# 4 -1.6774 -24.7578 -11.4701 39.9506 -4.4996 -4.1098
# 5 -11.6731 1.7257 5.6196 -4.4996 32.9827 -4.4735
# 6 -10.8326 -3.2815 -16.4472 -4.1098 -4.4735 47.8696
#
#
#
# Elastic Compliance Matrix: (Units=1/GPa)
#
#
# Indices 1 2 3 4 5 6 
#
# 1 0.012427 -0.003098 0.002752 0.000332 0.004681 0.004011
# 2 -0.003098 0.010100 -0.001548 0.005604 -0.000612 -0.000117
# 3 0.002752 -0.001548 0.013824 0.003694 -0.000040 0.005580
# 4 0.000332 0.005604 0.003694 0.030514 0.003998 0.004722
# 5 0.004681 -0.000612 -0.000040 0.003998 0.033163 0.004446
# 6 0.004011 -0.000117 0.005580 0.004722 0.004446 0.024528
#
#
# Mechanical properties :
#
#
# Convention : Reuss Voigt Hill
#
# Bulk Modulus (GPa) = 30.71091 41.58736 36.14914
# Shear Modulus (GPa) = 35.91979 42.50609 39.21294
#
# Velocity S-wave (km/s) = 3.70510 4.03050 3.87122
# Velocity P-wave (km/s) = 5.48094 6.12811 5.81354
#
# Compressibility (1/GPa) = 0.03256171
#
# Stress axis : x y z
#
# Youngs Moduli (GPa) = 80.46924 99.00904 72.33862
#
# Poissons Ratio (x) = 0.30673 -0.19905
# Poissons Ratio (y) = 0.24929 0.11200
# Poissons Ratio (z) = -0.22142 0.15330
#
# Static dielectric constant tensor:
#      x y z
#    x 2.016690 -0.035220 -0.051900 
#    y -0.035220 1.973360 0.107070 
#    z -0.051900 0.107070 2.072790 
# 
# From -- ./inp_files/260727.got.cif
#   From: 2010.05.17/outbox.cif.g08.bks.cpg/sg2_131_cif.got.tgz:260727.got - 2010.06.03 11:33:40.
