data_PCOD9023107
_publ_section_title
;
Structure prediction by ZEFSAII (Michael W. Deem and Ramdas Pophale) SiO2 
 PCOD9023107
Probable space group: P -1
;
_chemical_formula_sum "Si O2"
_cell_formula_units_Z 16
_cell_length_a 10.281801
_cell_length_b 9.436819
_cell_length_c 10.810269
_cell_angle_alpha 64.643744
_cell_angle_beta 59.626634
_cell_angle_gamma 82.802800
_cell_volume 812.132167
_symmetry_space_group_name_H-M "P -1"
_symmetry_group_IT_number 2
_symmetry_cell_setting 'triclinic'
loop_
_space_group_symop_operation_xyz
x,y,z
-x,-y,-z
loop_
_atom_site_type_symbol
_atom_site_label
_atom_site_fract_x
_atom_site_fract_y
_atom_site_fract_z
Si Si1 0.856714 0.782394 0.378654
Si Si2 0.968903 0.133309 0.110093
Si Si3 0.715122 0.890236 0.919162
Si Si4 0.899979 0.832260 0.612660
Si Si5 0.123903 0.682954 0.139201
Si Si6 0.067222 0.614228 0.753547
Si Si7 0.628891 0.246090 0.815944
Si Si8 0.663864 0.489620 0.477597
O O1 0.823970 0.789885 0.535833
O O2 0.727164 0.666180 0.421547
O O3 0.007451 0.700686 0.301805
O O4 0.887671 0.963320 0.253382
O O5 0.935692 0.271090 0.171065
O O6 0.150656 0.126247 0.039463
O O7 0.904989 0.175437 0.992350
O O8 0.783290 0.827573 0.783380
O O9 0.691936 0.074231 0.838705
O O10 0.552965 0.796524 0.066101
O O11 0.023833 0.715186 0.620411
O O12 0.000000 0.000000 0.500000
O O13 0.286224 0.684030 0.125708
O O14 0.063697 0.532788 0.139672
O O15 0.227118 0.557092 0.667554
O O16 0.662892 0.365945 0.639390
O O17 0.500000 0.500000 0.500000
#
# Coordination Sequence:
#
# PCOD9023107 Si02
#       8
#     2   2   2   2   2   2   2   2
#     4  11  22  38  68  92 122 169 218 257 310 383
#     4  11  22  41  66  97 125 167 214 265 316 374
#     4  10  23  38  68  95 130 168 206 267 320 377
#     4  11  18  39  66  96 124 158 215 266 308 371
#     4  11  22  39  64  97 128 168 214 264 308 389
#     4  10  22  39  66  91 124 170 216 261 314 377
#     4  11  23  41  63  96 130 169 210 260 328 379
#     4  11  26  44  63  92 132 172 208 268 323 379
#
# _framework density 19.701225999999998
#
# number of rings (size 3 to 8) (size 9 to 14) (size 15 to 20)
#    0.000    1.250    3.750    3.000    3.500    3.000 
#    2.250    3.750    0.000    0.000    0.000    0.000 
#    0.000    0.000    0.000    0.000    0.000    0.000 
#
# Total GULP energy -89266.034003 kJ/mol
# GULP energy per Si atom -5579.127125 kJ/mol
# Density = 1.965639 g / cm^3
# Si number density = 19.701226 Si / 1000 Ang^3
#
#
#
# Elastic Constant Matrix: (Units=GPa)
#
#
# Indices 1 2 3 4 5 6 
#
# 1 141.3686 42.9869 49.5908 -2.5688 -14.0217 1.2957
# 2 42.9869 107.8636 22.2727 1.5227 -11.8836 18.8152
# 3 49.5908 22.2727 47.9740 -1.8616 -3.2012 14.2449
# 4 -2.5688 1.5227 -1.8616 30.5745 1.1462 1.2924
# 5 -14.0217 -11.8836 -3.2012 1.1462 31.9206 -7.7857
# 6 1.2957 18.8152 14.2449 1.2924 -7.7857 24.3293
#
#
#
# Elastic Compliance Matrix: (Units=1/GPa)
#
#
# Indices 1 2 3 4 5 6 
#
# 1 0.015108 -0.004222 -0.017687 -0.000497 0.006986 0.015079
# 2 -0.004222 0.012454 0.001618 -0.000464 0.000479 -0.010176
# 3 -0.017687 0.001618 0.047111 0.003008 -0.010188 -0.031313
# 4 -0.000497 -0.000464 0.003008 0.033117 -0.002216 -0.003844
# 5 0.006986 0.000479 -0.010188 -0.002216 0.037893 0.017467
# 6 0.015079 -0.010176 -0.031313 -0.003844 0.017467 0.072297
#
#
# Mechanical properties :
#
#
# Convention : Reuss Voigt Hill
#
# Bulk Modulus (GPa) = 29.33368 58.54521 43.93944
# Shear Modulus (GPa) = 18.52359 29.52193 24.02276
#
# Velocity S-wave (km/s) = 3.06964 3.87522 3.49571
# Velocity P-wave (km/s) = 5.24263 7.05721 6.21648
#
# Compressibility (1/GPa) = 0.03409050
#
# Stress axis : x y z
#
# Youngs Moduli (GPa) = 66.19118 80.29632 21.22633
#
# Poissons Ratio (x) = 0.33903 0.37543
# Poissons Ratio (y) = 0.27947 -0.03435
# Poissons Ratio (z) = 1.17073 -0.12993
#
# Static dielectric constant tensor:
#      x y z
#    x 1.691280 0.004360 0.002140 
#    y 0.004360 1.763850 -0.060360 
#    z 0.002140 -0.060360 1.752170 
# 
# From -- ./inp_files/184929.got.cif
#   From: 2010.05.17/outbox.cif.g08.bks.cpg/sg2_93_cif.got.tgz:184929.got - 2010.06.03 11:33:40.
