data_PCOD9024412
_publ_section_title
;
Structure prediction by ZEFSAII (Michael W. Deem and Ramdas Pophale) SiO2 
 PCOD9024412
Probable space group: P -1
;
_chemical_formula_sum "Si O2"
_cell_formula_units_Z 12
_cell_length_a 20.359217
_cell_length_b 4.874994
_cell_length_c 21.022293
_cell_angle_alpha 116.038142
_cell_angle_beta 13.508523
_cell_angle_gamma 117.024446
_cell_volume 434.125921
_symmetry_space_group_name_H-M "P -1"
_symmetry_group_IT_number 2
_symmetry_cell_setting 'triclinic'
loop_
_space_group_symop_operation_xyz
x,y,z
-x,-y,-z
loop_
_atom_site_type_symbol
_atom_site_label
_atom_site_fract_x
_atom_site_fract_y
_atom_site_fract_z
Si Si1 0.829150 0.251086 0.400067
Si Si2 0.444326 0.780125 0.224651
Si Si3 0.092423 0.873401 0.268321
Si Si4 0.734892 0.672413 0.750418
Si Si5 0.697253 0.748286 0.261140
Si Si6 0.867914 0.573652 0.263456
O O1 0.551870 0.222457 0.703061
O O2 0.784233 0.368456 0.383824
O O3 0.038041 0.514354 0.266686
O O4 0.928490 0.922387 0.265133
O O5 0.361860 0.432313 0.239669
O O6 0.187299 0.973908 0.469286
O O7 0.687710 0.957220 0.971360
O O8 0.193491 0.980466 0.255466
O O9 0.000000 0.500000 0.500000
O O10 0.500000 0.500000 0.000000
O O11 0.427768 0.464929 0.500343
O O12 0.500000 0.000000 0.500000
O O13 0.860490 0.523612 0.037674
O O14 0.000000 0.000000 0.000000
#
# Coordination Sequence:
#
# PCOD9024412 Si02
#       6
#     2   2   2   2   2   2
#     4  12  26  45  68 108 150 188 230 290 354 426
#     4  10  22  40  64  95 137 187 244 295 354 407
#     4  10  22  40  64  95 137 187 244 295 354 407
#     4   8  16  35  60  88 125 181 245 302 340 402
#     4   9  22  52  80 108 142 182 228 278 334 412
#     4  11  26  44  74 109 144 181 230 279 346 417
#
# _framework density 27.641750999999999
#
# number of rings (size 3 to 8) (size 9 to 14) (size 15 to 20)
#    0.000    2.000    1.667    0.000    2.333    6.000 
#    0.000   16.667    0.000   12.000    0.000    0.000 
#    0.000    0.000    0.000    0.000    0.000    0.167 
#
# Total GULP energy -66826.870999 kJ/mol
# GULP energy per Si atom -5568.905917 kJ/mol
# Density = 2.757884 g / cm^3
# Si number density = 27.641751 Si / 1000 Ang^3
#
#
#
# Elastic Constant Matrix: (Units=GPa)
#
#
# Indices 1 2 3 4 5 6 
#
# 1 121.2563 27.7775 43.6501 20.1877 18.6444 10.5458
# 2 27.7775 211.7359 56.5296 21.2746 23.4549 44.3134
# 3 43.6501 56.5296 255.6626 10.3745 19.3458 10.1843
# 4 20.1877 21.2746 10.3745 51.2511 26.4870 5.5560
# 5 18.6444 23.4549 19.3458 26.4870 18.3404 4.3229
# 6 10.5458 44.3134 10.1843 5.5560 4.3229 52.4699
#
#
#
# Elastic Compliance Matrix: (Units=1/GPa)
#
#
# Indices 1 2 3 4 5 6 
#
# 1 0.010334 0.000563 -0.000733 0.004833 -0.017075 -0.001515
# 2 0.000563 0.007140 -0.000420 0.006363 -0.017196 -0.005319
# 3 -0.000733 -0.000420 0.004809 0.005710 -0.012026 -0.000045
# 4 0.004833 0.006363 0.005710 0.093066 -0.152356 -0.004756
# 5 -0.017075 -0.017196 -0.012026 -0.152356 0.324302 0.009703
# 6 -0.001515 -0.005319 -0.000045 -0.004756 0.009703 0.023568
#
#
# Mechanical properties :
#
#
# Convention : Reuss Voigt Hill
#
# Bulk Modulus (GPa) = 47.38375 93.84102 70.61239
# Shear Modulus (GPa) = 10.60596 55.12545 32.86571
#
# Velocity S-wave (km/s) = 1.96093 4.47058 3.45191
# Velocity P-wave (km/s) = 4.72296 7.78915 6.44116
#
# Compressibility (1/GPa) = 0.02110428
#
# Stress axis : x y z
#
# Youngs Moduli (GPa) = 96.76407 140.06094 207.92311
#
# Poissons Ratio (x) = -0.07883 0.15232
# Poissons Ratio (y) = -0.05446 0.08731
# Poissons Ratio (z) = 0.07089 0.05881
#
# Static dielectric constant tensor:
#      x y z
#    x 2.298920 0.039670 -0.075000 
#    y 0.039670 2.170400 -0.032030 
#    z -0.075000 -0.032030 2.183490 
# 
# From -- ./inp_files/621040.got.cif
#   From: 2010.05.17/outbox.cif.g08.bks.cpg/sg2_311_cif.got.tgz:621040.got - 2010.06.03 11:33:40.
