data_PCOD9024112
_publ_section_title
;
Structure prediction by ZEFSAII (Michael W. Deem and Ramdas Pophale) SiO2 
 PCOD9024112
Probable space group: P -1
;
_chemical_formula_sum "Si O2"
_cell_formula_units_Z 16
_cell_length_a 15.340309
_cell_length_b 15.535489
_cell_length_c 8.813056
_cell_angle_alpha 51.459468
_cell_angle_beta 102.310271
_cell_angle_gamma 144.973524
_cell_volume 707.026020
_symmetry_space_group_name_H-M "P -1"
_symmetry_group_IT_number 2
_symmetry_cell_setting 'triclinic'
loop_
_space_group_symop_operation_xyz
x,y,z
-x,-y,-z
loop_
_atom_site_type_symbol
_atom_site_label
_atom_site_fract_x
_atom_site_fract_y
_atom_site_fract_z
Si Si1 0.150651 0.880595 0.754286
Si Si2 0.434217 0.967678 0.260759
Si Si3 0.954226 0.765737 0.266035
Si Si4 0.510275 0.416857 0.217949
Si Si5 0.712749 0.701613 0.286388
Si Si6 0.215212 0.740905 0.107025
Si Si7 0.164604 0.814128 0.491260
Si Si8 0.731717 0.439223 0.248024
O O1 0.155298 0.828147 0.649473
O O2 0.290937 0.143414 0.505837
O O3 0.246408 0.899967 0.887599
O O4 0.923017 0.649081 0.977535
O O5 0.292820 0.815233 0.224903
O O6 0.380875 0.015951 0.284655
O O7 0.386661 0.806599 0.518610
O O8 0.656265 0.198102 0.020131
O O9 0.814643 0.699281 0.376826
O O10 0.818556 0.551263 0.329174
O O11 0.073659 0.816528 0.364109
O O12 0.118261 0.017191 0.954573
O O13 0.661908 0.624439 0.176129
O O14 0.595685 0.395148 0.214320
O O15 0.500000 0.500000 0.000000
O O16 0.500000 0.500000 0.500000
O O17 0.983650 0.451492 0.314483
#
# Coordination Sequence:
#
# PCOD9024112 Si02
#       8
#     2   2   2   2   2   2   2   2
#     4  12  25  39  64  93 129 168 205 249 315 370
#     4  11  23  40  66  90 127 168 207 254 302 367
#     4  10  22  40  63  93 122 159 207 262 306 361
#     4  11  25  44  64  90 126 162 210 259 312 371
#     4  10  22  41  67  90 119 157 212 263 310 356
#     4  11  23  40  62  92 123 167 209 247 307 369
#     4  12  24  39  61  95 132 164 204 253 306 371
#     4  11  22  42  65  90 126 167 205 257 307 366
#
# _framework density 22.629999999999999
#
# number of rings (size 3 to 8) (size 9 to 14) (size 15 to 20)
#    0.000    1.000    3.750    3.000    0.000    4.000 
#    0.000    0.000    0.000    0.000    0.000    0.000 
#    0.000    0.000    0.000    0.000    0.000    0.000 
#
# Total GULP energy -89572.192424 kJ/mol
# GULP energy per Si atom -5598.262027 kJ/mol
# Density = 2.257849 g / cm^3
# Si number density = 22.630000 Si / 1000 Ang^3
#
#
#
# Elastic Constant Matrix: (Units=GPa)
#
#
# Indices 1 2 3 4 5 6 
#
# 1 144.5324 18.2506 52.4376 27.5952 -7.1683 19.6390
# 2 18.2506 42.5711 11.6417 8.1144 6.7281 3.7104
# 3 52.4376 11.6417 87.1518 13.9790 -1.0403 10.0683
# 4 27.5952 8.1144 13.9790 27.2703 8.3084 7.1881
# 5 -7.1683 6.7281 -1.0403 8.3084 53.3199 2.4752
# 6 19.6390 3.7104 10.0683 7.1881 2.4752 23.6655
#
#
#
# Elastic Compliance Matrix: (Units=1/GPa)
#
#
# Indices 1 2 3 4 5 6 
#
# 1 0.011197 -0.002092 -0.004563 -0.008037 0.003161 -0.004912
# 2 -0.002092 0.026051 -0.001620 -0.003846 -0.002993 -0.000178
# 3 -0.004563 -0.001620 0.014994 -0.002235 0.000310 -0.001692
# 4 -0.008037 -0.003846 -0.002235 0.051347 -0.008338 -0.006500
# 5 0.003161 -0.002993 0.000310 -0.008338 0.020953 -0.001945
# 6 -0.004912 -0.000178 -0.001692 -0.006500 -0.001945 0.049257
#
#
# Mechanical properties :
#
#
# Convention : Reuss Voigt Hill
#
# Bulk Modulus (GPa) = 28.01677 48.76834 38.39255
# Shear Modulus (GPa) = 24.72222 33.64616 29.18419
#
# Velocity S-wave (km/s) = 3.30881 3.86008 3.59503
# Velocity P-wave (km/s) = 5.19662 6.43926 5.85102
#
# Compressibility (1/GPa) = 0.03569291
#
# Stress axis : x y z
#
# Youngs Moduli (GPa) = 89.30611 38.38569 66.69364
#
# Poissons Ratio (x) = 0.08030 0.30435
# Poissons Ratio (y) = 0.18682 0.10801
# Poissons Ratio (z) = 0.40755 0.06217
#
# Static dielectric constant tensor:
#      x y z
#    x 1.870140 -0.008490 -0.006870 
#    y -0.008490 1.824780 -0.019980 
#    z -0.006870 -0.019980 1.805190 
# 
# From -- ./inp_files/187032.got.cif
#   From: 2010.05.17/outbox.cif.g08.bks.cpg/sg2_94_cif.got.tgz:187032.got - 2010.06.03 11:33:40.
