data_PCOD9024105
_publ_section_title
;
Structure prediction by ZEFSAII (Michael W. Deem and Ramdas Pophale) SiO2 
 PCOD9024105
Probable space group: P -1
;
_chemical_formula_sum "Si O2"
_cell_formula_units_Z 10
_cell_length_a 11.226214
_cell_length_b 8.502427
_cell_length_c 11.548881
_cell_angle_alpha 81.169710
_cell_angle_beta 154.578102
_cell_angle_gamma 86.078636
_cell_volume 408.129922
_symmetry_space_group_name_H-M "P -1"
_symmetry_group_IT_number 2
_symmetry_cell_setting 'triclinic'
loop_
_space_group_symop_operation_xyz
x,y,z
-x,-y,-z
loop_
_atom_site_type_symbol
_atom_site_label
_atom_site_fract_x
_atom_site_fract_y
_atom_site_fract_z
Si Si1 0.504442 0.770070 0.468279
Si Si2 0.562974 0.623547 0.291851
Si Si3 0.724382 0.591319 0.065243
Si Si4 0.150932 0.179048 0.035854
Si Si5 0.325911 0.881193 0.865000
O O1 0.565520 0.634907 0.431223
O O2 0.791392 0.725877 0.811551
O O3 0.401915 0.965948 0.297033
O O4 0.198525 0.797570 0.268261
O O5 0.922184 0.567969 0.576339
O O6 0.457006 0.483027 0.166552
O O7 0.319508 0.816137 0.997115
O O8 0.782196 0.736952 0.027656
O O9 0.519479 0.693588 0.984849
O O10 0.000000 0.000000 0.500000
O O11 0.500000 0.000000 0.000000
#
# Coordination Sequence:
#
# PCOD9024105 Si02
#       5
#     2   2   2   2   2
#     4  10  22  40  63  92 128 170 213 254 305 376
#     4  12  25  42  66  97 132 164 208 267 323 373
#     4  12  25  42  66  97 132 164 208 267 323 373
#     4  10  22  40  63  92 128 170 213 254 305 376
#     4  12  26  46  70  92 124 170 218 260 314 384
#
# _framework density 24.502003999999999
#
# number of rings (size 3 to 8) (size 9 to 14) (size 15 to 20)
#    0.000    0.800    0.000    7.200    0.000    9.600 
#    0.000    0.000    0.000    0.000    0.000    0.000 
#    0.000    0.000    0.000    0.000    0.000    0.000 
#
# Total GULP energy -56086.222429 kJ/mol
# GULP energy per Si atom -5608.622243 kJ/mol
# Density = 2.444624 g / cm^3
# Si number density = 24.502004 Si / 1000 Ang^3
#
#
#
# Elastic Constant Matrix: (Units=GPa)
#
#
# Indices 1 2 3 4 5 6 
#
# 1 55.7001 -2.4968 -2.4613 -1.4507 -17.5136 2.2405
# 2 -2.4968 74.8302 6.9405 22.2052 -10.2270 -3.6009
# 3 -2.4613 6.9405 128.5353 14.9198 -5.5150 -2.4825
# 4 -1.4507 22.2052 14.9198 46.6369 2.9450 -6.9959
# 5 -17.5136 -10.2270 -5.5150 2.9450 36.3416 -5.8642
# 6 2.2405 -3.6009 -2.4825 -6.9959 -5.8642 44.5407
#
#
#
# Elastic Compliance Matrix: (Units=1/GPa)
#
#
# Indices 1 2 3 4 5 6 
#
# 1 0.021693 0.002707 0.000958 -0.001582 0.011563 0.000455
# 2 0.002707 0.016900 0.000430 -0.008411 0.006944 0.000847
# 3 0.000958 0.000430 0.008206 -0.002893 0.002105 0.000267
# 4 -0.001582 -0.008411 -0.002893 0.027078 -0.005312 0.002792
# 5 0.011563 0.006944 0.002105 -0.005312 0.036448 0.004061
# 6 0.000455 0.000847 0.000267 0.002792 0.004061 0.023485
#
#
# Mechanical properties :
#
#
# Convention : Reuss Voigt Hill
#
# Bulk Modulus (GPa) = 18.18573 29.22560 23.70566
# Shear Modulus (GPa) = 34.73404 42.64274 38.68839
#
# Velocity S-wave (km/s) = 3.76919 4.17631 3.97796
# Velocity P-wave (km/s) = 5.13621 5.93373 5.54931
#
# Compressibility (1/GPa) = 0.05498818
#
# Stress axis : x y z
#
# Youngs Moduli (GPa) = 46.09755 59.17248 121.85599
#
# Poissons Ratio (x) = -0.16016 -0.11672
# Poissons Ratio (y) = -0.12477 -0.05239
# Poissons Ratio (z) = -0.04415 -0.02544
#
# Static dielectric constant tensor:
#      x y z
#    x 1.945100 -0.016700 -0.016580 
#    y -0.016700 1.950370 -0.036110 
#    z -0.016580 -0.036110 1.901020 
# 
# From -- ./inp_files/265.got.cif
#   From: 2010.05.17/outbox.cif.g08.bks.cpg/sg2_1_cif.got.tgz:265.got - 2010.06.03 11:33:40.
