data_PCOD9024542
_publ_section_title
;
Structure prediction by ZEFSAII (Michael W. Deem and Ramdas Pophale) SiO2 
 PCOD9024542
Probable space group: P -1
;
_chemical_formula_sum "Si O2"
_cell_formula_units_Z 16
_cell_length_a 9.780128
_cell_length_b 17.988849
_cell_length_c 21.778777
_cell_angle_alpha 20.124611
_cell_angle_beta 40.117077
_cell_angle_gamma 39.372102
_cell_volume 822.900640
_symmetry_space_group_name_H-M "P -1"
_symmetry_group_IT_number 2
_symmetry_cell_setting 'triclinic'
loop_
_space_group_symop_operation_xyz
x,y,z
-x,-y,-z
loop_
_atom_site_type_symbol
_atom_site_label
_atom_site_fract_x
_atom_site_fract_y
_atom_site_fract_z
Si Si1 0.522238 0.621810 0.486178
Si Si2 0.131186 0.527664 0.619833
Si Si3 0.210173 0.581988 0.340455
Si Si4 0.997998 0.065417 0.021841
Si Si5 0.693294 0.785423 0.616265
Si Si6 0.500033 0.906987 0.828817
Si Si7 0.502144 0.543219 0.776225
Si Si8 0.231030 0.000365 0.452058
O O1 0.305598 0.562512 0.583142
O O2 0.731191 0.496350 0.471531
O O3 0.581673 0.545446 0.593744
O O4 0.501364 0.885403 0.286950
O O5 0.916849 0.730822 0.542011
O O6 0.067792 0.292695 0.833035
O O7 0.283978 0.525468 0.288593
O O8 0.000000 0.500000 0.500000
O O9 0.157023 0.845531 0.166169
O O10 0.749499 0.080766 0.114248
O O11 0.000000 0.000000 0.000000
O O12 0.579909 0.596204 0.776540
O O13 0.767571 0.820318 0.632909
O O14 0.500000 0.000000 0.500000
O O15 0.627245 0.941863 0.697255
O O16 0.588066 0.674903 0.014376
O O17 0.340503 0.760427 0.632891
O O18 0.000000 0.000000 0.500000
#
# Coordination Sequence:
#
# PCOD9024542 Si02
#       8
#     2   2   2   2   2   2   2   2
#     4  11  23  37  66 100 134 173 209 269 352 401
#     4  11  22  41  62  94 140 170 208 282 337 387
#     4  12  20  35  65  97 133 171 218 261 335 407
#     4  12  20  37  64  94 126 169 216 266 328 399
#     4  10  22  40  65  90 128 177 224 273 324 381
#     4  12  22  41  69  99 125 173 227 268 335 398
#     4  11  22  40  67  96 128 169 227 275 316 396
#     4  11  25  44  66  94 134 178 223 275 334 392
#
# _framework density 19.443417
#
# number of rings (size 3 to 8) (size 9 to 14) (size 15 to 20)
#    0.000    0.750    6.250    1.500    0.000    2.500 
#    0.000    0.000    0.000    0.000    0.000    0.000 
#    0.000    0.000    0.000    0.000    0.000    0.000 
#
# Total GULP energy -89209.886827 kJ/mol
# GULP energy per Si atom -5575.617927 kJ/mol
# Density = 1.939916 g / cm^3
# Si number density = 19.443417 Si / 1000 Ang^3
#
#
#
# Elastic Constant Matrix: (Units=GPa)
#
#
# Indices 1 2 3 4 5 6 
#
# 1 116.5855 42.4246 45.1259 0.1844 -18.6811 3.5593
# 2 42.4246 116.7299 44.6806 -1.0931 -8.0308 1.0201
# 3 45.1259 44.6806 107.3776 -11.2996 -6.3628 -7.4484
# 4 0.1844 -1.0931 -11.2996 32.6907 -0.2112 -0.9807
# 5 -18.6811 -8.0308 -6.3628 -0.2112 30.7264 2.7563
# 6 3.5593 1.0201 -7.4484 -0.9807 2.7563 28.1696
#
#
#
# Elastic Compliance Matrix: (Units=1/GPa)
#
#
# Indices 1 2 3 4 5 6 
#
# 1 0.012137 -0.002391 -0.004134 -0.001633 0.006174 -0.003201
# 2 -0.002391 0.010889 -0.003660 -0.000918 0.000732 -0.001163
# 3 -0.004134 -0.003660 0.013304 0.004626 -0.001081 0.004439
# 4 -0.001633 -0.000918 0.004626 0.032244 -0.000288 0.002613
# 5 0.006174 0.000732 -0.001081 -0.000288 0.036685 -0.004692
# 6 -0.003201 -0.001163 0.004439 0.002613 -0.004692 0.037670
#
#
# Mechanical properties :
#
#
# Convention : Reuss Voigt Hill
#
# Bulk Modulus (GPa) = 62.65755 67.23948 64.94851
# Shear Modulus (GPa) = 29.65280 32.21481 30.93380
#
# Velocity S-wave (km/s) = 3.90947 4.07486 3.99302
# Velocity P-wave (km/s) = 7.25769 7.53634 7.39833
#
# Compressibility (1/GPa) = 0.01595977
#
# Stress axis : x y z
#
# Youngs Moduli (GPa) = 82.39095 91.83809 75.16760
#
# Poissons Ratio (x) = 0.21963 0.31072
# Poissons Ratio (y) = 0.19704 0.27509
# Poissons Ratio (z) = 0.34058 0.33610
#
# Static dielectric constant tensor:
#      x y z
#    x 1.708490 0.016000 0.011210 
#    y 0.016000 1.733920 -0.029540 
#    z 0.011210 -0.029540 1.697740 
# 
# From -- ./inp_files/338186.got.cif
#   From: 2010.05.17/outbox.cif.g08.bks.cpg/sg2_170_cif.got.tgz:338186.got - 2010.06.03 11:33:40.
