data_PCOD9024939
_publ_section_title
;
Structure prediction by ZEFSAII (Michael W. Deem and Ramdas Pophale) SiO2 
 PCOD9024939
Probable space group: P -1
;
_chemical_formula_sum "Si O2"
_cell_formula_units_Z 16
_cell_length_a 10.913298
_cell_length_b 12.352466
_cell_length_c 7.858345
_cell_angle_alpha 122.907210
_cell_angle_beta 51.308792
_cell_angle_gamma 119.249775
_cell_volume 676.002137
_symmetry_space_group_name_H-M "P -1"
_symmetry_group_IT_number 2
_symmetry_cell_setting 'triclinic'
loop_
_space_group_symop_operation_xyz
x,y,z
-x,-y,-z
loop_
_atom_site_type_symbol
_atom_site_label
_atom_site_fract_x
_atom_site_fract_y
_atom_site_fract_z
Si Si1 0.053901 0.261620 0.689359
Si Si2 0.000363 0.676846 0.812499
Si Si3 0.287006 0.120997 0.494310
Si Si4 0.420107 0.024344 0.887434
Si Si5 0.467134 0.611879 0.497143
Si Si6 0.162614 0.957191 0.779435
Si Si7 0.306417 0.796466 0.020231
Si Si8 0.195193 0.449577 0.423657
O O1 0.867694 0.245240 0.777961
O O2 0.148847 0.143327 0.503280
O O3 0.157313 0.365361 0.557698
O O4 0.040780 0.295934 0.932612
O O5 0.850799 0.641037 0.780269
O O6 0.125021 0.803525 0.731718
O O7 0.081073 0.552786 0.625962
O O8 0.449820 0.066121 0.298153
O O9 0.374876 0.275405 0.587692
O O10 0.194128 0.012355 0.611816
O O11 0.321004 0.028547 0.808417
O O12 0.532196 0.163137 0.968799
O O13 0.295613 0.933408 0.048797
O O14 0.500000 0.500000 0.500000
O O15 0.376112 0.536176 0.349822
O O16 0.342706 0.685745 0.766586
O O17 0.000000 0.000000 0.000000
#
# Coordination Sequence:
#
# PCOD9024939 Si02
#       8
#     2   2   2   2   2   2   2   2
#     4  12  22  46  70 102 138 189 240 287 350 415
#     4  11  24  45  69 104 137 181 239 291 351 415
#     4  11  24  41  70 101 136 192 229 289 365 412
#     4  10  22  42  63  99 139 183 228 288 359 418
#     4  11  22  44  65  97 142 182 231 300 348 414
#     4  12  23  45  70  97 145 181 230 298 350 423
#     4  10  22  40  66  96 137 185 230 288 351 420
#     4  11  25  43  74 100 139 188 239 291 351 426
#
# _framework density 23.668564
#
# number of rings (size 3 to 8) (size 9 to 14) (size 15 to 20)
#    0.000    1.000    5.000    1.500    1.750    1.500 
#    4.500    0.625    0.000    0.000    0.000    0.000 
#    0.000    0.000    0.000    0.000    0.000    0.000 
#
# Total GULP energy -89181.333605 kJ/mol
# GULP energy per Si atom -5573.833350 kJ/mol
# Density = 2.361469 g / cm^3
# Si number density = 23.668564 Si / 1000 Ang^3
#
#
#
# Elastic Constant Matrix: (Units=GPa)
#
#
# Indices 1 2 3 4 5 6 
#
# 1 116.9729 34.1312 14.5399 20.5511 7.2817 11.7961
# 2 34.1312 82.2076 30.4933 3.0263 21.5218 -13.4749
# 3 14.5399 30.4933 55.1720 6.6096 -12.4989 -4.3778
# 4 20.5511 3.0263 6.6096 15.3239 3.5902 1.1109
# 5 7.2817 21.5218 -12.4989 3.5902 31.8110 4.2225
# 6 11.7961 -13.4749 -4.3778 1.1109 4.2225 54.4829
#
#
#
# Elastic Compliance Matrix: (Units=1/GPa)
#
#
# Indices 1 2 3 4 5 6 
#
# 1 0.015199 -0.012205 0.007607 -0.023441 0.011221 -0.006090
# 2 -0.012205 0.041436 -0.032162 0.031218 -0.043127 0.013012
# 3 0.007607 -0.032162 0.047110 -0.033737 0.043464 -0.008497
# 4 -0.023441 0.031218 -0.033737 0.114444 -0.043402 0.011116
# 5 0.011221 -0.043127 0.043464 -0.043402 0.082021 -0.015075
# 6 -0.006090 0.013012 -0.008497 0.011116 -0.015075 0.023150
#
#
# Mechanical properties :
#
#
# Convention : Reuss Voigt Hill
#
# Bulk Modulus (GPa) = 33.08561 45.85346 39.46954
# Shear Modulus (GPa) = 12.28636 32.00279 22.14458
#
# Velocity S-wave (km/s) = 2.28085 3.68111 3.06209
# Velocity P-wave (km/s) = 4.57662 6.12231 5.40500
#
# Compressibility (1/GPa) = 0.03022462
#
# Stress axis : x y z
#
# Youngs Moduli (GPa) = 65.79526 24.13378 21.22680
#
# Poissons Ratio (x) = 0.29455 -0.16148
# Poissons Ratio (y) = 0.80302 0.68271
# Poissons Ratio (z) = -0.50052 0.77620
#
# Static dielectric constant tensor:
#      x y z
#    x 1.972310 -0.078680 0.127210 
#    y -0.078680 3.333880 -0.740540 
#    z 0.127210 -0.740540 2.516960 
# 
# From -- ./inp_files/259870.got.cif
#   From: 2010.05.17/outbox.cif.g08.bks.cpg/sg2_130_cif.got.tgz:259870.got - 2010.06.03 11:33:40.
