data_PCOD9024926
_publ_section_title
;
Structure prediction by ZEFSAII (Michael W. Deem and Ramdas Pophale) SiO2 
 PCOD9024926
Probable space group: P -1
;
_chemical_formula_sum "Si O2"
_cell_formula_units_Z 15
_cell_length_a 9.020594
_cell_length_b 11.852527
_cell_length_c 19.201813
_cell_angle_alpha 27.811585
_cell_angle_beta 44.361451
_cell_angle_gamma 43.554168
_cell_volume 642.310764
_symmetry_space_group_name_H-M "P -1"
_symmetry_group_IT_number 2
_symmetry_cell_setting 'triclinic'
loop_
_space_group_symop_operation_xyz
x,y,z
-x,-y,-z
loop_
_atom_site_type_symbol
_atom_site_label
_atom_site_fract_x
_atom_site_fract_y
_atom_site_fract_z
Si Si1 0.647210 0.792086 0.615262
Si Si2 0.500000 0.500000 0.500000
Si Si3 0.993708 0.449251 0.919680
Si Si4 0.782777 0.944647 0.631380
Si Si5 0.930306 0.500740 0.442132
Si Si6 0.906733 0.020870 0.096847
Si Si7 0.642694 0.583103 0.083214
Si Si8 0.514715 0.940945 0.212960
O O1 0.648475 0.899941 0.633841
O O2 0.551656 0.549450 0.781199
O O3 0.891432 0.714893 0.542681
O O4 0.500000 0.000000 0.500000
O O5 0.686837 0.486696 0.512176
O O6 0.647512 0.653278 0.314669
O O7 0.231052 0.451213 0.867350
O O8 0.867060 0.696786 0.785122
O O9 0.004368 0.211405 0.000018
O O10 0.832318 0.438970 0.044080
O O11 0.642512 0.144806 0.627207
O O12 0.000000 0.000000 0.500000
O O13 0.000000 0.500000 0.500000
O O14 0.956906 0.762366 0.261437
O O15 0.642853 0.097691 0.130505
O O16 0.000000 0.000000 0.000000
O O17 0.578050 0.875669 0.919412
#
# Coordination Sequence:
#
# PCOD9024926 Si02
#       8
#     2   1   2   2   2   2   2   2
#     4  12  26  43  69 101 140 178 236 293 345 419
#     4  10  24  44  70  96 144 184 228 280 360 424
#     4  10  22  40  68  95 135 183 225 287 343 421
#     4  11  22  40  65  96 134 174 232 280 348 409
#     4  11  27  46  70 103 143 187 234 290 360 426
#     4  11  23  43  66  93 134 180 232 280 354 417
#     4  10  22  41  65 100 133 174 235 285 347 406
#     4  10  22  40  66  96 128 180 225 285 343 415
#
# _framework density 23.353180999999999
#
# number of rings (size 3 to 8) (size 9 to 14) (size 15 to 20)
#    0.000    1.333    0.000    4.800    7.467    4.267 
#    7.200    1.333    0.000    0.000    0.000    0.000 
#    0.000    0.000    0.000    0.000    0.000    0.000 
#
# Total GULP energy -83667.930538 kJ/mol
# GULP energy per Si atom -5577.862036 kJ/mol
# Density = 2.330003 g / cm^3
# Si number density = 23.353181 Si / 1000 Ang^3
#
#
#
# Elastic Constant Matrix: (Units=GPa)
#
#
# Indices 1 2 3 4 5 6 
#
# 1 178.3039 35.5817 63.5723 -5.5189 12.5718 18.5228
# 2 35.5817 53.3188 22.5013 -2.6018 6.7860 11.2395
# 3 63.5723 22.5013 115.5734 -3.7287 13.0898 7.5744
# 4 -5.5189 -2.6018 -3.7287 33.4535 -8.3730 0.7870
# 5 12.5718 6.7860 13.0898 -8.3730 52.6451 -2.5960
# 6 18.5228 11.2395 7.5744 0.7870 -2.5960 42.5395
#
#
#
# Elastic Compliance Matrix: (Units=1/GPa)
#
#
# Indices 1 2 3 4 5 6 
#
# 1 0.007726 -0.003201 -0.003414 0.000543 -0.000594 -0.001957
# 2 -0.003201 0.023011 -0.002209 0.000678 -0.001762 -0.004413
# 3 -0.003414 -0.002209 0.011152 0.000093 -0.001659 -0.000019
# 4 0.000543 0.000678 0.000093 0.031236 0.004692 -0.000724
# 5 -0.000594 -0.001762 -0.001659 0.004692 0.020631 0.002192
# 6 -0.001957 -0.004413 -0.000019 -0.000724 0.002192 0.025676
#
#
# Mechanical properties :
#
#
# Convention : Reuss Voigt Hill
#
# Bulk Modulus (GPa) = 41.24893 65.61186 53.43040
# Shear Modulus (GPa) = 34.44469 40.76369 37.60419
#
# Velocity S-wave (km/s) = 3.84467 4.18249 4.01713
# Velocity P-wave (km/s) = 6.11638 7.17501 6.66674
#
# Compressibility (1/GPa) = 0.02424305
#
# Stress axis : x y z
#
# Youngs Moduli (GPa) = 129.42941 43.45778 89.66659
#
# Poissons Ratio (x) = 0.13910 0.30609
# Poissons Ratio (y) = 0.41428 0.19805
# Poissons Ratio (z) = 0.44183 0.09599
#
# Static dielectric constant tensor:
#      x y z
#    x 1.954360 -0.071160 -0.066290 
#    y -0.071160 2.256230 -0.081100 
#    z -0.066290 -0.081100 1.994330 
# 
# From -- ./inp_files/158819.got.cif
#   From: 2010.05.17/outbox.cif.g08.bks.cpg/sg2_80_cif.got.tgz:158819.got - 2010.06.03 11:33:40.
