data_PCOD9024380
_publ_section_title
;
Structure prediction by ZEFSAII (Michael W. Deem and Ramdas Pophale) SiO2 
 PCOD9024380
Probable space group: P -1
;
_chemical_formula_sum "Si O2"
_cell_formula_units_Z 15
_cell_length_a 8.372879
_cell_length_b 5.583420
_cell_length_c 19.764275
_cell_angle_alpha 105.518704
_cell_angle_beta 139.384742
_cell_angle_gamma 78.530881
_cell_volume 579.538644
_symmetry_space_group_name_H-M "P -1"
_symmetry_group_IT_number 2
_symmetry_cell_setting 'triclinic'
loop_
_space_group_symop_operation_xyz
x,y,z
-x,-y,-z
loop_
_atom_site_type_symbol
_atom_site_label
_atom_site_fract_x
_atom_site_fract_y
_atom_site_fract_z
Si Si1 0.027377 0.634072 0.255910
Si Si2 0.475777 0.631806 0.748201
Si Si3 0.715677 0.814650 0.068712
Si Si4 0.034130 0.460364 0.397433
Si Si5 0.452162 0.230557 0.594385
Si Si6 0.260214 0.596592 0.059904
Si Si7 0.957539 0.842451 0.876932
Si Si8 0.000000 0.000000 0.500000
O O1 0.021402 0.529857 0.320772
O O2 0.268130 0.810310 0.340739
O O3 0.027060 0.402179 0.184793
O O4 0.783362 0.776651 0.165342
O O5 0.480039 0.463199 0.670948
O O6 0.554010 0.453352 0.822533
O O7 0.684584 0.838209 0.819059
O O8 0.196978 0.721790 0.672984
O O9 0.649522 0.579906 0.984700
O O10 0.968469 0.922857 0.125944
O O11 0.500000 0.000000 0.000000
O O12 0.283863 0.325705 0.486206
O O13 0.991245 0.708928 0.446857
O O14 0.285751 0.028726 0.563868
O O15 0.000000 0.500000 0.000000
O O16 0.161414 0.825111 0.000330
#
# Coordination Sequence:
#
# PCOD9024380 Si02
#       8
#     2   2   2   2   2   2   2   1
#     4  10  24  42  66  89 129 171 208 257 324 384
#     4   9  19  37  63  89 118 166 204 252 312 373
#     4  11  25  40  63 101 128 164 219 265 319 382
#     4  11  23  40  64  94 125 167 214 257 318 377
#     4  10  22  43  62  93 125 168 210 259 319 374
#     4   9  20  40  63  93 127 168 209 260 319 387
#     4   9  21  41  63  88 132 165 205 263 317 377
#     4  10  22  40  64  94 132 152 212 280 296 370
#
# _framework density 25.882657999999999
#
# number of rings (size 3 to 8) (size 9 to 14) (size 15 to 20)
#    0.000    2.133    0.000    2.800    3.733    8.000 
#    2.400    0.000    0.000    0.000    0.000    0.000 
#    0.000    0.000    0.000    0.000    0.000    0.000 
#
# Total GULP energy -83661.425717 kJ/mol
# GULP energy per Si atom -5577.428381 kJ/mol
# Density = 2.582375 g / cm^3
# Si number density = 25.882658 Si / 1000 Ang^3
#
#
#
# Elastic Constant Matrix: (Units=GPa)
#
#
# Indices 1 2 3 4 5 6 
#
# 1 72.3201 12.6820 46.2666 8.5450 9.5722 14.7424
# 2 12.6820 43.2889 28.5372 13.7778 2.6002 1.7629
# 3 46.2666 28.5372 176.1206 -23.3817 0.5337 5.1909
# 4 8.5450 13.7778 -23.3817 40.6037 14.4198 7.6296
# 5 9.5722 2.6002 0.5337 14.4198 49.7785 4.8766
# 6 14.7424 1.7629 5.1909 7.6296 4.8766 49.5762
#
#
#
# Elastic Compliance Matrix: (Units=1/GPa)
#
#
# Indices 1 2 3 4 5 6 
#
# 1 0.019238 0.000477 -0.005846 -0.006312 -0.001440 -0.004013
# 2 0.000477 0.033506 -0.007944 -0.017511 0.003131 0.001885
# 3 -0.005846 -0.007944 0.009876 0.010223 -0.001485 -0.000440
# 4 -0.006312 -0.017511 0.010223 0.042015 -0.009753 -0.004077
# 5 -0.001440 0.003131 -0.001485 -0.009753 0.023072 -0.000296
# 6 -0.004013 0.001885 -0.000440 -0.004077 -0.000296 0.022000
#
#
# Mechanical properties :
#
#
# Convention : Reuss Voigt Hill
#
# Bulk Modulus (GPa) = 27.78336 51.85569 39.81953
# Shear Modulus (GPa) = 26.54877 41.60795 34.07836
#
# Velocity S-wave (km/s) = 3.20619 4.01379 3.63250
# Velocity P-wave (km/s) = 4.94609 6.44663 5.74556
#
# Compressibility (1/GPa) = 0.03599277
#
# Stress axis : x y z
#
# Youngs Moduli (GPa) = 51.97934 29.84521 101.25913
#
# Poissons Ratio (x) = -0.01423 0.59201
# Poissons Ratio (y) = -0.02478 0.80441
# Poissons Ratio (z) = 0.30390 0.23709
#
# Static dielectric constant tensor:
#      x y z
#    x 2.097530 0.072380 -0.021480 
#    y 0.072380 2.142430 -0.084860 
#    z -0.021480 -0.084860 2.080580 
# 
# From -- ./inp_files/84948.got.cif
#   From: 2010.05.17/outbox.cif.g08.bks.cpg/sg2_43_cif.got.tgz:84948.got - 2010.06.03 11:33:40.
