data_PCOD9024218
_publ_section_title
;
Structure prediction by ZEFSAII (Michael W. Deem and Ramdas Pophale) SiO2 
 PCOD9024218
Probable space group: P -1
;
_chemical_formula_sum "Si O2"
_cell_formula_units_Z 16
_cell_length_a 7.993312
_cell_length_b 16.266013
_cell_length_c 23.222015
_cell_angle_alpha 27.731152
_cell_angle_beta 35.605886
_cell_angle_gamma 52.358339
_cell_volume 748.933914
_symmetry_space_group_name_H-M "P -1"
_symmetry_group_IT_number 2
_symmetry_cell_setting 'triclinic'
loop_
_space_group_symop_operation_xyz
x,y,z
-x,-y,-z
loop_
_atom_site_type_symbol
_atom_site_label
_atom_site_fract_x
_atom_site_fract_y
_atom_site_fract_z
Si Si1 0.859813 0.520653 0.727217
Si Si2 0.124113 0.367252 0.010401
Si Si3 0.157914 0.873469 0.505074
Si Si4 0.801977 0.953385 0.226201
Si Si5 0.975001 0.931553 0.319810
Si Si6 0.356802 0.599827 0.694622
Si Si7 0.397369 0.742882 0.363953
Si Si8 0.239946 0.318854 0.807973
O O1 0.492099 0.422819 0.882912
O O2 0.957099 0.729753 0.600504
O O3 0.081022 0.563087 0.582740
O O4 0.974817 0.389001 0.816685
O O5 0.122503 0.437376 0.902066
O O6 0.000000 0.500000 0.000000
O O7 0.962896 0.138169 0.206805
O O8 0.506822 0.994889 0.307435
O O9 0.197777 0.730109 0.630081
O O10 0.000000 0.000000 0.500000
O O11 0.946337 0.905556 0.273963
O O12 0.622656 0.796369 0.324104
O O13 0.070288 0.124167 0.011893
O O14 0.669057 0.756041 0.539022
O O15 0.277799 0.908990 0.275453
O O16 0.449244 0.486894 0.688401
O O17 0.571860 0.705397 0.284004
#
# Coordination Sequence:
#
# PCOD9024218 Si02
#       8
#     2   2   2   2   2   2   2   2
#     4  10  23  41  62  98 135 168 232 273 328 415
#     4  12  26  43  68  98 133 179 222 281 345 393
#     4   9  21  39  68  91 127 181 218 275 345 386
#     4  10  22  40  64 100 138 165 233 276 319 412
#     4  11  24  45  67  99 140 173 230 281 328 409
#     4  10  23  44  63  97 138 169 224 283 324 415
#     4  11  23  43  70  98 137 185 219 278 347 391
#     4  11  22  43  69  96 136 178 222 283 336 396
#
# _framework density 21.363700999999999
#
# number of rings (size 3 to 8) (size 9 to 14) (size 15 to 20)
#    0.000    1.500    2.500    2.250    3.500    4.500 
#    2.250    2.500    0.000    0.000    0.000    0.000 
#    0.000    0.000    0.000    0.000    0.000    0.000 
#
# Total GULP energy -89315.510587 kJ/mol
# GULP energy per Si atom -5582.219412 kJ/mol
# Density = 2.131508 g / cm^3
# Si number density = 21.363701 Si / 1000 Ang^3
#
#
#
# Elastic Constant Matrix: (Units=GPa)
#
#
# Indices 1 2 3 4 5 6 
#
# 1 64.1848 4.7162 -4.0519 -1.1614 3.5597 5.8029
# 2 4.7162 78.6970 -10.2076 -0.3316 3.8755 2.6630
# 3 -4.0519 -10.2076 59.1184 -6.7716 -2.2066 -5.0580
# 4 -1.1614 -0.3316 -6.7716 24.3944 3.1332 5.6357
# 5 3.5597 3.8755 -2.2066 3.1332 28.9863 0.5552
# 6 5.8029 2.6630 -5.0580 5.6357 0.5552 18.9719
#
#
#
# Elastic Compliance Matrix: (Units=1/GPa)
#
#
# Indices 1 2 3 4 5 6 
#
# 1 0.016316 -0.000586 0.000765 0.002486 -0.002033 -0.005383
# 2 -0.000586 0.013161 0.002199 0.001299 -0.001634 -0.001420
# 3 0.000765 0.002199 0.018118 0.004347 0.000464 0.002983
# 4 0.002486 0.001299 0.004347 0.046038 -0.004869 -0.013317
# 5 -0.002033 -0.001634 0.000464 -0.004869 0.035502 0.001382
# 6 -0.005383 -0.001420 0.002983 -0.013317 0.001382 0.059266
#
#
# Mechanical properties :
#
#
# Convention : Reuss Voigt Hill
#
# Bulk Modulus (GPa) = 19.10166 20.32371 19.71269
# Shear Modulus (GPa) = 24.86395 28.57343 26.71869
#
# Velocity S-wave (km/s) = 3.41521 3.66112 3.54030
# Velocity P-wave (km/s) = 4.95097 5.23503 5.09498
#
# Compressibility (1/GPa) = 0.05235148
#
# Stress axis : x y z
#
# Youngs Moduli (GPa) = 61.29038 75.98076 55.19455
#
# Poissons Ratio (x) = 0.04451 -0.04225
# Poissons Ratio (y) = 0.03590 -0.12135
# Poissons Ratio (z) = -0.04692 -0.16706
#
# Static dielectric constant tensor:
#      x y z
#    x 1.852740 0.025680 -0.006200 
#    y 0.025680 1.754540 -0.020370 
#    z -0.006200 -0.020370 1.789500 
# 
# From -- ./inp_files/270806.got.cif
#   From: 2010.05.17/outbox.cif.g08.bks.cpg/sg2_136_cif.got.tgz:270806.got - 2010.06.03 11:33:40.
