data_PCOD9024356
_publ_section_title
;
Structure prediction by ZEFSAII (Michael W. Deem and Ramdas Pophale) SiO2 
 PCOD9024356
Probable space group: P -1
;
_chemical_formula_sum "Si O2"
_cell_formula_units_Z 16
_cell_length_a 15.006638
_cell_length_b 14.363672
_cell_length_c 8.438660
_cell_angle_alpha 36.534372
_cell_angle_beta 140.673003
_cell_angle_gamma 144.445443
_cell_volume 590.703817
_symmetry_space_group_name_H-M "P -1"
_symmetry_group_IT_number 2
_symmetry_cell_setting 'triclinic'
loop_
_space_group_symop_operation_xyz
x,y,z
-x,-y,-z
loop_
_atom_site_type_symbol
_atom_site_label
_atom_site_fract_x
_atom_site_fract_y
_atom_site_fract_z
Si Si1 0.145445 0.969256 0.300535
Si Si2 0.375803 0.980685 0.214705
Si Si3 0.520312 0.258019 0.794918
Si Si4 0.331681 0.570775 0.552607
Si Si5 0.974045 0.668854 0.698199
Si Si6 0.577669 0.725311 0.911940
Si Si7 0.948449 0.296345 0.745407
Si Si8 0.758841 0.643512 0.734212
O O1 0.141650 0.828302 0.358969
O O2 0.115208 0.865576 0.566579
O O3 0.308363 0.160021 0.235636
O O4 0.000000 0.000000 0.000000
O O5 0.347078 0.142545 0.017483
O O6 0.500000 0.000000 0.500000
O O7 0.197429 0.804596 0.187605
O O8 0.475518 0.068714 0.072043
O O9 0.619135 0.301916 0.706602
O O10 0.638855 0.425185 0.847669
O O11 0.358145 0.272988 0.529072
O O12 0.145392 0.414046 0.505299
O O13 0.399594 0.668490 0.678766
O O14 0.421708 0.456140 0.804646
O O15 0.871305 0.691781 0.665281
O O16 0.000000 0.500000 0.000000
O O17 0.000000 0.500000 0.500000
O O18 0.110253 0.298627 0.023902
#
# Coordination Sequence:
#
# PCOD9024356 Si02
#       8
#     2   2   2   2   2   2   2   2
#     4  11  24  42  66  95 131 168 219 270 322 382
#     4  11  24  42  63  92 133 167 215 268 328 383
#     4  10  22  40  65  92 128 172 211 279 318 387
#     4  10  22  41  67  94 127 168 221 256 333 386
#     4  11  23  40  64  95 135 172 211 272 330 388
#     4  10  22  41  65  95 123 170 216 268 312 394
#     4  11  25  42  66  97 130 173 219 267 327 395
#     4  10  22  40  64  93 131 166 220 259 331 385
#
# _framework density 27.086333
#
# number of rings (size 3 to 8) (size 9 to 14) (size 15 to 20)
#    0.000    1.500    1.250    3.750    3.500    7.500 
#    0.000    1.250    0.000    0.000    0.000    0.000 
#    0.000    0.000    0.000    0.000    0.000    0.000 
#
# Total GULP energy -89587.415320 kJ/mol
# GULP energy per Si atom -5599.213457 kJ/mol
# Density = 2.702468 g / cm^3
# Si number density = 27.086333 Si / 1000 Ang^3
#
#
#
# Elastic Constant Matrix: (Units=GPa)
#
#
# Indices 1 2 3 4 5 6 
#
# 1 58.6234 10.1318 13.7708 -16.9881 -8.0957 5.7378
# 2 10.1318 130.7124 40.3086 -8.6711 -6.2971 4.0266
# 3 13.7708 40.3086 117.4580 -16.2013 -14.1771 25.5507
# 4 -16.9881 -8.6711 -16.2013 54.1838 21.7376 -3.1787
# 5 -8.0957 -6.2971 -14.1771 21.7376 41.5386 -6.5522
# 6 5.7378 4.0266 25.5507 -3.1787 -6.5522 47.9354
#
#
#
# Elastic Compliance Matrix: (Units=1/GPa)
#
#
# Indices 1 2 3 4 5 6 
#
# 1 0.019146 -0.000793 -0.000900 0.005427 0.000251 -0.001351
# 2 -0.000793 0.008642 -0.003047 0.000218 0.000164 0.001030
# 3 -0.000900 -0.003047 0.011230 0.001684 0.001477 -0.005309
# 4 0.005427 0.000218 0.001684 0.025358 -0.011842 -0.001503
# 5 0.000251 0.000164 0.001477 -0.011842 0.031268 0.002658
# 6 -0.001351 0.001030 -0.005309 -0.001503 0.002658 0.024030
#
#
# Mechanical properties :
#
#
# Convention : Reuss Voigt Hill
#
# Bulk Modulus (GPa) = 33.85350 48.35736 41.10543
# Shear Modulus (GPa) = 35.97123 44.90372 40.43748
#
# Velocity S-wave (km/s) = 3.64816 4.07603 3.86801
# Velocity P-wave (km/s) = 5.50190 6.32802 5.92936
#
# Compressibility (1/GPa) = 0.02953904
#
# Stress axis : x y z
#
# Youngs Moduli (GPa) = 52.23029 115.71273 89.04559
#
# Poissons Ratio (x) = 0.09174 0.08012
# Poissons Ratio (y) = 0.04141 0.27132
# Poissons Ratio (z) = 0.04700 0.35257
#
# Static dielectric constant tensor:
#      x y z
#    x 2.271110 -0.044970 0.032070 
#    y -0.044970 2.088770 -0.024590 
#    z 0.032070 -0.024590 2.181390 
# 
# From -- ./inp_files/336652.got.cif
#   From: 2010.05.17/outbox.cif.g08.bks.cpg/sg2_169_cif.got.tgz:336652.got - 2010.06.03 11:33:40.
