data_PCOD9024467
_publ_section_title
;
Structure prediction by ZEFSAII (Michael W. Deem and Ramdas Pophale) SiO2 
 PCOD9024467
Probable space group: P -1
;
_chemical_formula_sum "Si O2"
_cell_formula_units_Z 14
_cell_length_a 5.287916
_cell_length_b 15.794309
_cell_length_c 16.283801
_cell_angle_alpha 153.501273
_cell_angle_beta 100.885348
_cell_angle_gamma 85.797513
_cell_volume 581.491880
_symmetry_space_group_name_H-M "P -1"
_symmetry_group_IT_number 2
_symmetry_cell_setting 'triclinic'
loop_
_space_group_symop_operation_xyz
x,y,z
-x,-y,-z
loop_
_atom_site_type_symbol
_atom_site_label
_atom_site_fract_x
_atom_site_fract_y
_atom_site_fract_z
Si Si1 0.560723 0.586191 0.344974
Si Si2 0.914598 0.535585 0.879513
Si Si3 0.484684 0.105049 0.175862
Si Si4 0.256013 0.175445 0.768148
Si Si5 0.208091 0.191156 0.605639
Si Si6 0.080775 0.318596 0.390612
Si Si7 0.350830 0.822470 0.071398
O O1 0.246290 0.552485 0.288902
O O2 0.653122 0.738760 0.410214
O O3 0.724163 0.637979 0.481842
O O4 0.599907 0.375609 0.136997
O O5 0.055181 0.365309 0.767402
O O6 0.764212 0.613705 0.013545
O O7 0.091493 0.739624 0.036080
O O8 0.271375 0.239000 0.269270
O O9 0.793725 0.192537 0.290202
O O10 0.355758 0.967739 0.123588
O O11 0.500000 0.000000 0.000000
O O12 0.380629 0.188986 0.696352
O O13 0.424363 0.095551 0.777901
O O14 0.984972 0.017335 0.601203
O O15 0.000000 0.500000 0.500000
#
# Coordination Sequence:
#
# PCOD9024467 Si02
#       7
#     2   2   2   2   2   2   2
#     4  10  24  42  69  98 142 183 243 297 371 429
#     4  10  23  40  66  96 140 188 238 298 361 436
#     4  12  28  50  79 109 148 190 244 307 375 448
#     4  10  22  40  64  98 139 186 245 299 361 432
#     4  10  22  40  64  98 139 186 245 299 361 432
#     4  12  28  50  79 109 148 190 244 307 375 448
#     4  10  24  42  69  98 142 183 243 297 371 429
#
# _framework density 24.076001999999999
#
# number of rings (size 3 to 8) (size 9 to 14) (size 15 to 20)
#    0.000    1.429    0.000    3.000   12.000    6.286 
#    5.143    2.857    0.000    0.000    0.000    0.000 
#    0.000    0.000    0.000    0.000    0.000    0.000 
#
# Total GULP energy -78188.074802 kJ/mol
# GULP energy per Si atom -5584.862486 kJ/mol
# Density = 2.402120 g / cm^3
# Si number density = 24.076002 Si / 1000 Ang^3
#
#
#
# Elastic Constant Matrix: (Units=GPa)
#
#
# Indices 1 2 3 4 5 6 
#
# 1 67.3618 -4.5166 28.2340 6.0974 -16.4403 -12.3846
# 2 -4.5166 87.7655 38.8414 -14.1225 -18.1034 -8.0791
# 3 28.2340 38.8414 99.2664 1.1776 -11.3122 -1.4594
# 4 6.0974 -14.1225 1.1776 16.0946 4.0027 4.0504
# 5 -16.4403 -18.1034 -11.3122 4.0027 38.5452 3.7522
# 6 -12.3846 -8.0791 -1.4594 4.0504 3.7522 13.0850
#
#
#
# Elastic Compliance Matrix: (Units=1/GPa)
#
#
# Indices 1 2 3 4 5 6 
#
# 1 0.030526 0.009648 -0.010344 -0.014154 0.012632 0.034455
# 2 0.009648 0.020971 -0.009855 0.009406 0.008576 0.015610
# 3 -0.010344 -0.009855 0.016393 -0.002061 -0.002788 -0.012609
# 4 -0.014154 0.009406 -0.002061 0.085982 -0.008025 -0.032133
# 5 0.012632 0.008576 -0.002788 -0.008025 0.034445 0.009546
# 6 0.034455 0.015610 -0.012609 -0.032133 0.009546 0.124475
#
#
# Mechanical properties :
#
#
# Convention : Reuss Voigt Hill
#
# Bulk Modulus (GPa) = 21.37185 42.16793 31.76989
# Shear Modulus (GPa) = 14.30656 26.33396 20.32026
#
# Velocity S-wave (km/s) = 2.44032 3.31083 2.90833
# Velocity P-wave (km/s) = 4.10321 5.67168 4.94996
#
# Compressibility (1/GPa) = 0.04679051
#
# Stress axis : x y z
#
# Youngs Moduli (GPa) = 32.75869 47.68416 61.00043
#
# Poissons Ratio (x) = -0.46007 0.63097
# Poissons Ratio (y) = -0.31606 0.60114
# Poissons Ratio (z) = 0.33885 0.46991
#
# Static dielectric constant tensor:
#      x y z
#    x 2.269880 0.005470 -0.045660 
#    y 0.005470 1.948720 0.067100 
#    z -0.045660 0.067100 1.982220 
# 
# From -- ./inp_files/484677.got.cif
#   From: 2010.05.17/outbox.cif.g08.bks.cpg/sg2_243_cif.got.tgz:484677.got - 2010.06.03 11:33:40.
