data_PCOD9024074
_publ_section_title
;
Structure prediction by ZEFSAII (Michael W. Deem and Ramdas Pophale) SiO2 
 PCOD9024074
Probable space group: P -1
;
_chemical_formula_sum "Si O2"
_cell_formula_units_Z 16
_cell_length_a 11.381614
_cell_length_b 7.126074
_cell_length_c 16.290433
_cell_angle_alpha 48.970645
_cell_angle_beta 103.090130
_cell_angle_gamma 129.010748
_cell_volume 734.132374
_symmetry_space_group_name_H-M "P -1"
_symmetry_group_IT_number 2
_symmetry_cell_setting 'triclinic'
loop_
_space_group_symop_operation_xyz
x,y,z
-x,-y,-z
loop_
_atom_site_type_symbol
_atom_site_label
_atom_site_fract_x
_atom_site_fract_y
_atom_site_fract_z
Si Si1 0.014792 0.117251 0.874904
Si Si2 0.320653 0.790390 0.495688
Si Si3 0.072598 0.075145 0.724613
Si Si4 0.300924 0.434956 0.979190
Si Si5 0.602537 0.208829 0.672899
Si Si6 0.491528 0.491561 0.129064
Si Si7 0.722381 0.693818 0.701384
Si Si8 0.754908 0.173150 0.239729
O O1 0.064332 0.009362 0.839365
O O2 0.120934 0.504178 0.778691
O O3 0.826763 0.897410 0.895241
O O4 0.000000 0.000000 0.000000
O O5 0.183376 0.466064 0.617199
O O6 0.320627 0.669558 0.439332
O O7 0.500000 0.000000 0.500000
O O8 0.283196 0.031644 0.411914
O O9 0.167162 0.980892 0.724026
O O10 0.893709 0.871895 0.719701
O O11 0.448167 0.617159 0.011809
O O12 0.331213 0.351913 0.917868
O O13 0.261431 0.667870 0.888348
O O14 0.691780 0.465126 0.687284
O O15 0.584340 0.888489 0.777225
O O16 0.422069 0.074768 0.680397
O O17 0.424998 0.514553 0.196191
#
# Coordination Sequence:
#
# PCOD9024074 Si02
#       8
#     2   2   2   2   2   2   2   2
#     4  10  22  40  63  90 130 171 212 263 311 367
#     4  11  25  45  70  92 126 168 213 266 319 387
#     4  12  25  41  65  99 128 168 211 265 323 377
#     4   9  18  38  63  89 123 173 213 259 305 371
#     4  10  23  42  65  95 125 168 215 260 319 383
#     4   9  19  40  63  89 131 165 213 257 316 367
#     4  11  24  42  67  97 132 163 210 268 323 384
#     4  10  23  39  63  93 128 167 216 259 310 380
#
# _framework density 21.794436999999999
#
# number of rings (size 3 to 8) (size 9 to 14) (size 15 to 20)
#    0.000    1.750    1.250    1.875    1.750    9.500 
#    0.000    6.875    0.000    0.000    0.000    0.000 
#    0.000    0.000    0.000    0.000    0.000    0.000 
#
# Total GULP energy -89151.278681 kJ/mol
# GULP energy per Si atom -5571.954918 kJ/mol
# Density = 2.174483 g / cm^3
# Si number density = 21.794437 Si / 1000 Ang^3
#
#
#
# Elastic Constant Matrix: (Units=GPa)
#
#
# Indices 1 2 3 4 5 6 
#
# 1 69.0433 9.9840 28.8640 3.8717 9.3624 -8.7661
# 2 9.9840 87.3488 31.0774 13.2524 -9.1973 -14.6485
# 3 28.8640 31.0774 68.0107 18.7332 -16.0431 -4.7425
# 4 3.8717 13.2524 18.7332 23.5946 -0.2739 -12.0651
# 5 9.3624 -9.1973 -16.0431 -0.2739 37.9849 -1.7683
# 6 -8.7661 -14.6485 -4.7425 -12.0651 -1.7683 25.3295
#
#
#
# Elastic Compliance Matrix: (Units=1/GPa)
#
#
# Indices 1 2 3 4 5 6 
#
# 1 0.023550 0.001880 -0.016768 0.014482 -0.011760 0.012176
# 2 0.001880 0.015169 -0.007438 0.001595 0.000490 0.008825
# 3 -0.016768 -0.007438 0.036304 -0.030138 0.016680 -0.016498
# 4 0.014482 0.001595 -0.030138 0.082689 -0.013513 0.038735
# 5 -0.011760 0.000490 0.016680 -0.013513 0.036078 -0.004581
# 6 0.012176 0.008825 -0.016498 0.038735 -0.004581 0.063839
#
#
# Mechanical properties :
#
#
# Convention : Reuss Voigt Hill
#
# Bulk Modulus (GPa) = 32.92461 40.47263 36.69862
# Shear Modulus (GPa) = 16.00486 27.68029 21.84258
#
# Velocity S-wave (km/s) = 2.71284 3.56766 3.16920
# Velocity P-wave (km/s) = 4.99523 5.96502 5.50153
#
# Compressibility (1/GPa) = 0.03037242
#
# Stress axis : x y z
#
# Youngs Moduli (GPa) = 42.46235 65.92257 27.54492
#
# Poissons Ratio (x) = -0.12396 0.46188
# Poissons Ratio (y) = -0.07985 0.20488
# Poissons Ratio (z) = 0.71202 0.49033
#
# Static dielectric constant tensor:
#      x y z
#    x 1.951740 0.128360 -0.057300 
#    y 0.128360 1.879820 -0.012740 
#    z -0.057300 -0.012740 1.822370 
# 
# From -- ./inp_files/510737.got.cif
#   From: 2010.05.17/outbox.cif.g08.bks.cpg/sg2_256_cif.got.tgz:510737.got - 2010.06.03 11:33:40.
