data_PCOD9024898
_publ_section_title
;
Structure prediction by ZEFSAII (Michael W. Deem and Ramdas Pophale) SiO2 
 PCOD9024898
Probable space group: P -1
;
_chemical_formula_sum "Si O2"
_cell_formula_units_Z 16
_cell_length_a 12.371571
_cell_length_b 15.614914
_cell_length_c 9.624447
_cell_angle_alpha 46.853405
_cell_angle_beta 135.352708
_cell_angle_gamma 143.983279
_cell_volume 741.380565
_symmetry_space_group_name_H-M "P -1"
_symmetry_group_IT_number 2
_symmetry_cell_setting 'triclinic'
loop_
_space_group_symop_operation_xyz
x,y,z
-x,-y,-z
loop_
_atom_site_type_symbol
_atom_site_label
_atom_site_fract_x
_atom_site_fract_y
_atom_site_fract_z
Si Si1 0.211865 0.792565 0.185877
Si Si2 0.910403 0.235297 0.482543
Si Si3 0.610689 0.519536 0.720492
Si Si4 0.055376 0.661688 0.897206
Si Si5 0.330168 0.035516 0.217456
Si Si6 0.274201 0.253188 0.862691
Si Si7 0.270955 0.658248 0.637172
Si Si8 0.761516 0.633823 0.010869
O O1 0.246932 0.693568 0.419991
O O2 0.997433 0.748145 0.074509
O O3 0.358996 0.959846 0.199892
O O4 0.198676 0.753215 0.056904
O O5 0.901043 0.356391 0.417769
O O6 0.860047 0.237939 0.274971
O O7 0.121057 0.271406 0.636141
O O8 0.773170 0.085548 0.617944
O O9 0.500000 0.500000 0.500000
O O10 0.837723 0.606219 0.795736
O O11 0.473788 0.350652 0.845690
O O12 0.637657 0.609646 0.786622
O O13 0.000000 0.500000 0.000000
O O14 0.529753 0.189106 0.287295
O O15 0.203055 0.085791 0.994504
O O16 0.296955 0.314331 0.971182
O O17 0.268044 0.518365 0.811244
#
# Coordination Sequence:
#
# PCOD9024898 Si02
#       8
#     2   2   2   2   2   2   2   2
#     4  10  22  40  66  95 128 168 216 264 325 385
#     4  11  22  41  68  92 128 174 213 260 329 385
#     4  11  23  41  60  95 133 165 207 274 321 378
#     4  11  25  43  67  95 133 171 216 264 331 387
#     4  11  24  43  66  95 133 170 216 272 319 383
#     4  12  23  41  67  96 131 167 221 267 322 384
#     4  11  22  41  68  97 128 165 225 277 312 369
#     4  11  22  39  67  98 125 168 225 270 321 373
#
# _framework density 21.581358000000002
#
# number of rings (size 3 to 8) (size 9 to 14) (size 15 to 20)
#    0.000    1.000    5.000    4.125    1.750    0.000 
#    0.000    4.375    0.000    0.000    0.000    0.000 
#    0.000    0.000    0.000    0.000    0.000    0.000 
#
# Total GULP energy -89296.548064 kJ/mol
# GULP energy per Si atom -5581.034254 kJ/mol
# Density = 2.153224 g / cm^3
# Si number density = 21.581358 Si / 1000 Ang^3
#
#
#
# Elastic Constant Matrix: (Units=GPa)
#
#
# Indices 1 2 3 4 5 6 
#
# 1 37.7705 8.9159 39.3536 -12.2807 -18.9979 -22.8062
# 2 8.9159 93.0518 31.7155 0.3729 -15.1781 -24.0424
# 3 39.3536 31.7155 135.0493 18.9843 -38.0885 -31.8197
# 4 -12.2807 0.3729 18.9843 39.3173 -7.5595 0.8865
# 5 -18.9979 -15.1781 -38.0885 -7.5595 43.2096 10.1863
# 6 -22.8062 -24.0424 -31.8197 0.8865 10.1863 34.8962
#
#
#
# Elastic Compliance Matrix: (Units=1/GPa)
#
#
# Indices 1 2 3 4 5 6 
#
# 1 0.104432 0.014429 -0.020343 0.046853 0.029499 0.049841
# 2 0.014429 0.015398 -0.003510 0.006950 0.006386 0.014797
# 3 -0.020343 -0.003510 0.016486 -0.013845 0.002159 -0.000960
# 4 0.046853 0.006950 -0.013845 0.049273 0.015444 0.017025
# 5 0.029499 0.006386 0.002159 0.015444 0.039742 0.013654
# 6 0.049841 0.014797 -0.000960 0.017025 0.013654 0.066131
#
#
# Mechanical properties :
#
#
# Convention : Reuss Voigt Hill
#
# Bulk Modulus (GPa) = 8.51306 47.31573 27.91439
# Shear Modulus (GPa) = 14.30753 35.87706 25.09229
#
# Velocity S-wave (km/s) = 2.57759 4.08169 3.41351
# Velocity P-wave (km/s) = 3.57936 6.64722 5.33842
#
# Compressibility (1/GPa) = 0.11746662
#
# Stress axis : x y z
#
# Youngs Moduli (GPa) = 9.57565 64.94503 60.65695
#
# Poissons Ratio (x) = -0.93711 1.23397
# Poissons Ratio (y) = -0.13817 0.21292
# Poissons Ratio (z) = 0.19480 0.22797
#
# Static dielectric constant tensor:
#      x y z
#    x 1.858770 0.021440 0.039140 
#    y 0.021440 1.833190 0.046490 
#    z 0.039140 0.046490 1.835820 
# 
# From -- ./inp_files/206370.got.cif
#   From: 2010.05.17/outbox.cif.g08.bks.cpg/sg2_104_cif.got.tgz:206370.got - 2010.06.03 11:33:40.
