data_PCOD9024518
_publ_section_title
;
Structure prediction by ZEFSAII (Michael W. Deem and Ramdas Pophale) SiO2 
 PCOD9024518
Probable space group: P -1
;
_chemical_formula_sum "Si O2"
_cell_formula_units_Z 16
_cell_length_a 16.198329
_cell_length_b 9.554095
_cell_length_c 17.157547
_cell_angle_alpha 118.322200
_cell_angle_beta 157.367750
_cell_angle_gamma 72.056384
_cell_volume 830.818181
_symmetry_space_group_name_H-M "P -1"
_symmetry_group_IT_number 2
_symmetry_cell_setting 'triclinic'
loop_
_space_group_symop_operation_xyz
x,y,z
-x,-y,-z
loop_
_atom_site_type_symbol
_atom_site_label
_atom_site_fract_x
_atom_site_fract_y
_atom_site_fract_z
Si Si1 0.132242 0.846911 0.497200
Si Si2 0.836282 0.828146 0.912584
Si Si3 0.944370 0.590942 0.833688
Si Si4 0.714589 0.040485 0.753108
Si Si5 0.233105 0.480992 0.668512
Si Si6 0.133222 0.296361 0.925722
Si Si7 0.695941 0.765813 0.209300
Si Si8 0.668876 0.447197 0.399296
O O1 0.275788 0.725654 0.598857
O O2 0.023619 0.824826 0.310326
O O3 0.911367 0.781335 0.345374
O O4 0.281402 0.043110 0.700045
O O5 0.663652 0.904775 0.743122
O O6 0.812460 0.650592 0.802357
O O7 0.841081 0.802685 0.001079
O O8 0.083124 0.963712 0.130901
O O9 0.015819 0.433684 0.877611
O O10 0.793134 0.545619 0.611586
O O11 0.176280 0.763604 0.069390
O O12 0.500000 0.000000 0.500000
O O13 0.276556 0.332844 0.715577
O O14 0.227348 0.453942 0.563838
O O15 0.000000 0.500000 0.500000
O O16 0.455186 0.654373 0.928202
O O17 0.394257 0.398766 0.149813
#
# Coordination Sequence:
#
# PCOD9024518 Si02
#       8
#     2   2   2   2   2   2   2   2
#     4  10  22  41  59  94 118 160 204 253 304 366
#     4   9  21  39  59  89 115 159 203 237 300 364
#     4   9  22  37  59  88 117 157 200 245 296 363
#     4   9  20  39  60  81 116 159 201 246 297 359
#     4  11  22  40  64  90 118 162 200 251 308 372
#     4  11  22  38  61  88 127 153 203 255 300 358
#     4  10  22  40  65  85 123 157 205 251 308 365
#     4  11  23  38  59  90 123 155 204 253 304 361
#
# _framework density 19.258123000000001
#
# number of rings (size 3 to 8) (size 9 to 14) (size 15 to 20)
#    0.750    1.250    2.500    0.375    1.750    5.000 
#    0.000    2.500    0.000    0.000    0.000    0.000 
#    0.000    0.000    0.000    0.000    0.000    0.000 
#
# Total GULP energy -89232.279834 kJ/mol
# GULP energy per Si atom -5577.017490 kJ/mol
# Density = 1.921429 g / cm^3
# Si number density = 19.258123 Si / 1000 Ang^3
#
#
#
# Elastic Constant Matrix: (Units=GPa)
#
#
# Indices 1 2 3 4 5 6 
#
# 1 48.8198 10.6367 -12.6838 -0.2322 -15.6720 26.5082
# 2 10.6367 52.9845 11.9575 0.7293 -16.3874 11.3861
# 3 -12.6838 11.9575 55.5386 0.1039 -6.3176 -0.3313
# 4 -0.2322 0.7293 0.1039 28.8384 4.5042 -10.4506
# 5 -15.6720 -16.3874 -6.3176 4.5042 26.3789 -3.9650
# 6 26.5082 11.3861 -0.3313 -10.4506 -3.9650 31.3022
#
#
#
# Elastic Compliance Matrix: (Units=1/GPa)
#
#
# Indices 1 2 3 4 5 6 
#
# 1 0.093124 0.015731 0.024784 -0.042585 0.064726 -0.090340
# 2 0.015731 0.029440 0.000112 -0.013900 0.026225 -0.025348
# 3 0.024784 0.000112 0.025752 -0.010889 0.019526 -0.021919
# 4 -0.042585 -0.013900 -0.010889 0.061238 -0.038496 0.056572
# 5 0.064726 0.026225 0.019526 -0.038496 0.094124 -0.065076
# 6 -0.090340 -0.025348 -0.021919 0.056572 -0.065076 0.128084
#
#
# Mechanical properties :
#
#
# Convention : Reuss Voigt Hill
#
# Bulk Modulus (GPa) = 4.35596 19.68485 12.02041
# Shear Modulus (GPa) = 11.70877 27.13273 19.42075
#
# Velocity S-wave (km/s) = 2.46842 3.75760 3.17905
# Velocity P-wave (km/s) = 3.22350 5.39165 4.44189
#
# Compressibility (1/GPa) = 0.22957029
#
# Stress axis : x y z
#
# Youngs Moduli (GPa) = 10.73837 33.96775 38.83148
#
# Poissons Ratio (x) = -0.53434 -0.96240
# Poissons Ratio (y) = -0.16892 -0.00435
# Poissons Ratio (z) = -0.26614 -0.00381
#
# Static dielectric constant tensor:
#      x y z
#    x 1.666790 -0.001820 0.018250 
#    y -0.001820 1.700250 -0.032140 
#    z 0.018250 -0.032140 1.683950 
# 
# From -- ./inp_files/575297.got.cif
#   From: 2010.05.17/outbox.cif.g08.bks.cpg/sg2_288_cif.got.tgz:575297.got - 2010.06.03 11:33:40.
