data_PCOD9024444
_publ_section_title
;
Structure prediction by ZEFSAII (Michael W. Deem and Ramdas Pophale) SiO2 
 PCOD9024444
Probable space group: P -1
;
_chemical_formula_sum "Si O2"
_cell_formula_units_Z 14
_cell_length_a 11.586384
_cell_length_b 9.071272
_cell_length_c 25.744351
_cell_angle_alpha 151.398369
_cell_angle_beta 31.562454
_cell_angle_gamma 141.829143
_cell_volume 670.130786
_symmetry_space_group_name_H-M "P -1"
_symmetry_group_IT_number 2
_symmetry_cell_setting 'triclinic'
loop_
_space_group_symop_operation_xyz
x,y,z
-x,-y,-z
loop_
_atom_site_type_symbol
_atom_site_label
_atom_site_fract_x
_atom_site_fract_y
_atom_site_fract_z
Si Si1 0.183588 0.803764 0.513346
Si Si2 0.345139 0.913144 0.310844
Si Si3 0.245415 0.967164 0.751027
Si Si4 0.299881 0.171371 0.686210
Si Si5 0.359725 0.228205 0.936352
Si Si6 0.958912 0.268367 0.027817
Si Si7 0.864440 0.709156 0.409280
O O1 0.434583 0.721775 0.386989
O O2 0.000000 0.500000 0.500000
O O3 0.201501 0.030021 0.626398
O O4 0.137569 0.013898 0.546117
O O5 0.476633 0.945268 0.215919
O O6 0.119507 0.678958 0.315125
O O7 0.526600 0.819915 0.252574
O O8 0.253454 0.193637 0.463062
O O9 0.244085 0.629525 0.673597
O O10 0.256959 0.919600 0.670804
O O11 0.042397 0.121582 0.898222
O O12 0.169239 0.442237 0.839058
O O13 0.500000 0.500000 0.000000
O O14 0.180447 0.347482 0.003144
O O15 0.210941 0.991026 0.957657
#
# Coordination Sequence:
#
# PCOD9024444 Si02
#       7
#     2   2   2   2   2   2   2
#     4  11  28  44  65  99 137 172 218 269 330 391
#     4  10  23  37  67  94 130 164 220 268 322 377
#     4  11  23  44  67  97 131 169 223 267 326 389
#     4  11  26  43  68  96 135 176 211 273 334 384
#     4  10  22  40  64  97 128 173 218 269 320 388
#     4  10  24  41  65  95 132 169 221 267 327 388
#     4  11  24  41  69  97 127 175 219 268 324 389
#
# _framework density 20.891445000000001
#
# number of rings (size 3 to 8) (size 9 to 14) (size 15 to 20)
#    0.000    1.429    1.429    1.714   14.000    0.000 
#    0.000    0.000    0.000    6.857    0.000    0.000 
#    0.000    0.000    0.000    0.000    0.000    0.000 
#
# Total GULP energy -78123.912892 kJ/mol
# GULP energy per Si atom -5580.279492 kJ/mol
# Density = 2.084389 g / cm^3
# Si number density = 20.891445 Si / 1000 Ang^3
#
#
#
# Elastic Constant Matrix: (Units=GPa)
#
#
# Indices 1 2 3 4 5 6 
#
# 1 67.7088 44.4982 33.0728 -2.6831 17.4802 7.4312
# 2 44.4982 94.8537 57.2700 -3.7201 -0.6009 9.9630
# 3 33.0728 57.2700 123.6144 -28.8614 6.8095 6.9016
# 4 -2.6831 -3.7201 -28.8614 34.5773 -3.4632 -3.3576
# 5 17.4802 -0.6009 6.8095 -3.4632 32.6200 -2.2561
# 6 7.4312 9.9630 6.9016 -3.3576 -2.2561 28.7309
#
#
#
# Elastic Compliance Matrix: (Units=1/GPa)
#
#
# Indices 1 2 3 4 5 6 
#
# 1 0.027485 -0.011860 -0.001292 -0.002144 -0.015190 -0.004129
# 2 -0.011860 0.021023 -0.007980 -0.004762 0.007747 -0.002254
# 3 -0.001292 -0.007980 0.014810 0.011349 -0.001288 0.000769
# 4 -0.002144 -0.004762 0.011349 0.038430 0.003063 0.004211
# 5 -0.015190 0.007747 -0.001288 0.003063 0.039882 0.005042
# 6 -0.004129 -0.002254 0.000769 0.004211 0.005042 0.037359
#
#
# Mechanical properties :
#
#
# Convention : Reuss Voigt Hill
#
# Bulk Modulus (GPa) = 47.49603 61.76208 54.62906
# Shear Modulus (GPa) = 21.90387 29.27470 25.58928
#
# Velocity S-wave (km/s) = 3.24151 3.74742 3.50361
# Velocity P-wave (km/s) = 6.06579 6.95354 6.52478
#
# Compressibility (1/GPa) = 0.02105439
#
# Stress axis : x y z
#
# Youngs Moduli (GPa) = 36.38408 47.56607 67.52237
#
# Poissons Ratio (x) = 0.56415 0.08723
# Poissons Ratio (y) = 0.43152 0.53880
# Poissons Ratio (z) = 0.04700 0.37956
#
# Static dielectric constant tensor:
#      x y z
#    x 1.789770 -0.036670 -0.018860 
#    y -0.036670 1.750160 -0.012840 
#    z -0.018860 -0.012840 1.741930 
# 
# From -- ./inp_files/285859.got.cif
#   From: 2010.05.17/outbox.cif.g08.bks.cpg/sg2_143_cif.got.tgz:285859.got - 2010.06.03 11:33:40.
