data_PCOD9024825
_publ_section_title
;
Structure prediction by ZEFSAII (Michael W. Deem and Ramdas Pophale) SiO2 
 PCOD9024825
Probable space group: P -1
;
_chemical_formula_sum "Si O2"
_cell_formula_units_Z 14
_cell_length_a 11.765475
_cell_length_b 11.578886
_cell_length_c 10.938829
_cell_angle_alpha 44.091348
_cell_angle_beta 58.877953
_cell_angle_gamma 93.598442
_cell_volume 607.994875
_symmetry_space_group_name_H-M "P -1"
_symmetry_group_IT_number 2
_symmetry_cell_setting 'triclinic'
loop_
_space_group_symop_operation_xyz
x,y,z
-x,-y,-z
loop_
_atom_site_type_symbol
_atom_site_label
_atom_site_fract_x
_atom_site_fract_y
_atom_site_fract_z
Si Si1 0.645363 0.721083 0.849190
Si Si2 0.192247 0.697817 0.105517
Si Si3 0.461727 0.501781 0.377134
Si Si4 0.740703 0.158458 0.528802
Si Si5 0.251504 0.663845 0.363920
Si Si6 0.487757 0.792610 0.532570
Si Si7 0.144436 0.377457 0.211521
O O1 0.847759 0.813283 0.637091
O O2 0.642825 0.917411 0.693417
O O3 0.500000 0.500000 0.000000
O O4 0.615206 0.674305 0.049401
O O5 0.276810 0.776678 0.133981
O O6 0.157358 0.474241 0.262134
O O7 0.979261 0.579357 0.308794
O O8 0.340921 0.919633 0.761927
O O9 0.500000 0.500000 0.500000
O O10 0.344949 0.567563 0.390194
O O11 0.398399 0.261493 0.546796
O O12 0.691759 0.153520 0.701209
O O13 0.669677 0.262233 0.426429
O O14 0.965442 0.303919 0.299773
O O15 0.347111 0.604913 0.860008
#
# Coordination Sequence:
#
# PCOD9024825 Si02
#       7
#     2   2   2   2   2   2   2
#     4  11  24  41  66  93 125 169 216 263 314 379
#     4  10  22  40  66  92 129 163 215 259 312 378
#     4  11  23  40  63  93 135 161 210 263 318 381
#     4  11  22  39  67  89 125 166 214 257 311 383
#     4  10  22  41  63  95 125 170 210 259 312 379
#     4  11  22  37  63  92 125 169 205 261 318 370
#     4  10  22  41  60  94 126 161 209 265 316 369
#
# _framework density 23.026508
#
# number of rings (size 3 to 8) (size 9 to 14) (size 15 to 20)
#    0.000    1.429    1.429    3.857    2.000    2.857 
#    0.000    0.000    6.286    0.000    0.000    0.000 
#    0.000    0.000    0.000    0.000    0.000    0.000 
#
# Total GULP energy -77944.235294 kJ/mol
# GULP energy per Si atom -5567.445378 kJ/mol
# Density = 2.297410 g / cm^3
# Si number density = 23.026508 Si / 1000 Ang^3
#
#
#
# Elastic Constant Matrix: (Units=GPa)
#
#
# Indices 1 2 3 4 5 6 
#
# 1 92.6628 47.1703 15.3413 -1.4482 -10.8602 -25.5845
# 2 47.1703 149.2224 11.2219 -9.0987 -9.5497 -30.5511
# 3 15.3413 11.2219 34.8150 2.8471 -14.7650 -3.9282
# 4 -1.4482 -9.0987 2.8471 34.4730 -0.3442 1.4127
# 5 -10.8602 -9.5497 -14.7650 -0.3442 35.0291 1.8662
# 6 -25.5845 -30.5511 -3.9282 1.4127 1.8662 57.0595
#
#
#
# Elastic Compliance Matrix: (Units=1/GPa)
#
#
# Indices 1 2 3 4 5 6 
#
# 1 0.014567 -0.003284 -0.004163 -0.000077 0.001629 0.004435
# 2 -0.003284 0.008594 -0.000794 0.002082 0.000851 0.002995
# 3 -0.004163 -0.000794 0.037041 -0.003298 0.014080 -0.000121
# 4 -0.000077 0.002082 -0.003298 0.029816 -0.000561 0.000133
# 5 0.001629 0.000851 0.014080 -0.000561 0.035160 0.001019
# 6 0.004435 0.002995 -0.000121 0.000133 0.001019 0.021073
#
#
# Mechanical properties :
#
#
# Convention : Reuss Voigt Hill
#
# Bulk Modulus (GPa) = 22.87322 47.12970 35.00146
# Shear Modulus (GPa) = 28.19986 38.84343 33.52165
#
# Velocity S-wave (km/s) = 3.50332 4.11165 3.81961
# Velocity P-wave (km/s) = 5.13024 6.56147 5.88949
#
# Compressibility (1/GPa) = 0.04371926
#
# Stress axis : x y z
#
# Youngs Moduli (GPa) = 68.64769 116.36351 26.99711
#
# Poissons Ratio (x) = 0.38214 0.11238
# Poissons Ratio (y) = 0.22544 0.02145
# Poissons Ratio (z) = 0.28577 0.09244
#
# Static dielectric constant tensor:
#      x y z
#    x 1.947940 -0.040110 0.019800 
#    y -0.040110 1.922620 -0.046580 
#    z 0.019800 -0.046580 1.958610 
# 
# From -- ./inp_files/222457.got.cif
#   From: 2010.05.17/outbox.cif.g08.bks.cpg/sg2_112_cif.got.tgz:222457.got - 2010.06.03 11:33:40.
