data_PCOD9024560
_publ_section_title
;
Structure prediction by ZEFSAII (Michael W. Deem and Ramdas Pophale) SiO2 
 PCOD9024560
Probable space group: P -1
;
_chemical_formula_sum "Si O2"
_cell_formula_units_Z 15
_cell_length_a 16.087066
_cell_length_b 8.964785
_cell_length_c 5.756789
_cell_angle_alpha 84.110169
_cell_angle_beta 88.883479
_cell_angle_gamma 131.844419
_cell_volume 610.872683
_symmetry_space_group_name_H-M "P -1"
_symmetry_group_IT_number 2
_symmetry_cell_setting 'triclinic'
loop_
_space_group_symop_operation_xyz
x,y,z
-x,-y,-z
loop_
_atom_site_type_symbol
_atom_site_label
_atom_site_fract_x
_atom_site_fract_y
_atom_site_fract_z
Si Si1 0.571063 0.778350 0.912800
Si Si2 0.073387 0.438753 0.940853
Si Si3 0.739755 0.257709 0.801464
Si Si4 0.650731 0.465112 0.737126
Si Si5 0.103596 0.792191 0.345611
Si Si6 0.943785 0.043768 0.312188
Si Si7 0.500000 0.500000 0.500000
Si Si8 0.759297 0.809156 0.025802
O O1 0.560006 0.675129 0.688862
O O2 0.641840 0.016081 0.854601
O O3 0.453760 0.674515 0.054487
O O4 0.638364 0.744176 0.091576
O O5 0.200447 0.631010 0.972285
O O6 0.033870 0.244358 0.120409
O O7 0.000000 0.500000 0.000000
O O8 0.025563 0.353740 0.700505
O O9 0.696343 0.359320 0.685322
O O10 0.839096 0.298310 0.647554
O O11 0.597472 0.491215 0.526081
O O12 0.740410 0.669128 0.844026
O O13 0.119306 0.897104 0.564307
O O14 0.169593 0.966667 0.119234
O O15 0.842834 0.844694 0.206754
O O16 0.000000 0.000000 0.500000
#
# Coordination Sequence:
#
# PCOD9024560 Si02
#       8
#     2   2   2   2   2   2   1   2
#     4  10  22  44  65  91 126 171 216 266 322 381
#     4   9  21  43  62  90 136 174 209 266 331 385
#     4  10  22  40  65  92 126 176 208 262 330 380
#     4  11  23  40  65  94 130 167 222 264 321 385
#     4   9  21  41  64  90 136 169 214 269 321 386
#     4  11  24  39  68 104 127 169 229 267 322 399
#     4  10  22  42  64  90 124 166 212 276 320 364
#     4   9  21  39  65  92 129 172 204 272 331 375
#
# _framework density 24.555036999999999
#
# number of rings (size 3 to 8) (size 9 to 14) (size 15 to 20)
#    0.000    2.133    0.000    2.800    3.733   10.133 
#    0.000    6.667    0.000    0.000    0.000    0.000 
#    0.000    0.000    0.000    0.000    0.000    0.000 
#
# Total GULP energy -83625.478448 kJ/mol
# GULP energy per Si atom -5575.031897 kJ/mol
# Density = 2.449915 g / cm^3
# Si number density = 24.555037 Si / 1000 Ang^3
#
#
#
# Elastic Constant Matrix: (Units=GPa)
#
#
# Indices 1 2 3 4 5 6 
#
# 1 157.7175 51.5529 53.9098 6.5353 39.3571 -30.4036
# 2 51.5529 144.5551 45.9382 12.1318 36.4716 -4.0770
# 3 53.9098 45.9382 73.9637 20.9285 34.4164 -3.9200
# 4 6.5353 12.1318 20.9285 38.3656 4.5134 5.6641
# 5 39.3571 36.4716 34.4164 4.5134 41.3535 -0.1669
# 6 -30.4036 -4.0770 -3.9200 5.6641 -0.1669 40.4063
#
#
#
# Elastic Compliance Matrix: (Units=1/GPa)
#
#
# Indices 1 2 3 4 5 6 
#
# 1 0.011164 -0.000813 -0.004409 0.000341 -0.006245 0.007817
# 2 -0.000813 0.009439 -0.002520 -0.000870 -0.005358 0.000196
# 3 -0.004409 -0.002520 0.029989 -0.012957 -0.017121 0.001083
# 4 0.000341 -0.000870 -0.012957 0.033305 0.007568 -0.005726
# 5 -0.006245 -0.005358 -0.017121 0.007568 0.048242 -0.007762
# 6 0.007817 0.000196 0.001083 -0.005726 -0.007762 0.031526
#
#
# Mechanical properties :
#
#
# Convention : Reuss Voigt Hill
#
# Bulk Modulus (GPa) = 28.48308 75.44868 51.96588
# Shear Modulus (GPa) = 26.19817 39.01410 32.60614
#
# Velocity S-wave (km/s) = 3.26991 3.99035 3.64796
# Velocity P-wave (km/s) = 5.08737 7.21274 6.24119
#
# Compressibility (1/GPa) = 0.03510857
#
# Stress axis : x y z
#
# Youngs Moduli (GPa) = 89.57103 105.94399 33.34510
#
# Poissons Ratio (x) = 0.08614 0.14701
# Poissons Ratio (y) = 0.07283 0.08404
# Poissons Ratio (z) = 0.39489 0.26701
#
# Static dielectric constant tensor:
#      x y z
#    x 1.978550 0.058260 -0.030410 
#    y 0.058260 1.995930 -0.008400 
#    z -0.030410 -0.008400 2.072000 
# 
# From -- ./inp_files/107001.got.cif
#   From: 2010.05.17/outbox.cif.g08.bks.cpg/sg2_54_cif.got.tgz:107001.got - 2010.06.03 11:33:40.
