data_PCOD9024790
_publ_section_title
;
Structure prediction by ZEFSAII (Michael W. Deem and Ramdas Pophale) SiO2 
 PCOD9024790
Probable space group: P -1
;
_chemical_formula_sum "Si O2"
_cell_formula_units_Z 13
_cell_length_a 8.349227
_cell_length_b 8.232653
_cell_length_c 11.676044
_cell_angle_alpha 121.437900
_cell_angle_beta 78.475474
_cell_angle_gamma 118.917491
_cell_volume 597.900042
_symmetry_space_group_name_H-M "P -1"
_symmetry_group_IT_number 2
_symmetry_cell_setting 'triclinic'
loop_
_space_group_symop_operation_xyz
x,y,z
-x,-y,-z
loop_
_atom_site_type_symbol
_atom_site_label
_atom_site_fract_x
_atom_site_fract_y
_atom_site_fract_z
Si Si1 0.418907 0.134584 0.713671
Si Si2 0.023168 0.325882 0.775215
Si Si3 0.557763 0.433863 0.218049
Si Si4 0.954272 0.708161 0.975684
Si Si5 0.278739 0.015157 0.452533
Si Si6 0.500000 0.500000 0.500000
Si Si7 0.695310 0.913281 0.029317
O O1 0.464586 0.381087 0.781191
O O2 0.267522 0.012431 0.591548
O O3 0.358628 0.063084 0.825101
O O4 0.586969 0.087727 0.638956
O O5 0.226082 0.473838 0.754006
O O6 0.918398 0.470939 0.861351
O O7 0.050402 0.264501 0.877299
O O8 0.910054 0.127497 0.637089
O O9 0.456185 0.391360 0.337842
O O10 0.478700 0.222390 0.074522
O O11 0.809695 0.775492 0.967024
O O12 0.157941 0.865202 0.962107
O O13 0.380839 0.261518 0.489972
#
# Coordination Sequence:
#
# PCOD9024790 Si02
#       7
#     2   2   2   2   2   1   2
#     4  10  22  40  66  89 119 172 202 247 309 372
#     4  11  23  41  62  95 123 163 199 264 306 362
#     4  11  23  40  67  90 127 163 205 248 315 360
#     4  10  24  39  61  95 127 158 210 252 311 352
#     4  10  23  43  64  89 127 159 211 252 308 367
#     4  10  24  42  62  96 116 162 204 260 300 364
#     4  11  22  42  63  92 124 167 206 253 297 380
#
# _framework density 21.742766
#
# number of rings (size 3 to 8) (size 9 to 14) (size 15 to 20)
#    0.000    1.538    1.538    2.308    6.462    3.077 
#    5.538    0.769    0.000    0.000    0.000    0.000 
#    0.000    0.000    0.000    0.000    0.000    0.000 
#
# Total GULP energy -72442.119702 kJ/mol
# GULP energy per Si atom -5572.470746 kJ/mol
# Density = 2.169328 g / cm^3
# Si number density = 21.742766 Si / 1000 Ang^3
#
#
#
# Elastic Constant Matrix: (Units=GPa)
#
#
# Indices 1 2 3 4 5 6 
#
# 1 57.5728 -1.5988 9.2796 22.0614 2.2209 5.1145
# 2 -1.5988 41.5878 41.1325 1.0920 8.7556 4.1783
# 3 9.2796 41.1325 142.6813 11.2398 13.4031 14.2853
# 4 22.0614 1.0920 11.2398 41.2488 10.8321 0.5362
# 5 2.2209 8.7556 13.4031 10.8321 28.6763 6.5686
# 6 5.1145 4.1783 14.2853 0.5362 6.5686 20.1745
#
#
#
# Elastic Compliance Matrix: (Units=1/GPa)
#
#
# Indices 1 2 3 4 5 6 
#
# 1 0.023056 0.001602 -0.000660 -0.013323 0.004639 -0.006866
# 2 0.001602 0.035355 -0.009977 0.002945 -0.007778 0.001790
# 3 -0.000660 -0.009977 0.010616 -0.002259 0.000200 -0.005289
# 4 -0.013323 0.002945 -0.002259 0.035492 -0.014050 0.007999
# 5 0.004639 -0.007778 0.000200 -0.014050 0.045329 -0.014092
# 6 -0.006866 0.001790 -0.005289 0.007999 -0.014092 0.059058
#
#
# Mechanical properties :
#
#
# Convention : Reuss Voigt Hill
#
# Bulk Modulus (GPa) = 19.62389 37.71873 28.67131
# Shear Modulus (GPa) = 20.49487 30.88849 25.69168
#
# Velocity S-wave (km/s) = 3.07352 3.77322 3.44120
# Velocity P-wave (km/s) = 4.65193 6.03061 5.38557
#
# Compressibility (1/GPa) = 0.05095829
#
# Stress axis : x y z
#
# Youngs Moduli (GPa) = 43.37181 28.28424 94.19304
#
# Poissons Ratio (x) = -0.04532 0.06220
# Poissons Ratio (y) = -0.06950 0.93978
# Poissons Ratio (z) = 0.02864 0.28220
#
# Static dielectric constant tensor:
#      x y z
#    x 1.844880 -0.001720 -0.027490 
#    y -0.001720 1.750160 0.030210 
#    z -0.027490 0.030210 1.733090 
# 
# From -- ./inp_files/155791.got.cif
#   From: 2010.05.17/outbox.cif.g08.bks.cpg/sg2_78_cif.got.tgz:155791.got - 2010.06.03 11:33:40.
