data_PCOD9025465
_publ_section_title
;
Structure prediction by ZEFSAII (Michael W. Deem and Ramdas Pophale) SiO2 
 PCOD9025465
Probable space group: P -1
;
_chemical_formula_sum "Si O2"
_cell_formula_units_Z 16
_cell_length_a 23.805129
_cell_length_b 8.531375
_cell_length_c 5.607079
_cell_angle_alpha 87.053731
_cell_angle_beta 89.975560
_cell_angle_gamma 34.419712
_cell_volume 641.045933
_symmetry_space_group_name_H-M "P -1"
_symmetry_group_IT_number 2
_symmetry_cell_setting 'triclinic'
loop_
_space_group_symop_operation_xyz
x,y,z
-x,-y,-z
loop_
_atom_site_type_symbol
_atom_site_label
_atom_site_fract_x
_atom_site_fract_y
_atom_site_fract_z
Si Si1 0.024886 0.239259 0.719947
Si Si2 0.270517 0.139948 0.879782
Si Si3 0.434784 0.246993 0.174258
Si Si4 0.279754 0.341036 0.251313
Si Si5 0.739143 0.151908 0.819585
Si Si6 0.094892 0.961603 0.232004
Si Si7 0.161118 0.194944 0.546154
Si Si8 0.562177 0.211909 0.422674
O O1 0.107723 0.188027 0.710901
O O2 0.920716 0.570893 0.670151
O O3 0.040345 0.118985 0.471388
O O4 0.033343 0.115005 0.969879
O O5 0.191136 0.285684 0.665461
O O6 0.383458 0.864285 0.813932
O O7 0.264306 0.324863 0.979190
O O8 0.246401 0.052485 0.058437
O O9 0.355493 0.310395 0.283363
O O10 0.355524 0.560357 0.062814
O O11 0.499788 0.198673 0.362268
O O12 0.500000 0.000000 0.000000
O O13 0.168809 0.644484 0.301855
O O14 0.345493 0.051620 0.389101
O O15 0.826706 0.077689 0.816826
O O16 0.738319 0.113295 0.538862
O O17 0.500000 0.500000 0.500000
#
# Coordination Sequence:
#
# PCOD9025465 Si02
#       8
#     2   2   2   2   2   2   2   2
#     4  10  22  41  75 104 138 183 239 299 344 437
#     4  12  23  42  66  95 143 178 231 291 359 416
#     4  11  23  45  68  98 134 185 233 289 355 428
#     4  11  26  43  68  96 141 183 228 295 356 428
#     4  10  23  41  67 100 137 183 233 292 354 418
#     4  10  23  44  70 105 140 182 238 289 367 419
#     4  10  22  40  69 103 137 176 236 292 354 408
#     4  12  27  45  69 100 134 186 244 295 347 427
#
# _framework density 24.959209999999999
#
# number of rings (size 3 to 8) (size 9 to 14) (size 15 to 20)
#    0.000    1.250    2.500    2.625    5.250    2.500 
#    2.250    1.250    0.000    0.000    0.000    0.000 
#    0.000    0.000    0.000    0.000    0.000    0.000 
#
# Total GULP energy -89223.185648 kJ/mol
# GULP energy per Si atom -5576.449103 kJ/mol
# Density = 2.490240 g / cm^3
# Si number density = 24.959210 Si / 1000 Ang^3
#
#
#
# Elastic Constant Matrix: (Units=GPa)
#
#
# Indices 1 2 3 4 5 6 
#
# 1 82.1776 18.5598 23.5893 4.7401 14.4157 6.4864
# 2 18.5598 148.5049 55.7712 30.7930 3.3248 11.9642
# 3 23.5893 55.7712 90.9292 1.7213 11.8506 5.8977
# 4 4.7401 30.7930 1.7213 39.9235 8.9564 -6.4900
# 5 14.4157 3.3248 11.8506 8.9564 29.0282 3.5940
# 6 6.4864 11.9642 5.8977 -6.4900 3.5940 24.1896
#
#
#
# Elastic Compliance Matrix: (Units=1/GPa)
#
#
# Indices 1 2 3 4 5 6 
#
# 1 0.014167 -0.000449 -0.002523 -0.000338 -0.005575 -0.002224
# 2 -0.000449 0.012899 -0.007893 -0.012524 0.006912 -0.008722
# 3 -0.002523 -0.007893 0.017112 0.007991 -0.007753 0.003704
# 4 -0.000338 -0.012524 0.007991 0.041000 -0.016513 0.017790
# 5 -0.005575 0.006912 -0.007753 -0.016513 0.046087 -0.011311
# 6 -0.002224 -0.008722 0.003704 0.017790 -0.011311 0.051801
#
#
# Mechanical properties :
#
#
# Convention : Reuss Voigt Hill
#
# Bulk Modulus (GPa) = 44.54612 57.49469 51.02041
# Shear Modulus (GPa) = 23.55400 33.54103 28.54752
#
# Velocity S-wave (km/s) = 3.07530 3.66981 3.38563
# Velocity P-wave (km/s) = 5.52234 6.40641 5.98074
#
# Compressibility (1/GPa) = 0.02244864
#
# Stress axis : x y z
#
# Youngs Moduli (GPa) = 70.58507 77.52559 58.43803
#
# Poissons Ratio (x) = 0.03482 0.14742
# Poissons Ratio (y) = 0.03171 0.46125
# Poissons Ratio (z) = 0.17806 0.61191
#
# Static dielectric constant tensor:
#      x y z
#    x 1.984020 0.035630 0.010870 
#    y 0.035630 2.034240 -0.002640 
#    z 0.010870 -0.002640 2.199390 
# 
# From -- ./inp_files/50913.got.cif
#   From: 2010.05.17/outbox.cif.g08.bks.cpg/sg2_26_cif.got.tgz:50913.got - 2010.06.03 11:33:40.
