data_PCOD9025599
_publ_section_title
;
Structure prediction by ZEFSAII (Michael W. Deem and Ramdas Pophale) SiO2 
 PCOD9025599
Probable space group: P -1
;
_chemical_formula_sum "Si O2"
_cell_formula_units_Z 16
_cell_length_a 12.116046
_cell_length_b 10.901324
_cell_length_c 5.435213
_cell_angle_alpha 106.327354
_cell_angle_beta 91.307849
_cell_angle_gamma 105.278225
_cell_volume 660.936975
_symmetry_space_group_name_H-M "P -1"
_symmetry_group_IT_number 2
_symmetry_cell_setting 'triclinic'
loop_
_space_group_symop_operation_xyz
x,y,z
-x,-y,-z
loop_
_atom_site_type_symbol
_atom_site_label
_atom_site_fract_x
_atom_site_fract_y
_atom_site_fract_z
Si Si1 0.073248 0.134919 0.452398
Si Si2 0.319708 0.423999 0.336140
Si Si3 0.464916 0.061625 0.283162
Si Si4 0.935147 0.278662 0.819947
Si Si5 0.095303 0.483690 0.305384
Si Si6 0.711452 0.813510 0.172095
Si Si7 0.493391 0.331418 0.623505
Si Si8 0.795516 0.009361 0.916741
O O1 0.193508 0.196153 0.631815
O O2 0.991895 0.228196 0.555418
O O3 0.115633 0.079361 0.176310
O O4 0.000000 0.000000 0.500000
O O5 0.203621 0.455641 0.426106
O O6 0.401968 0.400918 0.542126
O O7 0.394780 0.549059 0.250777
O O8 0.287371 0.290378 0.101584
O O9 0.519206 0.221986 0.380436
O O10 0.500000 0.000000 0.500000
O O11 0.325953 0.036170 0.259549
O O12 0.500000 0.000000 0.000000
O O13 0.868393 0.380660 0.775859
O O14 0.859916 0.156242 0.909289
O O15 0.036688 0.364954 0.047588
O O16 0.000000 0.500000 0.500000
O O17 0.579847 0.761820 0.222303
O O18 0.752160 0.966190 0.165428
#
# Coordination Sequence:
#
# PCOD9025599 Si02
#       8
#     2   2   2   2   2   2   2   2
#     4  10  22  40  70 100 139 177 242 297 362 440
#     4  11  25  46  73 102 138 194 245 303 364 439
#     4  12  27  46  73 107 154 192 243 310 379 449
#     4  10  25  45  65 108 136 184 234 293 367 446
#     4  11  26  44  71  98 144 187 232 294 367 438
#     4  12  21  44  73 103 140 184 244 312 363 441
#     4  11  26  46  72 107 139 189 255 298 368 440
#     4  11  25  44  72 105 137 188 238 299 375 439
#
# _framework density 24.208058999999999
#
# number of rings (size 3 to 8) (size 9 to 14) (size 15 to 20)
#    0.000    1.000    3.750    1.125    5.250    5.000 
#    0.000    0.000    0.000    0.000    0.000    0.000 
#    0.000    0.000    0.000    0.000    0.000    0.000 
#
# Total GULP energy -89429.621350 kJ/mol
# GULP energy per Si atom -5589.351334 kJ/mol
# Density = 2.415296 g / cm^3
# Si number density = 24.208059 Si / 1000 Ang^3
#
#
#
# Elastic Constant Matrix: (Units=GPa)
#
#
# Indices 1 2 3 4 5 6 
#
# 1 104.5358 31.5797 28.5500 1.9384 -6.6406 -7.7586
# 2 31.5797 170.1293 23.7590 2.6573 -12.1249 15.6771
# 3 28.5500 23.7590 50.9643 -5.0470 -11.4173 -4.1419
# 4 1.9384 2.6573 -5.0470 32.2062 0.7356 -0.6707
# 5 -6.6406 -12.1249 -11.4173 0.7356 40.4081 -7.9269
# 6 -7.7586 15.6771 -4.1419 -0.6707 -7.9269 42.7029
#
#
#
# Elastic Compliance Matrix: (Units=1/GPa)
#
#
# Indices 1 2 3 4 5 6 
#
# 1 0.011825 -0.001542 -0.005807 -0.001456 0.000295 0.002183
# 2 -0.001542 0.006844 -0.002545 -0.000944 0.000518 -0.002958
# 3 -0.005807 -0.002545 0.026233 0.004602 0.006331 0.003671
# 4 -0.001456 -0.000944 0.004602 0.031950 0.000413 0.001107
# 5 0.000295 0.000518 0.006331 0.000413 0.027841 0.005652
# 6 0.002183 -0.002958 0.003671 0.001107 0.005652 0.026323
#
#
# Mechanical properties :
#
#
# Convention : Reuss Voigt Hill
#
# Bulk Modulus (GPa) = 39.81447 54.82297 47.31872
# Shear Modulus (GPa) = 31.41208 39.17948 35.29578
#
# Velocity S-wave (km/s) = 3.60611 4.02736 3.82254
# Velocity P-wave (km/s) = 5.81560 6.65747 6.25072
#
# Compressibility (1/GPa) = 0.02511650
#
# Stress axis : x y z
#
# Youngs Moduli (GPa) = 84.56375 146.12093 38.11987
#
# Poissons Ratio (x) = 0.22526 0.22134
# Poissons Ratio (y) = 0.13036 0.09700
# Poissons Ratio (z) = 0.49102 0.37183
#
# Static dielectric constant tensor:
#      x y z
#    x 1.937660 -0.021390 -0.047780 
#    y -0.021390 1.973720 -0.035350 
#    z -0.047780 -0.035350 2.008040 
# 
# From -- ./inp_files/71862.got.cif
#   From: 2010.05.17/outbox.cif.g08.bks.cpg/sg2_36_cif.got.tgz:71862.got - 2010.06.03 11:33:40.
