data_PCOD9025490
_publ_section_title
;
Structure prediction by ZEFSAII (Michael W. Deem and Ramdas Pophale) SiO2 
 PCOD9025490
Probable space group: P -1
;
_chemical_formula_sum "Si O2"
_cell_formula_units_Z 16
_cell_length_a 11.522776
_cell_length_b 9.206436
_cell_length_c 11.390491
_cell_angle_alpha 49.128159
_cell_angle_beta 57.252410
_cell_angle_gamma 77.934042
_cell_volume 748.273954
_symmetry_space_group_name_H-M "P -1"
_symmetry_group_IT_number 2
_symmetry_cell_setting 'triclinic'
loop_
_space_group_symop_operation_xyz
x,y,z
-x,-y,-z
loop_
_atom_site_type_symbol
_atom_site_label
_atom_site_fract_x
_atom_site_fract_y
_atom_site_fract_z
Si Si1 0.204245 0.208529 0.929369
Si Si2 0.604260 0.665218 0.437874
Si Si3 0.361323 0.013168 0.140842
Si Si4 0.202852 0.599155 0.422939
Si Si5 0.668526 0.368359 0.271474
Si Si6 0.358816 0.381667 0.081098
Si Si7 0.879409 0.473508 0.751360
Si Si8 0.924832 0.303088 0.068075
O O1 0.288125 0.174959 0.784030
O O2 0.253391 0.449174 0.783904
O O3 0.036244 0.167447 0.060559
O O4 0.263080 0.099525 0.059059
O O5 0.500000 0.500000 0.500000
O O6 0.706498 0.562241 0.514099
O O7 0.485772 0.734611 0.542948
O O8 0.384142 0.168735 0.149613
O O9 0.286226 0.796301 0.335332
O O10 0.500000 0.000000 0.000000
O O11 0.195473 0.631800 0.269208
O O12 0.042710 0.550657 0.583409
O O13 0.653558 0.495398 0.095924
O O14 0.777052 0.232393 0.254743
O O15 0.216572 0.375565 0.236833
O O16 0.500000 0.500000 0.000000
O O17 0.887801 0.354158 0.928893
O O18 0.000000 0.500000 0.000000
#
# Coordination Sequence:
#
# PCOD9025490 Si02
#       8
#     2   2   2   2   2   2   2   2
#     4   9  17  31  52  77 111 146 196 237 286 354
#     4  10  17  31  54  85 108 153 205 246 282 354
#     4  11  22  37  56  88 121 156 198 254 307 356
#     4  11  22  37  60  90 126 152 206 252 305 359
#     4   8  16  26  49  79 103 136 195 242 275 333
#     4  10  19  35  57  84 117 157 200 241 300 365
#     4  10  21  37  61  89 118 165 199 251 301 362
#     4   9  16  32  53  83 111 148 202 245 282 358
#
# _framework density 21.382542999999998
#
# number of rings (size 3 to 8) (size 9 to 14) (size 15 to 20)
#    0.000    2.250    1.250    4.500    0.000    0.500 
#    0.000    0.625    0.000    0.000    3.250   12.250 
#    0.000    0.000    0.000    0.000    0.000    0.000 
#
# Total GULP energy -89146.767508 kJ/mol
# GULP energy per Si atom -5571.672969 kJ/mol
# Density = 2.133387 g / cm^3
# Si number density = 21.382543 Si / 1000 Ang^3
#
#
#
# Elastic Constant Matrix: (Units=GPa)
#
#
# Indices 1 2 3 4 5 6 
#
# 1 79.5786 17.9297 14.6981 17.5189 -17.7810 -7.8025
# 2 17.9297 63.5061 28.4753 26.8858 -21.8991 -6.0965
# 3 14.6981 28.4753 65.8802 38.0196 -26.1802 -14.1378
# 4 17.5189 26.8858 38.0196 36.8778 -14.4351 -12.2549
# 5 -17.7810 -21.8991 -26.1802 -14.4351 37.5678 18.8583
# 6 -7.8025 -6.0965 -14.1378 -12.2549 18.8583 32.1934
#
#
#
# Elastic Compliance Matrix: (Units=1/GPa)
#
#
# Indices 1 2 3 4 5 6 
#
# 1 0.015518 0.000565 0.005499 -0.011025 0.008815 -0.003078
# 2 0.000565 0.027705 0.005845 -0.023488 0.016946 -0.010917
# 3 0.005499 0.005845 0.048280 -0.050077 0.025660 -0.010452
# 4 -0.011025 -0.023488 -0.050077 0.098220 -0.028646 0.025058
# 5 0.008815 0.016946 0.025660 -0.028646 0.063287 -0.031363
# 6 -0.003078 -0.010917 -0.010452 0.025058 -0.031363 0.051569
#
#
# Mechanical properties :
#
#
# Convention : Reuss Voigt Hill
#
# Bulk Modulus (GPa) = 8.67142 36.79680 22.73411
# Shear Modulus (GPa) = 15.66403 31.18524 23.42464
#
# Velocity S-wave (km/s) = 2.70952 3.82310 3.31343
# Velocity P-wave (km/s) = 3.72194 6.06088 5.02927
#
# Compressibility (1/GPa) = 0.11532138
#
# Stress axis : x y z
#
# Youngs Moduli (GPa) = 64.44014 36.09395 20.71270
#
# Poissons Ratio (x) = -0.02039 -0.11390
# Poissons Ratio (y) = -0.03640 -0.12107
# Poissons Ratio (z) = -0.35435 -0.21098
#
# Static dielectric constant tensor:
#      x y z
#    x 1.800100 0.014640 -0.007690 
#    y 0.014640 1.805560 0.052980 
#    z -0.007690 0.052980 1.788290 
# 
# From -- ./inp_files/303608.got.cif
#   From: 2010.05.17/outbox.cif.g08.bks.cpg/sg2_152_cif.got.tgz:303608.got - 2010.06.03 11:33:40.
