data_PCOD9025841
_publ_section_title
;
Structure prediction by ZEFSAII (Michael W. Deem and Ramdas Pophale) SiO2 
 PCOD9025841
Probable space group: P -1
;
_chemical_formula_sum "Si O2"
_cell_formula_units_Z 14
_cell_length_a 10.921818
_cell_length_b 12.656114
_cell_length_c 8.589144
_cell_angle_alpha 94.784930
_cell_angle_beta 114.902967
_cell_angle_gamma 135.620998
_cell_volume 599.164288
_symmetry_space_group_name_H-M "P -1"
_symmetry_group_IT_number 2
_symmetry_cell_setting 'triclinic'
loop_
_space_group_symop_operation_xyz
x,y,z
-x,-y,-z
loop_
_atom_site_type_symbol
_atom_site_label
_atom_site_fract_x
_atom_site_fract_y
_atom_site_fract_z
Si Si1 0.047095 0.625622 0.325155
Si Si2 0.193680 0.220940 0.701997
Si Si3 0.140268 0.291365 0.191699
Si Si4 0.807113 0.077081 0.686136
Si Si5 0.622976 0.740351 0.506671
Si Si6 0.569405 0.403683 0.141856
Si Si7 0.929655 0.585166 0.598000
O O1 0.769493 0.485734 0.140216
O O2 0.092161 0.672145 0.541515
O O3 0.220911 0.815975 0.346128
O O4 0.049213 0.501597 0.289557
O O5 0.204221 0.163412 0.541042
O O6 0.382611 0.440210 0.792268
O O7 0.975406 0.148488 0.640761
O O8 0.308224 0.225914 0.904092
O O9 0.364802 0.517895 0.309996
O O10 0.248110 0.248389 0.292552
O O11 0.017911 0.270696 0.271207
O O12 0.961996 0.166948 0.937175
O O13 0.608823 0.855652 0.550978
O O14 0.661341 0.414869 0.354696
#
# Coordination Sequence:
#
# PCOD9025841 Si02
#       7
#     2   2   2   2   2   2   2
#     4   8  17  34  57  78 106 141 188 221 254 317
#     4  10  17  31  55  78 106 137 180 224 263 315
#     4  11  22  35  54  81 113 145 172 218 281 321
#     4  11  22  35  55  85 109 139 184 221 265 323
#     4  11  22  36  53  81 115 142 173 224 274 320
#     4   8  14  28  54  83  99 132 181 218 259 312
#     4   9  17  34  57  79 108 145 179 222 264 317
#
# _framework density 23.365877999999999
#
# number of rings (size 3 to 8) (size 9 to 14) (size 15 to 20)
#    0.857    1.429    1.429    3.429    2.000    0.571 
#    0.000    0.714    0.000    0.857    0.000    0.000 
#    0.000    0.000    0.000    0.000    0.000    0.000 
#
# Total GULP energy -78017.120199 kJ/mol
# GULP energy per Si atom -5572.651443 kJ/mol
# Density = 2.331270 g / cm^3
# Si number density = 23.365878 Si / 1000 Ang^3
#
#
#
# Elastic Constant Matrix: (Units=GPa)
#
#
# Indices 1 2 3 4 5 6 
#
# 1 37.8633 -2.7398 -2.2530 -4.7367 3.3176 -19.2487
# 2 -2.7398 42.3957 13.8696 -7.6542 5.1346 -18.5920
# 3 -2.2530 13.8696 46.6369 -8.1226 -6.1432 -10.6180
# 4 -4.7367 -7.6542 -8.1226 21.8923 -3.0728 5.9777
# 5 3.3176 5.1346 -6.1432 -3.0728 22.3277 -9.0301
# 6 -19.2487 -18.5920 -10.6180 5.9777 -9.0301 45.1939
#
#
#
# Elastic Compliance Matrix: (Units=1/GPa)
#
#
# Indices 1 2 3 4 5 6 
#
# 1 0.040027 0.011991 0.005574 0.009175 0.003285 0.022734
# 2 0.011991 0.035205 -0.005179 0.007953 -0.003485 0.016625
# 3 0.005574 -0.005179 0.028476 0.009513 0.012840 0.008241
# 4 0.009175 0.007953 0.009513 0.054083 0.008467 0.003953
# 5 0.003285 -0.003485 0.012840 0.008467 0.054996 0.012851
# 6 0.022734 0.016625 0.008241 0.003953 0.012851 0.042630
#
#
# Mechanical properties :
#
#
# Convention : Reuss Voigt Hill
#
# Bulk Modulus (GPa) = 7.78326 16.07215 11.92770
# Shear Modulus (GPa) = 18.28343 25.75072 22.01707
#
# Velocity S-wave (km/s) = 2.80033 3.32334 3.07298
# Velocity P-wave (km/s) = 3.71403 4.64968 4.20794
#
# Compressibility (1/GPa) = 0.12848091
#
# Stress axis : x y z
#
# Youngs Moduli (GPa) = 24.98294 28.40490 35.11707
#
# Poissons Ratio (x) = -0.34061 -0.19575
# Poissons Ratio (y) = -0.29958 0.18188
# Poissons Ratio (z) = -0.13926 0.14712
#
# Static dielectric constant tensor:
#      x y z
#    x 1.938130 0.077470 -0.002470 
#    y 0.077470 2.003180 0.033040 
#    z -0.002470 0.033040 1.929310 
# 
# From -- ./inp_files/262569.got.cif
#   From: 2010.05.17/outbox.cif.g08.bks.cpg/sg2_132_cif.got.tgz:262569.got - 2010.06.03 11:33:40.
