data_PCOD9025482
_publ_section_title
;
Structure prediction by ZEFSAII (Michael W. Deem and Ramdas Pophale) SiO2 
 PCOD9025482
Probable space group: P -1
;
_chemical_formula_sum "Si O2"
_cell_formula_units_Z 14
_cell_length_a 8.292015
_cell_length_b 5.408184
_cell_length_c 12.060172
_cell_angle_alpha 80.463214
_cell_angle_beta 94.674923
_cell_angle_gamma 106.865476
_cell_volume 510.099663
_symmetry_space_group_name_H-M "P -1"
_symmetry_group_IT_number 2
_symmetry_cell_setting 'triclinic'
loop_
_space_group_symop_operation_xyz
x,y,z
-x,-y,-z
loop_
_atom_site_type_symbol
_atom_site_label
_atom_site_fract_x
_atom_site_fract_y
_atom_site_fract_z
Si Si1 0.959209 0.837179 0.687195
Si Si2 0.813621 0.481128 0.530533
Si Si3 0.119870 0.484180 0.847265
Si Si4 0.549201 0.013951 0.631426
Si Si5 0.325347 0.264530 0.157378
Si Si6 0.713278 0.711630 0.310660
Si Si7 0.239234 0.777998 0.043258
O O1 0.045931 0.607025 0.731506
O O2 0.828607 0.734692 0.588909
O O3 0.108758 0.088707 0.656079
O O4 0.862075 0.848444 0.793652
O O5 0.733115 0.228819 0.619982
O O6 0.698520 0.484240 0.417171
O O7 0.000000 0.500000 0.500000
O O8 0.249436 0.348418 0.809157
O O9 0.955896 0.307405 0.915526
O O10 0.216052 0.718442 0.916052
O O11 0.560945 0.777291 0.730074
O O12 0.429314 0.151680 0.681236
O O13 0.500000 0.000000 0.500000
O O14 0.330975 0.065917 0.072601
O O15 0.329924 0.559647 0.105732
#
# Coordination Sequence:
#
# PCOD9025482 Si02
#       7
#     2   2   2   2   2   2   2
#     4  11  22  42  72 101 140 181 242 288 351 423
#     4  12  23  43  70 103 140 185 238 286 351 424
#     4  10  22  40  69 105 136 182 236 299 349 411
#     4  12  27  45  68 104 143 190 230 289 363 427
#     4  11  23  45  70 101 138 190 237 291 350 422
#     4  12  24  42  68 104 146 181 235 290 362 420
#     4  10  23  42  74 102 140 182 244 298 349 413
#
# _framework density 27.445619000000001
#
# number of rings (size 3 to 8) (size 9 to 14) (size 15 to 20)
#    0.000    0.857    2.857    5.143    2.000    2.857 
#    0.000    1.429    0.000    0.000    0.000    0.000 
#    0.000    0.000    0.000    0.000    0.000    0.000 
#
# Total GULP energy -78453.335210 kJ/mol
# GULP energy per Si atom -5603.809658 kJ/mol
# Density = 2.738315 g / cm^3
# Si number density = 27.445619 Si / 1000 Ang^3
#
#
#
# Elastic Constant Matrix: (Units=GPa)
#
#
# Indices 1 2 3 4 5 6 
#
# 1 88.7961 44.7180 37.8535 -0.3435 3.6338 -23.0522
# 2 44.7180 88.7048 42.6171 24.0011 -15.0249 -14.5493
# 3 37.8535 42.6171 148.6766 38.4834 1.7309 -16.4422
# 4 -0.3435 24.0011 38.4834 62.5180 -4.1900 -3.3825
# 5 3.6338 -15.0249 1.7309 -4.1900 34.1754 6.9700
# 6 -23.0522 -14.5493 -16.4422 -3.3825 6.9700 56.0373
#
#
#
# Elastic Compliance Matrix: (Units=1/GPa)
#
#
# Indices 1 2 3 4 5 6 
#
# 1 0.019321 -0.010153 -0.002731 0.005533 -0.006863 0.005698
# 2 -0.010153 0.020432 -0.001905 -0.006137 0.009610 -0.000997
# 3 -0.002731 -0.001905 0.009445 -0.005165 -0.001878 0.001075
# 4 0.005533 -0.006137 -0.005165 0.021557 -0.000490 0.000529
# 5 -0.006863 0.009610 -0.001878 -0.000490 0.035332 -0.005304
# 6 0.005698 -0.000997 0.001075 0.000529 -0.005304 0.020938
#
#
# Mechanical properties :
#
#
# Convention : Reuss Voigt Hill
#
# Bulk Modulus (GPa) = 50.97076 64.06164 57.51620
# Shear Modulus (GPa) = 30.64803 43.94539 37.29671
#
# Velocity S-wave (km/s) = 3.34530 4.00582 3.69037
# Velocity P-wave (km/s) = 5.79079 6.69234 6.25782
#
# Compressibility (1/GPa) = 0.01961909
#
# Stress axis : x y z
#
# Youngs Moduli (GPa) = 51.75822 48.94357 105.87374
#
# Poissons Ratio (x) = 0.49692 0.28914
# Poissons Ratio (y) = 0.52550 0.20172
# Poissons Ratio (z) = 0.14135 0.09325
#
# Static dielectric constant tensor:
#      x y z
#    x 2.136760 -0.029440 0.031180 
#    y -0.029440 2.268540 0.041820 
#    z 0.031180 0.041820 2.103640 
# 
# From -- ./inp_files/117019.got.cif
#   From: 2010.05.17/outbox.cif.g08.bks.cpg/sg2_59_cif.got.tgz:117019.got - 2010.06.03 11:33:40.
