data_PCOD9025763
_publ_section_title
;
Structure prediction by ZEFSAII (Michael W. Deem and Ramdas Pophale) SiO2 
 PCOD9025763
Probable space group: P -1
;
_chemical_formula_sum "Si O2"
_cell_formula_units_Z 12
_cell_length_a 20.255742
_cell_length_b 9.074799
_cell_length_c 8.190926
_cell_angle_alpha 99.307925
_cell_angle_beta 135.485622
_cell_angle_gamma 45.056634
_cell_volume 541.393281
_symmetry_space_group_name_H-M "P -1"
_symmetry_group_IT_number 2
_symmetry_cell_setting 'triclinic'
loop_
_space_group_symop_operation_xyz
x,y,z
-x,-y,-z
loop_
_atom_site_type_symbol
_atom_site_label
_atom_site_fract_x
_atom_site_fract_y
_atom_site_fract_z
Si Si1 0.902063 0.430537 0.659359
Si Si2 0.491932 0.508701 0.792008
Si Si3 0.197791 0.655731 0.277324
Si Si4 0.834068 0.586669 0.026041
Si Si5 0.244699 0.100225 0.365987
Si Si6 0.143483 0.144188 0.720014
O O1 0.791026 0.446549 0.546556
O O2 0.784801 0.740241 0.514767
O O3 0.999035 0.290141 0.631239
O O4 0.066982 0.238213 0.045810
O O5 0.346836 0.579254 0.504303
O O6 0.417503 0.764337 0.635412
O O7 0.500000 0.500000 0.000000
O O8 0.687984 0.192281 0.023135
O O9 0.226603 0.495061 0.154161
O O10 0.000000 0.000000 0.000000
O O11 0.794235 0.767269 0.127330
O O12 0.041721 0.271426 0.390578
O O13 0.766180 0.779763 0.790162
#
# Coordination Sequence:
#
# PCOD9025763 Si02
#       6
#     2   2   2   2   2   2
#     4   9  19  38  71  87 118 173 216 242 310 393
#     4  12  26  39  65 100 130 159 214 275 314 357
#     4  11  21  41  65  93 129 171 209 253 321 386
#     4   9  21  41  70  88 125 178 210 243 323 392
#     4   9  19  39  67  88 124 171 213 238 324 392
#     4  10  22  40  71  95 127 158 221 264 308 368
#
# _framework density 22.165032
#
# number of rings (size 3 to 8) (size 9 to 14) (size 15 to 20)
#    0.000    2.000    1.667    2.000    9.333    3.333 
#    0.000    6.667    0.000    0.000    0.000    0.000 
#    0.000    0.000    0.000    0.000    0.000    0.000 
#
# Total GULP energy -66831.205714 kJ/mol
# GULP energy per Si atom -5569.267143 kJ/mol
# Density = 2.211458 g / cm^3
# Si number density = 22.165032 Si / 1000 Ang^3
#
#
#
# Elastic Constant Matrix: (Units=GPa)
#
#
# Indices 1 2 3 4 5 6 
#
# 1 67.3572 36.8201 23.8166 -9.6226 -18.4624 4.5419
# 2 36.8201 121.4296 67.8135 -26.0596 -7.2485 16.8329
# 3 23.8166 67.8135 93.5764 -23.6779 -20.5615 10.7543
# 4 -9.6226 -26.0596 -23.6779 55.3860 2.2946 -8.1643
# 5 -18.4624 -7.2485 -20.5615 2.2946 19.8357 -2.1856
# 6 4.5419 16.8329 10.7543 -8.1643 -2.1856 27.1832
#
#
#
# Elastic Compliance Matrix: (Units=1/GPa)
#
#
# Indices 1 2 3 4 5 6 
#
# 1 0.025305 -0.009707 0.006803 0.001887 0.027041 0.001833
# 2 -0.009707 0.019174 -0.014388 0.001083 -0.017691 -0.005656
# 3 0.006803 -0.014388 0.026708 0.004794 0.028307 0.000922
# 4 0.001887 0.001083 0.004794 0.021310 0.005089 0.003927
# 5 0.027041 -0.017691 0.028307 0.005089 0.098387 0.004677
# 6 0.001833 -0.005656 0.000922 0.003927 0.004677 0.041175
#
#
# Mechanical properties :
#
#
# Convention : Reuss Voigt Hill
#
# Bulk Modulus (GPa) = 27.31972 59.91817 43.61894
# Shear Modulus (GPa) = 17.93115 30.74186 24.33651
#
# Velocity S-wave (km/s) = 2.84735 3.72822 3.31716
# Velocity P-wave (km/s) = 4.81271 6.75458 5.86458
#
# Compressibility (1/GPa) = 0.03660360
#
# Stress axis : x y z
#
# Youngs Moduli (GPa) = 39.51798 52.15375 37.44138
#
# Poissons Ratio (x) = 0.50625 -0.25470
# Poissons Ratio (y) = 0.38359 0.53869
# Poissons Ratio (z) = -0.26882 0.75037
#
# Static dielectric constant tensor:
#      x y z
#    x 1.903780 -0.039170 -0.005850 
#    y -0.039170 1.869710 0.014820 
#    z -0.005850 0.014820 1.816780 
# 
# From -- ./inp_files/352311.got.cif
#   From: 2010.05.17/outbox.cif.g08.bks.cpg/sg2_177_cif.got.tgz:352311.got - 2010.06.03 11:33:40.
