data_PCOD9025158
_publ_section_title
;
Structure prediction by ZEFSAII (Michael W. Deem and Ramdas Pophale) SiO2 
 PCOD9025158
Probable space group: P -1
;
_chemical_formula_sum "Si O2"
_cell_formula_units_Z 16
_cell_length_a 12.456106
_cell_length_b 16.388280
_cell_length_c 9.136061
_cell_angle_alpha 148.157912
_cell_angle_beta 125.366104
_cell_angle_gamma 46.418002
_cell_volume 712.631252
_symmetry_space_group_name_H-M "P -1"
_symmetry_group_IT_number 2
_symmetry_cell_setting 'triclinic'
loop_
_space_group_symop_operation_xyz
x,y,z
-x,-y,-z
loop_
_atom_site_type_symbol
_atom_site_label
_atom_site_fract_x
_atom_site_fract_y
_atom_site_fract_z
Si Si1 0.955193 0.682808 0.813261
Si Si2 0.365336 0.198443 0.168248
Si Si3 0.392304 0.830760 0.531137
Si Si4 0.417401 0.256147 0.980168
Si Si5 0.105452 0.585716 0.255207
Si Si6 0.659219 0.050425 0.649489
Si Si7 0.948724 0.853911 0.769010
Si Si8 0.887067 0.196421 0.661687
O O1 0.812444 0.711563 0.839391
O O2 0.919623 0.823326 0.868016
O O3 0.000000 0.500000 0.500000
O O4 0.083519 0.686221 0.017937
O O5 0.428557 0.266399 0.458147
O O6 0.437693 0.237852 0.142430
O O7 0.382367 0.002466 0.866483
O O8 0.331186 0.869452 0.376838
O O9 0.281048 0.772698 0.430742
O O10 0.556605 0.213568 0.921199
O O11 0.394699 0.089027 0.661522
O O12 0.271658 0.439131 0.126843
O O13 0.068284 0.752188 0.377495
O O14 0.067733 0.669400 0.514074
O O15 0.000000 0.500000 0.000000
O O16 0.799140 0.926926 0.668125
O O17 0.000000 0.000000 0.000000
O O18 0.000000 0.000000 0.500000
#
# Coordination Sequence:
#
# PCOD9025158 Si02
#       8
#     2   2   2   2   2   2   2   2
#     4  12  26  42  66  99 138 177 225 285 345 404
#     4  10  22  40  67  96 132 175 227 273 339 411
#     4  10  22  40  67  97 131 176 226 277 334 408
#     4  10  22  40  67  97 131 176 226 277 334 408
#     4  12  24  44  70 100 136 183 233 282 341 411
#     4  10  22  40  67  96 132 175 227 273 339 411
#     4  12  26  42  66  99 138 177 225 285 345 404
#     4  12  24  44  70 100 136 183 233 282 341 411
#
# _framework density 22.452005
#
# number of rings (size 3 to 8) (size 9 to 14) (size 15 to 20)
#    0.000    1.000    2.500    4.500    7.000    0.000 
#    0.000    6.250    0.000    0.000    0.000    0.000 
#    0.000    0.000    0.000    0.000    0.000    0.000 
#
# Total GULP energy -89184.161224 kJ/mol
# GULP energy per Si atom -5574.010077 kJ/mol
# Density = 2.240090 g / cm^3
# Si number density = 22.452005 Si / 1000 Ang^3
#
#
#
# Elastic Constant Matrix: (Units=GPa)
#
#
# Indices 1 2 3 4 5 6 
#
# 1 80.8836 18.1035 17.2342 -7.0167 3.5270 2.6852
# 2 18.1035 68.4349 -0.6580 -7.3059 -4.5076 8.9447
# 3 17.2342 -0.6580 65.2402 -0.4536 -8.5626 -13.3401
# 4 -7.0167 -7.3059 -0.4536 38.6932 -7.6303 -2.1282
# 5 3.5270 -4.5076 -8.5626 -7.6303 35.9954 -1.5900
# 6 2.6852 8.9447 -13.3401 -2.1282 -1.5900 35.2291
#
#
#
# Elastic Compliance Matrix: (Units=1/GPa)
#
#
# Indices 1 2 3 4 5 6 
#
# 1 0.014462 -0.003667 -0.004621 0.001214 -0.002805 -0.001974
# 2 -0.003667 0.016533 0.000897 0.002902 0.003114 -0.003262
# 3 -0.004621 0.000897 0.018852 0.001076 0.005613 0.007581
# 4 0.001214 0.002902 0.001076 0.027993 0.006504 0.001563
# 5 -0.002805 0.003114 0.005613 0.006504 0.031308 0.003354
# 6 -0.001974 -0.003262 0.007581 0.001563 0.003354 0.032481
#
#
# Mechanical properties :
#
#
# Convention : Reuss Voigt Hill
#
# Bulk Modulus (GPa) = 28.51841 31.54644 30.03243
# Shear Modulus (GPa) = 29.74435 33.97547 31.85991
#
# Velocity S-wave (km/s) = 3.64372 3.89427 3.77108
# Velocity P-wave (km/s) = 5.51650 5.85675 5.68917
#
# Compressibility (1/GPa) = 0.03506506
#
# Stress axis : x y z
#
# Youngs Moduli (GPa) = 69.14658 60.48686 53.04469
#
# Poissons Ratio (x) = 0.22182 0.24511
# Poissons Ratio (y) = 0.25358 -0.04760
# Poissons Ratio (z) = 0.31951 -0.05427
#
# Static dielectric constant tensor:
#      x y z
#    x 2.043370 -0.182930 -0.323200 
#    y -0.182930 2.010250 0.311160 
#    z -0.323200 0.311160 2.539360 
# 
# From -- ./inp_files/280274.got.cif
#   From: 2010.05.17/outbox.cif.g08.bks.cpg/sg2_141_cif.got.tgz:280274.got - 2010.06.03 11:33:40.
