data_PCOD9025923
_publ_section_title
;
Structure prediction by ZEFSAII (Michael W. Deem and Ramdas Pophale) SiO2 
 PCOD9025923
Probable space group: P -1
;
_chemical_formula_sum "Si O2"
_cell_formula_units_Z 15
_cell_length_a 12.998272
_cell_length_b 8.089960
_cell_length_c 9.419295
_cell_angle_alpha 135.073966
_cell_angle_beta 133.431336
_cell_angle_gamma 52.201190
_cell_volume 492.355230
_symmetry_space_group_name_H-M "P -1"
_symmetry_group_IT_number 2
_symmetry_cell_setting 'triclinic'
loop_
_space_group_symop_operation_xyz
x,y,z
-x,-y,-z
loop_
_atom_site_type_symbol
_atom_site_label
_atom_site_fract_x
_atom_site_fract_y
_atom_site_fract_z
Si Si1 0.126460 0.549267 0.950319
Si Si2 0.629643 0.070292 0.301491
Si Si3 0.233624 0.698554 0.632349
Si Si4 0.000000 0.500000 0.500000
Si Si5 0.044574 0.985176 0.310530
Si Si6 0.632474 0.705431 0.294260
Si Si7 0.326018 0.867825 0.201847
Si Si8 0.698872 0.728992 0.796175
O O1 0.223927 0.714887 0.075269
O O2 0.219087 0.356200 0.031020
O O3 0.018614 0.745568 0.066255
O O4 0.051001 0.449392 0.687835
O O5 0.789406 0.093810 0.520952
O O6 0.634091 0.799549 0.193949
O O7 0.477258 0.225799 0.316035
O O8 0.359100 0.834657 0.789799
O O9 0.244673 0.530530 0.685582
O O10 0.253033 0.485273 0.404450
O O11 0.087580 0.904960 0.641434
O O12 0.040340 0.204589 0.331373
O O13 0.478364 0.681747 0.192656
O O14 0.649653 0.938990 0.542039
O O15 0.283942 0.028426 0.118936
#
# Coordination Sequence:
#
# PCOD9025923 Si02
#       8
#     2   2   2   1   2   2   2   2
#     4  12  25  52  83 114 162 221 273 344 407 475
#     4  11  20  39  74 122 169 213 260 333 409 493
#     4  11  21  37  70 121 172 212 260 325 412 502
#     4  12  32  56  80 114 162 226 288 334 404 494
#     4  12  26  46  79 119 165 212 266 340 412 490
#     4   9  17  33  65 121 170 210 262 326 401 499
#     4   9  18  36  72 121 160 207 272 336 404 480
#     4  10  22  40  79 129 164 209 272 337 404 497
#
# _framework density 30.465810000000001
#
# number of rings (size 3 to 8) (size 9 to 14) (size 15 to 20)
#    0.000    1.333    2.667    3.600    1.867    0.000 
#    0.000    4.667    0.000   11.200    0.000    0.000 
#    0.000    0.267    0.000    0.000    0.000    0.000 
#
# Total GULP energy -84038.014800 kJ/mol
# GULP energy per Si atom -5602.534320 kJ/mol
# Density = 3.039647 g / cm^3
# Si number density = 30.465810 Si / 1000 Ang^3
#
#
#
# Elastic Constant Matrix: (Units=GPa)
#
#
# Indices 1 2 3 4 5 6 
#
# 1 207.1861 56.0249 73.9635 3.7207 -14.2914 4.0635
# 2 56.0249 220.1369 85.2412 2.3827 -19.9394 17.9125
# 3 73.9635 85.2412 148.7569 -27.0660 -17.6934 -12.4348
# 4 3.7207 2.3827 -27.0660 60.8267 9.6246 3.8534
# 5 -14.2914 -19.9394 -17.6934 9.6246 50.9363 1.3581
# 6 4.0635 17.9125 -12.4348 3.8534 1.3581 85.0720
#
#
#
# Elastic Compliance Matrix: (Units=1/GPa)
#
#
# Indices 1 2 3 4 5 6 
#
# 1 0.006143 -0.000137 -0.003274 -0.001930 0.000915 -0.000670
# 2 -0.000137 0.006433 -0.003978 -0.002142 0.001552 -0.001857
# 3 -0.003274 -0.003978 0.011887 0.005399 0.000567 0.002478
# 4 -0.001930 -0.002142 0.005399 0.019520 -0.003206 0.000499
# 5 0.000915 0.001552 0.000567 -0.003206 0.021312 -0.000483
# 6 -0.000670 -0.001857 0.002478 0.000499 -0.000483 0.012525
#
#
# Mechanical properties :
#
#
# Convention : Reuss Voigt Hill
#
# Bulk Modulus (GPa) = 103.26703 111.83766 107.55235
# Shear Modulus (GPa) = 52.17684 63.42370 57.80027
#
# Velocity S-wave (km/s) = 4.14289 4.56762 4.36043
# Velocity P-wave (km/s) = 7.54018 8.03782 7.79297
#
# Compressibility (1/GPa) = 0.00968363
#
# Stress axis : x y z
#
# Youngs Moduli (GPa) = 162.77369 155.45065 84.12698
#
# Poissons Ratio (x) = 0.02136 0.27545
# Poissons Ratio (y) = 0.02236 0.33468
# Poissons Ratio (z) = 0.53295 0.61842
#
# Static dielectric constant tensor:
#      x y z
#    x 2.178610 -0.068660 -0.303120 
#    y -0.068660 2.289870 -0.132850 
#    z -0.303120 -0.132850 2.143320 
# 
# From -- ./inp_files/469695.got.cif
#   From: 2010.05.17/outbox.cif.g08.bks.cpg/sg2_235_cif.got.tgz:469695.got - 2010.06.03 11:33:40.
