data_PCOD9025350
_publ_section_title
;
Structure prediction by ZEFSAII (Michael W. Deem and Ramdas Pophale) SiO2 
 PCOD9025350
Probable space group: P -1
;
_chemical_formula_sum "Si O2"
_cell_formula_units_Z 16
_cell_length_a 18.484892
_cell_length_b 12.131636
_cell_length_c 23.088574
_cell_angle_alpha 155.088230
_cell_angle_beta 17.252917
_cell_angle_gamma 151.542311
_cell_volume 643.324057
_symmetry_space_group_name_H-M "P -1"
_symmetry_group_IT_number 2
_symmetry_cell_setting 'triclinic'
loop_
_space_group_symop_operation_xyz
x,y,z
-x,-y,-z
loop_
_atom_site_type_symbol
_atom_site_label
_atom_site_fract_x
_atom_site_fract_y
_atom_site_fract_z
Si Si1 0.541339 0.649061 0.779982
Si Si2 0.700545 0.298345 0.693725
Si Si3 0.659822 0.008976 0.475474
Si Si4 0.717394 0.432506 0.173274
Si Si5 0.798304 0.471175 0.823290
Si Si6 0.617245 0.757373 0.566343
Si Si7 0.201669 0.873879 0.695845
Si Si8 0.837768 0.187387 0.772834
O O1 0.329324 0.664906 0.902060
O O2 0.661271 0.385184 0.548173
O O3 0.736156 0.898428 0.736276
O O4 0.391082 0.655749 0.957005
O O5 0.860575 0.421163 0.683854
O O6 0.778836 0.215079 0.529782
O O7 0.608747 0.015736 0.657459
O O8 0.485652 0.483892 0.937779
O O9 0.619367 0.716044 0.392281
O O10 0.387856 0.047457 0.677784
O O11 0.821303 0.994678 0.286691
O O12 0.562612 0.226239 0.233852
O O13 0.000000 0.500000 0.000000
O O14 0.856430 0.249878 0.719568
O O15 0.951703 0.747533 0.854159
O O16 0.500000 0.500000 0.500000
O O17 0.895225 0.734121 0.365128
#
# Coordination Sequence:
#
# PCOD9025350 Si02
#       8
#     2   2   2   2   2   2   2   2
#     4  10  22  40  68  95 129 172 226 273 326 401
#     4  11  25  43  63 101 135 170 223 277 332 395
#     4  10  22  42  63  92 134 170 221 269 334 398
#     4  11  23  40  63  96 135 173 220 274 332 394
#     4  11  25  43  67  96 134 178 223 273 330 398
#     4  12  24  42  69 102 135 173 223 280 337 395
#     4  10  22  42  64  95 127 179 217 273 331 397
#     4  11  23  44  69  98 131 181 226 272 337 407
#
# _framework density 24.870825
#
# number of rings (size 3 to 8) (size 9 to 14) (size 15 to 20)
#    0.000    1.250    1.250    4.500    1.750    2.500 
#    2.250    0.000    0.000    0.000    0.000    0.000 
#    0.000    0.000    0.000    0.000    0.000    0.000 
#
# Total GULP energy -89384.873221 kJ/mol
# GULP energy per Si atom -5586.554576 kJ/mol
# Density = 2.481422 g / cm^3
# Si number density = 24.870825 Si / 1000 Ang^3
#
#
#
# Elastic Constant Matrix: (Units=GPa)
#
#
# Indices 1 2 3 4 5 6 
#
# 1 128.3936 29.5408 37.5819 -13.6529 -8.7511 1.5609
# 2 29.5408 103.7970 15.5691 -13.7909 -21.9983 8.5526
# 3 37.5819 15.5691 64.3976 -13.9138 -11.4729 1.6849
# 4 -13.6529 -13.7909 -13.9138 42.8223 1.3267 -4.3976
# 5 -8.7511 -21.9983 -11.4729 1.3267 40.3929 -4.7315
# 6 1.5609 8.5526 1.6849 -4.3976 -4.7315 44.0598
#
#
#
# Elastic Compliance Matrix: (Units=1/GPa)
#
#
# Indices 1 2 3 4 5 6 
#
# 1 0.009816 -0.002024 -0.005140 0.000850 -0.000431 0.000280
# 2 -0.002024 0.011935 -0.000013 0.002877 0.005807 -0.001334
# 3 -0.005140 -0.000013 0.020387 0.004879 0.004554 0.000381
# 4 0.000850 0.002877 0.004879 0.026275 0.002522 0.002118
# 5 -0.000431 0.005807 0.004554 0.002522 0.029284 0.002110
# 6 0.000280 -0.001334 0.000381 0.002118 0.002110 0.023369
#
#
# Mechanical properties :
#
#
# Convention : Reuss Voigt Hill
#
# Bulk Modulus (GPa) = 35.99174 51.33020 43.66097
# Shear Modulus (GPa) = 34.55869 39.71476 37.13673
#
# Velocity S-wave (km/s) = 3.73168 4.00038 3.86837
# Velocity P-wave (km/s) = 5.75066 6.48236 6.12744
#
# Compressibility (1/GPa) = 0.02778415
#
# Stress axis : x y z
#
# Youngs Moduli (GPa) = 101.87067 83.78621 49.05128
#
# Poissons Ratio (x) = 0.16960 0.25211
# Poissons Ratio (y) = 0.20621 0.00064
# Poissons Ratio (z) = 0.52359 0.00109
#
# Static dielectric constant tensor:
#      x y z
#    x 1.912410 0.113040 0.311340 
#    y 0.113040 1.892730 -0.099900 
#    z 0.311340 -0.099900 1.692210 
# 
# From -- ./inp_files/613136.got.cif
#   From: 2010.05.17/outbox.cif.g08.bks.cpg/sg2_307_cif.got.tgz:613136.got - 2010.06.03 11:33:40.
