data_PCOD9025361
_publ_section_title
;
Structure prediction by ZEFSAII (Michael W. Deem and Ramdas Pophale) SiO2 
 PCOD9025361
Probable space group: P -1
;
_chemical_formula_sum "Si O2"
_cell_formula_units_Z 15
_cell_length_a 7.585807
_cell_length_b 13.601191
_cell_length_c 10.871002
_cell_angle_alpha 50.570072
_cell_angle_beta 66.949922
_cell_angle_gamma 105.202519
_cell_volume 554.175519
_symmetry_space_group_name_H-M "P -1"
_symmetry_group_IT_number 2
_symmetry_cell_setting 'triclinic'
loop_
_space_group_symop_operation_xyz
x,y,z
-x,-y,-z
loop_
_atom_site_type_symbol
_atom_site_label
_atom_site_fract_x
_atom_site_fract_y
_atom_site_fract_z
Si Si1 0.342180 0.820337 0.265251
Si Si2 0.500000 0.500000 0.000000
Si Si3 0.243587 0.126055 0.447292
Si Si4 0.523685 0.080884 0.222812
Si Si5 0.135151 0.529173 0.226158
Si Si6 0.738022 0.785180 0.218628
Si Si7 0.056698 0.221601 0.074195
Si Si8 0.369184 0.594329 0.693461
O O1 0.502933 0.765543 0.248455
O O2 0.020502 0.629864 0.502620
O O3 0.401534 0.908101 0.314910
O O4 0.500000 0.000000 0.000000
O O5 0.745498 0.722174 0.711730
O O6 0.669350 0.462483 0.917387
O O7 0.303315 0.055620 0.379028
O O8 0.503246 0.246416 0.374026
O O9 0.985739 0.940702 0.736987
O O10 0.756165 0.138267 0.206701
O O11 0.687429 0.262656 0.949086
O O12 0.889821 0.472094 0.254490
O O13 0.613628 0.676627 0.466743
O O14 0.821000 0.725736 0.139036
O O15 0.000000 0.000000 0.000000
O O16 0.262061 0.415502 0.936707
#
# Coordination Sequence:
#
# PCOD9025361 Si02
#       8
#     2   1   2   2   2   2   2   2
#     4  11  24  41  66  89 127 172 210 257 318 383
#     4  10  24  42  60  88 138 164 202 264 306 376
#     4  11  23  41  64  93 129 170 208 261 322 374
#     4  10  22  41  63  93 125 165 210 265 315 372
#     4   9  22  43  63  90 129 164 210 259 314 372
#     4  11  20  40  65  97 130 159 214 271 311 369
#     4  11  21  38  68  96 125 166 213 263 317 371
#     4  10  22  40  68  96 125 168 213 262 318 378
#
# _framework density 27.067239000000001
#
# number of rings (size 3 to 8) (size 9 to 14) (size 15 to 20)
#    0.000    1.600    2.667    1.600    1.867    7.467 
#    4.800    3.333    0.000    0.000    0.000    0.000 
#    0.000    0.000    0.000    0.000    0.000    0.000 
#
# Total GULP energy -83837.065641 kJ/mol
# GULP energy per Si atom -5589.137709 kJ/mol
# Density = 2.700563 g / cm^3
# Si number density = 27.067239 Si / 1000 Ang^3
#
#
#
# Elastic Constant Matrix: (Units=GPa)
#
#
# Indices 1 2 3 4 5 6 
#
# 1 72.3391 14.3031 17.1830 -0.1637 6.3309 -12.7081
# 2 14.3031 102.0704 21.1870 -30.9036 -8.0866 -8.9518
# 3 17.1830 21.1870 152.7185 -34.0495 25.8571 -11.0140
# 4 -0.1637 -30.9036 -34.0495 56.1156 -6.1865 -2.7981
# 5 6.3309 -8.0866 25.8571 -6.1865 44.9698 -3.1676
# 6 -12.7081 -8.9518 -11.0140 -2.7981 -3.1676 34.9670
#
#
#
# Elastic Compliance Matrix: (Units=1/GPa)
#
#
# Indices 1 2 3 4 5 6 
#
# 1 0.015484 -0.002265 -0.001236 -0.001939 -0.001838 0.004336
# 2 -0.002265 0.013130 -0.000315 0.007662 0.004157 0.003429
# 3 -0.001236 -0.000315 0.008626 0.004721 -0.004038 0.002199
# 4 -0.001939 0.007662 0.004721 0.025458 0.002793 0.005034
# 5 -0.001838 0.004157 -0.004038 0.002793 0.026070 0.001710
# 6 0.004336 0.003429 0.002199 0.005034 0.001710 0.032302
#
#
# Mechanical properties :
#
#
# Convention : Reuss Voigt Hill
#
# Bulk Modulus (GPa) = 33.77674 48.05269 40.91471
# Shear Modulus (GPa) = 36.08256 45.50747 40.79501
#
# Velocity S-wave (km/s) = 3.65509 4.10478 3.88644
# Velocity P-wave (km/s) = 5.50625 6.34486 5.94037
#
# Compressibility (1/GPa) = 0.02960617
#
# Stress axis : x y z
#
# Youngs Moduli (GPa) = 64.58462 76.16222 115.93299
#
# Poissons Ratio (x) = 0.17254 0.14333
# Poissons Ratio (y) = 0.14631 0.03649
# Poissons Ratio (z) = 0.07984 0.02397
#
# Static dielectric constant tensor:
#      x y z
#    x 2.049180 0.007250 0.056150 
#    y 0.007250 1.986130 0.003270 
#    z 0.056150 0.003270 2.209270 
# 
# From -- ./inp_files/397014.got.cif
#   From: 2010.05.17/outbox.cif.g08.bks.cpg/sg2_199_cif.got.tgz:397014.got - 2010.06.03 11:33:40.
