data_PCOD9025570
_publ_section_title
;
Structure prediction by ZEFSAII (Michael W. Deem and Ramdas Pophale) SiO2 
 PCOD9025570
Probable space group: P -1
;
_chemical_formula_sum "Si O2"
_cell_formula_units_Z 16
_cell_length_a 7.880051
_cell_length_b 19.894164
_cell_length_c 21.705114
_cell_angle_alpha 18.985586
_cell_angle_beta 145.285253
_cell_angle_gamma 138.281090
_cell_volume 621.609292
_symmetry_space_group_name_H-M "P -1"
_symmetry_group_IT_number 2
_symmetry_cell_setting 'triclinic'
loop_
_space_group_symop_operation_xyz
x,y,z
-x,-y,-z
loop_
_atom_site_type_symbol
_atom_site_label
_atom_site_fract_x
_atom_site_fract_y
_atom_site_fract_z
Si Si1 0.900962 0.851418 0.852287
Si Si2 0.242439 0.847130 0.661892
Si Si3 0.353326 0.960547 0.802750
Si Si4 0.889305 0.618706 0.658433
Si Si5 0.700398 0.396996 0.994483
Si Si6 0.861861 0.950944 0.141546
Si Si7 0.947792 0.711305 0.257732
Si Si8 0.037194 0.539919 0.630484
O O1 0.549351 0.928947 0.666464
O O2 0.085122 0.991579 0.745183
O O3 0.965625 0.885554 0.914067
O O4 0.049111 0.608510 0.093098
O O5 0.109794 0.748301 0.648798
O O6 0.374758 0.654143 0.913797
O O7 0.000000 0.000000 0.500000
O O8 0.400884 0.191433 0.593814
O O9 0.247792 0.822477 0.836334
O O10 0.615003 0.809413 0.047787
O O11 0.915301 0.559672 0.645765
O O12 0.401467 0.515961 0.769476
O O13 0.000000 0.500000 0.000000
O O14 0.972021 0.897633 0.151455
O O15 0.952839 0.743565 0.388188
O O16 0.500000 0.000000 0.000000
O O17 0.087861 0.632482 0.301295
O O18 0.000000 0.500000 0.500000
#
# Coordination Sequence:
#
# PCOD9025570 Si02
#       8
#     2   2   2   2   2   2   2   2
#     4  12  26  43  73 104 139 189 235 288 352 415
#     4  12  27  46  66 102 148 180 231 295 345 420
#     4  11  23  44  72 100 142 187 232 286 349 422
#     4  12  24  44  69 101 144 180 233 286 346 423
#     4  11  24  43  69 103 139 187 238 279 357 423
#     4  11  21  44  71 101 138 183 238 293 353 412
#     4   9  20  42  72  98 136 180 230 291 346 408
#     4  10  22  40  69  98 136 179 226 287 346 416
#
# _framework density 25.739640999999999
#
# number of rings (size 3 to 8) (size 9 to 14) (size 15 to 20)
#    0.000    1.000    5.000    1.125    3.500    0.500 
#    2.250    3.125    0.000    0.000    0.000    0.000 
#    0.000    0.000    0.000    0.000    0.000    0.000 
#
# Total GULP energy -89240.080951 kJ/mol
# GULP energy per Si atom -5577.505059 kJ/mol
# Density = 2.568106 g / cm^3
# Si number density = 25.739641 Si / 1000 Ang^3
#
#
#
# Elastic Constant Matrix: (Units=GPa)
#
#
# Indices 1 2 3 4 5 6 
#
# 1 55.7676 34.1450 5.6301 13.2926 5.7439 -32.3183
# 2 34.1450 124.5832 42.3335 -0.6167 11.2700 -52.2470
# 3 5.6301 42.3335 147.1352 0.9457 -3.3134 -5.8191
# 4 13.2926 -0.6167 0.9457 51.0867 -2.5184 -3.2537
# 5 5.7439 11.2700 -3.3134 -2.5184 35.8921 6.6548
# 6 -32.3183 -52.2470 -5.8191 -3.2537 6.6548 53.5456
#
#
#
# Elastic Compliance Matrix: (Units=1/GPa)
#
#
# Indices 1 2 3 4 5 6 
#
# 1 0.032691 0.001441 -0.000986 -0.007589 -0.010360 0.021856
# 2 0.001441 0.018381 -0.004800 0.000688 -0.010025 0.019571
# 3 -0.000986 -0.004800 0.008100 -0.000095 0.003298 -0.004814
# 4 -0.007589 0.000688 -0.000095 0.021519 0.003054 -0.002991
# 5 -0.010360 -0.010025 0.003298 0.003054 0.036909 -0.020078
# 6 0.021856 0.019571 -0.004814 -0.002991 -0.020078 0.052754
#
#
# Mechanical properties :
#
#
# Convention : Reuss Voigt Hill
#
# Bulk Modulus (GPa) = 19.80902 54.63369 37.22135
# Shear Modulus (GPa) = 25.52718 44.46338 34.99528
#
# Velocity S-wave (km/s) = 3.15262 4.16074 3.69126
# Velocity P-wave (km/s) = 4.57871 6.65988 5.71483
#
# Compressibility (1/GPa) = 0.05048206
#
# Stress axis : x y z
#
# Youngs Moduli (GPa) = 30.58945 54.40520 123.46185
#
# Poissons Ratio (x) = -0.07838 0.12168
# Poissons Ratio (y) = -0.04407 0.59259
# Poissons Ratio (z) = 0.03015 0.26113
#
# Static dielectric constant tensor:
#      x y z
#    x 2.096740 0.088430 0.007870 
#    y 0.088430 2.173240 -0.043240 
#    z 0.007870 -0.043240 2.137930 
# 
# From -- ./inp_files/608643.got.cif
#   From: 2010.05.17/outbox.cif.g08.bks.cpg/sg2_305_cif.got.tgz:608643.got - 2010.06.03 11:33:40.
