data_PCOD9025789
_publ_section_title
;
Structure prediction by ZEFSAII (Michael W. Deem and Ramdas Pophale) SiO2 
 PCOD9025789
Probable space group: P -1
;
_chemical_formula_sum "Si O2"
_cell_formula_units_Z 16
_cell_length_a 8.752865
_cell_length_b 8.090255
_cell_length_c 11.508146
_cell_angle_alpha 108.231960
_cell_angle_beta 78.739749
_cell_angle_gamma 68.099400
_cell_volume 671.651530
_symmetry_space_group_name_H-M "P -1"
_symmetry_group_IT_number 2
_symmetry_cell_setting 'triclinic'
loop_
_space_group_symop_operation_xyz
x,y,z
-x,-y,-z
loop_
_atom_site_type_symbol
_atom_site_label
_atom_site_fract_x
_atom_site_fract_y
_atom_site_fract_z
Si Si1 0.768072 0.902224 0.444985
Si Si2 0.333072 0.353012 0.428449
Si Si3 0.156910 0.599646 0.295979
Si Si4 0.948077 0.640082 0.905293
Si Si5 0.714868 0.238835 0.381291
Si Si6 0.607718 0.305052 0.866722
Si Si7 0.948050 0.980047 0.870532
Si Si8 0.278418 0.282071 0.826299
O O1 0.695484 0.813143 0.536563
O O2 0.718360 0.828545 0.316193
O O3 0.979001 0.788497 0.401157
O O4 0.707888 0.130687 0.478780
O O5 0.214161 0.438258 0.352187
O O6 0.537428 0.274958 0.350123
O O7 0.286774 0.551905 0.554390
O O8 0.111334 0.515878 0.167709
O O9 0.313542 0.644586 0.247720
O O10 0.909156 0.796490 0.846504
O O11 0.157157 0.516012 0.869416
O O12 0.838506 0.741391 0.058819
O O13 0.887309 0.087972 0.254684
O O14 0.469687 0.229122 0.833467
O O15 0.500000 0.500000 0.000000
O O16 0.775885 0.158364 0.883945
O O17 0.000000 0.000000 0.000000
#
# Coordination Sequence:
#
# PCOD9025789 Si02
#       8
#     2   2   2   2   2   2   2   2
#     4  11  23  47  70 101 140 187 237 287 355 406
#     4  11  27  44  74 101 143 188 239 290 343 418
#     4  11  24  45  69 102 141 183 235 288 347 416
#     4  10  22  42  69  99 138 182 224 288 353 412
#     4  11  25  47  68 109 138 184 238 288 356 411
#     4  12  25  43  68 104 142 182 230 285 353 418
#     4  12  26  43  72 105 143 179 229 293 354 417
#     4  10  22  40  71  99 139 179 229 282 352 418
#
# _framework density 23.821876
#
# number of rings (size 3 to 8) (size 9 to 14) (size 15 to 20)
#    0.000    1.000    2.500    3.750    8.750    2.000 
#    2.250    0.000    0.000    0.000    0.000    0.000 
#    0.000    0.000    0.000    0.000    0.000    0.000 
#
# Total GULP energy -89552.466198 kJ/mol
# GULP energy per Si atom -5597.029137 kJ/mol
# Density = 2.376766 g / cm^3
# Si number density = 23.821876 Si / 1000 Ang^3
#
#
#
# Elastic Constant Matrix: (Units=GPa)
#
#
# Indices 1 2 3 4 5 6 
#
# 1 60.2591 15.3205 35.3820 18.0993 -4.7147 -16.0128
# 2 15.3205 111.0567 19.7124 1.9912 -14.9934 -8.9671
# 3 35.3820 19.7124 67.0785 -4.5879 -2.0931 -13.6013
# 4 18.0993 1.9912 -4.5879 30.9043 -4.7186 -11.8600
# 5 -4.7147 -14.9934 -2.0931 -4.7186 30.0975 -3.5473
# 6 -16.0128 -8.9671 -13.6013 -11.8600 -3.5473 45.0075
#
#
#
# Elastic Compliance Matrix: (Units=1/GPa)
#
#
# Indices 1 2 3 4 5 6 
#
# 1 0.036019 -0.000911 -0.020336 -0.023985 0.000034 0.000170
# 2 -0.000911 0.010312 -0.001937 0.001091 0.005248 0.001846
# 3 -0.020336 -0.001937 0.028802 0.018923 0.001549 0.006191
# 4 -0.023985 0.001091 0.018923 0.055242 0.008250 0.012610
# 5 0.000034 0.005248 0.001549 0.008250 0.038036 0.006697
# 6 0.000170 0.001846 0.006191 0.012610 0.006697 0.028369
#
#
# Mechanical properties :
#
#
# Convention : Reuss Voigt Hill
#
# Bulk Modulus (GPa) = 34.76504 42.13601 38.45053
# Shear Modulus (GPa) = 19.78344 32.40049 26.09197
#
# Velocity S-wave (km/s) = 2.88492 3.69197 3.31311
# Velocity P-wave (km/s) = 5.07173 5.99171 5.55081
#
# Compressibility (1/GPa) = 0.02876453
#
# Stress axis : x y z
#
# Youngs Moduli (GPa) = 27.76296 96.97462 34.71984
#
# Poissons Ratio (x) = 0.08833 0.70607
# Poissons Ratio (y) = 0.02529 0.06726
# Poissons Ratio (z) = 0.56460 0.18785
#
# Static dielectric constant tensor:
#      x y z
#    x 1.923620 0.050690 0.020150 
#    y 0.050690 1.923570 0.021490 
#    z 0.020150 0.021490 1.889820 
# 
# From -- ./inp_files/382261.got.cif
#   From: 2010.05.17/outbox.cif.g08.bks.cpg/sg2_192_cif.got.tgz:382261.got - 2010.06.03 11:33:40.
