data_PCOD9025200
_publ_section_title
;
Structure prediction by ZEFSAII (Michael W. Deem and Ramdas Pophale) SiO2 
 PCOD9025200
Probable space group: P -1
;
_chemical_formula_sum "Si O2"
_cell_formula_units_Z 16
_cell_length_a 14.891394
_cell_length_b 20.523357
_cell_length_c 8.850358
_cell_angle_alpha 111.244468
_cell_angle_beta 67.255919
_cell_angle_gamma 161.085541
_cell_volume 808.565679
_symmetry_space_group_name_H-M "P -1"
_symmetry_group_IT_number 2
_symmetry_cell_setting 'triclinic'
loop_
_space_group_symop_operation_xyz
x,y,z
-x,-y,-z
loop_
_atom_site_type_symbol
_atom_site_label
_atom_site_fract_x
_atom_site_fract_y
_atom_site_fract_z
Si Si1 0.043670 0.819071 0.623783
Si Si2 0.421932 0.726208 0.402153
Si Si3 0.536476 0.523083 0.312590
Si Si4 0.197092 0.424193 0.711631
Si Si5 0.283775 0.800975 0.056471
Si Si6 0.684450 0.776582 0.458741
Si Si7 0.108482 0.617382 0.730959
Si Si8 0.350441 0.921056 0.684993
O O1 0.088832 0.792304 0.700930
O O2 0.777896 0.688667 0.721903
O O3 0.977755 0.733066 0.439045
O O4 0.322489 0.050346 0.612305
O O5 0.561334 0.749416 0.396407
O O6 0.228711 0.630278 0.579419
O O7 0.214005 0.586374 0.276068
O O8 0.500000 0.500000 0.500000
O O9 0.716900 0.575399 0.218380
O O10 0.666597 0.685765 0.327703
O O11 0.472943 0.636538 0.622828
O O12 0.001223 0.350486 0.847282
O O13 0.441957 0.894763 0.189590
O O14 0.201907 0.683202 0.899528
O O15 0.500000 0.000000 0.000000
O O16 0.000000 0.000000 0.500000
O O17 0.259302 0.787362 0.706257
O O18 0.500000 0.000000 0.500000
#
# Coordination Sequence:
#
# PCOD9025200 Si02
#       8
#     2   2   2   2   2   2   2   2
#     4  10  17  31  54  80 103 142 186 227 269 323
#     4  11  20  33  54  76 116 144 184 229 273 331
#     4   8  17  30  52  79 102 136 187 229 266 320
#     4  10  18  34  57  79 111 142 187 233 270 326
#     4  10  21  35  56  83 113 146 181 230 279 327
#     4  10  19  31  54  85 111 141 185 234 277 322
#     4  10  22  35  51  82 111 147 181 225 283 328
#     4  11  18  33  58  78 107 143 189 226 272 326
#
# _framework density 19.788125000000001
#
# number of rings (size 3 to 8) (size 9 to 14) (size 15 to 20)
#    0.000    2.250    2.500    4.500    0.000    0.000 
#    0.000    2.500    0.000   11.250    0.000    0.000 
#    0.000    0.000    0.000    0.000    0.000    0.000 
#
# Total GULP energy -89193.867663 kJ/mol
# GULP energy per Si atom -5574.616729 kJ/mol
# Density = 1.974309 g / cm^3
# Si number density = 19.788125 Si / 1000 Ang^3
#
#
#
# Elastic Constant Matrix: (Units=GPa)
#
#
# Indices 1 2 3 4 5 6 
#
# 1 77.1854 1.9521 -3.2102 7.0498 17.3505 15.6854
# 2 1.9521 116.2158 19.4119 11.5189 5.3401 12.6836
# 3 -3.2102 19.4119 53.0797 21.6633 7.1161 6.2893
# 4 7.0498 11.5189 21.6633 29.7423 4.4647 8.7841
# 5 17.3505 5.3401 7.1161 4.4647 15.5371 2.2036
# 6 15.6854 12.6836 6.2893 8.7841 2.2036 32.6963
#
#
#
# Elastic Compliance Matrix: (Units=1/GPa)
#
#
# Indices 1 2 3 4 5 6 
#
# 1 0.020901 0.001004 0.006881 -0.004030 -0.024401 -0.009013
# 2 0.001004 0.009546 -0.002335 -0.000859 -0.002614 -0.003329
# 3 0.006881 -0.002335 0.030567 -0.020223 -0.014809 -0.001844
# 4 -0.004030 -0.000859 -0.020223 0.051908 0.000249 -0.007806
# 5 -0.024401 -0.002614 -0.014809 0.000249 0.097958 0.008899
# 6 -0.009013 -0.003329 -0.001844 -0.007806 0.008899 0.038051
#
#
# Mechanical properties :
#
#
# Convention : Reuss Voigt Hill
#
# Bulk Modulus (GPa) = 13.86685 31.42096 22.64391
# Shear Modulus (GPa) = 19.09339 30.81696 24.95518
#
# Velocity S-wave (km/s) = 3.10964 3.95060 3.55508
# Velocity P-wave (km/s) = 4.46274 6.05994 5.32160
#
# Compressibility (1/GPa) = 0.07211441
#
# Stress axis : x y z
#
# Youngs Moduli (GPa) = 47.84384 104.75164 32.71472
#
# Poissons Ratio (x) = -0.10516 -0.22511
# Poissons Ratio (y) = -0.04803 0.07640
# Poissons Ratio (z) = -0.32922 0.24462
#
# Static dielectric constant tensor:
#      x y z
#    x 1.776990 0.009620 0.008820 
#    y 0.009620 1.714520 0.003510 
#    z 0.008820 0.003510 1.730700 
# 
# From -- ./inp_files/318698.got.cif
#   From: 2010.05.17/outbox.cif.g08.bks.cpg/sg2_160_cif.got.tgz:318698.got - 2010.06.03 11:33:40.
