data_PCOD9025244
_publ_section_title
;
Structure prediction by ZEFSAII (Michael W. Deem and Ramdas Pophale) SiO2 
 PCOD9025244
Probable space group: P -1
;
_chemical_formula_sum "Si O2"
_cell_formula_units_Z 16
_cell_length_a 11.995041
_cell_length_b 17.991822
_cell_length_c 7.866790
_cell_angle_alpha 137.115568
_cell_angle_beta 144.904541
_cell_angle_gamma 42.133601
_cell_volume 618.924934
_symmetry_space_group_name_H-M "P -1"
_symmetry_group_IT_number 2
_symmetry_cell_setting 'triclinic'
loop_
_space_group_symop_operation_xyz
x,y,z
-x,-y,-z
loop_
_atom_site_type_symbol
_atom_site_label
_atom_site_fract_x
_atom_site_fract_y
_atom_site_fract_z
Si Si1 0.862009 0.833341 0.695320
Si Si2 0.812786 0.393992 0.126707
Si Si3 0.386675 0.188377 0.130384
Si Si4 0.359953 0.309910 0.969563
Si Si5 0.572543 0.654901 0.270500
Si Si6 0.048524 0.800385 0.533609
Si Si7 0.751033 0.445290 0.747870
Si Si8 0.216249 0.957916 0.798912
O O1 0.687036 0.806700 0.326118
O O2 0.006607 0.851809 0.757027
O O3 0.981970 0.708612 0.725795
O O4 0.786499 0.939439 0.906663
O O5 0.764836 0.531412 0.332789
O O6 0.625888 0.364566 0.929837
O O7 0.798729 0.387181 0.894799
O O8 0.394763 0.238887 0.411557
O O9 0.591749 0.079845 0.153302
O O10 0.409699 0.287230 0.193875
O O11 0.169507 0.171570 0.793213
O O12 0.460742 0.323358 0.936283
O O13 0.186137 0.441345 0.984845
O O14 0.140767 0.659293 0.420567
O O15 0.204384 0.849013 0.712773
O O16 0.500000 0.500000 0.500000
O O17 0.000000 0.000000 0.500000
#
# Coordination Sequence:
#
# PCOD9025244 Si02
#       8
#     2   2   2   2   2   2   2   2
#     4  11  26  45  67 103 139 181 244 287 351 427
#     4  10  23  39  67 103 135 188 226 288 353 421
#     4  11  26  47  71 105 140 186 240 293 354 427
#     4  10  25  41  69 106 140 186 220 299 352 419
#     4  10  22  40  68 101 140 180 232 282 358 423
#     4  11  27  44  74 104 136 194 232 292 361 417
#     4  11  23  42  71 106 150 183 233 287 361 427
#     4  12  27  51  72  99 142 186 243 300 350 420
#
# _framework density 25.851277
#
# number of rings (size 3 to 8) (size 9 to 14) (size 15 to 20)
#    0.000    1.250    0.000    4.125   14.000    4.500 
#    4.500    0.000    0.000    0.000    0.000    0.000 
#    0.000    0.000    0.000    0.000    0.000    0.000 
#
# Total GULP energy -89522.931067 kJ/mol
# GULP energy per Si atom -5595.183192 kJ/mol
# Density = 2.579244 g / cm^3
# Si number density = 25.851277 Si / 1000 Ang^3
#
#
#
# Elastic Constant Matrix: (Units=GPa)
#
#
# Indices 1 2 3 4 5 6 
#
# 1 119.1791 19.0968 23.0801 12.6388 0.1567 -1.4054
# 2 19.0968 95.9679 38.4612 14.8109 -4.0235 -26.1965
# 3 23.0801 38.4612 108.7176 26.5854 -12.9692 -22.8690
# 4 12.6388 14.8109 26.5854 52.1271 -3.9575 -8.3278
# 5 0.1567 -4.0235 -12.9692 -3.9575 44.9201 2.9619
# 6 -1.4054 -26.1965 -22.8690 -8.3278 2.9619 51.1275
#
#
#
# Elastic Compliance Matrix: (Units=1/GPa)
#
#
# Indices 1 2 3 4 5 6 
#
# 1 0.009018 -0.001391 -0.001446 -0.001305 -0.000604 -0.001289
# 2 -0.001391 0.013573 -0.003134 -0.001077 -0.000132 0.005347
# 3 -0.001446 -0.003134 0.012716 -0.004530 0.002789 0.003142
# 4 -0.001305 -0.001077 -0.004530 0.022313 0.000501 0.000992
# 5 -0.000604 -0.000132 0.002789 0.000501 0.023108 -0.000094
# 6 -0.001289 0.005347 0.003142 0.000992 -0.000094 0.023836
#
#
# Mechanical properties :
#
#
# Convention : Reuss Voigt Hill
#
# Bulk Modulus (GPa) = 42.80136 53.90452 48.35294
# Shear Modulus (GPa) = 40.22748 45.85004 43.03876
#
# Velocity S-wave (km/s) = 3.94904 4.21599 4.08470
# Velocity P-wave (km/s) = 6.11440 6.67806 6.40244
#
# Compressibility (1/GPa) = 0.02336374
#
# Stress axis : x y z
#
# Youngs Moduli (GPa) = 110.89312 73.67504 78.64381
#
# Poissons Ratio (x) = 0.10245 0.11375
# Poissons Ratio (y) = 0.15420 0.24650
# Poissons Ratio (z) = 0.16040 0.23092
#
# Static dielectric constant tensor:
#      x y z
#    x 2.075730 0.007440 0.102810 
#    y 0.007440 2.065140 -0.041550 
#    z 0.102810 -0.041550 2.085260 
# 
# From -- ./inp_files/283449.got.cif
#   From: 2010.05.17/outbox.cif.g08.bks.cpg/sg2_142_cif.got.tgz:283449.got - 2010.06.03 11:33:40.
