data_PCOD9025555
_publ_section_title
;
Structure prediction by ZEFSAII (Michael W. Deem and Ramdas Pophale) SiO2 
 PCOD9025555
Probable space group: P -1
;
_chemical_formula_sum "Si O2"
_cell_formula_units_Z 14
_cell_length_a 18.719823
_cell_length_b 13.759771
_cell_length_c 9.262774
_cell_angle_alpha 147.979586
_cell_angle_beta 32.909605
_cell_angle_gamma 151.364374
_cell_volume 561.938270
_symmetry_space_group_name_H-M "P -1"
_symmetry_group_IT_number 2
_symmetry_cell_setting 'triclinic'
loop_
_space_group_symop_operation_xyz
x,y,z
-x,-y,-z
loop_
_atom_site_type_symbol
_atom_site_label
_atom_site_fract_x
_atom_site_fract_y
_atom_site_fract_z
Si Si1 0.667553 0.855143 0.770949
Si Si2 0.619918 0.191588 0.151315
Si Si3 0.413640 0.371849 0.694391
Si Si4 0.321784 0.284389 0.031133
Si Si5 0.924151 0.355523 0.671757
Si Si6 0.994488 0.068873 0.390550
Si Si7 0.861382 0.193016 0.249890
O O1 0.526891 0.640230 0.824610
O O2 0.646104 0.744331 0.506997
O O3 0.640850 0.051223 0.058056
O O4 0.857829 0.976479 0.628362
O O5 0.790166 0.355667 0.990592
O O6 0.529166 0.305138 0.475197
O O7 0.500000 0.000000 0.000000
O O8 0.276343 0.278096 0.930101
O O9 0.300232 0.051767 0.810699
O O10 0.500000 0.500000 0.000000
O O11 0.183653 0.267451 0.339719
O O12 0.860504 0.270483 0.510634
O O13 0.944157 0.179917 0.497724
O O14 0.084559 0.604070 0.693258
O O15 0.007842 0.868629 0.062053
#
# Coordination Sequence:
#
# PCOD9025555 Si02
#       7
#     2   2   2   2   2   2   2
#     4   9  18  32  55  84 104 130 174 220 284 318
#     4   9  17  29  48  77 112 132 157 214 272 326
#     4  10  19  33  53  79 109 138 168 222 272 319
#     4  10  22  39  54  74 110 152 186 217 258 314
#     4  10  17  31  54  86 103 133 174 222 285 315
#     4   9  19  33  54  75 108 139 177 222 261 321
#     4   9  19  30  52  80 108 133 172 224 268 319
#
# _framework density 24.913768000000001
#
# number of rings (size 3 to 8) (size 9 to 14) (size 15 to 20)
#    0.857    1.714    0.000    3.857    2.000    0.000 
#    7.714    1.429    0.000    1.714    0.000    0.000 
#    0.000    0.000    0.000    0.000    0.000    0.000 
#
# Total GULP energy -78118.940551 kJ/mol
# GULP energy per Si atom -5579.924325 kJ/mol
# Density = 2.485706 g / cm^3
# Si number density = 24.913768 Si / 1000 Ang^3
#
#
#
# Elastic Constant Matrix: (Units=GPa)
#
#
# Indices 1 2 3 4 5 6 
#
# 1 45.7364 30.3322 11.3090 -0.3457 6.1869 -10.7505
# 2 30.3322 189.5417 8.4911 8.2664 -5.6526 -18.4542
# 3 11.3090 8.4911 60.9534 -6.1689 0.2835 -12.5168
# 4 -0.3457 8.2664 -6.1689 33.8220 2.4300 -0.0942
# 5 6.1869 -5.6526 0.2835 2.4300 19.7456 2.7755
# 6 -10.7505 -18.4542 -12.5168 -0.0942 2.7755 51.1040
#
#
#
# Elastic Compliance Matrix: (Units=1/GPa)
#
#
# Indices 1 2 3 4 5 6 
#
# 1 0.028019 -0.004314 -0.003568 0.001471 -0.010713 0.004047
# 2 -0.004314 0.006255 -0.000029 -0.001805 0.003201 0.001167
# 3 -0.003568 -0.000029 0.018166 0.003300 -0.000077 0.003699
# 4 0.001471 -0.001805 0.003300 0.030982 -0.004949 0.000792
# 5 -0.010713 0.003201 -0.000077 -0.004949 0.056114 -0.004173
# 6 0.004047 0.001167 0.003699 0.000792 -0.004173 0.021975
#
#
# Mechanical properties :
#
#
# Convention : Reuss Voigt Hill
#
# Bulk Modulus (GPa) = 27.30803 44.05513 35.68158
# Shear Modulus (GPa) = 26.37993 37.34095 31.86044
#
# Velocity S-wave (km/s) = 3.25753 3.87564 3.57995
# Velocity P-wave (km/s) = 5.01333 6.14402 5.60724
#
# Compressibility (1/GPa) = 0.03661926
#
# Stress axis : x y z
#
# Youngs Moduli (GPa) = 35.69017 159.86468 55.04850
#
# Poissons Ratio (x) = 0.68959 0.19640
# Poissons Ratio (y) = 0.15395 0.00159
# Poissons Ratio (z) = 0.12734 0.00463
#
# Static dielectric constant tensor:
#      x y z
#    x 2.160000 0.023220 0.094770 
#    y 0.023220 1.985580 -0.017710 
#    z 0.094770 -0.017710 2.041060 
# 
# From -- ./inp_files/403727.got.cif
#   From: 2010.05.17/outbox.cif.g08.bks.cpg/sg2_202_cif.got.tgz:403727.got - 2010.06.03 11:33:40.
