data_PCOD9025473
_publ_section_title
;
Structure prediction by ZEFSAII (Michael W. Deem and Ramdas Pophale) SiO2 
 PCOD9025473
Probable space group: P -1
;
_chemical_formula_sum "Si O2"
_cell_formula_units_Z 14
_cell_length_a 14.128975
_cell_length_b 14.771445
_cell_length_c 13.974890
_cell_angle_alpha 160.059025
_cell_angle_beta 41.565472
_cell_angle_gamma 139.173888
_cell_volume 641.363882
_symmetry_space_group_name_H-M "P -1"
_symmetry_group_IT_number 2
_symmetry_cell_setting 'triclinic'
loop_
_space_group_symop_operation_xyz
x,y,z
-x,-y,-z
loop_
_atom_site_type_symbol
_atom_site_label
_atom_site_fract_x
_atom_site_fract_y
_atom_site_fract_z
Si Si1 0.151011 0.137892 0.969193
Si Si2 0.351524 0.709092 0.396759
Si Si3 0.596509 0.087566 0.922017
Si Si4 0.583498 0.577599 0.295301
Si Si5 0.399517 0.839740 0.274926
Si Si6 0.854705 0.871539 0.263286
Si Si7 0.940614 0.214744 0.819326
O O1 0.131186 0.176568 0.908167
O O2 0.256599 0.933729 0.696030
O O3 0.241215 0.428011 0.229479
O O4 0.000000 0.000000 0.000000
O O5 0.394840 0.700083 0.243682
O O6 0.500980 0.849254 0.478804
O O7 0.555412 0.856213 0.639279
O O8 0.766456 0.129273 0.859974
O O9 0.500000 0.000000 0.000000
O O10 0.582257 0.384794 0.195807
O O11 0.741051 0.660775 0.206270
O O12 0.516418 0.332629 0.027263
O O13 0.233396 0.879443 0.418174
O O14 0.004076 0.843778 0.174261
O O15 0.000000 0.000000 0.500000
O O16 0.000000 0.500000 0.000000
#
# Coordination Sequence:
#
# PCOD9025473 Si02
#       7
#     2   2   2   2   2   2   2
#     4  11  24  43  64  97 143 187 227 284 351 412
#     4  10  23  39  68  95 137 173 229 285 344 401
#     4  12  26  44  66 100 141 176 219 297 359 405
#     4  12  21  42  70  93 132 174 229 281 340 415
#     4  10  22  40  69 104 127 171 235 296 335 395
#     4  11  23  40  70  99 133 178 241 285 335 419
#     4  12  23  42  70 101 130 179 234 283 340 422
#
# _framework density 21.828481
#
# number of rings (size 3 to 8) (size 9 to 14) (size 15 to 20)
#    0.000    0.857    5.714    0.857    2.000    1.714 
#    2.571    0.000    3.143    0.000    0.000    0.000 
#    0.000    0.000    0.000    0.000    0.000    0.000 
#
# Total GULP energy -77981.255489 kJ/mol
# GULP energy per Si atom -5570.089678 kJ/mol
# Density = 2.177880 g / cm^3
# Si number density = 21.828481 Si / 1000 Ang^3
#
#
#
# Elastic Constant Matrix: (Units=GPa)
#
#
# Indices 1 2 3 4 5 6 
#
# 1 92.6179 19.3256 28.7718 0.0558 4.2227 -0.5215
# 2 19.3256 142.4072 28.9529 5.7206 14.4471 -1.9500
# 3 28.7718 28.9529 117.8117 28.7531 4.1784 1.4466
# 4 0.0558 5.7206 28.7531 36.6894 -4.1976 3.2548
# 5 4.2227 14.4471 4.1784 -4.1976 22.1075 -3.2291
# 6 -0.5215 -1.9500 1.4466 3.2548 -3.2291 25.5010
#
#
#
# Elastic Compliance Matrix: (Units=1/GPa)
#
#
# Indices 1 2 3 4 5 6 
#
# 1 0.012067 -0.001017 -0.003338 0.002703 -0.000503 -0.000050
# 2 -0.001017 0.007962 -0.001354 -0.000749 -0.004874 0.000143
# 3 -0.003338 -0.001354 0.012051 -0.009524 -0.002558 0.000036
# 4 0.002703 -0.000749 -0.009524 0.036036 0.008173 -0.003026
# 5 -0.000503 -0.004874 -0.002558 0.008173 0.051312 0.005216
# 6 -0.000050 0.000143 0.000036 -0.003026 0.005216 0.040269
#
#
# Mechanical properties :
#
#
# Convention : Reuss Voigt Hill
#
# Bulk Modulus (GPa) = 48.40189 56.32638 52.36414
# Shear Modulus (GPa) = 28.08926 35.24533 31.66729
#
# Velocity S-wave (km/s) = 3.59111 4.02263 3.81298
# Velocity P-wave (km/s) = 6.27827 6.88734 6.58985
#
# Compressibility (1/GPa) = 0.02066035
#
# Stress axis : x y z
#
# Youngs Moduli (GPa) = 82.86787 125.59592 82.98096
#
# Poissons Ratio (x) = 0.12774 0.27703
# Poissons Ratio (y) = 0.08429 0.11240
# Poissons Ratio (z) = 0.27665 0.17012
#
# Static dielectric constant tensor:
#      x y z
#    x 2.069880 -0.026520 0.048710 
#    y -0.026520 1.773110 0.085540 
#    z 0.048710 0.085540 1.915120 
# 
# From -- ./inp_files/533958.got.cif
#   From: 2010.05.17/outbox.cif.g08.bks.cpg/sg2_267_cif.got.tgz:533958.got - 2010.06.03 11:33:40.
