data_PCOD9025498
_publ_section_title
;
Structure prediction by ZEFSAII (Michael W. Deem and Ramdas Pophale) SiO2 
 PCOD9025498
Probable space group: P -1
;
_chemical_formula_sum "Si O2"
_cell_formula_units_Z 14
_cell_length_a 8.792678
_cell_length_b 10.907548
_cell_length_c 7.990470
_cell_angle_alpha 61.995711
_cell_angle_beta 127.279286
_cell_angle_gamma 101.841964
_cell_volume 534.942375
_symmetry_space_group_name_H-M "P -1"
_symmetry_group_IT_number 2
_symmetry_cell_setting 'triclinic'
loop_
_space_group_symop_operation_xyz
x,y,z
-x,-y,-z
loop_
_atom_site_type_symbol
_atom_site_label
_atom_site_fract_x
_atom_site_fract_y
_atom_site_fract_z
Si Si1 0.048884 0.700811 0.531927
Si Si2 0.969453 0.024584 0.773431
Si Si3 0.232911 0.596036 0.258944
Si Si4 0.416166 0.340129 0.362607
Si Si5 0.606279 0.963108 0.421038
Si Si6 0.758650 0.155621 0.144238
Si Si7 0.821581 0.616636 0.142174
O O1 0.074456 0.786158 0.665220
O O2 0.165407 0.550592 0.723059
O O3 0.130878 0.817383 0.398394
O O4 0.854503 0.678294 0.311286
O O5 0.163395 0.977695 0.832240
O O6 0.825278 0.933826 0.646900
O O7 0.000000 0.000000 0.000000
O O8 0.252006 0.445427 0.277701
O O9 0.390314 0.590060 0.515265
O O10 0.019973 0.635656 0.162853
O O11 0.290290 0.710151 0.090962
O O12 0.444903 0.188336 0.565131
O O13 0.352631 0.331588 0.131184
O O14 0.500000 0.000000 0.500000
O O15 0.607069 0.089082 0.207622
#
# Coordination Sequence:
#
# PCOD9025498 Si02
#       7
#     2   2   2   2   2   2   2
#     4  10  22  40  69 109 134 189 245 296 363 432
#     4  11  24  44  75 105 143 191 249 298 365 443
#     4  11  25  44  74 100 143 190 243 308 359 434
#     4  11  25  45  68 107 137 193 244 297 367 433
#     4  11  26  44  70 102 150 192 235 303 369 431
#     4  11  24  45  76 107 145 192 247 304 361 447
#     4  11  23  44  75  98 147 189 246 303 363 437
#
# _framework density 26.171042
#
# number of rings (size 3 to 8) (size 9 to 14) (size 15 to 20)
#    0.000    1.143    1.429    4.714   10.000    0.571 
#    0.000    9.286    0.000    0.000    0.000    0.000 
#    0.000    0.000    0.000    0.000    0.000    0.000 
#
# Total GULP energy -78163.386572 kJ/mol
# GULP energy per Si atom -5583.099041 kJ/mol
# Density = 2.611148 g / cm^3
# Si number density = 26.171042 Si / 1000 Ang^3
#
#
#
# Elastic Constant Matrix: (Units=GPa)
#
#
# Indices 1 2 3 4 5 6 
#
# 1 102.7101 37.6655 22.3424 -15.2318 -23.2417 -5.0047
# 2 37.6655 161.3157 37.2940 -5.7506 -21.4120 -7.9855
# 3 22.3424 37.2940 123.1630 10.7024 -21.6623 4.3444
# 4 -15.2318 -5.7506 10.7024 56.8956 6.1268 -7.1742
# 5 -23.2417 -21.4120 -21.6623 6.1268 28.3757 -1.3974
# 6 -5.0047 -7.9855 4.3444 -7.1742 -1.3974 35.1341
#
#
#
# Elastic Compliance Matrix: (Units=1/GPa)
#
#
# Indices 1 2 3 4 5 6 
#
# 1 0.012886 -0.001501 -0.000750 0.002855 0.008357 0.002502
# 2 -0.001501 0.007441 -0.001533 0.000535 0.003194 0.001903
# 3 -0.000750 -0.001533 0.010249 -0.003268 0.006654 -0.002125
# 4 0.002855 0.000535 -0.003268 0.020037 -0.003840 0.004871
# 5 0.008357 0.003194 0.006654 -0.003840 0.050519 0.002319
# 6 0.002502 0.001903 -0.002125 0.004871 0.002319 0.030601
#
#
# Mechanical properties :
#
#
# Convention : Reuss Voigt Hill
#
# Bulk Modulus (GPa) = 43.46048 64.64363 54.05206
# Shear Modulus (GPa) = 34.02091 43.40687 38.71389
#
# Velocity S-wave (km/s) = 3.60939 4.07699 3.85029
# Velocity P-wave (km/s) = 5.83203 6.84956 6.36118
#
# Compressibility (1/GPa) = 0.02300941
#
# Stress axis : x y z
#
# Youngs Moduli (GPa) = 77.60512 134.39124 97.57273
#
# Poissons Ratio (x) = 0.20166 0.07315
# Poissons Ratio (y) = 0.11645 0.14956
# Poissons Ratio (z) = 0.05818 0.20599
#
# Static dielectric constant tensor:
#      x y z
#    x 2.174810 0.012830 -0.028600 
#    y 0.012830 2.058210 0.015870 
#    z -0.028600 0.015870 2.064920 
# 
# From -- ./inp_files/185511.got.cif
#   From: 2010.05.17/outbox.cif.g08.bks.cpg/sg2_93_cif.got.tgz:185511.got - 2010.06.03 11:33:40.
