data_PCOD9025580
_publ_section_title
;
Structure prediction by ZEFSAII (Michael W. Deem and Ramdas Pophale) SiO2 
 PCOD9025580
Probable space group: P -1
;
_chemical_formula_sum "Si O2"
_cell_formula_units_Z 14
_cell_length_a 9.606007
_cell_length_b 14.638914
_cell_length_c 16.484654
_cell_angle_alpha 155.126382
_cell_angle_beta 44.089310
_cell_angle_gamma 119.634441
_cell_volume 572.281231
_symmetry_space_group_name_H-M "P -1"
_symmetry_group_IT_number 2
_symmetry_cell_setting 'triclinic'
loop_
_space_group_symop_operation_xyz
x,y,z
-x,-y,-z
loop_
_atom_site_type_symbol
_atom_site_label
_atom_site_fract_x
_atom_site_fract_y
_atom_site_fract_z
Si Si1 0.209190 0.554571 0.189695
Si Si2 0.746070 0.981138 0.403089
Si Si3 0.246688 0.372191 0.474324
Si Si4 0.276477 0.173658 0.133820
Si Si5 0.419632 0.079757 0.827880
Si Si6 0.947674 0.776411 0.324325
Si Si7 0.023157 0.060562 0.900241
O O1 0.293127 0.746591 0.331100
O O2 0.963967 0.652829 0.420612
O O3 0.146482 0.556458 0.122416
O O4 0.381336 0.276454 0.931811
O O5 0.500000 0.000000 0.500000
O O6 0.902472 0.783169 0.251875
O O7 0.897987 0.926295 0.213288
O O8 0.255572 0.359844 0.363275
O O9 0.182627 0.648308 0.754695
O O10 0.490831 0.114460 0.187459
O O11 0.314587 0.244507 0.085969
O O12 0.064893 0.128861 0.200407
O O13 0.249768 0.979889 0.796578
O O14 0.694037 0.862577 0.538660
O O15 0.000000 0.000000 0.500000
#
# Coordination Sequence:
#
# PCOD9025580 Si02
#       7
#     2   2   2   2   2   2   2
#     4  10  22  43  69  99 135 177 234 275 336 419
#     4  11  22  43  69  97 139 179 226 291 343 399
#     4  10  22  40  69  99 134 181 225 275 345 407
#     4  11  22  43  69  97 144 177 220 288 342 408
#     4  11  23  42  70 100 134 183 231 273 349 408
#     4  10  22  41  70  94 135 180 226 287 337 399
#     4  11  23  41  66 105 134 175 233 281 335 411
#
# _framework density 24.463495999999999
#
# number of rings (size 3 to 8) (size 9 to 14) (size 15 to 20)
#    0.000    1.429    4.286    0.857    0.000    4.571 
#    2.571    2.857   15.714    0.000    0.000    0.000 
#    0.000    0.000    0.000    0.000    0.000    0.000 
#
# Total GULP energy -78331.205704 kJ/mol
# GULP energy per Si atom -5595.086122 kJ/mol
# Density = 2.440782 g / cm^3
# Si number density = 24.463496 Si / 1000 Ang^3
#
#
#
# Elastic Constant Matrix: (Units=GPa)
#
#
# Indices 1 2 3 4 5 6 
#
# 1 104.4723 20.3387 35.7939 1.9523 11.4654 -36.5370
# 2 20.3387 74.2106 12.5946 -7.8978 4.7898 -29.7354
# 3 35.7939 12.5946 91.7606 -4.7645 2.5507 -11.6396
# 4 1.9523 -7.8978 -4.7645 46.8586 -12.2129 7.0471
# 5 11.4654 4.7898 2.5507 -12.2129 45.8166 -9.5578
# 6 -36.5370 -29.7354 -11.6396 7.0471 -9.5578 43.0348
#
#
#
# Elastic Compliance Matrix: (Units=1/GPa)
#
#
# Indices 1 2 3 4 5 6 
#
# 1 0.015889 0.001603 -0.004840 -0.003418 -0.001989 0.013407
# 2 0.001603 0.018995 -0.001408 0.001110 0.000935 0.014131
# 3 -0.004840 -0.001408 0.012828 0.001722 0.000742 -0.001729
# 4 -0.003418 0.001110 0.001722 0.024094 0.006181 -0.004242
# 5 -0.001989 0.000935 0.000742 0.006181 0.024585 0.003607
# 6 0.013407 0.014131 -0.001729 -0.004242 0.003607 0.045411
#
#
# Mechanical properties :
#
#
# Convention : Reuss Voigt Hill
#
# Bulk Modulus (GPa) = 26.02656 45.32197 35.67427
# Shear Modulus (GPa) = 30.50666 40.58978 35.54822
#
# Velocity S-wave (km/s) = 3.53516 4.07774 3.81611
# Velocity P-wave (km/s) = 5.22735 6.38257 5.83363
#
# Compressibility (1/GPa) = 0.03842228
#
# Stress axis : x y z
#
# Youngs Moduli (GPa) = 62.93778 52.64659 77.95170
#
# Poissons Ratio (x) = -0.08440 0.37725
# Poissons Ratio (y) = -0.10090 0.10979
# Poissons Ratio (z) = 0.30459 0.07415
#
# Static dielectric constant tensor:
#      x y z
#    x 1.980720 -0.045650 -0.004430 
#    y -0.045650 1.931390 0.007810 
#    z -0.004430 0.007810 1.957260 
# 
# From -- ./inp_files/505681.got.cif
#   From: 2010.05.17/outbox.cif.g08.bks.cpg/sg2_253_cif.got.tgz:505681.got - 2010.06.03 11:33:40.
