data_PCOD9025141
_publ_section_title
;
Structure prediction by ZEFSAII (Michael W. Deem and Ramdas Pophale) SiO2 
 PCOD9025141
Probable space group: P -1
;
_chemical_formula_sum "Si O2"
_cell_formula_units_Z 13
_cell_length_a 13.925251
_cell_length_b 5.073392
_cell_length_c 11.917827
_cell_angle_alpha 119.700865
_cell_angle_beta 42.968019
_cell_angle_gamma 120.429420
_cell_volume 483.533450
_symmetry_space_group_name_H-M "P -1"
_symmetry_group_IT_number 2
_symmetry_cell_setting 'triclinic'
loop_
_space_group_symop_operation_xyz
x,y,z
-x,-y,-z
loop_
_atom_site_type_symbol
_atom_site_label
_atom_site_fract_x
_atom_site_fract_y
_atom_site_fract_z
Si Si1 0.925266 0.641530 0.459348
Si Si2 0.436231 0.146542 0.436896
Si Si3 0.159376 0.934764 0.985053
Si Si4 0.393860 0.453970 0.331326
Si Si5 0.801852 0.533840 0.783959
Si Si6 0.500000 0.500000 0.000000
Si Si7 0.179028 0.271818 0.804021
O O1 0.778810 0.605569 0.505846
O O2 0.859593 0.488173 0.601133
O O3 0.060132 0.515245 0.271889
O O4 0.000000 0.000000 0.500000
O O5 0.500000 0.500000 0.500000
O O6 0.449273 0.205139 0.305351
O O7 0.271470 0.098932 0.611317
O O8 0.473238 0.819601 0.367796
O O9 0.230394 0.647095 0.840605
O O10 0.186905 0.155861 0.899691
O O11 0.986226 0.806834 0.112966
O O12 0.212063 0.121770 0.092914
O O13 0.415460 0.426163 0.175742
O O14 0.637287 0.353671 0.901246
#
# Coordination Sequence:
#
# PCOD9025141 Si02
#       7
#     2   2   2   2   2   1   2
#     4  10  24  43  71 104 134 190 244 298 358 436
#     4  12  27  46  75 102 146 196 239 296 361 440
#     4  10  22  40  67  95 137 173 223 302 341 420
#     4  11  27  48  75 105 149 187 248 301 357 440
#     4  10  23  42  69  98 141 181 240 292 372 419
#     4  10  26  48  70 110 142 194 234 302 370 430
#     4  10  23  40  63 102 129 176 236 274 359 413
#
# _framework density 26.885421000000001
#
# number of rings (size 3 to 8) (size 9 to 14) (size 15 to 20)
#    0.000    1.538    0.000    2.308   15.077    1.846 
#    2.769    0.000    0.000    0.000    0.000    0.000 
#    0.000    0.000    0.000    0.000    0.000    0.000 
#
# Total GULP energy -72462.568857 kJ/mol
# GULP energy per Si atom -5574.043758 kJ/mol
# Density = 2.682423 g / cm^3
# Si number density = 26.885421 Si / 1000 Ang^3
#
#
#
# Elastic Constant Matrix: (Units=GPa)
#
#
# Indices 1 2 3 4 5 6 
#
# 1 42.9367 6.5210 17.5259 -8.5622 -7.6973 13.3304
# 2 6.5210 118.9018 -4.7724 16.9337 3.7779 3.7385
# 3 17.5259 -4.7724 113.2083 -6.0519 -18.0717 2.8289
# 4 -8.5622 16.9337 -6.0519 33.9784 8.1706 4.8742
# 5 -7.6973 3.7779 -18.0717 8.1706 53.3442 -3.5667
# 6 13.3304 3.7385 2.8289 4.8742 -3.5667 31.9107
#
#
#
# Elastic Compliance Matrix: (Units=1/GPa)
#
#
# Indices 1 2 3 4 5 6 
#
# 1 0.032111 -0.003029 -0.004028 0.010712 0.000891 -0.014239
# 2 -0.003029 0.009346 0.000545 -0.005457 -0.000015 0.000954
# 3 -0.004028 0.000545 0.009889 -0.000374 0.002862 0.001119
# 4 0.010712 -0.005457 -0.000374 0.037321 -0.004581 -0.010015
# 5 0.000891 -0.000015 0.002862 -0.004581 0.020707 0.002390
# 6 -0.014239 0.000954 0.001119 -0.010015 0.002390 0.038871
#
#
# Mechanical properties :
#
#
# Convention : Reuss Voigt Hill
#
# Bulk Modulus (GPa) = 26.09516 34.84398 30.46957
# Shear Modulus (GPa) = 28.72858 40.89814 34.81336
#
# Velocity S-wave (km/s) = 3.27242 3.90449 3.60235
# Velocity P-wave (km/s) = 4.89954 5.77192 5.35353
#
# Compressibility (1/GPa) = 0.03832129
#
# Stress axis : x y z
#
# Youngs Moduli (GPa) = 31.14218 106.99800 101.12440
#
# Poissons Ratio (x) = 0.32409 0.40735
# Poissons Ratio (y) = 0.09433 -0.05511
# Poissons Ratio (z) = 0.12545 -0.05831
#
# Static dielectric constant tensor:
#      x y z
#    x 2.194360 0.201840 0.095740 
#    y 0.201840 2.029500 -0.104250 
#    z 0.095740 -0.104250 1.970300 
# 
# From -- ./inp_files/439831.got.cif
#   From: 2010.05.17/outbox.cif.g08.bks.cpg/sg2_220_cif.got.tgz:439831.got - 2010.06.03 11:33:40.
