data_PCOD9025268
_publ_section_title
;
Structure prediction by ZEFSAII (Michael W. Deem and Ramdas Pophale) SiO2 
 PCOD9025268
Probable space group: P -1
;
_chemical_formula_sum "Si O2"
_cell_formula_units_Z 13
_cell_length_a 12.362556
_cell_length_b 10.072529
_cell_length_c 9.939469
_cell_angle_alpha 138.354325
_cell_angle_beta 85.184965
_cell_angle_gamma 122.026826
_cell_volume 580.310331
_symmetry_space_group_name_H-M "P -1"
_symmetry_group_IT_number 2
_symmetry_cell_setting 'triclinic'
loop_
_space_group_symop_operation_xyz
x,y,z
-x,-y,-z
loop_
_atom_site_type_symbol
_atom_site_label
_atom_site_fract_x
_atom_site_fract_y
_atom_site_fract_z
Si Si1 0.500000 0.500000 0.500000
Si Si2 0.997027 0.451981 0.619731
Si Si3 0.523163 0.294626 0.824892
Si Si4 0.251157 0.720309 0.280284
Si Si5 0.449315 0.748480 0.907799
Si Si6 0.909294 0.840151 0.524479
Si Si7 0.798431 0.108134 0.848051
O O1 0.517910 0.641623 0.749906
O O2 0.623597 0.815504 0.658285
O O3 0.997295 0.213778 0.454613
O O4 0.000000 0.500000 0.500000
O O5 0.860354 0.381478 0.661210
O O6 0.142985 0.720941 0.890959
O O7 0.687598 0.424765 0.856303
O O8 0.398876 0.047332 0.547760
O O9 0.500000 0.500000 0.000000
O O10 0.501661 0.168868 0.880078
O O11 0.181883 0.715804 0.145576
O O12 0.265161 0.466921 0.711330
O O13 0.500000 0.000000 0.000000
O O14 0.890394 0.022644 0.744259
O O15 0.000000 0.000000 0.500000
#
# Coordination Sequence:
#
# PCOD9025268 Si02
#       7
#     1   2   2   2   2   2   2
#     4  10  22  40  68 104 138 172 240 278 354 410
#     4  12  28  46  72 107 149 184 235 302 362 419
#     4  11  25  43  71 103 139 185 239 295 346 423
#     4  11  25  45  71 105 141 184 243 284 360 428
#     4  11  24  43  72 102 143 186 231 298 356 419
#     4  11  24  44  74 105 137 191 244 285 358 436
#     4  11  24  47  74 105 139 195 236 293 352 441
#
# _framework density 22.401806000000001
#
# number of rings (size 3 to 8) (size 9 to 14) (size 15 to 20)
#    0.000    0.923    1.538    5.077    6.462    1.846 
#    5.538    0.000    0.000    0.000    0.000    0.000 
#    0.000    0.000    0.000    0.000    0.000    0.000 
#
# Total GULP energy -72441.315055 kJ/mol
# GULP energy per Si atom -5572.408850 kJ/mol
# Density = 2.235082 g / cm^3
# Si number density = 22.401806 Si / 1000 Ang^3
#
#
#
# Elastic Constant Matrix: (Units=GPa)
#
#
# Indices 1 2 3 4 5 6 
#
# 1 124.8533 54.5085 40.5616 -4.0758 -28.0599 -14.9988
# 2 54.5085 158.5556 32.8725 -22.2516 5.1173 -9.1103
# 3 40.5616 32.8725 100.8331 -19.6631 -12.2734 -14.4876
# 4 -4.0758 -22.2516 -19.6631 45.9680 -0.5684 3.4645
# 5 -28.0599 5.1173 -12.2734 -0.5684 34.7852 2.2684
# 6 -14.9988 -9.1103 -14.4876 3.4645 2.2684 33.7816
#
#
#
# Elastic Compliance Matrix: (Units=1/GPa)
#
#
# Indices 1 2 3 4 5 6 
#
# 1 0.013506 -0.004561 -0.002670 -0.002262 0.010381 0.003157
# 2 -0.004561 0.008715 -0.001012 0.003324 -0.005258 -0.000097
# 3 -0.002670 -0.001012 0.013018 0.004609 0.002436 0.003488
# 4 -0.002262 0.003324 0.004609 0.025184 -0.000230 -0.000699
# 5 0.010381 -0.005258 0.002436 -0.000230 0.038643 0.001665
# 6 0.003157 -0.000097 0.003488 -0.000699 0.001665 0.032433
#
#
# Mechanical properties :
#
#
# Convention : Reuss Voigt Hill
#
# Bulk Modulus (GPa) = 53.32486 71.12523 62.22505
# Shear Modulus (GPa) = 32.41760 39.99359 36.20560
#
# Velocity S-wave (km/s) = 3.80820 4.22985 4.02455
# Velocity P-wave (km/s) = 6.57206 7.46151 7.03087
#
# Compressibility (1/GPa) = 0.01875298
#
# Stress axis : x y z
#
# Youngs Moduli (GPa) = 74.03844 114.74056 76.81663
#
# Poissons Ratio (x) = 0.52331 0.20512
# Poissons Ratio (y) = 0.33767 0.07776
# Poissons Ratio (z) = 0.19771 0.11616
#
# Static dielectric constant tensor:
#      x y z
#    x 1.893370 0.059440 0.015650 
#    y 0.059440 1.779240 0.043080 
#    z 0.015650 0.043080 1.827200 
# 
# From -- ./inp_files/157035.got.cif
#   From: 2010.05.17/outbox.cif.g08.bks.cpg/sg2_79_cif.got.tgz:157035.got - 2010.06.03 11:33:40.
