data_PCOD9025033
_publ_section_title
;
Structure prediction by ZEFSAII (Michael W. Deem and Ramdas Pophale) SiO2 
 PCOD9025033
Probable space group: P -1
;
_chemical_formula_sum "Si O2"
_cell_formula_units_Z 14
_cell_length_a 5.475361
_cell_length_b 9.113265
_cell_length_c 17.819473
_cell_angle_alpha 118.743536
_cell_angle_beta 115.583455
_cell_angle_gamma 103.359718
_cell_volume 585.036890
_symmetry_space_group_name_H-M "P -1"
_symmetry_group_IT_number 2
_symmetry_cell_setting 'triclinic'
loop_
_space_group_symop_operation_xyz
x,y,z
-x,-y,-z
loop_
_atom_site_type_symbol
_atom_site_label
_atom_site_fract_x
_atom_site_fract_y
_atom_site_fract_z
Si Si1 0.304644 0.735642 0.850593
Si Si2 0.417682 0.283109 0.958054
Si Si3 0.281992 0.095754 0.748843
Si Si4 0.656492 0.040940 0.434659
Si Si5 0.605366 0.710700 0.600673
Si Si6 0.015043 0.716597 0.338260
Si Si7 0.188031 0.119261 0.176601
O O1 0.617384 0.861777 0.868287
O O2 0.116722 0.514061 0.734613
O O3 0.071269 0.816202 0.849362
O O4 0.409615 0.714446 0.942374
O O5 0.504934 0.203947 0.876483
O O6 0.500000 0.500000 0.000000
O O7 0.035077 0.109803 0.878830
O O8 0.152202 0.232337 0.737112
O O9 0.392909 0.052670 0.676558
O O10 0.988848 0.875067 0.681096
O O11 0.563765 0.202072 0.447530
O O12 0.991778 0.177230 0.559396
O O13 0.394395 0.849905 0.401112
O O14 0.500000 0.500000 0.500000
O O15 0.562376 0.731348 0.688780
#
# Coordination Sequence:
#
# PCOD9025033 Si02
#       7
#     2   2   2   2   2   2   2
#     4  12  26  49  73 107 145 193 239 298 365 426
#     4  11  24  49  73 104 143 189 248 297 358 423
#     4  10  22  41  66 100 135 182 240 299 349 428
#     4  10  22  40  67  99 143 178 247 292 356 431
#     4  10  23  41  65  99 139 187 235 290 362 428
#     4  10  22  40  67 102 139 186 232 294 363 430
#     4  11  28  47  73 106 151 184 244 297 363 427
#
# _framework density 23.930116000000002
#
# number of rings (size 3 to 8) (size 9 to 14) (size 15 to 20)
#    0.000    1.429    1.429    2.143    8.000    0.571 
#    5.143    3.571    0.000    0.000    0.000    0.000 
#    0.000    0.000    0.000    0.000    0.000    0.000 
#
# Total GULP energy -78227.388016 kJ/mol
# GULP energy per Si atom -5587.670573 kJ/mol
# Density = 2.387565 g / cm^3
# Si number density = 23.930116 Si / 1000 Ang^3
#
#
#
# Elastic Constant Matrix: (Units=GPa)
#
#
# Indices 1 2 3 4 5 6 
#
# 1 91.1677 53.9685 34.4972 -5.0017 -18.7498 -1.3505
# 2 53.9685 140.1879 71.5884 -1.3396 -13.4901 0.3772
# 3 34.4972 71.5884 158.1593 -8.8449 -28.3126 3.5215
# 4 -5.0017 -1.3396 -8.8449 65.8405 3.3043 -7.4010
# 5 -18.7498 -13.4901 -28.3126 3.3043 25.0543 -6.0974
# 6 -1.3505 0.3772 3.5215 -7.4010 -6.0974 21.5948
#
#
#
# Elastic Compliance Matrix: (Units=1/GPa)
#
#
# Indices 1 2 3 4 5 6 
#
# 1 0.016459 -0.005764 0.001009 0.001215 0.011307 0.004575
# 2 -0.005764 0.011314 -0.004504 -0.000758 -0.003470 -0.001063
# 3 0.001009 -0.004504 0.009916 0.001009 0.009801 0.001638
# 4 0.001215 -0.000758 0.001009 0.015992 0.000911 0.005663
# 5 0.011307 -0.003470 0.009801 0.000911 0.061567 0.016865
# 6 0.004575 -0.001063 0.001638 0.005663 0.016865 0.053048
#
#
# Mechanical properties :
#
#
# Convention : Reuss Voigt Hill
#
# Bulk Modulus (GPa) = 52.16108 78.84699 65.50404
# Shear Modulus (GPa) = 25.87956 37.79530 31.83743
#
# Velocity S-wave (km/s) = 3.29213 3.97848 3.65147
# Velocity P-wave (km/s) = 6.02457 7.35696 6.72385
#
# Compressibility (1/GPa) = 0.01917138
#
# Stress axis : x y z
#
# Youngs Moduli (GPa) = 60.75649 88.38632 100.85107
#
# Poissons Ratio (x) = 0.50949 -0.10180
# Poissons Ratio (y) = 0.35022 0.45421
# Poissons Ratio (z) = -0.06133 0.39807
#
# Static dielectric constant tensor:
#      x y z
#    x 2.032980 0.017410 -0.026140 
#    y 0.017410 1.922760 -0.076020 
#    z -0.026140 -0.076020 1.982410 
# 
# From -- ./inp_files/27203.got.cif
#   From: 2010.05.17/outbox.cif.g08.bks.cpg/sg2_14_cif.got.tgz:27203.got - 2010.06.03 11:33:40.
