data_PCOD9025418
_publ_section_title
;
Structure prediction by ZEFSAII (Michael W. Deem and Ramdas Pophale) SiO2 
 PCOD9025418
Probable space group: P -1
;
_chemical_formula_sum "Si O2"
_cell_formula_units_Z 14
_cell_length_a 12.210152
_cell_length_b 7.355612
_cell_length_c 18.466869
_cell_angle_alpha 142.176170
_cell_angle_beta 144.482767
_cell_angle_gamma 58.920648
_cell_volume 552.243154
_symmetry_space_group_name_H-M "P -1"
_symmetry_group_IT_number 2
_symmetry_cell_setting 'triclinic'
loop_
_space_group_symop_operation_xyz
x,y,z
-x,-y,-z
loop_
_atom_site_type_symbol
_atom_site_label
_atom_site_fract_x
_atom_site_fract_y
_atom_site_fract_z
Si Si1 0.915985 0.885391 0.766708
Si Si2 0.071686 0.378545 0.663290
Si Si3 0.628262 0.693400 0.835778
Si Si4 0.498137 0.738743 0.008852
Si Si5 0.422006 0.909197 0.301604
Si Si6 0.164942 0.437200 0.902743
Si Si7 0.775394 0.503638 0.711951
O O1 0.884025 0.782210 0.802059
O O2 0.923104 0.573894 0.629785
O O3 0.731942 0.010005 0.700885
O O4 0.138387 0.147612 0.960693
O O5 0.120948 0.450203 0.797827
O O6 0.288244 0.548933 0.795226
O O7 0.000000 0.000000 0.500000
O O8 0.522248 0.366941 0.717293
O O9 0.656783 0.614857 0.743831
O O10 0.521425 0.944112 0.871283
O O11 0.704859 0.791331 0.094009
O O12 0.500000 0.500000 0.000000
O O13 0.614462 0.220482 0.492109
O O14 0.311133 0.754158 0.119353
O O15 0.944206 0.378862 0.797140
#
# Coordination Sequence:
#
# PCOD9025418 Si02
#       7
#     2   2   2   2   2   2   2
#     4  10  22  40  68  99 130 172 220 278 323 381
#     4   9  20  38  66  97 126 168 227 270 312 396
#     4  11  23  44  67  96 136 174 218 271 332 399
#     4   9  21  39  66  92 129 177 215 267 333 382
#     4  12  25  40  68  99 136 171 214 276 342 382
#     4  10  23  40  65  90 136 167 214 270 335 373
#     4  11  24  42  69  98 128 172 231 266 313 403
#
# _framework density 25.351151000000002
#
# number of rings (size 3 to 8) (size 9 to 14) (size 15 to 20)
#    0.000    1.714    1.429    2.571   10.000    2.857 
#    0.000    0.714    0.000    0.000    0.000    0.000 
#    0.000    0.000    0.000    0.000    0.000    0.000 
#
# Total GULP energy -78238.072448 kJ/mol
# GULP energy per Si atom -5588.433746 kJ/mol
# Density = 2.529345 g / cm^3
# Si number density = 25.351151 Si / 1000 Ang^3
#
#
#
# Elastic Constant Matrix: (Units=GPa)
#
#
# Indices 1 2 3 4 5 6 
#
# 1 91.6775 45.7866 20.4233 1.3562 -3.4646 -23.3533
# 2 45.7866 129.6110 29.5907 18.6417 -10.4460 -52.3815
# 3 20.4233 29.5907 94.6227 -1.2953 -21.0123 -18.6912
# 4 1.3562 18.6417 -1.2953 25.9563 -5.1201 -2.8083
# 5 -3.4646 -10.4460 -21.0123 -5.1201 24.7306 5.7792
# 6 -23.3533 -52.3815 -18.6912 -2.8083 5.7792 60.3061
#
#
#
# Elastic Compliance Matrix: (Units=1/GPa)
#
#
# Indices 1 2 3 4 5 6 
#
# 1 0.013687 -0.004417 -0.001541 0.002300 -0.001060 0.001195
# 2 -0.004417 0.015418 -0.001969 -0.009849 -0.000305 0.010642
# 3 -0.001541 -0.001969 0.014480 0.004708 0.011936 0.001256
# 4 0.002300 -0.009849 0.004708 0.047366 0.011153 -0.005068
# 5 -0.001060 -0.000305 0.011936 0.011153 0.052967 -0.001533
# 6 0.001195 0.010642 0.001256 -0.005068 -0.001533 0.026589
#
#
# Mechanical properties :
#
#
# Convention : Reuss Voigt Hill
#
# Bulk Modulus (GPa) = 36.05872 56.39028 46.22450
# Shear Modulus (GPa) = 25.56180 36.87263 31.21722
#
# Velocity S-wave (km/s) = 3.17883 3.81790 3.51293
# Velocity P-wave (km/s) = 5.26573 6.45965 5.89300
#
# Compressibility (1/GPa) = 0.02773255
#
# Stress axis : x y z
#
# Youngs Moduli (GPa) = 73.06076 64.85898 69.06164
#
# Poissons Ratio (x) = 0.28646 0.10642
# Poissons Ratio (y) = 0.32268 0.13596
# Poissons Ratio (z) = 0.11258 0.12769
#
# Static dielectric constant tensor:
#      x y z
#    x 2.084860 0.006720 0.013490 
#    y 0.006720 2.203260 -0.069120 
#    z 0.013490 -0.069120 1.974420 
# 
# From -- ./inp_files/611783.got.cif
#   From: 2010.05.17/outbox.cif.g08.bks.cpg/sg2_306_cif.got.tgz:611783.got - 2010.06.03 11:33:40.
