data_PCOD9025630
_publ_section_title
;
Structure prediction by ZEFSAII (Michael W. Deem and Ramdas Pophale) SiO2 
 PCOD9025630
Probable space group: P -1
;
_chemical_formula_sum "Si O2"
_cell_formula_units_Z 11
_cell_length_a 5.165826
_cell_length_b 9.411196
_cell_length_c 16.917899
_cell_angle_alpha 138.682299
_cell_angle_beta 86.001518
_cell_angle_gamma 112.918378
_cell_volume 465.407502
_symmetry_space_group_name_H-M "P -1"
_symmetry_group_IT_number 2
_symmetry_cell_setting 'triclinic'
loop_
_space_group_symop_operation_xyz
x,y,z
-x,-y,-z
loop_
_atom_site_type_symbol
_atom_site_label
_atom_site_fract_x
_atom_site_fract_y
_atom_site_fract_z
Si Si1 0.668113 0.883968 0.496051
Si Si2 0.500000 0.000000 0.000000
Si Si3 0.924631 0.583078 0.927280
Si Si4 0.286305 0.962150 0.259007
Si Si5 0.163054 0.012106 0.830646
Si Si6 0.278664 0.374829 0.213483
O O1 0.473600 0.586737 0.360507
O O2 0.500000 0.000000 0.500000
O O3 0.684618 0.944495 0.613414
O O4 0.000000 0.000000 0.500000
O O5 0.570262 0.781722 0.880180
O O6 0.258389 0.808335 0.994571
O O7 0.909259 0.341668 0.863573
O O8 0.762700 0.498105 0.809905
O O9 0.760520 0.713415 0.028606
O O10 0.596487 0.015350 0.235950
O O11 0.125840 0.070823 0.253700
O O12 0.059632 0.834260 0.836424
#
# Coordination Sequence:
#
# PCOD9025630 Si02
#       6
#     2   1   2   2   2   2
#     4  12  26  48  76 104 138 189 245 288 346 431
#     4  10  22  40  70 104 134 176 246 280 348 394
#     4  11  24  43  73 101 141 192 237 288 347 427
#     4  12  26  46  70 106 144 185 232 294 359 413
#     4  11  27  43  69 107 146 182 231 295 360 412
#     4  11  26  44  75 102 142 193 238 292 346 428
#
# _framework density 23.635200999999999
#
# number of rings (size 3 to 8) (size 9 to 14) (size 15 to 20)
#    0.000    0.727    1.818    5.455   12.727    1.455 
#    0.000    0.000    0.000    0.000    0.000    0.000 
#    0.000    0.000    0.000    0.000    0.000    0.000 
#
# Total GULP energy -61436.216194 kJ/mol
# GULP energy per Si atom -5585.110563 kJ/mol
# Density = 2.358141 g / cm^3
# Si number density = 23.635201 Si / 1000 Ang^3
#
#
#
# Elastic Constant Matrix: (Units=GPa)
#
#
# Indices 1 2 3 4 5 6 
#
# 1 114.2331 30.3243 23.0791 -14.7991 -31.7986 13.2370
# 2 30.3243 69.9423 21.5797 -1.7357 -22.4156 -0.5184
# 3 23.0791 21.5797 153.0269 -19.2678 -1.7658 17.5693
# 4 -14.7991 -1.7357 -19.2678 55.9567 4.6849 -2.4569
# 5 -31.7986 -22.4156 -1.7658 4.6849 34.5911 -12.4067
# 6 13.2370 -0.5184 17.5693 -2.4569 -12.4067 42.5777
#
#
#
# Elastic Compliance Matrix: (Units=1/GPa)
#
#
# Indices 1 2 3 4 5 6 
#
# 1 0.012540 -0.001867 -0.001212 0.001999 0.009826 -0.000443
# 2 -0.001867 0.020638 -0.003423 -0.001929 0.013968 0.006203
# 3 -0.001212 -0.003423 0.007944 0.002524 -0.004770 -0.004187
# 4 0.001999 -0.001929 0.002524 0.019351 -0.002355 -0.001256
# 5 0.009826 0.013968 -0.004770 -0.002355 0.052141 0.014141
# 6 -0.000443 0.006203 -0.004187 -0.001256 0.014141 0.029475
#
#
# Mechanical properties :
#
#
# Convention : Reuss Voigt Hill
#
# Bulk Modulus (GPa) = 35.56475 54.12982 44.84729
# Shear Modulus (GPa) = 30.40131 44.10640 37.25385
#
# Velocity S-wave (km/s) = 3.59035 4.32456 3.97445
# Velocity P-wave (km/s) = 5.68045 6.92009 6.33069
#
# Compressibility (1/GPa) = 0.02811773
#
# Stress axis : x y z
#
# Youngs Moduli (GPa) = 79.74321 48.45442 125.88506
#
# Poissons Ratio (x) = 0.09049 0.15257
# Poissons Ratio (y) = 0.14892 0.43086
# Poissons Ratio (z) = 0.09665 0.16584
#
# Static dielectric constant tensor:
#      x y z
#    x 1.779870 -0.060380 -0.007160 
#    y -0.060380 1.955670 -0.043930 
#    z -0.007160 -0.043930 1.814340 
# 
# From -- ./inp_files/19549.got.cif
#   From: 2010.05.17/outbox.cif.g08.bks.cpg/sg2_10_cif.got.tgz:19549.got - 2010.06.03 11:33:40.
