data_PCOD9025388
_publ_section_title
;
Structure prediction by ZEFSAII (Michael W. Deem and Ramdas Pophale) SiO2 
 PCOD9025388
Probable space group: P -1
;
_chemical_formula_sum "Si O2"
_cell_formula_units_Z 16
_cell_length_a 12.769246
_cell_length_b 14.394965
_cell_length_c 7.689441
_cell_angle_alpha 73.915835
_cell_angle_beta 63.202772
_cell_angle_gamma 29.333820
_cell_volume 595.932574
_symmetry_space_group_name_H-M "P -1"
_symmetry_group_IT_number 2
_symmetry_cell_setting 'triclinic'
loop_
_space_group_symop_operation_xyz
x,y,z
-x,-y,-z
loop_
_atom_site_type_symbol
_atom_site_label
_atom_site_fract_x
_atom_site_fract_y
_atom_site_fract_z
Si Si1 0.899262 0.385919 0.108366
Si Si2 0.174912 0.611573 0.447570
Si Si3 0.515373 0.773985 0.687051
Si Si4 0.484936 0.169759 0.848248
Si Si5 0.512501 0.526068 0.175611
Si Si6 0.817628 0.033401 0.466695
Si Si7 0.564786 0.985788 0.215920
Si Si8 0.871923 0.052108 0.886716
O O1 0.931604 0.348413 0.311226
O O2 0.734718 0.598843 0.105531
O O3 0.755853 0.396434 0.132407
O O4 0.148242 0.218179 0.910433
O O5 0.259404 0.460907 0.341970
O O6 0.404732 0.514215 0.368388
O O7 0.001994 0.815972 0.384061
O O8 0.414567 0.812200 0.558155
O O9 0.545241 0.867852 0.627131
O O10 0.302314 0.902249 0.916942
O O11 0.501678 0.076693 0.734419
O O12 0.727128 0.058726 0.706606
O O13 0.465257 0.118009 0.058072
O O14 0.324228 0.745461 0.177373
O O15 0.500000 0.500000 0.000000
O O16 0.909846 0.075708 0.342354
O O17 0.000000 0.000000 0.000000
#
# Coordination Sequence:
#
# PCOD9025388 Si02
#       8
#     2   2   2   2   2   2   2   2
#     4  12  25  45  69  96 135 184 220 277 344 391
#     4  11  23  43  63  99 141 175 214 275 336 407
#     4  11  22  41  68  97 135 177 220 276 334 398
#     4  11  24  49  68  97 136 177 235 280 331 399
#     4  11  23  39  64 101 138 171 220 269 332 415
#     4  10  22  40  68  97 137 174 224 276 329 405
#     4  11  27  44  72  99 131 179 235 283 330 391
#     4   9  20  37  64  96 135 170 211 267 336 394
#
# _framework density 26.848675
#
# number of rings (size 3 to 8) (size 9 to 14) (size 15 to 20)
#    0.000    1.250    3.750    1.500    5.250    0.500 
#    2.250    2.500    0.000    0.000    0.000    0.000 
#    0.000    0.000    0.000    0.000    0.000    0.000 
#
# Total GULP energy -89288.624958 kJ/mol
# GULP energy per Si atom -5580.539060 kJ/mol
# Density = 2.678757 g / cm^3
# Si number density = 26.848675 Si / 1000 Ang^3
#
#
#
# Elastic Constant Matrix: (Units=GPa)
#
#
# Indices 1 2 3 4 5 6 
#
# 1 107.9005 36.0523 3.5189 14.8576 -10.1954 44.2344
# 2 36.0523 163.9156 -2.4974 8.6877 -7.9522 33.0341
# 3 3.5189 -2.4974 75.5401 -1.4540 5.1768 5.3319
# 4 14.8576 8.6877 -1.4540 31.2626 2.9834 6.5013
# 5 -10.1954 -7.9522 5.1768 2.9834 36.2024 3.9444
# 6 44.2344 33.0341 5.3319 6.5013 3.9444 47.6596
#
#
#
# Elastic Compliance Matrix: (Units=1/GPa)
#
#
# Indices 1 2 3 4 5 6 
#
# 1 0.017148 0.000031 -0.000278 -0.005573 0.007049 -0.015730
# 2 0.000031 0.007311 0.000431 -0.001163 0.002212 -0.005169
# 3 -0.000278 0.000431 0.013523 0.001141 -0.001842 -0.001557
# 4 -0.005573 -0.001163 0.001141 0.035188 -0.005048 0.001468
# 5 0.007049 0.002212 -0.001842 -0.005048 0.031842 -0.009817
# 6 -0.015730 -0.005169 -0.001557 0.001468 -0.009817 0.039951
#
#
# Mechanical properties :
#
#
# Convention : Reuss Voigt Hill
#
# Bulk Modulus (GPa) = 26.07413 46.83376 36.45395
# Shear Modulus (GPa) = 31.77053 43.71043 37.74048
#
# Velocity S-wave (km/s) = 3.44367 4.03926 3.75330
# Velocity P-wave (km/s) = 5.05415 6.26384 5.69123
#
# Compressibility (1/GPa) = 0.03835218
#
# Stress axis : x y z
#
# Youngs Moduli (GPa) = 58.31488 136.77838 73.94667
#
# Poissons Ratio (x) = -0.00431 0.02055
# Poissons Ratio (y) = -0.00184 -0.03188
# Poissons Ratio (z) = 0.01620 -0.05897
#
# Static dielectric constant tensor:
#      x y z
#    x 2.221920 0.007830 -0.008740 
#    y 0.007830 2.034540 -0.030670 
#    z -0.008740 -0.030670 2.109040 
# 
# From -- ./inp_files/314865.got.cif
#   From: 2010.05.17/outbox.cif.g08.bks.cpg/sg2_158_cif.got.tgz:314865.got - 2010.06.03 11:33:40.
