data_PCOD9026838
_publ_section_title
;
Structure prediction by ZEFSAII (Michael W. Deem and Ramdas Pophale) SiO2 
 PCOD9026838
Probable space group: P -1
;
_chemical_formula_sum "Si O2"
_cell_formula_units_Z 14
_cell_length_a 10.995262
_cell_length_b 8.223127
_cell_length_c 8.518130
_cell_angle_alpha 51.907215
_cell_angle_beta 81.254603
_cell_angle_gamma 59.993326
_cell_volume 510.868168
_symmetry_space_group_name_H-M "P -1"
_symmetry_group_IT_number 2
_symmetry_cell_setting 'triclinic'
loop_
_space_group_symop_operation_xyz
x,y,z
-x,-y,-z
loop_
_atom_site_type_symbol
_atom_site_label
_atom_site_fract_x
_atom_site_fract_y
_atom_site_fract_z
Si Si1 0.595220 0.171677 0.683361
Si Si2 0.164430 0.785046 0.546981
Si Si3 0.588058 0.365789 0.907396
Si Si4 0.804284 0.889999 0.286438
Si Si5 0.841323 0.676682 0.080384
Si Si6 0.995762 0.944212 0.851022
Si Si7 0.368476 0.250420 0.443921
O O1 0.693617 0.192102 0.510855
O O2 0.555969 0.337786 0.748073
O O3 0.440860 0.244082 0.600068
O O4 0.698401 0.896756 0.892693
O O5 0.181806 0.548875 0.766829
O O6 0.000000 0.000000 0.500000
O O7 0.133320 0.810636 0.348282
O O8 0.670524 0.510372 0.783290
O O9 0.500000 0.500000 0.000000
O O10 0.660240 0.091955 0.110929
O O11 0.863365 0.057736 0.232531
O O12 0.874962 0.705290 0.240019
O O13 0.771493 0.766818 0.505264
O O14 0.962837 0.731905 0.951585
O O15 0.000000 0.000000 0.000000
O O16 0.500000 0.000000 0.500000
#
# Coordination Sequence:
#
# PCOD9026838 Si02
#       7
#     2   2   2   2   2   2   2
#     4  10  25  45  67  99 142 184 228 287 346 410
#     4  11  24  42  70 100 134 179 231 279 349 411
#     4  11  23  44  67  98 139 180 234 285 337 412
#     4  10  22  41  65  98 137 176 228 275 342 405
#     4   9  21  44  70  95 131 180 227 282 348 401
#     4   9  21  41  66  98 132 170 226 281 338 400
#     4  12  25  42  65 102 138 185 234 276 345 414
#
# _framework density 27.404330000000002
#
# number of rings (size 3 to 8) (size 9 to 14) (size 15 to 20)
#    0.000    1.714    1.429    2.143    2.000    9.143 
#    2.571    0.000    0.000    0.000    0.000    0.000 
#    0.000    0.000    0.000    0.000    0.000    0.000 
#
# Total GULP energy -77935.598416 kJ/mol
# GULP energy per Si atom -5566.828458 kJ/mol
# Density = 2.734196 g / cm^3
# Si number density = 27.404330 Si / 1000 Ang^3
#
#
#
# Elastic Constant Matrix: (Units=GPa)
#
#
# Indices 1 2 3 4 5 6 
#
# 1 90.3550 32.6853 58.2144 -9.3501 -35.7345 3.1688
# 2 32.6853 78.0751 44.2577 -2.9262 -21.4033 8.8342
# 3 58.2144 44.2577 155.4277 -37.2324 -48.6835 4.3101
# 4 -9.3501 -2.9262 -37.2324 54.4565 11.6399 -7.3768
# 5 -35.7345 -21.4033 -48.6835 11.6399 52.9207 -4.9442
# 6 3.1688 8.8342 4.3101 -7.3768 -4.9442 36.3533
#
#
#
# Elastic Compliance Matrix: (Units=1/GPa)
#
#
# Indices 1 2 3 4 5 6 
#
# 1 0.017332 -0.003336 -0.003495 -0.001114 0.007431 0.000499
# 2 -0.003336 0.017073 -0.003772 -0.003074 0.001500 -0.003830
# 3 -0.003495 -0.003772 0.012243 0.006520 0.006123 0.001926
# 4 -0.001114 -0.003074 0.006520 0.023244 -0.000671 0.004697
# 5 0.007431 0.001500 0.006123 -0.000671 0.030514 0.002276
# 6 0.000499 -0.003830 0.001926 0.004697 0.002276 0.029429
#
#
# Mechanical properties :
#
#
# Convention : Reuss Voigt Hill
#
# Bulk Modulus (GPa) = 39.30468 66.01919 52.66193
# Shear Modulus (GPa) = 31.34369 41.32613 36.33491
#
# Velocity S-wave (km/s) = 3.38561 3.88753 3.64522
# Velocity P-wave (km/s) = 5.44580 6.65534 6.08072
#
# Compressibility (1/GPa) = 0.02544226
#
# Stress axis : x y z
#
# Youngs Moduli (GPa) = 57.69722 58.57364 81.67671
#
# Poissons Ratio (x) = 0.19540 0.28544
# Poissons Ratio (y) = 0.19247 0.30809
# Poissons Ratio (z) = 0.20164 0.22095
#
# Static dielectric constant tensor:
#      x y z
#    x 2.221350 -0.205690 -0.085490 
#    y -0.205690 2.197060 0.198800 
#    z -0.085490 0.198800 2.320200 
# 
# From -- ./inp_files/236603.got.cif
#   From: 2010.05.17/outbox.cif.g08.bks.cpg/sg2_119_cif.got.tgz:236603.got - 2010.06.03 11:33:40.
