data_PCOD9026349
_publ_section_title
;
Structure prediction by ZEFSAII (Michael W. Deem and Ramdas Pophale) SiO2 
 PCOD9026349
Probable space group: P -1
;
_chemical_formula_sum "Si O2"
_cell_formula_units_Z 16
_cell_length_a 14.021874
_cell_length_b 9.607522
_cell_length_c 8.157248
_cell_angle_alpha 92.128075
_cell_angle_beta 58.639471
_cell_angle_gamma 106.826794
_cell_volume 889.485721
_symmetry_space_group_name_H-M "P -1"
_symmetry_group_IT_number 2
_symmetry_cell_setting 'triclinic'
loop_
_space_group_symop_operation_xyz
x,y,z
-x,-y,-z
loop_
_atom_site_type_symbol
_atom_site_label
_atom_site_fract_x
_atom_site_fract_y
_atom_site_fract_z
Si Si1 0.575821 0.108845 0.801506
Si Si2 0.937666 0.251289 0.405968
Si Si3 0.773155 0.236590 0.849183
Si Si4 0.337720 0.062420 0.865743
Si Si5 0.882847 0.867980 0.891443
Si Si6 0.080437 0.177712 0.761482
Si Si7 0.989253 0.446354 0.819884
Si Si8 0.253238 0.011362 0.568839
O O1 0.669152 0.243779 0.818718
O O2 0.475869 0.136417 0.778450
O O3 0.651662 0.020849 0.636508
O O4 0.500000 0.000000 0.000000
O O5 0.868679 0.210460 0.635533
O O6 0.855458 0.140823 0.340842
O O7 0.059702 0.216854 0.289227
O O8 0.956943 0.416539 0.341975
O O9 0.852071 0.371117 0.891193
O O10 0.711281 0.098892 0.014907
O O11 0.309312 0.045923 0.698553
O O12 0.251832 0.146302 0.019480
O O13 0.897005 0.815289 0.061727
O O14 0.963339 0.039301 0.826951
O O15 0.055964 0.325256 0.737743
O O16 0.189572 0.132378 0.586815
O O17 0.000000 0.500000 0.000000
#
# Coordination Sequence:
#
# PCOD9026349 Si02
#       8
#     2   2   2   2   2   2   2   2
#     4   9  19  34  51  80 105 132 172 216 261 296
#     4  10  20  32  50  78 113 135 164 206 270 307
#     4  10  21  34  47  76 110 133 170 217 251 309
#     4  10  17  31  56  77 101 136 176 208 255 292
#     4   9  16  31  50  80 106 128 166 220 250 307
#     4   9  17  30  51  79 108 127 171 213 259 297
#     4  12  20  33  53  77 102 146 171 203 259 316
#     4   9  18  34  55  82 104 130 170 222 247 308
#
# _framework density 17.987921
#
# number of rings (size 3 to 8) (size 9 to 14) (size 15 to 20)
#    0.000    2.250    2.500    2.250    0.000    0.500 
#    4.500    0.000    0.000    0.750    9.750   11.375 
#    0.000    0.000    0.000    0.000    0.000    0.000 
#
# Total GULP energy -89138.092064 kJ/mol
# GULP energy per Si atom -5571.130754 kJ/mol
# Density = 1.794698 g / cm^3
# Si number density = 17.987921 Si / 1000 Ang^3
#
#
#
# Elastic Constant Matrix: (Units=GPa)
#
#
# Indices 1 2 3 4 5 6 
#
# 1 124.1148 42.2713 31.2911 13.7591 -19.4656 20.4998
# 2 42.2713 77.3274 14.2291 4.0582 -7.5020 -6.2644
# 3 31.2911 14.2291 72.2903 10.0171 -22.4533 1.1258
# 4 13.7591 4.0582 10.0171 14.7722 -3.1838 1.0018
# 5 -19.4656 -7.5020 -22.4533 -3.1838 29.8418 5.0653
# 6 20.4998 -6.2644 1.1258 1.0018 5.0653 27.6594
#
#
#
# Elastic Compliance Matrix: (Units=1/GPa)
#
#
# Indices 1 2 3 4 5 6 
#
# 1 0.016192 -0.008536 -0.000935 -0.009053 0.009340 -0.015278
# 2 -0.008536 0.018298 -0.001599 0.002432 -0.003803 0.011144
# 3 -0.000935 -0.001599 0.020082 -0.009205 0.013563 -0.002637
# 4 -0.009053 0.002432 -0.009205 0.080333 -0.004594 0.005567
# 5 0.009340 -0.003803 0.013563 -0.004594 0.051344 -0.017572
# 6 -0.015278 0.011144 -0.002637 0.005567 -0.017572 0.053125
#
#
# Mechanical properties :
#
#
# Convention : Reuss Voigt Hill
#
# Bulk Modulus (GPa) = 30.83275 49.92396 40.37835
# Shear Modulus (GPa) = 18.36043 26.85076 22.60559
#
# Velocity S-wave (km/s) = 3.19832 3.86775 3.54886
# Velocity P-wave (km/s) = 5.55131 6.91089 6.26807
#
# Compressibility (1/GPa) = 0.03243304
#
# Stress axis : x y z
#
# Youngs Moduli (GPa) = 61.75953 54.64933 49.79573
#
# Poissons Ratio (x) = 0.46647 0.04657
# Poissons Ratio (y) = 0.52716 0.07961
# Poissons Ratio (z) = 0.05776 0.08737
#
# Static dielectric constant tensor:
#      x y z
#    x 1.693150 0.005240 0.002520 
#    y 0.005240 1.605190 0.026140 
#    z 0.002520 0.026140 1.640770 
# 
# From -- ./inp_files/171490.got.cif
#   From: 2010.05.17/outbox.cif.g08.bks.cpg/sg2_86_cif.got.tgz:171490.got - 2010.06.03 11:33:40.
