data_PCOD9026939
_publ_section_title
;
Structure prediction by ZEFSAII (Michael W. Deem and Ramdas Pophale) SiO2 
 PCOD9026939
Probable space group: P -1
;
_chemical_formula_sum "Si O2"
_cell_formula_units_Z 14
_cell_length_a 15.929076
_cell_length_b 9.098264
_cell_length_c 9.170160
_cell_angle_alpha 31.470055
_cell_angle_beta 115.167366
_cell_angle_gamma 121.561968
_cell_volume 590.508039
_symmetry_space_group_name_H-M "P -1"
_symmetry_group_IT_number 2
_symmetry_cell_setting 'triclinic'
loop_
_space_group_symop_operation_xyz
x,y,z
-x,-y,-z
loop_
_atom_site_type_symbol
_atom_site_label
_atom_site_fract_x
_atom_site_fract_y
_atom_site_fract_z
Si Si1 0.739058 0.586132 0.542364
Si Si2 0.148890 0.902652 0.316212
Si Si3 0.927902 0.566447 0.121404
Si Si4 0.566691 0.357740 0.377138
Si Si5 0.851051 0.147179 0.986443
Si Si6 0.567805 0.298068 0.100069
Si Si7 0.265232 0.940731 0.634629
O O1 0.648601 0.506497 0.430737
O O2 0.770935 0.300933 0.838229
O O3 0.718868 0.759323 0.519668
O O4 0.829172 0.834908 0.316310
O O5 0.159477 0.912427 0.144323
O O6 0.096999 0.131162 0.142753
O O7 0.250792 0.986889 0.411719
O O8 0.086842 0.573852 0.608102
O O9 0.841262 0.307577 0.194483
O O10 0.037581 0.636926 0.087427
O O11 0.605872 0.417913 0.188863
O O12 0.523541 0.005696 0.676759
O O13 0.475873 0.483638 0.203183
O O14 0.649937 0.199438 0.164695
#
# Coordination Sequence:
#
# PCOD9026939 Si02
#       7
#     2   2   2   2   2   2   2
#     4  12  27  41  63  99 133 171 209 262 321 384
#     4  10  22  41  66  91 126 167 220 268 302 376
#     4  10  23  41  67  96 125 171 224 257 312 377
#     4  10  23  42  65  96 120 161 217 258 325 372
#     4  12  24  42  68  91 134 172 217 265 310 367
#     4  10  22  42  69  89 124 164 208 270 312 379
#     4  10  27  40  67  95 136 167 213 256 328 378
#
# _framework density 23.708399
#
# number of rings (size 3 to 8) (size 9 to 14) (size 15 to 20)
#    0.857    0.571    0.000    4.286    6.000    3.429 
#    0.000    0.000    0.000    0.000    0.000    0.000 
#    0.000    0.000    0.000    0.000    0.000    0.000 
#
# Total GULP energy -78364.881517 kJ/mol
# GULP energy per Si atom -5597.491537 kJ/mol
# Density = 2.365444 g / cm^3
# Si number density = 23.708399 Si / 1000 Ang^3
#
#
#
# Elastic Constant Matrix: (Units=GPa)
#
#
# Indices 1 2 3 4 5 6 
#
# 1 68.3699 34.9409 0.8663 -1.3146 20.2380 -3.5454
# 2 34.9409 102.6736 -9.3028 4.9447 11.0573 12.1719
# 3 0.8663 -9.3028 78.5347 -1.6669 11.6314 2.7466
# 4 -1.3146 4.9447 -1.6669 15.2449 -4.5308 -2.5634
# 5 20.2380 11.0573 11.6314 -4.5308 51.1915 -5.0871
# 6 -3.5454 12.1719 2.7466 -2.5634 -5.0871 16.4575
#
#
#
# Elastic Compliance Matrix: (Units=1/GPa)
#
#
# Indices 1 2 3 4 5 6 
#
# 1 0.020751 -0.007935 -0.000671 0.004420 -0.004992 0.009597
# 2 -0.007935 0.015348 0.002741 -0.008979 -0.003175 -0.015898
# 3 -0.000671 0.002741 0.013868 -0.001707 -0.004231 -0.006060
# 4 0.004420 -0.008979 -0.001707 0.075312 0.009486 0.022541
# 5 -0.004992 -0.003175 -0.004231 0.009486 0.025110 0.011218
# 6 0.009597 -0.015898 -0.006060 0.022541 0.011218 0.082578
#
#
# Mechanical properties :
#
#
# Convention : Reuss Voigt Hill
#
# Bulk Modulus (GPa) = 26.15409 33.62077 29.88743
# Shear Modulus (GPa) = 19.42194 31.45037 25.43615
#
# Velocity S-wave (km/s) = 2.86527 3.64613 3.27903
# Velocity P-wave (km/s) = 4.69062 5.65132 5.19323
#
# Compressibility (1/GPa) = 0.03823494
#
# Stress axis : x y z
#
# Youngs Moduli (GPa) = 48.19139 65.15683 72.11011
#
# Poissons Ratio (x) = 0.51704 0.04841
# Poissons Ratio (y) = 0.38242 -0.19767
# Poissons Ratio (z) = 0.03235 -0.17861
#
# Static dielectric constant tensor:
#      x y z
#    x 1.901880 0.006170 -0.041470 
#    y 0.006170 1.887000 0.030430 
#    z -0.041470 0.030430 1.866030 
# 
# From -- ./inp_files/328312.got.cif
#   From: 2010.05.17/outbox.cif.g08.bks.cpg/sg2_165_cif.got.tgz:328312.got - 2010.06.03 11:33:40.
