data_PCOD9026589
_publ_section_title
;
Structure prediction by ZEFSAII (Michael W. Deem and Ramdas Pophale) SiO2 
 PCOD9026589
Probable space group: P -1
;
_chemical_formula_sum "Si O2"
_cell_formula_units_Z 12
_cell_length_a 6.858498
_cell_length_b 8.823669
_cell_length_c 15.105722
_cell_angle_alpha 128.738354
_cell_angle_beta 58.498668
_cell_angle_gamma 130.546519
_cell_volume 531.403448
_symmetry_space_group_name_H-M "P -1"
_symmetry_group_IT_number 2
_symmetry_cell_setting 'triclinic'
loop_
_space_group_symop_operation_xyz
x,y,z
-x,-y,-z
loop_
_atom_site_type_symbol
_atom_site_label
_atom_site_fract_x
_atom_site_fract_y
_atom_site_fract_z
Si Si1 0.244996 0.364632 0.846430
Si Si2 0.464652 0.444066 0.627901
Si Si3 0.250282 0.811969 0.542961
Si Si4 0.775847 0.852786 0.591450
Si Si5 0.536993 0.937819 0.243714
Si Si6 0.638015 0.156380 0.941157
O O1 0.326097 0.412223 0.742085
O O2 0.415441 0.261111 0.809115
O O3 0.933650 0.196511 0.870127
O O4 0.315396 0.596656 0.960655
O O5 0.718987 0.405689 0.561630
O O6 0.551054 0.679966 0.648447
O O7 0.287644 0.261417 0.530872
O O8 0.025448 0.852245 0.571460
O O9 0.500000 0.000000 0.500000
O O10 0.276168 0.864410 0.661161
O O11 0.739844 0.068824 0.674124
O O12 0.544923 0.943142 0.137951
O O13 0.500000 0.000000 0.000000
#
# Coordination Sequence:
#
# PCOD9026589 Si02
#       6
#     2   2   2   2   2   2
#     4  11  24  44  69  98 127 173 227 274 333 392
#     4  10  22  41  64  98 133 176 219 269 327 390
#     4  11  22  38  65  99 133 173 212 262 326 398
#     4  10  23  40  66  99 138 173 216 266 329 397
#     4  11  23  41  67  97 129 174 215 269 334 384
#     4  11  26  47  69  93 131 171 226 282 332 390
#
# _framework density 22.581710999999999
#
# number of rings (size 3 to 8) (size 9 to 14) (size 15 to 20)
#    0.000    1.333    1.667    3.000    2.333    2.000 
#    0.000    5.000    0.000    0.000    0.000    0.000 
#    0.000    0.000    0.000    0.000    0.000    0.000 
#
# Total GULP energy -67052.366263 kJ/mol
# GULP energy per Si atom -5587.697189 kJ/mol
# Density = 2.253031 g / cm^3
# Si number density = 22.581711 Si / 1000 Ang^3
#
#
#
# Elastic Constant Matrix: (Units=GPa)
#
#
# Indices 1 2 3 4 5 6 
#
# 1 179.8992 40.0315 72.8124 -10.8039 -7.7001 -18.1752
# 2 40.0315 82.5175 42.6099 -19.4936 -4.3957 -23.4972
# 3 72.8124 42.6099 131.9113 -17.7850 1.7516 -10.8598
# 4 -10.8039 -19.4936 -17.7850 44.3176 -18.5477 0.4414
# 5 -7.7001 -4.3957 1.7516 -18.5477 53.4489 0.7988
# 6 -18.1752 -23.4972 -10.8598 0.4414 0.7988 30.1127
#
#
#
# Elastic Compliance Matrix: (Units=1/GPa)
#
#
# Indices 1 2 3 4 5 6 
#
# 1 0.007565 -0.000892 -0.003629 0.000503 0.001272 0.002520
# 2 -0.000892 0.021109 -0.003959 0.009330 0.004762 0.014242
# 3 -0.003629 -0.003959 0.010966 0.001510 -0.000664 -0.001330
# 4 0.000503 0.009330 0.001510 0.032299 0.011889 0.007339
# 5 0.001272 0.004762 -0.000664 0.011889 0.023380 0.003450
# 6 0.002520 0.014242 -0.001330 0.007339 0.003450 0.045165
#
#
# Mechanical properties :
#
#
# Convention : Reuss Voigt Hill
#
# Bulk Modulus (GPa) = 44.09244 78.35953 61.22598
# Shear Modulus (GPa) = 30.30200 41.50079 35.90140
#
# Velocity S-wave (km/s) = 3.66715 4.29161 3.99161
# Velocity P-wave (km/s) = 6.12362 7.70279 6.95815
#
# Compressibility (1/GPa) = 0.02267963
#
# Stress axis : x y z
#
# Youngs Moduli (GPa) = 132.18074 47.37317 91.19054
#
# Poissons Ratio (x) = 0.04224 0.33098
# Poissons Ratio (y) = 0.11787 0.36104
# Poissons Ratio (z) = 0.47975 0.18756
#
# Static dielectric constant tensor:
#      x y z
#    x 1.853500 0.052710 -0.004740 
#    y 0.052710 1.911810 0.033570 
#    z -0.004740 0.033570 1.854430 
# 
# From -- ./inp_files/216072.got.cif
#   From: 2010.05.17/outbox.cif.g08.bks.cpg/sg2_109_cif.got.tgz:216072.got - 2010.06.03 11:33:40.
