data_PCOD9026691
_publ_section_title
;
Structure prediction by ZEFSAII (Michael W. Deem and Ramdas Pophale) SiO2 
 PCOD9026691
Probable space group: P -1
;
_chemical_formula_sum "Si O2"
_cell_formula_units_Z 14
_cell_length_a 15.618736
_cell_length_b 7.705599
_cell_length_c 8.034055
_cell_angle_alpha 93.576487
_cell_angle_beta 95.553717
_cell_angle_gamma 135.571191
_cell_volume 661.576798
_symmetry_space_group_name_H-M "P -1"
_symmetry_group_IT_number 2
_symmetry_cell_setting 'triclinic'
loop_
_space_group_symop_operation_xyz
x,y,z
-x,-y,-z
loop_
_atom_site_type_symbol
_atom_site_label
_atom_site_fract_x
_atom_site_fract_y
_atom_site_fract_z
Si Si1 0.723888 0.689313 0.329299
Si Si2 0.747522 0.104294 0.339261
Si Si3 0.370617 0.732895 0.516305
Si Si4 0.355944 0.243215 0.983610
Si Si5 0.133782 0.234815 0.356976
Si Si6 0.855784 0.101398 0.846332
Si Si7 0.998919 0.381889 0.238419
O O1 0.616651 0.400655 0.350945
O O2 0.719882 0.719597 0.134690
O O3 0.844568 0.781779 0.445017
O O4 0.101852 0.014687 0.238739
O O5 0.707246 0.219878 0.423848
O O6 0.892578 0.306029 0.331955
O O7 0.673655 0.973116 0.142295
O O8 0.712673 0.870023 0.408315
O O9 0.277048 0.504314 0.353501
O O10 0.500000 0.000000 0.500000
O O11 0.500000 0.500000 0.000000
O O12 0.289331 0.125836 0.140361
O O13 0.048300 0.273066 0.310311
O O14 0.891740 0.318683 0.753280
O O15 0.931873 0.243693 0.040835
#
# Coordination Sequence:
#
# PCOD9026691 Si02
#       7
#     2   2   2   2   2   2   2
#     4   8  22  40  58  96 119 163 212 258 313 369
#     4   9  21  42  61  91 128 163 209 262 313 375
#     4  10  23  40  62  95 126 164 214 258 317 376
#     4   9  20  41  66  88 125 174 207 255 327 367
#     4  10  23  38  64  93 124 169 209 264 316 364
#     4  10  22  42  61  97 126 166 215 261 313 376
#     4  10  22  41  65  92 128 168 217 256 312 382
#
# _framework density 21.161562
#
# number of rings (size 3 to 8) (size 9 to 14) (size 15 to 20)
#    1.714    0.857    0.000    0.429    4.000    4.000 
#    7.714    0.714    0.000    0.000    0.000    0.000 
#    0.000    0.000    0.000    0.000    0.000    0.000 
#
# Total GULP energy -77945.049195 kJ/mol
# GULP energy per Si atom -5567.503514 kJ/mol
# Density = 2.111340 g / cm^3
# Si number density = 21.161562 Si / 1000 Ang^3
#
#
#
# Elastic Constant Matrix: (Units=GPa)
#
#
# Indices 1 2 3 4 5 6 
#
# 1 109.7018 56.5649 36.9907 -11.5057 -8.6854 -17.9092
# 2 56.5649 168.2630 31.2059 -23.8182 -5.7303 -9.7142
# 3 36.9907 31.2059 42.7865 -6.9975 2.0577 -0.4263
# 4 -11.5057 -23.8182 -6.9975 29.7978 -5.0073 5.8584
# 5 -8.6854 -5.7303 2.0577 -5.0073 18.4627 2.4710
# 6 -17.9092 -9.7142 -0.4263 5.8584 2.4710 35.4595
#
#
#
# Elastic Compliance Matrix: (Units=1/GPa)
#
#
# Indices 1 2 3 4 5 6 
#
# 1 0.016440 -0.002314 -0.012585 0.001559 0.007943 0.006707
# 2 -0.002314 0.008207 -0.003249 0.005480 0.003320 -0.000096
# 3 -0.012585 -0.003249 0.037175 0.000816 -0.010016 -0.006237
# 4 0.001559 0.005480 0.000816 0.042306 0.014581 -0.005707
# 5 0.007943 0.003320 -0.010016 0.014581 0.064281 -0.002087
# 6 0.006707 -0.000096 -0.006237 -0.005707 -0.002087 0.032576
#
#
# Mechanical properties :
#
#
# Convention : Reuss Voigt Hill
#
# Bulk Modulus (GPa) = 39.17819 63.36383 51.27101
# Shear Modulus (GPa) = 20.34254 29.80996 25.07625
#
# Velocity S-wave (km/s) = 3.10384 3.75732 3.44610
# Velocity P-wave (km/s) = 5.60349 6.98793 6.33365
#
# Compressibility (1/GPa) = 0.02552441
#
# Stress axis : x y z
#
# Youngs Moduli (GPa) = 60.82772 121.84916 26.89952
#
# Poissons Ratio (x) = 0.28197 0.33854
# Poissons Ratio (y) = 0.14076 0.08741
# Poissons Ratio (z) = 0.76554 0.39593
#
# Static dielectric constant tensor:
#      x y z
#    x 1.709640 0.014900 0.021830 
#    y 0.014900 1.839600 0.014030 
#    z 0.021830 0.014030 1.841210 
# 
# From -- ./inp_files/298577.got.cif
#   From: 2010.05.17/outbox.cif.g08.bks.cpg/sg2_150_cif.got.tgz:298577.got - 2010.06.03 11:33:40.
