data_PCOD9026526
_publ_section_title
;
Structure prediction by ZEFSAII (Michael W. Deem and Ramdas Pophale) SiO2 
 PCOD9026526
Probable space group: P -1
;
_chemical_formula_sum "Si O2"
_cell_formula_units_Z 14
_cell_length_a 18.663069
_cell_length_b 12.648390
_cell_length_c 8.049474
_cell_angle_alpha 113.483785
_cell_angle_beta 131.708061
_cell_angle_gamma 29.391975
_cell_volume 605.088180
_symmetry_space_group_name_H-M "P -1"
_symmetry_group_IT_number 2
_symmetry_cell_setting 'triclinic'
loop_
_space_group_symop_operation_xyz
x,y,z
-x,-y,-z
loop_
_atom_site_type_symbol
_atom_site_label
_atom_site_fract_x
_atom_site_fract_y
_atom_site_fract_z
Si Si1 0.010107 0.959270 0.789665
Si Si2 0.414714 0.905702 0.010293
Si Si3 0.252420 0.491632 0.978783
Si Si4 0.290196 0.279367 0.420243
Si Si5 0.401239 0.513527 0.483286
Si Si6 0.665595 0.233357 0.017072
Si Si7 0.081698 0.464305 0.876832
O O1 0.776750 0.222318 0.538696
O O2 0.121410 0.718251 0.804659
O O3 0.137452 0.909944 0.839551
O O4 0.000000 0.000000 0.000000
O O5 0.613549 0.722541 0.320652
O O6 0.309929 0.900204 0.907937
O O7 0.526461 0.773013 0.923878
O O8 0.247137 0.185491 0.932272
O O9 0.302992 0.511482 0.233655
O O10 0.121490 0.518418 0.835173
O O11 0.147422 0.344266 0.347588
O O12 0.500000 0.000000 0.500000
O O13 0.143428 0.456673 0.145456
O O14 0.500000 0.500000 0.500000
O O15 0.563608 0.295305 0.727810
O O16 0.500000 0.500000 0.000000
#
# Coordination Sequence:
#
# PCOD9026526 Si02
#       7
#     2   2   2   2   2   2   2
#     4  10  22  41  64  95 126 168 217 259 318 383
#     4  11  23  41  63  96 132 163 215 265 321 383
#     4  11  22  43  63  96 134 166 214 267 315 393
#     4   9  21  42  62  89 125 166 218 260 314 375
#     4  11  22  43  65  93 127 173 213 261 326 375
#     4  12  23  43  66  95 132 167 214 274 318 380
#     4  10  22  42  66  92 126 172 211 260 325 379
#
# _framework density 23.137122000000002
#
# number of rings (size 3 to 8) (size 9 to 14) (size 15 to 20)
#    0.000    1.429    4.286    1.286    0.000    9.143 
#   10.286    0.000    0.000    0.000    0.000    0.000 
#    0.000    0.000    0.000    0.000    0.000    0.000 
#
# Total GULP energy -78242.566870 kJ/mol
# GULP energy per Si atom -5588.754776 kJ/mol
# Density = 2.308446 g / cm^3
# Si number density = 23.137122 Si / 1000 Ang^3
#
#
#
# Elastic Constant Matrix: (Units=GPa)
#
#
# Indices 1 2 3 4 5 6 
#
# 1 179.5409 39.7602 29.4873 -10.8956 59.9640 3.4735
# 2 39.7602 88.5564 22.4884 -0.5332 26.6542 -3.4806
# 3 29.4873 22.4884 57.8721 -12.3471 19.1302 -0.7516
# 4 -10.8956 -0.5332 -12.3471 25.5702 -15.1591 10.3502
# 5 59.9640 26.6542 19.1302 -15.1591 31.3870 -2.6358
# 6 3.4735 -3.4806 -0.7516 10.3502 -2.6358 35.1576
#
#
#
# Elastic Compliance Matrix: (Units=1/GPa)
#
#
# Indices 1 2 3 4 5 6 
#
# 1 0.026885 0.011304 0.000114 -0.035809 -0.078063 0.003155
# 2 0.011304 0.023260 -0.003583 -0.030565 -0.053414 0.006103
# 3 0.000114 -0.003583 0.022694 0.007497 -0.007609 -0.002658
# 4 -0.035809 -0.030565 0.007497 0.124589 0.147880 -0.024919
# 5 -0.078063 -0.053414 -0.007609 0.147880 0.300846 -0.018718
# 6 0.003155 0.006103 -0.002658 -0.024919 -0.018718 0.034612
#
#
# Mechanical properties :
#
#
# Convention : Reuss Voigt Hill
#
# Bulk Modulus (GPa) = 11.29831 56.60457 33.95144
# Shear Modulus (GPa) = 9.14548 34.03855 21.59202
#
# Velocity S-wave (km/s) = 1.99030 3.83974 3.05818
# Velocity P-wave (km/s) = 3.18991 6.64651 5.21304
#
# Compressibility (1/GPa) = 0.08850880
#
# Stress axis : x y z
#
# Youngs Moduli (GPa) = 37.19491 42.99298 44.06437
#
# Poissons Ratio (x) = -0.48600 -0.00502
# Poissons Ratio (y) = -0.42046 0.15790
# Poissons Ratio (z) = -0.00424 0.15406
#
# Static dielectric constant tensor:
#      x y z
#    x 1.912860 -0.041630 -0.023780 
#    y -0.041630 1.895650 0.029500 
#    z -0.023780 0.029500 1.956920 
# 
# From -- ./inp_files/333492.got.cif
#   From: 2010.05.17/outbox.cif.g08.bks.cpg/sg2_167_cif.got.tgz:333492.got - 2010.06.03 11:33:40.
