data_PCOD9026930
_publ_section_title
;
Structure prediction by ZEFSAII (Michael W. Deem and Ramdas Pophale) SiO2 
 PCOD9026930
Probable space group: P -1
;
_chemical_formula_sum "Si O2"
_cell_formula_units_Z 16
_cell_length_a 8.421623
_cell_length_b 18.464912
_cell_length_c 9.147750
_cell_angle_alpha 138.492365
_cell_angle_beta 73.555339
_cell_angle_gamma 130.076727
_cell_volume 663.470809
_symmetry_space_group_name_H-M "P -1"
_symmetry_group_IT_number 2
_symmetry_cell_setting 'triclinic'
loop_
_space_group_symop_operation_xyz
x,y,z
-x,-y,-z
loop_
_atom_site_type_symbol
_atom_site_label
_atom_site_fract_x
_atom_site_fract_y
_atom_site_fract_z
Si Si1 0.121345 0.377060 0.566518
Si Si2 0.001500 0.338955 0.862946
Si Si3 0.198907 0.165322 0.258167
Si Si4 0.546526 0.863694 0.059993
Si Si5 0.130578 0.154375 0.606629
Si Si6 0.495261 0.792433 0.293452
Si Si7 0.616276 0.107701 0.273177
Si Si8 0.097947 0.577965 0.743519
O O1 0.139030 0.399758 0.769712
O O2 0.858337 0.268977 0.420688
O O3 0.194002 0.286457 0.381523
O O4 0.232160 0.532364 0.700470
O O5 0.764019 0.288692 0.796338
O O6 0.010377 0.219146 0.740307
O O7 0.081674 0.458463 0.147343
O O8 0.408559 0.199966 0.179619
O O9 0.168762 0.150394 0.417584
O O10 0.000000 0.000000 0.000000
O O11 0.276912 0.756979 0.959349
O O12 0.602468 0.863021 0.211970
O O13 0.677823 0.032410 0.245265
O O14 0.383339 0.265160 0.777993
O O15 0.000000 0.000000 0.500000
O O16 0.533437 0.884203 0.568576
O O17 0.500000 0.000000 0.000000
O O18 0.000000 0.500000 0.500000
#
# Coordination Sequence:
#
# PCOD9026930 Si02
#       8
#     2   2   2   2   2   2   2   2
#     4  10  22  41  66  90 129 184 214 269 339 389
#     4   9  23  45  64  91 134 176 221 274 334 397
#     4  11  22  41  63  96 140 170 220 283 333 399
#     4  11  23  40  62  93 134 178 212 276 341 389
#     4  11  24  37  66 100 128 176 221 274 341 399
#     4  10  23  38  63  93 136 169 221 270 338 394
#     4  11  21  37  64  93 127 171 225 272 330 388
#     4  11  24  41  66  94 131 175 228 271 332 403
#
# _framework density 24.115604999999999
#
# number of rings (size 3 to 8) (size 9 to 14) (size 15 to 20)
#    0.000    1.500    1.250    3.000    7.000    3.500 
#    0.000    1.250    0.000   10.500    0.000    0.000 
#    0.000    0.000    0.000    0.000    0.000    0.000 
#
# Total GULP energy -89193.592454 kJ/mol
# GULP energy per Si atom -5574.599528 kJ/mol
# Density = 2.406072 g / cm^3
# Si number density = 24.115605 Si / 1000 Ang^3
#
#
#
# Elastic Constant Matrix: (Units=GPa)
#
#
# Indices 1 2 3 4 5 6 
#
# 1 113.5551 22.8276 32.8860 -0.2032 -17.4684 -19.8294
# 2 22.8276 74.2584 19.3090 -4.0523 -5.9344 -15.4428
# 3 32.8860 19.3090 112.0966 -21.8284 -6.7565 -8.8118
# 4 -0.2032 -4.0523 -21.8284 41.1189 -6.2452 -3.5035
# 5 -17.4684 -5.9344 -6.7565 -6.2452 44.7497 -0.7141
# 6 -19.8294 -15.4428 -8.8118 -3.5035 -0.7141 37.8183
#
#
#
# Elastic Compliance Matrix: (Units=1/GPa)
#
#
# Indices 1 2 3 4 5 6 
#
# 1 0.011258 -0.001543 -0.002525 -0.000455 0.003821 0.004714
# 2 -0.001543 0.015643 -0.001438 0.001466 0.001546 0.005408
# 3 -0.002525 -0.001438 0.011300 0.006171 0.001412 0.001320
# 4 -0.000455 0.001466 0.006171 0.028895 0.005054 0.004571
# 5 0.003821 0.001546 0.001412 0.005054 0.025024 0.003904
# 6 0.004714 0.005408 0.001320 0.004571 0.003904 0.031928
#
#
# Mechanical properties :
#
#
# Convention : Reuss Voigt Hill
#
# Bulk Modulus (GPa) = 36.77945 49.99506 43.38725
# Shear Modulus (GPa) = 34.69278 39.72987 37.21132
#
# Velocity S-wave (km/s) = 3.79701 4.06331 3.93242
# Velocity P-wave (km/s) = 5.87430 6.54144 6.21683
#
# Compressibility (1/GPa) = 0.02718910
#
# Stress axis : x y z
#
# Youngs Moduli (GPa) = 88.82706 63.92583 88.49650
#
# Poissons Ratio (x) = 0.09866 0.22341
# Poissons Ratio (y) = 0.13709 0.12725
# Poissons Ratio (z) = 0.22425 0.09192
#
# Static dielectric constant tensor:
#      x y z
#    x 2.055190 0.090460 0.007770 
#    y 0.090460 2.025690 -0.008430 
#    z 0.007770 -0.008430 1.933270 
# 
# From -- ./inp_files/218874.got.cif
#   From: 2010.05.17/outbox.cif.g08.bks.cpg/sg2_110_cif.got.tgz:218874.got - 2010.06.03 11:33:40.
