data_PCOD9026371
_publ_section_title
;
Structure prediction by ZEFSAII (Michael W. Deem and Ramdas Pophale) SiO2 
 PCOD9026371
Probable space group: P -1
;
_chemical_formula_sum "Si O2"
_cell_formula_units_Z 14
_cell_length_a 19.422055
_cell_length_b 10.208863
_cell_length_c 5.568928
_cell_angle_alpha 83.303381
_cell_angle_beta 103.028081
_cell_angle_gamma 146.918118
_cell_volume 581.746318
_symmetry_space_group_name_H-M "P -1"
_symmetry_group_IT_number 2
_symmetry_cell_setting 'triclinic'
loop_
_space_group_symop_operation_xyz
x,y,z
-x,-y,-z
loop_
_atom_site_type_symbol
_atom_site_label
_atom_site_fract_x
_atom_site_fract_y
_atom_site_fract_z
Si Si1 0.899314 0.567799 0.047612
Si Si2 0.404334 0.295341 0.167506
Si Si3 0.558548 0.883264 0.492393
Si Si4 0.927809 0.849429 0.720243
Si Si5 0.769008 0.116610 0.237011
Si Si6 0.383289 0.801681 0.135340
Si Si7 0.186406 0.069546 0.368330
O O1 0.907579 0.659419 0.776070
O O2 0.760200 0.416127 0.046020
O O3 0.876832 0.379445 0.144878
O O4 0.039047 0.813861 0.218349
O O5 0.476866 0.321164 0.414981
O O6 0.293338 0.207815 0.220504
O O7 0.500000 0.500000 0.000000
O O8 0.324752 0.059128 0.017438
O O9 0.683535 0.058795 0.380962
O O10 0.601544 0.059256 0.684924
O O11 0.429200 0.738992 0.304952
O O12 0.810415 0.769357 0.616489
O O13 0.000000 0.000000 0.500000
O O14 0.000000 0.000000 0.000000
O O15 0.798899 0.018911 0.393732
O O16 0.500000 0.000000 0.000000
#
# Coordination Sequence:
#
# PCOD9026371 Si02
#       7
#     2   2   2   2   2   2   2
#     4  11  23  45  73 105 144 182 235 308 361 438
#     4  11  25  46  70  99 144 186 244 294 366 440
#     4  10  22  41  64 102 134 183 241 286 362 431
#     4  10  25  48  69 105 149 194 244 290 374 450
#     4  11  23  45  71 105 142 182 246 297 369 430
#     4  11  21  40  66  97 141 179 233 294 358 422
#     4  10  26  45  71 106 141 194 240 295 376 441
#
# _framework density 24.065473000000001
#
# number of rings (size 3 to 8) (size 9 to 14) (size 15 to 20)
#    0.000    1.429    2.857    0.429    4.000    8.571 
#    0.000    0.000    0.000    0.000    0.000    0.000 
#    0.000    0.000    0.000    0.000    0.000    0.000 
#
# Total GULP energy -77953.652395 kJ/mol
# GULP energy per Si atom -5568.118028 kJ/mol
# Density = 2.401070 g / cm^3
# Si number density = 24.065473 Si / 1000 Ang^3
#
#
#
# Elastic Constant Matrix: (Units=GPa)
#
#
# Indices 1 2 3 4 5 6 
#
# 1 98.3018 6.0042 53.7396 -16.9378 19.6011 16.3657
# 2 6.0042 118.8924 36.9985 -20.9336 5.9541 11.4808
# 3 53.7396 36.9985 86.3173 -39.1970 20.5820 6.6932
# 4 -16.9378 -20.9336 -39.1970 51.2487 -2.5831 14.9266
# 5 19.6011 5.9541 20.5820 -2.5831 64.1670 -2.4199
# 6 16.3657 11.4808 6.6932 14.9266 -2.4199 36.5976
#
#
#
# Elastic Compliance Matrix: (Units=1/GPa)
#
#
# Indices 1 2 3 4 5 6 
#
# 1 0.017964 0.003593 -0.011006 0.001123 -0.002538 -0.007773
# 2 0.003593 0.010916 -0.004572 0.003801 -0.000710 -0.005793
# 3 -0.011006 -0.004572 0.032172 0.021308 -0.006000 -0.008615
# 4 0.001123 0.003801 0.021308 0.044434 -0.006653 -0.024154
# 5 -0.002538 -0.000710 -0.006000 -0.006653 0.018323 0.006380
# 6 -0.007773 -0.005793 -0.008615 -0.024154 0.006380 0.044466
#
#
# Mechanical properties :
#
#
# Convention : Reuss Voigt Hill
#
# Bulk Modulus (GPa) = 26.96640 55.22179 41.09409
# Shear Modulus (GPa) = 24.43724 44.18727 34.31225
#
# Velocity S-wave (km/s) = 3.19007 4.28965 3.78006
# Velocity P-wave (km/s) = 4.97980 6.89428 6.01372
#
# Compressibility (1/GPa) = 0.03708318
#
# Stress axis : x y z
#
# Youngs Moduli (GPa) = 55.66697 91.60537 31.08296
#
# Poissons Ratio (x) = -0.32917 0.34211
# Poissons Ratio (y) = -0.20003 0.14210
# Poissons Ratio (z) = 0.61269 0.41879
#
# Static dielectric constant tensor:
#      x y z
#    x 2.011500 -0.029910 -0.008090 
#    y -0.029910 1.914910 0.033930 
#    z -0.008090 0.033930 2.061140 
# 
# From -- ./inp_files/118129.got.cif
#   From: 2010.05.17/outbox.cif.g08.bks.cpg/sg2_60_cif.got.tgz:118129.got - 2010.06.03 11:33:40.
