data_PCOD9026856
_publ_section_title
;
Structure prediction by ZEFSAII (Michael W. Deem and Ramdas Pophale) SiO2 
 PCOD9026856
Probable space group: P -1
;
_chemical_formula_sum "Si O2"
_cell_formula_units_Z 14
_cell_length_a 5.288089
_cell_length_b 20.680485
_cell_length_c 14.937211
_cell_angle_alpha 155.763295
_cell_angle_beta 90.524326
_cell_angle_gamma 75.415063
_cell_volume 539.869167
_symmetry_space_group_name_H-M "P -1"
_symmetry_group_IT_number 2
_symmetry_cell_setting 'triclinic'
loop_
_space_group_symop_operation_xyz
x,y,z
-x,-y,-z
loop_
_atom_site_type_symbol
_atom_site_label
_atom_site_fract_x
_atom_site_fract_y
_atom_site_fract_z
Si Si1 0.238729 0.075544 0.985867
Si Si2 0.185623 0.298026 0.900760
Si Si3 0.293438 0.721161 0.236999
Si Si4 0.168557 0.250991 0.501887
Si Si5 0.697422 0.967075 0.264791
Si Si6 0.821349 0.591006 0.521962
Si Si7 0.763634 0.325962 0.448325
O O1 0.534651 0.850547 0.694374
O O2 0.128218 0.133502 0.955947
O O3 0.387262 0.181951 0.159082
O O4 0.957697 0.163660 0.166117
O O5 0.496368 0.264666 0.818957
O O6 0.247479 0.178623 0.841052
O O7 0.014074 0.239907 0.759800
O O8 0.949038 0.533119 0.203378
O O9 0.228460 0.884855 0.513598
O O10 0.500000 0.500000 0.000000
O O11 0.335936 0.108747 0.407220
O O12 0.897822 0.247705 0.449280
O O13 0.594456 0.551947 0.425787
O O14 0.000000 0.500000 0.500000
O O15 0.100278 0.547964 0.405024
#
# Coordination Sequence:
#
# PCOD9026856 Si02
#       7
#     2   2   2   2   2   2   2
#     4   8  22  43  66 104 145 194 245 302 357 439
#     4  12  27  50  74 110 149 195 243 313 376 442
#     4  12  25  52  79 106 148 191 246 313 379 440
#     4  10  23  46  71 110 148 197 250 302 366 446
#     4  10  24  48  74 113 146 197 250 303 376 446
#     4  10  22  41  65  99 141 193 246 300 360 424
#     4  10  22  42  67  99 147 198 236 304 363 420
#
# _framework density 25.932206000000001
#
# number of rings (size 3 to 8) (size 9 to 14) (size 15 to 20)
#    1.714    0.000    1.429    2.143    2.000    1.714 
#   10.286    0.000    0.000    0.000    0.000    0.000 
#    0.000    0.000    0.000    0.000    0.000    0.000 
#
# Total GULP energy -78180.818320 kJ/mol
# GULP energy per Si atom -5584.344166 kJ/mol
# Density = 2.587318 g / cm^3
# Si number density = 25.932206 Si / 1000 Ang^3
#
#
#
# Elastic Constant Matrix: (Units=GPa)
#
#
# Indices 1 2 3 4 5 6 
#
# 1 145.6971 61.9533 27.3599 1.1310 20.8761 -32.1212
# 2 61.9533 189.4043 35.2096 -4.9227 7.4242 -9.2906
# 3 27.3599 35.2096 113.6282 -9.6471 8.5377 -2.4143
# 4 1.1310 -4.9227 -9.6471 40.5830 -5.8694 0.4610
# 5 20.8761 7.4242 8.5377 -5.8694 12.6864 -3.9973
# 6 -32.1212 -9.2906 -2.4143 0.4610 -3.9973 43.0766
#
#
#
# Elastic Compliance Matrix: (Units=1/GPa)
#
#
# Indices 1 2 3 4 5 6 
#
# 1 0.012331 -0.002934 -0.000903 -0.003510 -0.017405 0.006934
# 2 -0.002934 0.006399 -0.001383 0.000854 0.002192 -0.000691
# 3 -0.000903 -0.001383 0.009858 0.001657 -0.003822 -0.000791
# 4 -0.003510 0.000854 0.001657 0.027651 0.016609 -0.001095
# 5 -0.017405 0.002192 -0.003822 0.016609 0.115759 -0.002156
# 6 0.006934 -0.000691 -0.000791 -0.001095 -0.002156 0.028003
#
#
# Mechanical properties :
#
#
# Convention : Reuss Voigt Hill
#
# Bulk Modulus (GPa) = 55.10613 77.53057 66.31835
# Shear Modulus (GPa) = 23.09581 40.88300 31.98941
#
# Velocity S-wave (km/s) = 2.98757 3.97487 3.51604
# Velocity P-wave (km/s) = 5.76168 7.14342 6.48943
#
# Compressibility (1/GPa) = 0.01814680
#
# Stress axis : x y z
#
# Youngs Moduli (GPa) = 81.09937 156.27391 101.44449
#
# Poissons Ratio (x) = 0.45856 0.09157
# Poissons Ratio (y) = 0.23797 0.14032
# Poissons Ratio (z) = 0.07321 0.21615
#
# Static dielectric constant tensor:
#      x y z
#    x 2.104290 0.086100 0.007820 
#    y 0.086100 2.238390 0.059360 
#    z 0.007820 0.059360 2.081970 
# 
# From -- ./inp_files/551519.got.cif
#   From: 2010.05.17/outbox.cif.g08.bks.cpg/sg2_276_cif.got.tgz:551519.got - 2010.06.03 11:33:40.
