data_PCOD9026337
_publ_section_title
;
Structure prediction by ZEFSAII (Michael W. Deem and Ramdas Pophale) SiO2 
 PCOD9026337
Probable space group: P -1
;
_chemical_formula_sum "Si O2"
_cell_formula_units_Z 14
_cell_length_a 6.825016
_cell_length_b 12.775396
_cell_length_c 10.979318
_cell_angle_alpha 98.694998
_cell_angle_beta 111.926389
_cell_angle_gamma 43.259881
_cell_volume 597.516170
_symmetry_space_group_name_H-M "P -1"
_symmetry_group_IT_number 2
_symmetry_cell_setting 'triclinic'
loop_
_space_group_symop_operation_xyz
x,y,z
-x,-y,-z
loop_
_atom_site_type_symbol
_atom_site_label
_atom_site_fract_x
_atom_site_fract_y
_atom_site_fract_z
Si Si1 0.682101 0.623851 0.875983
Si Si2 0.740243 0.842109 0.953155
Si Si3 0.858352 0.356467 0.765219
Si Si4 0.928407 0.242148 0.219844
Si Si5 0.189600 0.001190 0.449453
Si Si6 0.809396 0.466159 0.408432
Si Si7 0.731423 0.816190 0.380587
O O1 0.612416 0.772969 0.873904
O O2 0.736448 0.522951 0.758925
O O3 0.407859 0.666389 0.890881
O O4 0.000000 0.500000 0.000000
O O5 0.837535 0.859631 0.852906
O O6 0.040121 0.713181 0.086958
O O7 0.500000 0.000000 0.000000
O O8 0.563926 0.394087 0.661798
O O9 0.185522 0.230876 0.747646
O O10 0.919800 0.365516 0.291671
O O11 0.986661 0.138948 0.326358
O O12 0.335869 0.037638 0.576782
O O13 0.466906 0.852648 0.403091
O O14 0.000000 0.000000 0.500000
O O15 0.000000 0.500000 0.500000
O O16 0.932324 0.337241 0.513328
#
# Coordination Sequence:
#
# PCOD9026337 Si02
#       7
#     2   2   2   2   2   2   2
#     4   9  22  42  65  98 135 181 222 278 338 405
#     4  11  24  44  70 102 139 181 229 288 343 411
#     4  10  22  43  67 102 144 177 235 280 344 423
#     4  10  23  44  69 100 137 177 232 278 346 417
#     4  10  23  42  64  94 135 179 224 280 343 407
#     4  10  23  40  66 103 135 183 226 285 341 404
#     4  10  22  41  63  97 132 175 228 277 337 410
#
# _framework density 23.430327999999999
#
# number of rings (size 3 to 8) (size 9 to 14) (size 15 to 20)
#    0.000    2.000    0.000    1.286    4.000   10.286 
#    2.571    0.000    0.000    0.000    0.000    0.000 
#    0.000    0.000    0.000    0.000    0.000    0.000 
#
# Total GULP energy -78015.052554 kJ/mol
# GULP energy per Si atom -5572.503754 kJ/mol
# Density = 2.337700 g / cm^3
# Si number density = 23.430328 Si / 1000 Ang^3
#
#
#
# Elastic Constant Matrix: (Units=GPa)
#
#
# Indices 1 2 3 4 5 6 
#
# 1 162.7770 74.7372 75.8684 27.4446 -2.6631 -14.2773
# 2 74.7372 120.6128 32.5350 20.1556 -1.3638 -13.6669
# 3 75.8684 32.5350 81.7481 -1.7996 1.7715 -6.9127
# 4 27.4446 20.1556 -1.7996 41.4318 -9.8391 -3.2639
# 5 -2.6631 -1.3638 1.7715 -9.8391 51.5155 6.4958
# 6 -14.2773 -13.6669 -6.9127 -3.2639 6.4958 34.2652
#
#
#
# Elastic Compliance Matrix: (Units=1/GPa)
#
#
# Indices 1 2 3 4 5 6 
#
# 1 0.016027 -0.004769 -0.013036 -0.008924 -0.000735 0.001435
# 2 -0.004769 0.012036 -0.000180 -0.002676 -0.000769 0.002668
# 3 -0.013036 -0.000180 0.024643 0.009897 0.000320 0.000350
# 4 -0.008924 -0.002676 0.009897 0.033037 0.005524 -0.000690
# 5 -0.000735 -0.000769 0.000320 0.005524 0.020900 -0.003984
# 6 0.001435 0.002668 0.000350 -0.000690 -0.003984 0.031607
#
#
# Mechanical properties :
#
#
# Convention : Reuss Voigt Hill
#
# Bulk Modulus (GPa) = 59.75364 81.26880 70.51122
# Shear Modulus (GPa) = 27.80885 37.57566 32.69225
#
# Velocity S-wave (km/s) = 3.44884 4.00899 3.73942
# Velocity P-wave (km/s) = 6.43563 7.49599 6.98596
#
# Compressibility (1/GPa) = 0.01673538
#
# Stress axis : x y z
#
# Youngs Moduli (GPa) = 62.39296 83.08534 40.57926
#
# Poissons Ratio (x) = 0.39626 0.52898
# Poissons Ratio (y) = 0.29757 0.00732
# Poissons Ratio (z) = 0.81333 0.01499
#
# Static dielectric constant tensor:
#      x y z
#    x 1.998530 0.038620 -0.019410 
#    y 0.038620 2.093270 -0.028400 
#    z -0.019410 -0.028400 1.970110 
# 
# From -- ./inp_files/364832.got.cif
#   From: 2010.05.17/outbox.cif.g08.bks.cpg/sg2_183_cif.got.tgz:364832.got - 2010.06.03 11:33:40.
