data_PCOD9026293
_publ_section_title
;
Structure prediction by ZEFSAII (Michael W. Deem and Ramdas Pophale) SiO2 
 PCOD9026293
Probable space group: P -1
;
_chemical_formula_sum "Si O2"
_cell_formula_units_Z 14
_cell_length_a 9.173351
_cell_length_b 9.681850
_cell_length_c 13.203081
_cell_angle_alpha 37.255031
_cell_angle_beta 55.067031
_cell_angle_gamma 48.229373
_cell_volume 527.093366
_symmetry_space_group_name_H-M "P -1"
_symmetry_group_IT_number 2
_symmetry_cell_setting 'triclinic'
loop_
_space_group_symop_operation_xyz
x,y,z
-x,-y,-z
loop_
_atom_site_type_symbol
_atom_site_label
_atom_site_fract_x
_atom_site_fract_y
_atom_site_fract_z
Si Si1 0.702666 0.457857 0.890632
Si Si2 0.309046 0.091781 0.597366
Si Si3 0.928442 0.194322 0.568436
Si Si4 0.176213 0.215267 0.212556
Si Si5 0.149652 0.231462 0.797896
Si Si6 0.634526 0.417194 0.712677
Si Si7 0.261988 0.343583 0.885699
O O1 0.724289 0.707462 0.778505
O O2 0.641216 0.416011 0.828932
O O3 0.935087 0.264529 0.902984
O O4 0.500000 0.500000 0.000000
O O5 0.248558 0.056142 0.760947
O O6 0.294411 0.366394 0.462517
O O7 0.146145 0.070081 0.601496
O O8 0.500000 0.000000 0.500000
O O9 0.888290 0.474318 0.382936
O O10 0.799526 0.194399 0.717443
O O11 0.852637 0.039010 0.613764
O O12 0.955962 0.433359 0.161343
O O13 0.281056 0.230123 0.057082
O O14 0.280208 0.164813 0.886584
O O15 0.423219 0.451166 0.742308
#
# Coordination Sequence:
#
# PCOD9026293 Si02
#       7
#     2   2   2   2   2   2   2
#     4  11  20  40  69  94 127 175 220 259 325 393
#     4  11  22  41  67  97 132 171 224 273 329 386
#     4  11  22  42  68  96 127 172 225 273 323 388
#     4  10  23  40  65  96 133 174 218 269 326 392
#     4  10  22  44  68  95 134 175 217 272 330 387
#     4  11  21  42  66  92 134 174 220 272 324 387
#     4  10  22  41  63  93 137 170 215 270 334 379
#
# _framework density 26.560759000000001
#
# number of rings (size 3 to 8) (size 9 to 14) (size 15 to 20)
#    0.000    1.429    4.286    1.714    0.000    5.143 
#    5.143    0.714    0.000    0.000    0.000    0.000 
#    0.000    0.000    0.000    0.000    0.000    0.000 
#
# Total GULP energy -77972.087504 kJ/mol
# GULP energy per Si atom -5569.434822 kJ/mol
# Density = 2.650031 g / cm^3
# Si number density = 26.560759 Si / 1000 Ang^3
#
#
#
# Elastic Constant Matrix: (Units=GPa)
#
#
# Indices 1 2 3 4 5 6 
#
# 1 128.1434 65.8014 66.3672 32.4258 -33.0094 14.0327
# 2 65.8014 139.2740 92.8762 42.1884 -14.4095 9.7483
# 3 66.3672 92.8762 206.4258 76.9437 -27.5104 -5.9875
# 4 32.4258 42.1884 76.9437 85.7895 10.2883 -7.9759
# 5 -33.0094 -14.4095 -27.5104 10.2883 42.6028 5.7543
# 6 14.0327 9.7483 -5.9875 -7.9759 5.7543 44.4901
#
#
#
# Elastic Compliance Matrix: (Units=1/GPa)
#
#
# Indices 1 2 3 4 5 6 
#
# 1 0.015473 -0.003943 0.001230 -0.007363 0.014173 -0.007004
# 2 -0.003943 0.012001 -0.004022 -0.000849 -0.001127 -0.001933
# 3 0.001230 -0.004022 0.011001 -0.009533 0.009122 -0.000915
# 4 -0.007363 -0.000849 -0.009533 0.026565 -0.019716 0.008538
# 5 0.014173 -0.001127 0.009122 -0.019716 0.046418 -0.012534
# 6 -0.007004 -0.001933 -0.000915 0.008538 -0.012534 0.028138
#
#
# Mechanical properties :
#
#
# Convention : Reuss Voigt Hill
#
# Bulk Modulus (GPa) = 39.99380 102.65919 71.32649
# Shear Modulus (GPa) = 30.97896 51.16304 41.07100
#
# Velocity S-wave (km/s) = 3.41888 4.39368 3.93657
# Velocity P-wave (km/s) = 5.53852 8.02956 6.89743
#
# Compressibility (1/GPa) = 0.02500388
#
# Stress axis : x y z
#
# Youngs Moduli (GPa) = 64.62951 83.32752 90.90295
#
# Poissons Ratio (x) = 0.32860 -0.11179
# Poissons Ratio (y) = 0.25486 0.36557
# Poissons Ratio (z) = -0.07948 0.33511
#
# Static dielectric constant tensor:
#      x y z
#    x 1.997260 0.069600 0.198740 
#    y 0.069600 2.121040 -0.094440 
#    z 0.198740 -0.094440 2.113130 
# 
# From -- ./inp_files/491927.got.cif
#   From: 2010.05.17/outbox.cif.g08.bks.cpg/sg2_246_cif.got.tgz:491927.got - 2010.06.03 11:33:40.
