data_PCOD9026705
_publ_section_title
;
Structure prediction by ZEFSAII (Michael W. Deem and Ramdas Pophale) SiO2 
 PCOD9026705
Probable space group: P -1
;
_chemical_formula_sum "Si O2"
_cell_formula_units_Z 9
_cell_length_a 6.059697
_cell_length_b 12.550675
_cell_length_c 5.340272
_cell_angle_alpha 82.006826
_cell_angle_beta 92.916723
_cell_angle_gamma 118.870637
_cell_volume 352.148985
_symmetry_space_group_name_H-M "P -1"
_symmetry_group_IT_number 2
_symmetry_cell_setting 'triclinic'
loop_
_space_group_symop_operation_xyz
x,y,z
-x,-y,-z
loop_
_atom_site_type_symbol
_atom_site_label
_atom_site_fract_x
_atom_site_fract_y
_atom_site_fract_z
Si Si1 0.544341 0.192064 0.426416
Si Si2 0.050603 0.406585 0.371545
Si Si3 0.246127 0.259399 0.791806
Si Si4 0.500000 0.500000 0.000000
Si Si5 0.277275 0.965066 0.197075
O O1 0.433703 0.234623 0.636053
O O2 0.672444 0.113943 0.566279
O O3 0.782511 0.306745 0.279670
O O4 0.322939 0.093445 0.273831
O O5 0.163144 0.343414 0.588912
O O6 0.000000 0.500000 0.500000
O O7 0.261139 0.480732 0.158776
O O8 0.367127 0.346936 0.006721
O O9 0.001103 0.130046 0.877911
O O10 0.500000 0.000000 0.000000
#
# Coordination Sequence:
#
# PCOD9026705 Si02
#       5
#     2   2   2   1   2
#     4  10  22  42  64  92 132 162 211 273 312 373
#     4  11  24  44  63  95 134 166 215 266 313 378
#     4  11  24  42  64  97 129 171 213 264 318 381
#     4  12  24  40  66  94 128 176 210 250 328 378
#     4  10  22  41  65  93 125 169 213 262 323 377
#
# _framework density 25.557364
#
# number of rings (size 3 to 8) (size 9 to 14) (size 15 to 20)
#    0.000    1.333    2.222    2.667    0.000    3.556 
#    0.000    0.000    0.000    0.000    0.000    0.000 
#    0.000    0.000    0.000    0.000    0.000    0.000 
#
# Total GULP energy -50179.792751 kJ/mol
# GULP energy per Si atom -5575.532528 kJ/mol
# Density = 2.549919 g / cm^3
# Si number density = 25.557364 Si / 1000 Ang^3
#
#
#
# Elastic Constant Matrix: (Units=GPa)
#
#
# Indices 1 2 3 4 5 6 
#
# 1 109.3540 47.2026 35.5881 -7.9699 -23.7803 4.0604
# 2 47.2026 198.0908 26.4426 0.6117 -31.8410 6.7638
# 3 35.5881 26.4426 44.2671 -7.1602 -19.5178 9.9311
# 4 -7.9699 0.6117 -7.1602 33.7280 -4.4848 -29.7768
# 5 -23.7803 -31.8410 -19.5178 -4.4848 76.9399 -10.4999
# 6 4.0604 6.7638 9.9311 -29.7768 -10.4999 54.2697
#
#
#
# Elastic Compliance Matrix: (Units=1/GPa)
#
#
# Indices 1 2 3 4 5 6 
#
# 1 0.013528 -0.001862 -0.008957 0.005229 0.002005 0.004116
# 2 -0.001862 0.005937 -0.001522 -0.001482 0.001288 -0.000886
# 3 -0.008957 -0.001522 0.034108 0.003820 0.005165 -0.002286
# 4 0.005229 -0.001482 0.003820 0.066449 0.010988 0.037680
# 5 0.002005 0.001288 0.005165 0.010988 0.017206 0.008102
# 6 0.004116 -0.000886 -0.002286 0.037680 0.008102 0.040889
#
#
# Mechanical properties :
#
#
# Convention : Reuss Voigt Hill
#
# Bulk Modulus (GPa) = 34.61358 63.35317 48.98337
# Shear Modulus (GPa) = 23.53723 49.15276 36.34499
#
# Velocity S-wave (km/s) = 3.03802 4.39023 3.77516
# Velocity P-wave (km/s) = 5.08714 7.10923 6.18143
#
# Compressibility (1/GPa) = 0.02889040
#
# Stress axis : x y z
#
# Youngs Moduli (GPa) = 73.92311 168.43496 29.31850
#
# Poissons Ratio (x) = 0.31368 0.26259
# Poissons Ratio (y) = 0.13767 0.04463
# Poissons Ratio (z) = 0.66210 0.25641
#
# Static dielectric constant tensor:
#      x y z
#    x 2.073930 0.082310 0.165320 
#    y 0.082310 2.075820 0.045650 
#    z 0.165320 0.045650 2.072190 
# 
# From -- ./inp_files/1332.got.cif
#   From: 2010.05.17/outbox.cif.g08.bks.cpg/sg2_1_cif.got.tgz:1332.got - 2010.06.03 11:33:40.
