data_PCOD9026145
_publ_section_title
;
Structure prediction by ZEFSAII (Michael W. Deem and Ramdas Pophale) SiO2 
 PCOD9026145
Probable space group: P -1
;
_chemical_formula_sum "Si O2"
_cell_formula_units_Z 16
_cell_length_a 18.711935
_cell_length_b 9.580486
_cell_length_c 15.361295
_cell_angle_alpha 118.292975
_cell_angle_beta 149.227008
_cell_angle_gamma 40.658102
_cell_volume 776.484634
_symmetry_space_group_name_H-M "P -1"
_symmetry_group_IT_number 2
_symmetry_cell_setting 'triclinic'
loop_
_space_group_symop_operation_xyz
x,y,z
-x,-y,-z
loop_
_atom_site_type_symbol
_atom_site_label
_atom_site_fract_x
_atom_site_fract_y
_atom_site_fract_z
Si Si1 0.849030 0.227065 0.339923
Si Si2 0.607873 0.273399 0.949582
Si Si3 0.792403 0.054050 0.508612
Si Si4 0.352863 0.269158 0.467605
Si Si5 0.872273 0.780125 0.673598
Si Si6 0.680811 0.457974 0.925120
Si Si7 0.212995 0.946008 0.163574
Si Si8 0.027187 0.770800 0.170700
O O1 0.658576 0.509005 0.263617
O O2 0.699497 0.236274 0.130304
O O3 0.000000 0.000000 0.500000
O O4 0.017767 0.152045 0.424593
O O5 0.659949 0.374927 0.968071
O O6 0.777885 0.985897 0.013515
O O7 0.559730 0.280793 0.283061
O O8 0.864653 0.157588 0.661560
O O9 0.778037 0.933126 0.531046
O O10 0.217474 0.309918 0.416457
O O11 0.181788 0.495732 0.286824
O O12 0.500000 0.000000 0.500000
O O13 0.541880 0.231014 0.673370
O O14 0.794560 0.969914 0.725227
O O15 0.139683 0.561643 0.882761
O O16 0.787801 0.241719 0.902413
O O17 0.022719 0.182530 0.970360
#
# Coordination Sequence:
#
# PCOD9026145 Si02
#       8
#     2   2   2   2   2   2   2   2
#     4  10  17  31  55  85 117 141 176 237 285 330
#     4   9  19  31  55  87 109 140 187 234 274 332
#     4  11  21  33  57  87 112 145 188 234 283 326
#     4  10  23  39  55  79 113 155 193 230 276 335
#     4  11  23  36  51  86 118 141 187 245 275 325
#     4  11  19  34  56  85 111 145 186 232 277 323
#     4  10  21  37  59  76 111 155 194 223 275 337
#     4  10  20  37  59  80 110 148 199 228 268 342
#
# _framework density 20.605689000000002
#
# number of rings (size 3 to 8) (size 9 to 14) (size 15 to 20)
#    0.000    1.750    6.250    0.375    0.000    5.500 
#    0.000    0.000    0.000    0.750    0.000    7.875 
#    0.000    0.000    0.000    0.000    0.000    0.000 
#
# Total GULP energy -89224.062615 kJ/mol
# GULP energy per Si atom -5576.503913 kJ/mol
# Density = 2.055879 g / cm^3
# Si number density = 20.605689 Si / 1000 Ang^3
#
#
#
# Elastic Constant Matrix: (Units=GPa)
#
#
# Indices 1 2 3 4 5 6 
#
# 1 116.3324 22.4922 52.3390 -14.0807 -3.7297 13.4845
# 2 22.4922 31.3508 31.6832 -22.8506 0.5668 4.3714
# 3 52.3390 31.6832 146.6492 -41.9595 -10.1793 14.2335
# 4 -14.0807 -22.8506 -41.9595 39.1894 6.1272 -2.5480
# 5 -3.7297 0.5668 -10.1793 6.1272 32.9511 2.4862
# 6 13.4845 4.3714 14.2335 -2.5480 2.4862 26.4102
#
#
#
# Elastic Compliance Matrix: (Units=1/GPa)
#
#
# Indices 1 2 3 4 5 6 
#
# 1 0.011440 -0.007568 -0.003217 -0.004198 0.001468 -0.003398
# 2 -0.007568 0.064522 -0.001930 0.034100 -0.008779 -0.001659
# 3 -0.003217 -0.001930 0.011606 0.009646 0.001727 -0.003525
# 4 -0.004198 0.034100 0.009646 0.055329 -0.008175 -0.002592
# 5 0.001468 -0.008779 0.001727 -0.008175 0.033030 -0.004125
# 6 -0.003398 -0.001659 -0.003525 -0.002592 -0.004125 0.041911
#
#
# Mechanical properties :
#
#
# Convention : Reuss Voigt Hill
#
# Bulk Modulus (GPa) = 16.09351 56.37347 36.23349
# Shear Modulus (GPa) = 18.94068 32.23134 25.58601
#
# Velocity S-wave (km/s) = 3.03511 3.95928 3.52759
# Velocity P-wave (km/s) = 4.48439 6.95117 5.84930
#
# Compressibility (1/GPa) = 0.06213684
#
# Stress axis : x y z
#
# Youngs Moduli (GPa) = 87.41625 15.49850 86.16216
#
# Poissons Ratio (x) = 0.11730 0.27718
# Poissons Ratio (y) = 0.66159 0.16631
# Poissons Ratio (z) = 0.28122 0.02992
#
# Static dielectric constant tensor:
#      x y z
#    x 1.837540 -0.030670 0.053690 
#    y -0.030670 1.766430 0.035380 
#    z 0.053690 0.035380 1.773210 
# 
# From -- ./inp_files/311498.got.cif
#   From: 2010.05.17/outbox.cif.g08.bks.cpg/sg2_156_cif.got.tgz:311498.got - 2010.06.03 11:33:40.
