data_PCOD9026618
_publ_section_title
;
Structure prediction by ZEFSAII (Michael W. Deem and Ramdas Pophale) SiO2 
 PCOD9026618
Probable space group: P -1
;
_chemical_formula_sum "Si O2"
_cell_formula_units_Z 16
_cell_length_a 5.240451
_cell_length_b 16.196315
_cell_length_c 15.274257
_cell_angle_alpha 151.108853
_cell_angle_beta 85.411247
_cell_angle_gamma 92.439830
_cell_volume 623.335842
_symmetry_space_group_name_H-M "P -1"
_symmetry_group_IT_number 2
_symmetry_cell_setting 'triclinic'
loop_
_space_group_symop_operation_xyz
x,y,z
-x,-y,-z
loop_
_atom_site_type_symbol
_atom_site_label
_atom_site_fract_x
_atom_site_fract_y
_atom_site_fract_z
Si Si1 0.625940 0.070555 0.475406
Si Si2 0.970067 0.597316 0.348053
Si Si3 0.766220 0.411526 0.844167
Si Si4 0.090601 0.839794 0.709614
Si Si5 0.939330 0.755092 0.162651
Si Si6 0.304012 0.125713 0.877332
Si Si7 0.521171 0.590719 0.761386
Si Si8 0.557126 0.803658 0.784010
O O1 0.599140 0.274728 0.672678
O O2 0.500000 0.000000 0.500000
O O3 0.896237 0.957065 0.372212
O O4 0.556463 0.000202 0.315933
O O5 0.018976 0.781795 0.559696
O O6 0.703563 0.532182 0.327080
O O7 0.002515 0.592238 0.237746
O O8 0.203836 0.491634 0.292427
O O9 0.850417 0.325024 0.852866
O O10 0.715661 0.614129 0.051083
O O11 0.845851 0.801441 0.737900
O O12 0.348939 0.762144 0.676645
O O13 0.164024 0.033878 0.874088
O O14 0.919186 0.768597 0.071775
O O15 0.508680 0.246422 0.022059
O O16 0.527617 0.669023 0.737480
O O17 0.500000 0.000000 0.000000
#
# Coordination Sequence:
#
# PCOD9026618 Si02
#       8
#     2   2   2   2   2   2   2   2
#     4  10  22  41  65 100 144 190 241 305 356 429
#     4  12  26  47  73 108 148 186 243 298 367 434
#     4  11  21  42  68 100 144 193 242 298 363 431
#     4  12  26  49  76 108 144 192 243 304 363 452
#     4   9  22  41  64  99 139 187 242 293 357 430
#     4  10  23  45  68 106 145 193 249 291 366 436
#     4  12  27  47  74 105 145 190 238 309 363 438
#     4  12  27  46  77 108 144 188 244 302 377 434
#
# _framework density 25.668344999999999
#
# number of rings (size 3 to 8) (size 9 to 14) (size 15 to 20)
#    0.750    0.250    3.750    2.250    1.750    6.500 
#    4.500    0.000    0.000    0.000    0.000    0.000 
#    0.000    0.000    0.000    0.000    0.000    0.000 
#
# Total GULP energy -89245.274502 kJ/mol
# GULP energy per Si atom -5577.829656 kJ/mol
# Density = 2.560992 g / cm^3
# Si number density = 25.668345 Si / 1000 Ang^3
#
#
#
# Elastic Constant Matrix: (Units=GPa)
#
#
# Indices 1 2 3 4 5 6 
#
# 1 121.1583 44.9534 14.3235 -9.5488 14.9078 4.8257
# 2 44.9534 120.4819 -14.2945 -14.3266 5.5527 -14.8767
# 3 14.3235 -14.2945 107.2145 -7.4352 15.4315 4.2382
# 4 -9.5488 -14.3266 -7.4352 34.7651 -4.1302 4.0291
# 5 14.9078 5.5527 15.4315 -4.1302 27.7538 -4.8882
# 6 4.8257 -14.8767 4.2382 4.0291 -4.8882 33.2920
#
#
#
# Elastic Compliance Matrix: (Units=1/GPa)
#
#
# Indices 1 2 3 4 5 6 
#
# 1 0.010849 -0.004369 -0.001092 0.000845 -0.004963 -0.004217
# 2 -0.004369 0.011170 0.002054 0.003302 0.000344 0.005014
# 3 -0.001092 0.002054 0.010789 0.002338 -0.005726 -0.001421
# 4 0.000845 0.003302 0.002338 0.031360 0.001817 -0.002473
# 5 -0.004963 0.000344 -0.005726 0.001817 0.043449 0.007762
# 6 -0.004217 0.005014 -0.001421 -0.002473 0.007762 0.034509
#
#
# Mechanical properties :
#
#
# Convention : Reuss Voigt Hill
#
# Bulk Modulus (GPa) = 38.47068 48.75770 43.61419
# Shear Modulus (GPa) = 31.72493 39.42031 35.57262
#
# Velocity S-wave (km/s) = 3.51943 3.92312 3.72675
# Velocity P-wave (km/s) = 5.61563 6.28949 5.96209
#
# Compressibility (1/GPa) = 0.02599382
#
# Stress axis : x y z
#
# Youngs Moduli (GPa) = 92.17410 89.52772 92.68423
#
# Poissons Ratio (x) = 0.39114 0.10124
# Poissons Ratio (y) = 0.40271 -0.19039
# Poissons Ratio (z) = 0.10068 -0.18390
#
# Static dielectric constant tensor:
#      x y z
#    x 2.070140 -0.007700 -0.101500 
#    y -0.007700 1.975430 0.043450 
#    z -0.101500 0.043450 2.203560 
# 
# From -- ./inp_files/485324.got.cif
#   From: 2010.05.17/outbox.cif.g08.bks.cpg/sg2_243_cif.got.tgz:485324.got - 2010.06.03 11:33:40.
