data_PCOD9026665
_publ_section_title
;
Structure prediction by ZEFSAII (Michael W. Deem and Ramdas Pophale) SiO2 
 PCOD9026665
Probable space group: P -1
;
_chemical_formula_sum "Si O2"
_cell_formula_units_Z 14
_cell_length_a 14.013125
_cell_length_b 6.623962
_cell_length_c 14.440539
_cell_angle_alpha 103.181080
_cell_angle_beta 31.670810
_cell_angle_gamma 98.201176
_cell_volume 681.747446
_symmetry_space_group_name_H-M "P -1"
_symmetry_group_IT_number 2
_symmetry_cell_setting 'triclinic'
loop_
_space_group_symop_operation_xyz
x,y,z
-x,-y,-z
loop_
_atom_site_type_symbol
_atom_site_label
_atom_site_fract_x
_atom_site_fract_y
_atom_site_fract_z
Si Si1 0.079897 0.540551 0.835050
Si Si2 0.821845 0.018406 0.584856
Si Si3 0.221314 0.115432 0.958023
Si Si4 0.064764 0.088135 0.727108
Si Si5 0.585649 0.771681 0.872657
Si Si6 0.683762 0.108053 0.336564
Si Si7 0.525076 0.657167 0.104285
O O1 0.092481 0.327459 0.745929
O O2 0.269852 0.650774 0.688513
O O3 0.000000 0.500000 0.000000
O O4 0.927738 0.696370 0.926560
O O5 0.878212 0.989392 0.429243
O O6 0.718728 0.826703 0.687702
O O7 0.679872 0.228661 0.733174
O O8 0.000000 0.000000 0.500000
O O9 0.394186 0.214466 0.867036
O O10 0.256339 0.988272 0.821919
O O11 0.138507 0.967689 0.086595
O O12 0.187827 0.971473 0.692881
O O13 0.473797 0.588903 0.906800
O O14 0.646242 0.678803 0.913619
O O15 0.500000 0.000000 0.000000
O O16 0.500000 0.000000 0.500000
#
# Coordination Sequence:
#
# PCOD9026665 Si02
#       7
#     2   2   2   2   2   2   2
#     4  11  21  42  63  89 127 172 215 259 321 382
#     4  11  24  40  62  93 127 163 215 263 317 384
#     4  11  22  39  65  89 124 166 209 262 327 381
#     4  11  23  41  63  91 128 170 210 263 321 384
#     4   9  21  42  63  89 126 161 212 262 315 384
#     4  11  23  40  62  92 129 164 211 266 321 379
#     4  10  22  41  65  91 126 164 210 265 325 374
#
# _framework density 20.535464000000001
#
# number of rings (size 3 to 8) (size 9 to 14) (size 15 to 20)
#    0.000    1.429    2.857    2.571    0.000   10.286 
#    2.571    0.000    0.000    0.000    0.000    0.000 
#    0.000    0.000    0.000    0.000    0.000    0.000 
#
# Total GULP energy -77994.296362 kJ/mol
# GULP energy per Si atom -5571.021169 kJ/mol
# Density = 2.048872 g / cm^3
# Si number density = 20.535464 Si / 1000 Ang^3
#
#
#
# Elastic Constant Matrix: (Units=GPa)
#
#
# Indices 1 2 3 4 5 6 
#
# 1 73.8080 42.3266 30.5616 8.2512 1.7785 26.8122
# 2 42.3266 157.5215 49.3813 -23.3016 4.4146 13.5587
# 3 30.5616 49.3813 93.9137 -13.2250 23.5592 2.1157
# 4 8.2512 -23.3016 -13.2250 31.9874 6.4961 3.7077
# 5 1.7785 4.4146 23.5592 6.4961 41.4959 3.5675
# 6 26.8122 13.5587 2.1157 3.7077 3.5675 24.2913
#
#
#
# Elastic Compliance Matrix: (Units=1/GPa)
#
#
# Indices 1 2 3 4 5 6 
#
# 1 0.037488 -0.005507 -0.014298 -0.018043 0.013035 -0.036219
# 2 -0.005507 0.009640 -0.001942 0.007845 -0.000898 -0.000198
# 3 -0.014298 -0.001942 0.021356 0.012287 -0.014542 0.015266
# 4 -0.018043 0.007845 0.012287 0.048776 -0.015472 0.009293
# 5 0.013035 -0.000898 -0.014542 -0.015472 0.035646 -0.015494
# 6 -0.036219 -0.000198 0.015266 0.009293 -0.015494 0.080783
#
#
# Mechanical properties :
#
#
# Convention : Reuss Voigt Hill
#
# Bulk Modulus (GPa) = 40.01854 63.30913 51.66384
# Shear Modulus (GPa) = 17.51231 33.08650 25.29940
#
# Velocity S-wave (km/s) = 2.92341 4.01832 3.51377
# Velocity P-wave (km/s) = 5.56102 7.24053 6.45563
#
# Compressibility (1/GPa) = 0.02498842
#
# Stress axis : x y z
#
# Youngs Moduli (GPa) = 26.67542 103.73738 46.82429
#
# Poissons Ratio (x) = 0.57133 0.66951
# Poissons Ratio (y) = 0.14691 0.09093
# Poissons Ratio (z) = 0.38141 0.20145
#
# Static dielectric constant tensor:
#      x y z
#    x 1.726910 0.001880 -0.036460 
#    y 0.001880 1.775370 -0.041720 
#    z -0.036460 -0.041720 1.799230 
# 
# From -- ./inp_files/88837.got.cif
#   From: 2010.05.17/outbox.cif.g08.bks.cpg/sg2_45_cif.got.tgz:88837.got - 2010.06.03 11:33:40.
