data_PCOD9026842
_publ_section_title
;
Structure prediction by ZEFSAII (Michael W. Deem and Ramdas Pophale) SiO2 
 PCOD9026842
Probable space group: P -1
;
_chemical_formula_sum "Si O2"
_cell_formula_units_Z 14
_cell_length_a 8.312879
_cell_length_b 11.012422
_cell_length_c 16.156149
_cell_angle_alpha 32.519628
_cell_angle_beta 45.480335
_cell_angle_gamma 44.113025
_cell_volume 535.022556
_symmetry_space_group_name_H-M "P -1"
_symmetry_group_IT_number 2
_symmetry_cell_setting 'triclinic'
loop_
_space_group_symop_operation_xyz
x,y,z
-x,-y,-z
loop_
_atom_site_type_symbol
_atom_site_label
_atom_site_fract_x
_atom_site_fract_y
_atom_site_fract_z
Si Si1 0.468473 0.440919 0.381196
Si Si2 0.831290 0.889275 0.173789
Si Si3 0.355155 0.057876 0.319340
Si Si4 0.045881 0.872979 0.272115
Si Si5 0.466348 0.738731 0.717681
Si Si6 0.204100 0.255376 0.902260
Si Si7 0.187162 0.423895 0.051593
O O1 0.594788 0.221246 0.523003
O O2 0.227407 0.643003 0.383434
O O3 0.441514 0.308252 0.382280
O O4 0.644110 0.586917 0.210806
O O5 0.602572 0.083166 0.183274
O O6 0.736159 0.772024 0.200289
O O7 0.965147 0.767615 0.277853
O O8 0.000000 0.000000 0.000000
O O9 0.340700 0.193373 0.333987
O O10 0.195104 0.170125 0.233344
O O11 0.802699 0.056099 0.295117
O O12 0.209229 0.027153 0.087482
O O13 0.415714 0.496307 0.902853
O O14 0.927535 0.409569 0.924559
O O15 0.000000 0.500000 0.000000
#
# Coordination Sequence:
#
# PCOD9026842 Si02
#       7
#     2   2   2   2   2   2   2
#     4  12  24  42  68 102 141 180 211 285 343 389
#     4   9  21  41  65  95 128 172 224 278 323 398
#     4  11  26  43  65 103 136 171 229 276 341 398
#     4   9  22  41  69  97 133 178 235 266 325 412
#     4  10  23  44  68  99 132 180 228 271 331 406
#     4  10  22  41  65  99 129 180 228 269 336 394
#     4  11  23  43  68  96 127 175 232 279 321 403
#
# _framework density 26.167121999999999
#
# number of rings (size 3 to 8) (size 9 to 14) (size 15 to 20)
#    0.000    1.714    1.429    2.143    6.000    5.714 
#    2.571    0.000    0.000    0.000    0.000    0.000 
#    0.000    0.000    0.000    0.000    0.000    0.000 
#
# Total GULP energy -78059.288755 kJ/mol
# GULP energy per Si atom -5575.663482 kJ/mol
# Density = 2.610756 g / cm^3
# Si number density = 26.167122 Si / 1000 Ang^3
#
#
#
# Elastic Constant Matrix: (Units=GPa)
#
#
# Indices 1 2 3 4 5 6 
#
# 1 72.0272 -2.3463 30.7934 -20.5942 0.8212 11.9831
# 2 -2.3463 58.5514 10.1875 -3.9512 16.6086 10.9216
# 3 30.7934 10.1875 160.2935 -41.1558 12.9467 -11.3323
# 4 -20.5942 -3.9512 -41.1558 27.5071 -12.7576 3.6293
# 5 0.8212 16.6086 12.9467 -12.7576 45.0681 -2.8102
# 6 11.9831 10.9216 -11.3323 3.6293 -2.8102 28.2438
#
#
#
# Elastic Compliance Matrix: (Units=1/GPa)
#
#
# Indices 1 2 3 4 5 6 
#
# 1 0.021932 0.003948 -0.000781 0.018915 0.002895 -0.013288
# 2 0.003948 0.022239 -0.002194 0.000654 -0.008204 -0.012055
# 3 -0.000781 -0.002194 0.010595 0.015591 0.002421 0.003668
# 4 0.018915 0.000654 0.015591 0.083710 0.017946 -0.010994
# 5 0.002895 -0.008204 0.002421 0.017946 0.029766 0.003571
# 6 -0.013288 -0.012055 0.003668 -0.010994 0.003571 0.048945
#
#
# Mechanical properties :
#
#
# Convention : Reuss Voigt Hill
#
# Bulk Modulus (GPa) = 17.63254 40.90460 29.26857
# Shear Modulus (GPa) = 21.35435 36.97962 29.16698
#
# Velocity S-wave (km/s) = 2.85980 3.76335 3.34225
# Velocity P-wave (km/s) = 4.20211 5.87790 5.10918
#
# Compressibility (1/GPa) = 0.05671334
#
# Stress axis : x y z
#
# Youngs Moduli (GPa) = 45.59531 44.96646 94.38605
#
# Poissons Ratio (x) = -0.17755 0.07372
# Poissons Ratio (y) = -0.18003 0.20704
# Poissons Ratio (z) = 0.03561 0.09864
#
# Static dielectric constant tensor:
#      x y z
#    x 2.262220 0.013580 0.088160 
#    y 0.013580 2.183080 -0.058460 
#    z 0.088160 -0.058460 2.154440 
# 
# From -- ./inp_files/154166.got.cif
#   From: 2010.05.17/outbox.cif.g08.bks.cpg/sg2_78_cif.got.tgz:154166.got - 2010.06.03 11:33:40.
