data_PCOD9026693
_publ_section_title
;
Structure prediction by ZEFSAII (Michael W. Deem and Ramdas Pophale) SiO2 
 PCOD9026693
Probable space group: P -1
;
_chemical_formula_sum "Si O2"
_cell_formula_units_Z 16
_cell_length_a 11.630792
_cell_length_b 8.601182
_cell_length_c 13.233867
_cell_angle_alpha 89.137006
_cell_angle_beta 35.932285
_cell_angle_gamma 104.408164
_cell_volume 695.715873
_symmetry_space_group_name_H-M "P -1"
_symmetry_group_IT_number 2
_symmetry_cell_setting 'triclinic'
loop_
_space_group_symop_operation_xyz
x,y,z
-x,-y,-z
loop_
_atom_site_type_symbol
_atom_site_label
_atom_site_fract_x
_atom_site_fract_y
_atom_site_fract_z
Si Si1 0.347773 0.801517 0.596847
Si Si2 0.497638 0.330999 0.950099
Si Si3 0.791639 0.216659 0.625009
Si Si4 0.447275 0.539005 0.423483
Si Si5 0.998614 0.173132 0.281227
Si Si6 0.753780 0.421227 0.135747
Si Si7 0.609545 0.155079 0.060245
Si Si8 0.964528 0.810281 0.348405
O O1 0.415658 0.710493 0.458764
O O2 0.110798 0.783491 0.736898
O O3 0.362666 0.716827 0.691540
O O4 0.500000 0.000000 0.500000
O O5 0.519533 0.210520 0.024472
O O6 0.253779 0.238373 0.082201
O O7 0.500000 0.500000 0.000000
O O8 0.686691 0.343973 0.736466
O O9 0.937636 0.259932 0.420094
O O10 0.943781 0.199810 0.606019
O O11 0.580041 0.028035 0.766135
O O12 0.500000 0.500000 0.500000
O O13 0.649116 0.554698 0.212263
O O14 0.231305 0.374508 0.540095
O O15 0.901038 0.968358 0.379820
O O16 0.690560 0.313634 0.079444
O O17 0.000000 0.500000 0.000000
O O18 0.829955 0.145081 0.871874
#
# Coordination Sequence:
#
# PCOD9026693 Si02
#       8
#     2   2   2   2   2   2   2   2
#     4  11  25  46  65  99 134 172 226 284 339 397
#     4  11  26  41  63 102 139 172 217 283 339 392
#     4  11  23  43  66 100 130 180 229 261 341 412
#     4  10  22  41  65  92 128 175 224 268 327 399
#     4  12  24  42  70  96 138 174 221 281 345 392
#     4  11  25  44  71  97 129 181 234 273 335 406
#     4  11  21  43  68  96 133 172 229 275 325 412
#     4  11  21  41  69  98 133 176 223 278 328 409
#
# _framework density 22.997893000000001
#
# number of rings (size 3 to 8) (size 9 to 14) (size 15 to 20)
#    0.000    1.000    2.500    5.625    7.000    1.500 
#    0.000    1.250    0.000    0.000    0.000    0.000 
#    0.000    0.000    0.000    0.000    0.000    0.000 
#
# Total GULP energy -89501.270966 kJ/mol
# GULP energy per Si atom -5593.829435 kJ/mol
# Density = 2.294555 g / cm^3
# Si number density = 22.997893 Si / 1000 Ang^3
#
#
#
# Elastic Constant Matrix: (Units=GPa)
#
#
# Indices 1 2 3 4 5 6 
#
# 1 82.1843 8.2282 29.1632 13.2335 -20.1700 15.7388
# 2 8.2282 120.5142 23.2513 18.3633 -19.3909 5.0710
# 3 29.1632 23.2513 79.4330 17.9590 -20.2314 0.0142
# 4 13.2335 18.3633 17.9590 42.1058 3.3745 -9.4856
# 5 -20.1700 -19.3909 -20.2314 3.3745 41.6478 -3.1500
# 6 15.7388 5.0710 0.0142 -9.4856 -3.1500 36.0283
#
#
#
# Elastic Compliance Matrix: (Units=1/GPa)
#
#
# Indices 1 2 3 4 5 6 
#
# 1 0.018396 0.002412 -0.003498 -0.008215 0.008256 -0.009815
# 2 0.002412 0.010332 -0.001095 -0.006064 0.005665 -0.003609
# 3 -0.003498 -0.001095 0.017320 -0.006210 0.006760 0.000632
# 4 -0.008215 -0.006064 -0.006210 0.035436 -0.011725 0.012749
# 5 0.008256 0.005665 0.006760 -0.011725 0.034542 -0.004474
# 6 -0.009815 -0.003609 0.000632 0.012749 -0.004474 0.035517
#
#
# Mechanical properties :
#
#
# Convention : Reuss Voigt Hill
#
# Bulk Modulus (GPa) = 23.98968 44.82410 34.40689
# Shear Modulus (GPa) = 29.44612 38.72230 34.08421
#
# Velocity S-wave (km/s) = 3.58213 4.10778 3.85393
# Velocity P-wave (km/s) = 5.25002 6.48316 5.89890
#
# Compressibility (1/GPa) = 0.04168460
#
# Stress axis : x y z
#
# Youngs Moduli (GPa) = 54.35859 96.78940 57.73721
#
# Poissons Ratio (x) = -0.23346 0.20198
# Poissons Ratio (y) = -0.13112 0.06325
# Poissons Ratio (z) = 0.19016 0.10603
#
# Static dielectric constant tensor:
#      x y z
#    x 1.921130 -0.182520 -0.069690 
#    y -0.182520 2.271760 0.178340 
#    z -0.069690 0.178340 1.985590 
# 
# From -- ./inp_files/308072.got.cif
#   From: 2010.05.17/outbox.cif.g08.bks.cpg/sg2_155_cif.got.tgz:308072.got - 2010.06.03 11:33:40.
