data_PCOD9027957
_publ_section_title
;
Structure prediction by ZEFSAII (Michael W. Deem and Ramdas Pophale) SiO2 
 PCOD9027957
Probable space group: P -1
;
_chemical_formula_sum "Si O2"
_cell_formula_units_Z 14
_cell_length_a 12.187166
_cell_length_b 5.091453
_cell_length_c 11.628419
_cell_angle_alpha 85.690056
_cell_angle_beta 131.830558
_cell_angle_gamma 97.416623
_cell_volume 533.083583
_symmetry_space_group_name_H-M "P -1"
_symmetry_group_IT_number 2
_symmetry_cell_setting 'triclinic'
loop_
_space_group_symop_operation_xyz
x,y,z
-x,-y,-z
loop_
_atom_site_type_symbol
_atom_site_label
_atom_site_fract_x
_atom_site_fract_y
_atom_site_fract_z
Si Si1 0.651463 0.929236 0.188137
Si Si2 0.113633 0.805320 0.806831
Si Si3 0.575316 0.704586 0.907538
Si Si4 0.167109 0.063529 0.065484
Si Si5 0.962466 0.321996 0.596791
Si Si6 0.390454 0.224016 0.425842
Si Si7 0.305174 0.421565 0.594568
O O1 0.739780 0.166875 0.171458
O O2 0.759677 0.794656 0.351242
O O3 0.517716 0.035388 0.161352
O O4 0.605636 0.710432 0.065398
O O5 0.026362 0.049580 0.688337
O O6 0.159191 0.831721 0.970899
O O7 0.020093 0.531065 0.728044
O O8 0.735959 0.728617 0.959954
O O9 0.466937 0.511488 0.758786
O O10 0.269670 0.133102 0.246480
O O11 0.000000 0.000000 0.000000
O O12 0.785265 0.326254 0.480479
O O13 0.000000 0.500000 0.500000
O O14 0.500000 0.500000 0.500000
O O15 0.305744 0.266588 0.482388
O O16 0.500000 0.000000 0.500000
#
# Coordination Sequence:
#
# PCOD9027957 Si02
#       7
#     2   2   2   2   2   2   2
#     4  10  22  41  70 106 147 193 244 313 387 458
#     4  11  26  47  73 112 155 199 252 312 383 471
#     4  10  22  43  70 106 144 193 256 310 383 463
#     4  11  25  52  77 108 154 209 262 318 384 459
#     4  12  25  44  73 114 156 195 246 311 397 461
#     4  12  28  51  77 111 150 201 265 324 374 449
#     4  12  24  40  75 100 152 191 254 312 388 444
#
# _framework density 26.2623
#
# number of rings (size 3 to 8) (size 9 to 14) (size 15 to 20)
#    0.000    0.857    2.857    3.429    2.000    2.286 
#    7.714    2.143    0.000    0.000    0.000    0.000 
#    0.000    0.000    0.000    0.000    0.000    0.000 
#
# Total GULP energy -77984.535362 kJ/mol
# GULP energy per Si atom -5570.323954 kJ/mol
# Density = 2.620253 g / cm^3
# Si number density = 26.262300 Si / 1000 Ang^3
#
#
#
# Elastic Constant Matrix: (Units=GPa)
#
#
# Indices 1 2 3 4 5 6 
#
# 1 108.6503 49.3029 51.5357 -8.1056 11.2819 -6.7110
# 2 49.3029 128.0800 49.4858 6.4892 10.0338 -36.2865
# 3 51.5357 49.4858 203.1832 30.0162 -16.8686 -17.4235
# 4 -8.1056 6.4892 30.0162 43.2636 -6.4697 16.6981
# 5 11.2819 10.0338 -16.8686 -6.4697 49.5601 7.2297
# 6 -6.7110 -36.2865 -17.4235 16.6981 7.2297 33.2903
#
#
#
# Elastic Compliance Matrix: (Units=1/GPa)
#
#
# Indices 1 2 3 4 5 6 
#
# 1 0.016696 -0.011000 -0.005648 0.016810 0.001670 -0.020374
# 2 -0.011000 0.024788 0.003243 -0.025786 -0.010873 0.041794
# 3 -0.005648 0.003243 0.008549 -0.012566 -0.000024 0.013179
# 4 0.016810 -0.025786 -0.012566 0.067784 0.015997 -0.068769
# 5 0.001670 -0.010873 -0.000024 0.015997 0.027812 -0.025592
# 6 -0.020374 0.041794 0.013179 -0.068769 -0.025592 0.118436
#
#
# Mechanical properties :
#
#
# Convention : Reuss Voigt Hill
#
# Bulk Modulus (GPa) = 43.05706 82.28471 62.67089
# Shear Modulus (GPa) = 16.74405 44.52874 30.63639
#
# Velocity S-wave (km/s) = 2.52775 4.12216 3.41919
# Velocity P-wave (km/s) = 4.99500 7.35229 6.28515
#
# Compressibility (1/GPa) = 0.02322500
#
# Stress axis : x y z
#
# Youngs Moduli (GPa) = 59.89410 40.34263 116.97735
#
# Poissons Ratio (x) = 0.44375 0.66063
# Poissons Ratio (y) = 0.65881 -0.37941
# Poissons Ratio (z) = 0.33825 -0.13085
#
# Static dielectric constant tensor:
#      x y z
#    x 2.140930 0.098620 0.050900 
#    y 0.098620 2.117260 0.016780 
#    z 0.050900 0.016780 2.189960 
# 
# From -- ./inp_files/410658.got.cif
#   From: 2010.05.17/outbox.cif.g08.bks.cpg/sg2_206_cif.got.tgz:410658.got - 2010.06.03 11:33:40.
