data_PCOD9027842
_publ_section_title
;
Structure prediction by ZEFSAII (Michael W. Deem and Ramdas Pophale) SiO2 
 PCOD9027842
Probable space group: P -1
;
_chemical_formula_sum "Si O2"
_cell_formula_units_Z 14
_cell_length_a 15.320703
_cell_length_b 5.152286
_cell_length_c 16.488471
_cell_angle_alpha 82.648526
_cell_angle_beta 140.775969
_cell_angle_gamma 122.410227
_cell_volume 585.672667
_symmetry_space_group_name_H-M "P -1"
_symmetry_group_IT_number 2
_symmetry_cell_setting 'triclinic'
loop_
_space_group_symop_operation_xyz
x,y,z
-x,-y,-z
loop_
_atom_site_type_symbol
_atom_site_label
_atom_site_fract_x
_atom_site_fract_y
_atom_site_fract_z
Si Si1 0.660468 0.908994 0.633386
Si Si2 0.626244 0.275999 0.456387
Si Si3 0.263339 0.774235 0.627227
Si Si4 0.286922 0.180823 0.894645
Si Si5 0.934570 0.955372 0.554086
Si Si6 0.963923 0.682815 0.031963
Si Si7 0.667622 0.308493 0.971376
O O1 0.500000 0.500000 0.500000
O O2 0.420807 0.125461 0.334837
O O3 0.674363 0.177402 0.574818
O O4 0.873855 0.094854 0.790241
O O5 0.632864 0.097272 0.391047
O O6 0.786131 0.700436 0.532722
O O7 0.843462 0.646590 0.431520
O O8 0.111108 0.806845 0.510353
O O9 0.434599 0.012753 0.805534
O O10 0.270572 0.340093 0.956305
O O11 0.269752 0.854361 0.920815
O O12 0.500000 0.500000 0.000000
O O13 0.131129 0.089792 0.723201
O O14 0.766516 0.404049 0.951294
O O15 0.000000 0.500000 0.000000
O O16 0.000000 0.000000 0.000000
#
# Coordination Sequence:
#
# PCOD9027842 Si02
#       7
#     2   2   2   2   2   2   2
#     4  11  23  37  62  94 127 185 232 274 322 413
#     4   9  22  36  67  86 137 165 240 266 339 382
#     4  10  22  41  69  97 129 182 220 278 341 418
#     4  12  27  49  74 105 137 180 238 297 354 423
#     4  10  22  41  70  94 130 176 220 284 339 408
#     4  12  29  43  66 105 150 183 230 279 343 414
#     4  12  26  47  73 102 147 187 226 291 367 398
#
# _framework density 23.904138
#
# number of rings (size 3 to 8) (size 9 to 14) (size 15 to 20)
#    0.857    0.286    0.000    5.571   12.000    0.000 
#    0.000    4.286    0.000    0.000    0.000    0.000 
#    0.000    0.000    0.000    0.000    0.000    0.000 
#
# Total GULP energy -78254.592599 kJ/mol
# GULP energy per Si atom -5589.613757 kJ/mol
# Density = 2.384973 g / cm^3
# Si number density = 23.904138 Si / 1000 Ang^3
#
#
#
# Elastic Constant Matrix: (Units=GPa)
#
#
# Indices 1 2 3 4 5 6 
#
# 1 95.0755 1.3456 -8.1637 -9.1697 0.9145 3.6303
# 2 1.3456 107.0181 16.7606 -24.5687 14.3446 -4.5450
# 3 -8.1637 16.7606 130.0705 0.1794 18.6277 -2.5244
# 4 -9.1697 -24.5687 0.1794 33.7202 -3.5779 1.7983
# 5 0.9145 14.3446 18.6277 -3.5779 32.8402 3.9624
# 6 3.6303 -4.5450 -2.5244 1.7983 3.9624 41.1806
#
#
#
# Elastic Compliance Matrix: (Units=1/GPa)
#
#
# Indices 1 2 3 4 5 6 
#
# 1 0.010933 0.000552 0.000653 0.003378 -0.000431 -0.000969
# 2 0.000552 0.011997 -0.000932 0.008410 -0.003959 0.001232
# 3 0.000653 -0.000932 0.008537 -0.001089 -0.004676 0.000860
# 4 0.003378 0.008410 -0.001089 0.036876 0.001005 -0.001143
# 5 -0.000431 -0.003959 -0.004676 0.001005 0.035454 -0.004141
# 6 -0.000969 0.001232 0.000860 -0.001143 -0.004141 0.025006
#
#
# Mechanical properties :
#
#
# Convention : Reuss Voigt Hill
#
# Bulk Modulus (GPa) = 31.23535 39.11658 35.17596
# Shear Modulus (GPa) = 35.99029 43.02964 39.50996
#
# Velocity S-wave (km/s) = 3.88443 4.24735 4.06994
# Velocity P-wave (km/s) = 5.76313 6.36025 6.06904
#
# Compressibility (1/GPa) = 0.03201501
#
# Stress axis : x y z
#
# Youngs Moduli (GPa) = 91.46474 83.35354 117.13596
#
# Poissons Ratio (x) = -0.04604 -0.07653
# Poissons Ratio (y) = -0.05052 0.10916
# Poissons Ratio (z) = -0.05976 0.07768
#
# Static dielectric constant tensor:
#      x y z
#    x 2.001800 0.022930 -0.002410 
#    y 0.022930 1.904930 0.011930 
#    z -0.002410 0.011930 1.931450 
# 
# From -- ./inp_files/525316.got.cif
#   From: 2010.05.17/outbox.cif.g08.bks.cpg/sg2_263_cif.got.tgz:525316.got - 2010.06.03 11:33:40.
