data_PCOD9027905
_publ_section_title
;
Structure prediction by ZEFSAII (Michael W. Deem and Ramdas Pophale) SiO2 
 PCOD9027905
Probable space group: P -1
;
_chemical_formula_sum "Si O2"
_cell_formula_units_Z 14
_cell_length_a 5.270837
_cell_length_b 13.983162
_cell_length_c 17.960062
_cell_angle_alpha 24.331170
_cell_angle_beta 109.173127
_cell_angle_gamma 109.122240
_cell_volume 513.762820
_symmetry_space_group_name_H-M "P -1"
_symmetry_group_IT_number 2
_symmetry_cell_setting 'triclinic'
loop_
_space_group_symop_operation_xyz
x,y,z
-x,-y,-z
loop_
_atom_site_type_symbol
_atom_site_label
_atom_site_fract_x
_atom_site_fract_y
_atom_site_fract_z
Si Si1 0.285250 0.480175 0.425235
Si Si2 0.779828 0.371431 0.987195
Si Si3 0.239354 0.829395 0.575361
Si Si4 0.143956 0.785622 0.753116
Si Si5 0.452680 0.494564 0.720935
Si Si6 0.644191 0.012017 0.906444
Si Si7 0.023973 0.041518 0.781128
O O1 0.500000 0.500000 0.500000
O O2 0.410714 0.406744 0.411182
O O3 0.232931 0.749411 0.214882
O O4 0.053776 0.295185 0.564843
O O5 0.654130 0.236636 0.143788
O O6 0.983412 0.176590 0.120919
O O7 0.642613 0.438292 0.849768
O O8 0.875395 0.617894 0.858180
O O9 0.224128 0.685238 0.752540
O O10 0.275008 0.676354 0.615451
O O11 0.500000 0.000000 0.500000
O O12 0.032992 0.037359 0.553201
O O13 0.322663 0.234660 0.876579
O O14 0.322401 0.030179 0.854753
O O15 0.789406 0.011012 0.840638
#
# Coordination Sequence:
#
# PCOD9027905 Si02
#       7
#     2   2   2   2   2   2   2
#     4  10  23  43  69 105 141 183 238 299 357 425
#     4  10  22  42  64  99 133 186 231 291 346 425
#     4  11  23  41  66  97 135 178 229 287 347 415
#     4  10  23  42  64  96 140 176 237 283 350 415
#     4  11  23  43  73 101 141 186 239 290 359 427
#     4  10  22  45  68 101 138 185 235 297 355 425
#     4  10  22  41  70 100 142 179 240 285 365 421
#
# _framework density 27.249927
#
# number of rings (size 3 to 8) (size 9 to 14) (size 15 to 20)
#    0.000    1.714    1.429    1.714    2.000    2.857 
#    2.571   20.000    0.000    0.000    0.000    0.000 
#    0.000    0.000    0.000    0.000    0.000    0.000 
#
# Total GULP energy -78190.877320 kJ/mol
# GULP energy per Si atom -5585.062666 kJ/mol
# Density = 2.718791 g / cm^3
# Si number density = 27.249927 Si / 1000 Ang^3
#
#
#
# Elastic Constant Matrix: (Units=GPa)
#
#
# Indices 1 2 3 4 5 6 
#
# 1 56.2398 51.0352 4.2635 14.5343 -11.1122 23.8629
# 2 51.0352 128.1966 44.3307 24.7515 8.3079 -29.4569
# 3 4.2635 44.3307 94.8363 -0.6457 -27.2534 9.9694
# 4 14.5343 24.7515 -0.6457 69.8552 -14.6754 6.8042
# 5 -11.1122 8.3079 -27.2534 -14.6754 17.3154 14.3813
# 6 23.8629 -29.4569 9.9694 6.8042 14.3813 27.2975
#
#
#
# Elastic Compliance Matrix: (Units=1/GPa)
#
#
# Indices 1 2 3 4 5 6 
#
# 1 0.011576 0.002419 -0.007761 -0.007909 -0.018497 0.007041
# 2 0.002419 0.002833 0.003084 0.001967 0.012932 -0.007487
# 3 -0.007761 0.003084 0.007485 -0.001035 -0.003377 0.009416
# 4 -0.007909 0.001967 -0.001035 0.014719 0.000095 0.005696
# 5 -0.018497 0.012932 -0.003377 0.000095 0.014965 0.023450
# 6 0.007041 -0.007487 0.009416 0.005696 0.023450 0.005186
#
#
# Mechanical properties :
#
#
# Convention : Reuss Voigt Hill
#
# Bulk Modulus (GPa) = 57.54605 53.17016 55.35810
# Shear Modulus (GPa) = 74.54554 34.86985 54.70770
#
# Velocity S-wave (km/s) = 5.23599 3.58107 4.48552
# Velocity P-wave (km/s) = 7.59723 6.05419 6.86917
#
# Compressibility (1/GPa) = 0.01737739
#
# Stress axis : x y z
#
# Youngs Moduli (GPa) = 86.38404 352.97146 133.60929
#
# Poissons Ratio (x) = -0.85373 1.03688
# Poissons Ratio (y) = -0.20894 -0.41200
# Poissons Ratio (z) = 0.67039 -1.08844
#
# Static dielectric constant tensor:
#      x y z
#    x 2.236300 0.082620 -0.010030 
#    y 0.082620 2.203060 0.058970 
#    z -0.010030 0.058970 2.355830 
# 
# From -- ./inp_files/550025.got.cif
#   From: 2010.05.17/outbox.cif.g08.bks.cpg/sg2_276_cif.got.tgz:550025.got - 2010.06.03 11:33:40.
