data_PCOD9027990
_publ_section_title
;
Structure prediction by ZEFSAII (Michael W. Deem and Ramdas Pophale) SiO2 
 PCOD9027990
Probable space group: P -1
;
_chemical_formula_sum "Si O2"
_cell_formula_units_Z 16
_cell_length_a 16.820257
_cell_length_b 9.772404
_cell_length_c 18.847343
_cell_angle_alpha 40.710206
_cell_angle_beta 21.988659
_cell_angle_gamma 42.166914
_cell_volume 747.202084
_symmetry_space_group_name_H-M "P -1"
_symmetry_group_IT_number 2
_symmetry_cell_setting 'triclinic'
loop_
_space_group_symop_operation_xyz
x,y,z
-x,-y,-z
loop_
_atom_site_type_symbol
_atom_site_label
_atom_site_fract_x
_atom_site_fract_y
_atom_site_fract_z
Si Si1 0.761471 0.541955 0.764721
Si Si2 0.699178 0.435525 0.415276
Si Si3 0.620672 0.136831 0.069533
Si Si4 0.478950 0.404549 0.760048
Si Si5 0.818110 0.893621 0.118256
Si Si6 0.789541 0.343021 0.660763
Si Si7 0.119182 0.105298 0.174263
Si Si8 0.289295 0.889273 0.731879
O O1 0.694117 0.360341 0.941725
O O2 0.739372 0.453637 0.736609
O O3 0.002480 0.562330 0.572301
O O4 0.611231 0.769917 0.807099
O O5 0.500000 0.500000 0.500000
O O6 0.615435 0.368019 0.588097
O O7 0.808646 0.651693 0.244034
O O8 0.885330 0.247189 0.309412
O O9 0.798269 0.020714 0.915388
O O10 0.624125 0.971837 0.194243
O O11 0.615170 0.387790 0.726225
O O12 0.364315 0.644180 0.753016
O O13 0.299092 0.255094 0.976633
O O14 0.768695 0.049744 0.163557
O O15 0.048617 0.931867 0.880176
O O16 0.856913 0.089388 0.713829
O O17 0.500000 0.000000 0.500000
#
# Coordination Sequence:
#
# PCOD9027990 Si02
#       8
#     2   2   2   2   2   2   2   2
#     4   9  21  44  67 107 128 172 225 276 344 395
#     4  12  28  45  68 100 138 183 227 275 335 407
#     4  10  22  41  70  94 136 174 218 280 334 398
#     4  12  25  46  68  97 136 180 223 280 338 398
#     4  11  24  42  67 100 130 175 224 277 332 410
#     4  10  23  43  72  98 136 171 226 283 333 401
#     4  11  26  46  65 101 132 180 228 276 333 403
#     4  11  24  42  66  96 132 171 225 276 340 393
#
# _framework density 21.413215999999998
#
# number of rings (size 3 to 8) (size 9 to 14) (size 15 to 20)
#    0.000    1.250    2.500    1.875    7.000    1.500 
#    6.750    0.000    0.000    0.000    0.000    0.000 
#    0.000    0.000    0.000    0.000    0.000    0.000 
#
# Total GULP energy -89192.573317 kJ/mol
# GULP energy per Si atom -5574.535832 kJ/mol
# Density = 2.136448 g / cm^3
# Si number density = 21.413216 Si / 1000 Ang^3
#
#
#
# Elastic Constant Matrix: (Units=GPa)
#
#
# Indices 1 2 3 4 5 6 
#
# 1 56.4213 4.6066 1.8964 11.9393 -18.0385 -5.4871
# 2 4.6066 87.3543 16.3340 31.6341 -7.0589 7.1572
# 3 1.8964 16.3340 110.1096 3.8242 -27.3009 3.1958
# 4 11.9393 31.6341 3.8242 43.1345 -2.5036 -0.7376
# 5 -18.0385 -7.0589 -27.3009 -2.5036 16.9816 0.7963
# 6 -5.4871 7.1572 3.1958 -0.7376 0.7963 16.7171
#
#
#
# Elastic Compliance Matrix: (Units=1/GPa)
#
#
# Indices 1 2 3 4 5 6 
#
# 1 0.043298 0.004574 0.017004 -0.012516 0.073152 0.004966
# 2 0.004574 0.017542 0.001009 -0.013644 0.012107 -0.007381
# 3 0.017004 0.001009 0.022095 -0.004334 0.053448 -0.001812
# 4 -0.012516 -0.013644 -0.004334 0.035914 -0.020880 0.005141
# 5 0.073152 0.012107 0.053448 -0.020880 0.224615 -0.003011
# 6 0.004966 -0.007381 -0.001812 0.005141 -0.003011 0.065325
#
#
# Mechanical properties :
#
#
# Convention : Reuss Voigt Hill
#
# Bulk Modulus (GPa) = 7.80596 33.28439 20.54517
# Shear Modulus (GPa) = 12.30567 30.76986 21.53776
#
# Velocity S-wave (km/s) = 2.39984 3.79483 3.17490
# Velocity P-wave (km/s) = 3.36635 5.89734 4.80161
#
# Compressibility (1/GPa) = 0.12810730
#
# Stress axis : x y z
#
# Youngs Moduli (GPa) = 23.09594 57.00707 45.25995
#
# Poissons Ratio (x) = -0.26074 -0.76959
# Poissons Ratio (y) = -0.10564 -0.04566
# Poissons Ratio (z) = -0.39272 -0.05751
#
# Static dielectric constant tensor:
#      x y z
#    x 1.822740 0.021220 -0.046980 
#    y 0.021220 1.837320 -0.085500 
#    z -0.046980 -0.085500 1.978220 
# 
# From -- ./inp_files/599694.got.cif
#   From: 2010.05.17/outbox.cif.g08.bks.cpg/sg2_300_cif.got.tgz:599694.got - 2010.06.03 11:33:40.
