data_PCOD9027214
_publ_section_title
;
Structure prediction by ZEFSAII (Michael W. Deem and Ramdas Pophale) SiO2 
 PCOD9027214
Probable space group: P -1
;
_chemical_formula_sum "Si O2"
_cell_formula_units_Z 14
_cell_length_a 11.957030
_cell_length_b 18.831209
_cell_length_c 7.750823
_cell_angle_alpha 127.597781
_cell_angle_beta 53.734264
_cell_angle_gamma 149.410196
_cell_volume 694.083848
_symmetry_space_group_name_H-M "P -1"
_symmetry_group_IT_number 2
_symmetry_cell_setting 'triclinic'
loop_
_space_group_symop_operation_xyz
x,y,z
-x,-y,-z
loop_
_atom_site_type_symbol
_atom_site_label
_atom_site_fract_x
_atom_site_fract_y
_atom_site_fract_z
Si Si1 0.132531 0.673122 0.313168
Si Si2 0.685100 0.326495 0.174680
Si Si3 0.416130 0.718950 0.413356
Si Si4 0.093937 0.089405 0.868521
Si Si5 0.464883 0.559433 0.254601
Si Si6 0.112120 0.273013 0.333083
Si Si7 0.245436 0.203219 0.396970
O O1 0.273048 0.701731 0.383212
O O2 0.903818 0.499417 0.251515
O O3 0.080981 0.751272 0.508897
O O4 0.257708 0.719166 0.085991
O O5 0.606476 0.255267 0.331849
O O6 0.480504 0.284023 0.230480
O O7 0.665061 0.830657 0.276705
O O8 0.334495 0.574665 0.303183
O O9 0.096762 0.196110 0.072092
O O10 0.918842 0.964321 0.703505
O O11 0.000000 0.000000 0.000000
O O12 0.329777 0.444121 0.359264
O O13 0.683537 0.716144 0.368066
O O14 0.500000 0.500000 0.000000
O O15 0.143545 0.228169 0.406106
#
# Coordination Sequence:
#
# PCOD9027214 Si02
#       7
#     2   2   2   2   2   2   2
#     4  11  22  38  62  94 130 166 199 263 314 382
#     4  10  23  37  62  93 122 171 202 251 327 364
#     4  11  22  42  62  91 133 160 212 251 321 375
#     4  10  22  41  67  89 123 173 206 259 315 368
#     4  11  22  35  64  99 119 159 206 272 310 356
#     4  11  21  39  63  97 121 159 216 257 314 366
#     4  10  22  42  62  90 125 160 213 257 309 370
#
# _framework density 20.170473999999999
#
# number of rings (size 3 to 8) (size 9 to 14) (size 15 to 20)
#    0.000    1.429    4.286    2.571    0.000    3.429 
#    0.000    6.429    0.000    6.857    0.000    0.000 
#    0.000    0.000    0.000    0.000    0.000    0.000 
#
# Total GULP energy -78045.769828 kJ/mol
# GULP energy per Si atom -5574.697845 kJ/mol
# Density = 2.012457 g / cm^3
# Si number density = 20.170474 Si / 1000 Ang^3
#
#
#
# Elastic Constant Matrix: (Units=GPa)
#
#
# Indices 1 2 3 4 5 6 
#
# 1 132.3663 32.9098 78.0122 1.2256 -16.9270 13.3545
# 2 32.9098 73.9199 47.1228 8.6822 -10.7469 3.5640
# 3 78.0122 47.1228 170.5590 -0.7656 -4.7423 14.7476
# 4 1.2256 8.6822 -0.7656 37.1191 -2.7445 6.5853
# 5 -16.9270 -10.7469 -4.7423 -2.7445 26.6240 -9.8705
# 6 13.3545 3.5640 14.7476 6.5853 -9.8705 21.5325
#
#
#
# Elastic Compliance Matrix: (Units=1/GPa)
#
#
# Indices 1 2 3 4 5 6 
#
# 1 0.011420 -0.001373 -0.004571 0.000497 0.005429 -0.001388
# 2 -0.001373 0.018609 -0.004849 -0.004924 0.007507 0.006039
# 3 -0.004571 -0.004849 0.009680 0.002172 -0.005145 -0.006015
# 4 0.000497 -0.004924 0.002172 0.029936 -0.002357 -0.011217
# 5 0.005429 0.007507 -0.005145 -0.002357 0.051499 0.023243
# 6 -0.001388 0.006039 -0.006015 -0.011217 0.023243 0.064508
#
#
# Mechanical properties :
#
#
# Convention : Reuss Voigt Hill
#
# Bulk Modulus (GPa) = 55.17578 76.99276 66.08427
# Shear Modulus (GPa) = 23.44361 31.64181 27.54271
#
# Velocity S-wave (km/s) = 3.41291 3.96500 3.69927
# Velocity P-wave (km/s) = 6.55322 7.69516 7.14704
#
# Compressibility (1/GPa) = 0.01812389
#
# Stress axis : x y z
#
# Youngs Moduli (GPa) = 87.56864 53.73749 103.30287
#
# Poissons Ratio (x) = 0.07376 0.47218
# Poissons Ratio (y) = 0.12019 0.50093
# Poissons Ratio (z) = 0.40026 0.26058
#
# Static dielectric constant tensor:
#      x y z
#    x 1.702400 0.000640 0.032900 
#    y 0.000640 1.762050 -0.020250 
#    z 0.032900 -0.020250 1.767200 
# 
# From -- ./inp_files/282226.got.cif
#   From: 2010.05.17/outbox.cif.g08.bks.cpg/sg2_142_cif.got.tgz:282226.got - 2010.06.03 11:33:40.
