data_PCOD9027918
_publ_section_title
;
Structure prediction by ZEFSAII (Michael W. Deem and Ramdas Pophale) SiO2 
 PCOD9027918
Probable space group: P -1
;
_chemical_formula_sum "Si O2"
_cell_formula_units_Z 12
_cell_length_a 10.946505
_cell_length_b 8.931964
_cell_length_c 14.273960
_cell_angle_alpha 135.401282
_cell_angle_beta 29.967204
_cell_angle_gamma 122.423676
_cell_volume 476.346896
_symmetry_space_group_name_H-M "P -1"
_symmetry_group_IT_number 2
_symmetry_cell_setting 'triclinic'
loop_
_space_group_symop_operation_xyz
x,y,z
-x,-y,-z
loop_
_atom_site_type_symbol
_atom_site_label
_atom_site_fract_x
_atom_site_fract_y
_atom_site_fract_z
Si Si1 0.530261 0.506608 0.593963
Si Si2 0.865414 0.815817 0.545903
Si Si3 0.983374 0.092088 0.156538
Si Si4 0.222296 0.280288 0.239800
Si Si5 0.347630 0.520669 0.013540
Si Si6 0.292819 0.227689 0.750831
O O1 0.500000 0.500000 0.500000
O O2 0.606823 0.737858 0.663747
O O3 0.756344 0.310477 0.397610
O O4 0.306737 0.420622 0.755365
O O5 0.842283 0.854596 0.689700
O O6 0.000000 0.000000 0.500000
O O7 0.065910 0.615140 0.276114
O O8 0.192803 0.175124 0.112349
O O9 0.947202 0.876870 0.140815
O O10 0.000000 0.000000 0.000000
O O11 0.494102 0.336885 0.088020
O O12 0.000000 0.500000 0.500000
O O13 0.342855 0.315604 0.859668
O O14 0.500000 0.500000 0.000000
O O15 0.500000 0.000000 0.500000
#
# Coordination Sequence:
#
# PCOD9027918 Si02
#       6
#     2   2   2   2   2   2
#     4  11  24  45  66  97 144 180 224 293 348 405
#     4  12  28  45  69 106 145 187 236 290 355 415
#     4  11  23  43  69 105 130 177 239 282 346 421
#     4  12  22  46  75 101 139 181 239 300 341 418
#     4  12  23  43  78 103 136 186 238 291 351 418
#     4  10  22  41  70 101 135 177 231 286 346 414
#
# _framework density 25.191725999999999
#
# number of rings (size 3 to 8) (size 9 to 14) (size 15 to 20)
#    0.000    0.667    5.000    3.000    2.333    3.333 
#    3.000    1.667    0.000    0.000    0.000    0.000 
#    0.000    0.000    0.000    0.000    0.000    0.000 
#
# Total GULP energy -66895.587160 kJ/mol
# GULP energy per Si atom -5574.632263 kJ/mol
# Density = 2.513439 g / cm^3
# Si number density = 25.191726 Si / 1000 Ang^3
#
#
#
# Elastic Constant Matrix: (Units=GPa)
#
#
# Indices 1 2 3 4 5 6 
#
# 1 90.1679 58.6324 16.0494 11.3356 37.9254 15.1816
# 2 58.6324 239.3669 18.2509 -22.1386 8.6428 9.0570
# 3 16.0494 18.2509 93.8467 4.1009 14.9326 0.1758
# 4 11.3356 -22.1386 4.1009 47.6412 2.8109 9.8733
# 5 37.9254 8.6428 14.9326 2.8109 44.6275 3.4606
# 6 15.1816 9.0570 0.1758 9.8733 3.4606 52.8776
#
#
#
# Elastic Compliance Matrix: (Units=1/GPa)
#
#
# Indices 1 2 3 4 5 6 
#
# 1 0.024049 -0.005712 0.000273 -0.006574 -0.018739 -0.003473
# 2 -0.005712 0.005899 -0.000951 0.004034 0.003804 -0.000370
# 3 0.000273 -0.000951 0.011464 -0.001383 -0.003840 0.000556
# 4 -0.006574 0.004034 -0.001383 0.025089 0.003978 -0.003744
# 5 -0.018739 0.003804 -0.003840 0.003978 0.038516 0.001478
# 6 -0.003473 -0.000370 0.000556 -0.003744 0.001478 0.020573
#
#
# Mechanical properties :
#
#
# Convention : Reuss Voigt Hill
#
# Bulk Modulus (GPa) = 34.92430 67.69410 51.30920
# Shear Modulus (GPa) = 33.80356 51.05918 42.43137
#
# Velocity S-wave (km/s) = 3.66710 4.50691 4.10852
# Velocity P-wave (km/s) = 5.64125 7.34935 6.55120
#
# Compressibility (1/GPa) = 0.02863336
#
# Stress axis : x y z
#
# Youngs Moduli (GPa) = 41.58189 169.51976 87.22702
#
# Poissons Ratio (x) = 0.96823 -0.02386
# Poissons Ratio (y) = 0.23750 0.08298
# Poissons Ratio (z) = -0.01137 0.16127
#
# Static dielectric constant tensor:
#      x y z
#    x 2.154830 0.083750 -0.181800 
#    y 0.083750 2.213830 -0.110920 
#    z -0.181800 -0.110920 2.169560 
# 
# From -- ./inp_files/205440.got.cif
#   From: 2010.05.17/outbox.cif.g08.bks.cpg/sg2_103_cif.got.tgz:205440.got - 2010.06.03 11:33:40.
