data_PCOD9027676
_publ_section_title
;
Structure prediction by ZEFSAII (Michael W. Deem and Ramdas Pophale) SiO2 
 PCOD9027676
Probable space group: P -1
;
_chemical_formula_sum "Si O2"
_cell_formula_units_Z 14
_cell_length_a 6.895632
_cell_length_b 12.286536
_cell_length_c 15.038462
_cell_angle_alpha 142.926396
_cell_angle_beta 130.530401
_cell_angle_gamma 68.735925
_cell_volume 548.995081
_symmetry_space_group_name_H-M "P -1"
_symmetry_group_IT_number 2
_symmetry_cell_setting 'triclinic'
loop_
_space_group_symop_operation_xyz
x,y,z
-x,-y,-z
loop_
_atom_site_type_symbol
_atom_site_label
_atom_site_fract_x
_atom_site_fract_y
_atom_site_fract_z
Si Si1 0.320304 0.582502 0.244367
Si Si2 0.818418 0.531414 0.681384
Si Si3 0.821565 0.713846 0.144924
Si Si4 0.348839 0.819980 0.120812
Si Si5 0.318236 0.126100 0.179822
Si Si6 0.821697 0.948643 0.633390
Si Si7 0.148255 0.699620 0.622551
O O1 0.362371 0.541128 0.332367
O O2 0.554379 0.777371 0.413632
O O3 0.032051 0.616656 0.178922
O O4 0.307996 0.408776 0.062081
O O5 0.708013 0.667217 0.675575
O O6 0.867439 0.370528 0.530513
O O7 0.102458 0.668149 0.896129
O O8 0.582439 0.729970 0.145350
O O9 0.995476 0.931502 0.312549
O O10 0.436375 0.009522 0.207887
O O11 0.251704 0.891974 0.227946
O O12 0.528271 0.181568 0.194678
O O13 0.000000 0.000000 0.000000
O O14 0.989272 0.848849 0.679488
O O15 0.000000 0.500000 0.500000
#
# Coordination Sequence:
#
# PCOD9027676 Si02
#       7
#     2   2   2   2   2   2   2
#     4  11  25  46  72 102 140 188 236 295 347 425
#     4  11  23  44  69 101 142 182 232 289 355 418
#     4  11  25  48  69 102 144 185 239 290 356 414
#     4  11  23  45  70 104 138 186 233 292 355 424
#     4  10  22  41  68  99 139 180 230 287 354 422
#     4  12  24  45  71 104 142 182 243 286 354 424
#     4  12  24  43  71 107 144 188 235 294 357 428
#
# _framework density 25.501141000000001
#
# number of rings (size 3 to 8) (size 9 to 14) (size 15 to 20)
#    0.000    0.857    2.857    4.286    0.000    1.143 
#    2.571    5.000    0.000    0.000    0.000    0.000 
#    0.000    0.000    0.000    0.000    0.000    0.000 
#
# Total GULP energy -78341.932006 kJ/mol
# GULP energy per Si atom -5595.852286 kJ/mol
# Density = 2.544310 g / cm^3
# Si number density = 25.501141 Si / 1000 Ang^3
#
#
#
# Elastic Constant Matrix: (Units=GPa)
#
#
# Indices 1 2 3 4 5 6 
#
# 1 93.9109 30.5567 38.8431 -0.7101 11.2108 -27.3516
# 2 30.5567 93.4604 8.6061 5.5402 0.5988 -15.1058
# 3 38.8431 8.6061 136.8854 12.2547 14.5080 0.0840
# 4 -0.7101 5.5402 12.2547 28.3969 1.2140 1.0716
# 5 11.2108 0.5988 14.5080 1.2140 35.5681 0.2122
# 6 -27.3516 -15.1058 0.0840 1.0716 0.2122 51.6455
#
#
#
# Elastic Compliance Matrix: (Units=1/GPa)
#
#
# Indices 1 2 3 4 5 6 
#
# 1 0.016281 -0.003874 -0.004271 0.002873 -0.003467 0.007451
# 2 -0.003874 0.012344 0.000478 -0.002811 0.000904 0.001613
# 3 -0.004271 0.000478 0.009077 -0.003945 -0.002217 -0.002046
# 4 0.002873 -0.002811 -0.003945 0.037563 -0.000531 -0.000071
# 5 -0.003467 0.000904 -0.002217 -0.000531 0.030125 -0.001681
# 6 0.007451 0.001613 -0.002046 -0.000071 -0.001681 0.023792
#
#
# Mechanical properties :
#
#
# Convention : Reuss Voigt Hill
#
# Bulk Modulus (GPa) = 44.70569 53.36315 49.03442
# Shear Modulus (GPa) = 32.90104 39.53883 36.21993
#
# Velocity S-wave (km/s) = 3.59580 3.94188 3.77281
# Velocity P-wave (km/s) = 5.89989 6.45671 6.18457
#
# Compressibility (1/GPa) = 0.02236852
#
# Stress axis : x y z
#
# Youngs Moduli (GPa) = 61.42160 81.01323 110.17261
#
# Poissons Ratio (x) = 0.31381 0.47052
# Poissons Ratio (y) = 0.23792 -0.05265
# Poissons Ratio (z) = 0.26231 -0.03872
#
# Static dielectric constant tensor:
#      x y z
#    x 2.021980 -0.019540 0.080220 
#    y -0.019540 2.013620 -0.058210 
#    z 0.080220 -0.058210 2.026210 
# 
# From -- ./inp_files/52669.got.cif
#   From: 2010.05.17/outbox.cif.g08.bks.cpg/sg2_27_cif.got.tgz:52669.got - 2010.06.03 11:33:40.
