data_PCOD9027333
_publ_section_title
;
Structure prediction by ZEFSAII (Michael W. Deem and Ramdas Pophale) SiO2 
 PCOD9027333
Probable space group: P -1
;
_chemical_formula_sum "Si O2"
_cell_formula_units_Z 16
_cell_length_a 8.055771
_cell_length_b 11.026577
_cell_length_c 15.288177
_cell_angle_alpha 59.623021
_cell_angle_beta 61.476115
_cell_angle_gamma 40.262519
_cell_volume 746.884203
_symmetry_space_group_name_H-M "P -1"
_symmetry_group_IT_number 2
_symmetry_cell_setting 'triclinic'
loop_
_space_group_symop_operation_xyz
x,y,z
-x,-y,-z
loop_
_atom_site_type_symbol
_atom_site_label
_atom_site_fract_x
_atom_site_fract_y
_atom_site_fract_z
Si Si1 0.193438 0.815523 0.454533
Si Si2 0.882659 0.450270 0.761702
Si Si3 0.364862 0.682846 0.906266
Si Si4 0.233595 0.701462 0.295098
Si Si5 0.336735 0.011508 0.264025
Si Si6 0.185361 0.582352 0.679099
Si Si7 0.175781 0.020593 0.112083
Si Si8 0.235750 0.032382 0.896676
O O1 0.108543 0.802912 0.384245
O O2 0.258804 0.644348 0.555972
O O3 0.387023 0.843507 0.367532
O O4 0.000000 0.000000 0.500000
O O5 0.062783 0.495124 0.713272
O O6 0.005795 0.262303 0.858058
O O7 0.590526 0.623234 0.807681
O O8 0.851905 0.401178 0.689815
O O9 0.109766 0.761809 0.890198
O O10 0.236497 0.868429 0.931441
O O11 0.500000 0.500000 0.000000
O O12 0.547308 0.554375 0.282714
O O13 0.149923 0.865950 0.188850
O O14 0.056677 0.216688 0.285601
O O15 0.331812 0.979363 0.174400
O O16 0.559612 0.011757 0.210173
O O17 0.299362 0.996424 0.997288
#
# Coordination Sequence:
#
# PCOD9027333 Si02
#       8
#     2   2   2   2   2   2   2   2
#     4   9  21  43  69  93 133 174 214 280 345 382
#     4  12  24  41  69 100 134 179 223 271 331 400
#     4  12  23  41  63  90 134 179 218 265 332 386
#     4  11  23  41  68  98 133 176 223 273 330 399
#     4  10  22  41  67  96 130 175 224 280 327 395
#     4  11  23  44  67  98 135 174 223 280 338 392
#     4  11  22  41  64  93 135 178 220 273 331 390
#     4  12  23  42  63  97 138 171 224 274 328 392
#
# _framework density 21.422331
#
# number of rings (size 3 to 8) (size 9 to 14) (size 15 to 20)
#    0.000    1.000    3.750    4.125    0.000    0.500 
#    0.000    1.875    0.000    7.500    0.000    0.000 
#    0.000    0.000    0.000    0.000    0.000    0.000 
#
# Total GULP energy -89143.616163 kJ/mol
# GULP energy per Si atom -5571.476010 kJ/mol
# Density = 2.137357 g / cm^3
# Si number density = 21.422331 Si / 1000 Ang^3
#
#
#
# Elastic Constant Matrix: (Units=GPa)
#
#
# Indices 1 2 3 4 5 6 
#
# 1 64.5485 17.5975 25.1999 -11.6687 -2.8540 18.1304
# 2 17.5975 86.7288 42.4156 -0.7600 3.2836 8.9943
# 3 25.1999 42.4156 125.2988 -4.3880 -0.6830 1.2814
# 4 -11.6687 -0.7600 -4.3880 47.6814 6.4557 1.4753
# 5 -2.8540 3.2836 -0.6830 6.4557 21.8796 2.4704
# 6 18.1304 8.9943 1.2814 1.4753 2.4704 40.7152
#
#
#
# Elastic Compliance Matrix: (Units=1/GPa)
#
#
# Indices 1 2 3 4 5 6 
#
# 1 0.020767 -0.001695 -0.003332 0.004691 0.002501 -0.009090
# 2 -0.001695 0.014393 -0.004530 -0.000237 -0.002211 -0.002139
# 3 -0.003332 -0.004530 0.010162 -0.000065 0.000339 0.002146
# 4 0.004691 -0.000237 -0.000065 0.022981 -0.005851 -0.002512
# 5 0.002501 -0.002211 0.000339 -0.005851 0.048480 -0.003366
# 6 -0.009090 -0.002139 0.002146 -0.002512 -0.003366 0.029309
#
#
# Mechanical properties :
#
#
# Convention : Reuss Voigt Hill
#
# Bulk Modulus (GPa) = 38.15574 49.66691 43.91132
# Shear Modulus (GPa) = 28.74534 34.81279 31.77906
#
# Velocity S-wave (km/s) = 3.66709 4.03559 3.85574
# Velocity P-wave (km/s) = 5.98163 6.70445 6.35333
#
# Compressibility (1/GPa) = 0.02620838
#
# Stress axis : x y z
#
# Youngs Moduli (GPa) = 48.15349 69.47831 98.40511
#
# Poissons Ratio (x) = 0.11777 0.32788
# Poissons Ratio (y) = 0.08162 0.44576
# Poissons Ratio (z) = 0.16044 0.31472
#
# Static dielectric constant tensor:
#      x y z
#    x 1.878050 0.015440 -0.033640 
#    y 0.015440 1.828920 0.011650 
#    z -0.033640 0.011650 1.776700 
# 
# From -- ./inp_files/499993.got.cif
#   From: 2010.05.17/outbox.cif.g08.bks.cpg/sg2_250_cif.got.tgz:499993.got - 2010.06.03 11:33:40.
