data_PCOD9027665
_publ_section_title
;
Structure prediction by ZEFSAII (Michael W. Deem and Ramdas Pophale) SiO2 
 PCOD9027665
Probable space group: P -1
;
_chemical_formula_sum "Si O2"
_cell_formula_units_Z 16
_cell_length_a 12.096577
_cell_length_b 8.458911
_cell_length_c 8.525871
_cell_angle_alpha 83.056716
_cell_angle_beta 48.154171
_cell_angle_gamma 88.240077
_cell_volume 643.649379
_symmetry_space_group_name_H-M "P -1"
_symmetry_group_IT_number 2
_symmetry_cell_setting 'triclinic'
loop_
_space_group_symop_operation_xyz
x,y,z
-x,-y,-z
loop_
_atom_site_type_symbol
_atom_site_label
_atom_site_fract_x
_atom_site_fract_y
_atom_site_fract_z
Si Si1 0.757140 0.791985 0.652424
Si Si2 0.524986 0.870763 0.357650
Si Si3 0.961615 0.194170 0.835335
Si Si4 0.152215 0.288198 0.920401
Si Si5 0.457068 0.641212 0.911445
Si Si6 0.906788 0.544237 0.737824
Si Si7 0.684714 0.055094 0.933921
Si Si8 0.350031 0.580637 0.672548
O O1 0.902164 0.827364 0.408047
O O2 0.610699 0.736249 0.700309
O O3 0.779409 0.638015 0.759658
O O4 0.734439 0.944739 0.762021
O O5 0.685582 0.788720 0.221182
O O6 0.381806 0.746589 0.531573
O O7 0.500000 0.000000 0.500000
O O8 0.545934 0.960843 0.162256
O O9 0.033933 0.188837 0.938107
O O10 0.914820 0.374757 0.836339
O O11 0.819817 0.083127 0.928073
O O12 0.207568 0.464743 0.778347
O O13 0.072346 0.327052 0.155268
O O14 0.369157 0.594983 0.841487
O O15 0.500000 0.500000 0.000000
O O16 0.363671 0.767998 0.078498
O O17 0.000000 0.500000 0.500000
O O18 0.500000 0.500000 0.500000
#
# Coordination Sequence:
#
# PCOD9027665 Si02
#       8
#     2   2   2   2   2   2   2   2
#     4  11  23  46  67 101 142 189 237 295 360 427
#     4  11  23  42  71 100 146 185 236 291 367 413
#     4  11  25  43  72 103 143 188 242 285 361 432
#     4  11  22  45  71 101 141 186 241 292 348 428
#     4  12  25  43  72 103 137 188 242 294 358 424
#     4  10  22  42  69  96 139 185 235 291 349 422
#     4  12  25  45  71 104 149 187 233 305 361 425
#     4  10  22  41  68  99 134 181 229 293 344 414
#
# _framework density 24.858255
#
# number of rings (size 3 to 8) (size 9 to 14) (size 15 to 20)
#    0.000    1.000    2.500    4.875    1.750    0.500 
#    0.000    0.000    0.000    0.000    0.000    0.000 
#    0.000    0.000    0.000    0.000    0.000    0.000 
#
# Total GULP energy -89278.737965 kJ/mol
# GULP energy per Si atom -5579.921123 kJ/mol
# Density = 2.480168 g / cm^3
# Si number density = 24.858255 Si / 1000 Ang^3
#
#
#
# Elastic Constant Matrix: (Units=GPa)
#
#
# Indices 1 2 3 4 5 6 
#
# 1 112.3459 35.4016 38.7182 4.3978 -9.8205 15.3492
# 2 35.4016 123.8968 59.8555 28.5448 -2.8117 -0.8429
# 3 38.7182 59.8555 121.4095 37.0211 9.7086 6.2572
# 4 4.3978 28.5448 37.0211 56.2827 11.1924 -3.5046
# 5 -9.8205 -2.8117 9.7086 11.1924 29.7613 -0.7181
# 6 15.3492 -0.8429 6.2572 -3.5046 -0.7181 37.7620
#
#
#
# Elastic Compliance Matrix: (Units=1/GPa)
#
#
# Indices 1 2 3 4 5 6 
#
# 1 0.011464 -0.001935 -0.003159 0.001095 0.004122 -0.003999
# 2 -0.001935 0.011619 -0.004416 -0.003380 0.003208 0.001525
# 3 -0.003159 -0.004416 0.013576 -0.005803 -0.003746 -0.001674
# 4 0.001095 -0.003380 -0.005803 0.024836 -0.007342 0.002606
# 5 0.004122 0.003208 -0.003746 -0.007342 0.039225 -0.000919
# 6 -0.003999 0.001525 -0.001674 0.002606 -0.000919 0.028643
#
#
# Mechanical properties :
#
#
# Convention : Reuss Voigt Hill
#
# Bulk Modulus (GPa) = 56.69177 69.51142 63.10160
# Shear Modulus (GPa) = 32.41228 39.67300 36.04264
#
# Velocity S-wave (km/s) = 3.61485 3.99929 3.81192
# Velocity P-wave (km/s) = 6.34653 7.02493 6.69433
#
# Compressibility (1/GPa) = 0.01763924
#
# Stress axis : x y z
#
# Youngs Moduli (GPa) = 87.23339 86.06331 73.65783
#
# Poissons Ratio (x) = 0.16656 0.23269
# Poissons Ratio (y) = 0.16882 0.32524
# Poissons Ratio (z) = 0.27558 0.38002
#
# Static dielectric constant tensor:
#      x y z
#    x 1.894560 -0.016760 -0.173720 
#    y -0.016760 2.027870 -0.028130 
#    z -0.173720 -0.028130 2.345100 
# 
# From -- ./inp_files/243332.got.cif
#   From: 2010.05.17/outbox.cif.g08.bks.cpg/sg2_122_cif.got.tgz:243332.got - 2010.06.03 11:33:40.
