data_PCOD9027717
_publ_section_title
;
Structure prediction by ZEFSAII (Michael W. Deem and Ramdas Pophale) SiO2 
 PCOD9027717
Probable space group: P -1
;
_chemical_formula_sum "Si O2"
_cell_formula_units_Z 16
_cell_length_a 15.462869
_cell_length_b 11.398087
_cell_length_c 17.900761
_cell_angle_alpha 153.457918
_cell_angle_beta 150.878370
_cell_angle_gamma 47.104764
_cell_volume 607.854334
_symmetry_space_group_name_H-M "P -1"
_symmetry_group_IT_number 2
_symmetry_cell_setting 'triclinic'
loop_
_space_group_symop_operation_xyz
x,y,z
-x,-y,-z
loop_
_atom_site_type_symbol
_atom_site_label
_atom_site_fract_x
_atom_site_fract_y
_atom_site_fract_z
Si Si1 0.435217 0.798807 0.582172
Si Si2 0.738059 0.077577 0.341699
Si Si3 0.203374 0.494555 0.953850
Si Si4 0.183381 0.426514 0.607857
Si Si5 0.715605 0.412530 0.382717
Si Si6 0.186834 0.741571 0.931605
Si Si7 0.321506 0.409868 0.142930
Si Si8 0.091165 0.857334 0.279566
O O1 0.402115 0.836201 0.664215
O O2 0.341489 0.491579 0.292409
O O3 0.303596 0.949173 0.532225
O O4 0.666224 0.950831 0.819934
O O5 0.707310 0.137271 0.266335
O O6 0.961725 0.321157 0.673322
O O7 0.734366 0.761551 0.166168
O O8 0.258123 0.723656 0.058409
O O9 0.290129 0.607643 0.165883
O O10 0.320962 0.602424 0.742282
O O11 0.232662 0.524963 0.787467
O O12 0.000000 0.500000 0.500000
O O13 0.132480 0.084129 0.372107
O O14 0.540011 0.457344 0.312821
O O15 0.951453 0.654335 0.705889
O O16 0.095391 0.131392 0.811376
O O17 0.000000 0.500000 0.000000
#
# Coordination Sequence:
#
# PCOD9027717 Si02
#       8
#     2   2   2   2   2   2   2   2
#     4  11  24  44  69 100 137 187 232 289 349 419
#     4  10  22  42  69  98 138 176 233 289 351 412
#     4  10  22  41  69 102 132 177 236 296 339 418
#     4  10  23  45  72 104 143 184 234 294 361 418
#     4  10  25  44  64 103 137 183 225 292 355 418
#     4  10  24  44  68  99 141 178 234 293 354 410
#     4  11  25  43  68 100 138 185 231 285 354 426
#     4  10  23  45  69 103 137 184 233 287 349 422
#
# _framework density 26.322095000000001
#
# number of rings (size 3 to 8) (size 9 to 14) (size 15 to 20)
#    0.000    1.750    1.250    0.750    8.750    5.000 
#    2.250    2.500    0.000    0.000    0.000    0.000 
#    0.000    0.000    0.000    0.000    0.000    0.000 
#
# Total GULP energy -89234.531539 kJ/mol
# GULP energy per Si atom -5577.158221 kJ/mol
# Density = 2.626218 g / cm^3
# Si number density = 26.322095 Si / 1000 Ang^3
#
#
#
# Elastic Constant Matrix: (Units=GPa)
#
#
# Indices 1 2 3 4 5 6 
#
# 1 140.4932 37.4482 24.4376 -9.7662 11.5432 9.3947
# 2 37.4482 109.9280 24.6244 -12.8292 3.4152 8.8070
# 3 24.4376 24.6244 94.1675 -23.3314 10.2623 -2.3644
# 4 -9.7662 -12.8292 -23.3314 20.0383 -17.9665 9.0896
# 5 11.5432 3.4152 10.2623 -17.9665 34.3880 -8.5302
# 6 9.3947 8.8070 -2.3644 9.0896 -8.5302 43.1528
#
#
#
# Elastic Compliance Matrix: (Units=1/GPa)
#
#
# Indices 1 2 3 4 5 6 
#
# 1 0.008319 -0.002412 -0.001584 -0.001499 -0.003295 -0.001741
# 2 -0.002412 0.011486 0.000093 0.012707 0.005433 -0.003417
# 3 -0.001584 0.000093 0.017220 0.029898 0.010260 -0.003000
# 4 -0.001499 0.012707 0.029898 0.166305 0.071887 -0.021449
# 5 -0.003295 0.005433 0.010260 0.071887 0.063545 -0.002410
# 6 -0.001741 -0.003417 -0.003000 -0.021449 -0.002410 0.028127
#
#
# Mechanical properties :
#
#
# Convention : Reuss Voigt Hill
#
# Bulk Modulus (GPa) = 34.22471 57.51209 45.86840
# Shear Modulus (GPa) = 15.99750 36.72106 26.35928
#
# Velocity S-wave (km/s) = 2.46795 3.73911 3.16794
# Velocity P-wave (km/s) = 4.59908 6.36695 5.55381
#
# Compressibility (1/GPa) = 0.02921865
#
# Stress axis : x y z
#
# Youngs Moduli (GPa) = 120.20226 87.06478 58.07064
#
# Poissons Ratio (x) = 0.21002 0.09200
# Poissons Ratio (y) = 0.28996 -0.00541
# Poissons Ratio (z) = 0.19042 -0.00811
#
# Static dielectric constant tensor:
#      x y z
#    x 2.200290 -0.056210 -0.075770 
#    y -0.056210 2.115440 0.037980 
#    z -0.075770 0.037980 2.189010 
# 
# From -- ./inp_files/573655.got.cif
#   From: 2010.05.17/outbox.cif.g08.bks.cpg/sg2_287_cif.got.tgz:573655.got - 2010.06.03 11:33:40.
