data_PCOD9027056
_publ_section_title
;
Structure prediction by ZEFSAII (Michael W. Deem and Ramdas Pophale) SiO2 
 PCOD9027056
Probable space group: P -1
;
_chemical_formula_sum "Si O2"
_cell_formula_units_Z 16
_cell_length_a 9.632630
_cell_length_b 10.785745
_cell_length_c 16.961507
_cell_angle_alpha 134.407389
_cell_angle_beta 135.174486
_cell_angle_gamma 76.808318
_cell_volume 751.252575
_symmetry_space_group_name_H-M "P -1"
_symmetry_group_IT_number 2
_symmetry_cell_setting 'triclinic'
loop_
_space_group_symop_operation_xyz
x,y,z
-x,-y,-z
loop_
_atom_site_type_symbol
_atom_site_label
_atom_site_fract_x
_atom_site_fract_y
_atom_site_fract_z
Si Si1 0.814292 0.878447 0.437653
Si Si2 0.607684 0.673443 0.687800
Si Si3 0.538496 0.566552 0.873330
Si Si4 0.188009 0.022096 0.227713
Si Si5 0.870644 0.573129 0.880829
Si Si6 0.367135 0.857540 0.456536
Si Si7 0.872133 0.011680 0.234661
Si Si8 0.726291 0.327489 0.316719
O O1 0.636867 0.639405 0.243074
O O2 0.935246 0.887778 0.574449
O O3 0.695490 0.008685 0.457024
O O4 0.000000 0.000000 0.500000
O O5 0.500000 0.500000 0.500000
O O6 0.760064 0.635273 0.793601
O O7 0.403746 0.669418 0.654864
O O8 0.772399 0.884913 0.801627
O O9 0.700094 0.520283 0.862969
O O10 0.399976 0.630420 0.786514
O O11 0.707738 0.771561 0.080685
O O12 0.436551 0.163891 0.432017
O O13 0.997888 0.029683 0.209447
O O14 0.110457 0.783806 0.089897
O O15 0.849974 0.363760 0.754264
O O16 0.500000 0.000000 0.500000
O O17 0.725066 0.118687 0.217956
O O18 0.000000 0.500000 0.500000
#
# Coordination Sequence:
#
# PCOD9027056 Si02
#       8
#     2   2   2   2   2   2   2   2
#     4  12  27  44  63  91 127 168 214 261 308 365
#     4  11  22  39  67  98 130 160 207 261 313 373
#     4  10  22  43  66  92 126 164 209 258 310 380
#     4  11  23  41  67  95 128 161 206 265 311 369
#     4  10  22  41  66  96 124 163 208 258 315 368
#     4  12  23  42  67  89 121 169 218 251 304 373
#     4  11  23  43  67  92 126 168 205 256 323 371
#     4  11  22  39  69  96 127 168 204 252 322 378
#
# _framework density 21.297763
#
# number of rings (size 3 to 8) (size 9 to 14) (size 15 to 20)
#    0.000    1.000    5.000    1.500    1.750    2.000 
#    4.500    0.000    0.000    0.000    0.000    0.000 
#    0.000    0.000    0.000    0.000    0.000    0.000 
#
# Total GULP energy -89421.287152 kJ/mol
# GULP energy per Si atom -5588.830447 kJ/mol
# Density = 2.124929 g / cm^3
# Si number density = 21.297763 Si / 1000 Ang^3
#
#
#
# Elastic Constant Matrix: (Units=GPa)
#
#
# Indices 1 2 3 4 5 6 
#
# 1 115.5559 28.3084 19.7111 24.0205 10.1155 1.7368
# 2 28.3084 57.9198 11.4148 27.5726 3.7882 4.7051
# 3 19.7111 11.4148 93.5273 31.2220 3.5538 -1.1017
# 4 24.0205 27.5726 31.2220 43.1885 2.7911 1.6004
# 5 10.1155 3.7882 3.5538 2.7911 23.8859 11.8818
# 6 1.7368 4.7051 -1.1017 1.6004 11.8818 36.8784
#
#
#
# Elastic Compliance Matrix: (Units=1/GPa)
#
#
# Indices 1 2 3 4 5 6 
#
# 1 0.010577 -0.003456 -0.000629 -0.003003 -0.004184 0.001402
# 2 -0.003456 0.026825 0.003259 -0.017468 -0.000046 -0.002389
# 3 -0.000629 0.003259 0.014572 -0.012207 -0.001524 0.001070
# 4 -0.003003 -0.017468 -0.012207 0.044761 0.000710 -0.000166
# 5 -0.004184 -0.000046 -0.001524 0.000710 0.052071 -0.016650
# 6 0.001402 -0.002389 0.001070 -0.000166 -0.016650 0.032759
#
#
# Mechanical properties :
#
#
# Convention : Reuss Voigt Hill
#
# Bulk Modulus (GPa) = 19.87208 42.87463 31.37335
# Shear Modulus (GPa) = 25.00093 34.62848 29.81470
#
# Velocity S-wave (km/s) = 3.42990 4.03665 3.74558
# Velocity P-wave (km/s) = 5.00365 6.47308 5.78521
#
# Compressibility (1/GPa) = 0.05032187
#
# Stress axis : x y z
#
# Youngs Moduli (GPa) = 94.54203 37.27861 68.62303
#
# Poissons Ratio (x) = 0.12885 0.04319
# Poissons Ratio (y) = 0.32678 -0.22368
# Poissons Ratio (z) = 0.05951 -0.12151
#
# Static dielectric constant tensor:
#      x y z
#    x 1.591400 -0.125060 -0.014690 
#    y -0.125060 1.652420 0.004650 
#    z -0.014690 0.004650 1.797330 
# 
# From -- ./inp_files/203678.got.cif
#   From: 2010.05.17/outbox.cif.g08.bks.cpg/sg2_102_cif.got.tgz:203678.got - 2010.06.03 11:33:40.
