data_PCOD9027372
_publ_section_title
;
Structure prediction by ZEFSAII (Michael W. Deem and Ramdas Pophale) SiO2 
 PCOD9027372
Probable space group: P -1
;
_chemical_formula_sum "Si O2"
_cell_formula_units_Z 10
_cell_length_a 8.006124
_cell_length_b 5.921340
_cell_length_c 11.451943
_cell_angle_alpha 126.356641
_cell_angle_beta 63.528387
_cell_angle_gamma 108.111731
_cell_volume 390.562392
_symmetry_space_group_name_H-M "P -1"
_symmetry_group_IT_number 2
_symmetry_cell_setting 'triclinic'
loop_
_space_group_symop_operation_xyz
x,y,z
-x,-y,-z
loop_
_atom_site_type_symbol
_atom_site_label
_atom_site_fract_x
_atom_site_fract_y
_atom_site_fract_z
Si Si1 0.180048 0.189823 0.935021
Si Si2 0.292609 0.101960 0.111312
Si Si3 0.455003 0.694521 0.264109
Si Si4 0.649717 0.694298 0.439446
Si Si5 0.991431 0.228585 0.771677
O O1 0.403347 0.257143 0.871354
O O2 0.117260 0.094077 0.794632
O O3 0.175126 0.011243 0.002065
O O4 0.084941 0.478404 0.075727
O O5 0.304252 0.439327 0.213538
O O6 0.193318 0.981950 0.223339
O O7 0.500000 0.000000 0.000000
O O8 0.582745 0.600380 0.302378
O O9 0.383056 0.986300 0.418622
O O10 0.500000 0.500000 0.500000
O O11 0.875809 0.703114 0.359864
#
# Coordination Sequence:
#
# PCOD9027372 Si02
#       5
#     2   2   2   2   2
#     4  10  22  41  67  97 134 170 219 265 323 399
#     4  12  24  39  70 102 137 165 212 282 329 381
#     4  10  23  41  66  98 128 173 221 259 335 391
#     4  10  24  44  66  89 133 179 217 268 323 390
#     4  10  23  42  66 103 127 172 223 263 332 390
#
# _framework density 25.604104
#
# number of rings (size 3 to 8) (size 9 to 14) (size 15 to 20)
#    0.000    1.600    2.000    1.200    2.800    5.600 
#    0.000    2.000    0.000    0.000    0.000    0.000 
#    0.000    0.000    0.000    0.000    0.000    0.000 
#
# Total GULP energy -55804.277214 kJ/mol
# GULP energy per Si atom -5580.427721 kJ/mol
# Density = 2.554583 g / cm^3
# Si number density = 25.604104 Si / 1000 Ang^3
#
#
#
# Elastic Constant Matrix: (Units=GPa)
#
#
# Indices 1 2 3 4 5 6 
#
# 1 81.6519 10.3888 14.5678 -6.2199 -9.3512 -0.7618
# 2 10.3888 103.1206 34.0279 -17.6910 -8.7027 38.8934
# 3 14.5678 34.0279 80.5791 -5.3036 -30.2783 17.9265
# 4 -6.2199 -17.6910 -5.3036 65.3201 9.6083 -3.1211
# 5 -9.3512 -8.7027 -30.2783 9.6083 52.4123 -17.4057
# 6 -0.7618 38.8934 17.9265 -3.1211 -17.4057 49.0326
#
#
#
# Elastic Compliance Matrix: (Units=1/GPa)
#
#
# Indices 1 2 3 4 5 6 
#
# 1 0.013015 -0.001600 -0.001503 0.000520 0.002012 0.002769
# 2 -0.001600 0.017036 -0.005963 0.004239 -0.006077 -0.013246
# 3 -0.001503 -0.005963 0.018637 -0.001691 0.010297 0.001440
# 4 0.000520 0.004239 -0.001691 0.016854 -0.004333 -0.003201
# 5 0.002012 -0.006077 0.010297 -0.004333 0.028842 0.011050
# 6 0.002769 -0.013246 0.001440 -0.003201 0.011050 0.034137
#
#
# Mechanical properties :
#
#
# Convention : Reuss Voigt Hill
#
# Bulk Modulus (GPa) = 32.72607 42.59120 37.65864
# Shear Modulus (GPa) = 31.88007 47.11082 39.49544
#
# Velocity S-wave (km/s) = 3.53245 4.29414 3.93178
# Velocity P-wave (km/s) = 5.42650 6.42315 5.94574
#
# Compressibility (1/GPa) = 0.03055667
#
# Stress axis : x y z
#
# Youngs Moduli (GPa) = 76.83601 58.69792 53.65595
#
# Poissons Ratio (x) = 0.09394 0.08062
# Poissons Ratio (y) = 0.12297 0.31994
# Poissons Ratio (z) = 0.11545 0.35000
#
# Static dielectric constant tensor:
#      x y z
#    x 2.326130 0.095450 0.036670 
#    y 0.095450 2.089060 -0.093750 
#    z 0.036670 -0.093750 1.972630 
# 
# From -- ./inp_files/15848.got.cif
#   From: 2010.05.17/outbox.cif.g08.bks.cpg/sg2_8_cif.got.tgz:15848.got - 2010.06.03 11:33:40.
