data_PCOD9027848
_publ_section_title
;
Structure prediction by ZEFSAII (Michael W. Deem and Ramdas Pophale) SiO2 
 PCOD9027848
Probable space group: P -1
;
_chemical_formula_sum "Si O2"
_cell_formula_units_Z 16
_cell_length_a 5.470341
_cell_length_b 18.154457
_cell_length_c 8.630731
_cell_angle_alpha 118.539061
_cell_angle_beta 64.366452
_cell_angle_gamma 107.337855
_cell_volume 674.342753
_symmetry_space_group_name_H-M "P -1"
_symmetry_group_IT_number 2
_symmetry_cell_setting 'triclinic'
loop_
_space_group_symop_operation_xyz
x,y,z
-x,-y,-z
loop_
_atom_site_type_symbol
_atom_site_label
_atom_site_fract_x
_atom_site_fract_y
_atom_site_fract_z
Si Si1 0.108850 0.065083 0.738803
Si Si2 0.862642 0.462232 0.841986
Si Si3 0.727143 0.104735 0.500700
Si Si4 0.153202 0.860892 0.835264
Si Si5 0.354756 0.377784 0.869792
Si Si6 0.630265 0.584220 0.465369
Si Si7 0.564330 0.759571 0.818734
Si Si8 0.111855 0.773370 0.195498
O O1 0.438696 0.087517 0.653083
O O2 0.974627 0.138839 0.762214
O O3 0.077726 0.968120 0.596106
O O4 0.969917 0.071973 0.951491
O O5 0.658158 0.379254 0.852627
O O6 0.054411 0.430657 0.630704
O O7 0.734882 0.547372 0.920797
O O8 0.000000 0.500000 0.000000
O O9 0.696547 0.101613 0.321670
O O10 0.852599 0.198523 0.608463
O O11 0.874804 0.800716 0.804431
O O12 0.379109 0.813164 0.814437
O O13 0.409979 0.404865 0.699814
O O14 0.132252 0.298437 0.847944
O O15 0.500000 0.500000 0.500000
O O16 0.563821 0.667531 0.652486
O O17 0.391205 0.755004 0.020347
#
# Coordination Sequence:
#
# PCOD9027848 Si02
#       8
#     2   2   2   2   2   2   2   2
#     4  10  24  44  66 109 141 187 242 298 357 429
#     4   9  21  43  64  98 131 172 234 282 347 421
#     4  11  23  43  74 100 143 191 239 295 363 427
#     4  11  25  48  71 106 145 190 240 298 360 425
#     4  10  22  41  69  97 132 184 234 284 357 425
#     4  11  24  42  65  96 138 179 230 290 356 422
#     4  11  26  47  68 106 144 185 242 300 354 428
#     4  11  23  44  70 100 142 186 237 300 354 428
#
# _framework density 23.726806
#
# number of rings (size 3 to 8) (size 9 to 14) (size 15 to 20)
#    0.000    1.500    1.250    2.250    5.250    2.500 
#   13.500    1.875    0.000    0.000    0.000    0.000 
#    0.000    0.000    0.000    0.000    0.000    0.000 
#
# Total GULP energy -89235.966308 kJ/mol
# GULP energy per Si atom -5577.247894 kJ/mol
# Density = 2.367280 g / cm^3
# Si number density = 23.726806 Si / 1000 Ang^3
#
#
#
# Elastic Constant Matrix: (Units=GPa)
#
#
# Indices 1 2 3 4 5 6 
#
# 1 40.6631 1.3781 5.6807 6.2703 -12.1383 14.4958
# 2 1.3781 69.2139 35.5414 12.3040 -2.7253 0.1627
# 3 5.6807 35.5414 156.3956 31.1743 -15.5603 -7.8922
# 4 6.2703 12.3040 31.1743 48.3598 -4.0488 5.5488
# 5 -12.1383 -2.7253 -15.5603 -4.0488 33.4122 2.6621
# 6 14.4958 0.1627 -7.8922 5.5488 2.6621 34.3090
#
#
#
# Elastic Compliance Matrix: (Units=1/GPa)
#
#
# Indices 1 2 3 4 5 6 
#
# 1 0.034347 0.000382 -0.000524 -0.001323 0.013336 -0.015455
# 2 0.000382 0.016552 -0.003444 -0.001987 -0.000301 -0.000687
# 3 -0.000524 -0.003444 0.008530 -0.004641 0.002721 0.002739
# 4 -0.001323 -0.001987 -0.004641 0.024921 0.000580 -0.004575
# 5 0.013336 -0.000301 0.002721 0.000580 0.036720 -0.007950
# 6 -0.015455 -0.000687 0.002739 -0.004575 -0.007950 0.037667
#
#
# Mechanical properties :
#
#
# Convention : Reuss Voigt Hill
#
# Bulk Modulus (GPa) = 19.13627 39.05257 29.09442
# Shear Modulus (GPa) = 27.27373 38.12771 32.70072
#
# Velocity S-wave (km/s) = 3.39409 4.01302 3.71646
# Velocity P-wave (km/s) = 4.84175 6.16177 5.54121
#
# Compressibility (1/GPa) = 0.05225678
#
# Stress axis : x y z
#
# Youngs Moduli (GPa) = 29.11465 60.41648 117.23786
#
# Poissons Ratio (x) = -0.02306 0.06138
# Poissons Ratio (y) = -0.01111 0.40375
# Poissons Ratio (z) = 0.01524 0.20807
#
# Static dielectric constant tensor:
#      x y z
#    x 2.541380 -0.209370 -0.065460 
#    y -0.209370 2.028370 0.006450 
#    z -0.065460 0.006450 1.891750 
# 
# From -- ./inp_files/48411.got.cif
#   From: 2010.05.17/outbox.cif.g08.bks.cpg/sg2_25_cif.got.tgz:48411.got - 2010.06.03 11:33:40.
