data_PCOD9027778
_publ_section_title
;
Structure prediction by ZEFSAII (Michael W. Deem and Ramdas Pophale) SiO2 
 PCOD9027778
Probable space group: P -1
;
_chemical_formula_sum "Si O2"
_cell_formula_units_Z 16
_cell_length_a 21.351726
_cell_length_b 8.395954
_cell_length_c 12.135956
_cell_angle_alpha 64.220505
_cell_angle_beta 140.330362
_cell_angle_gamma 144.488529
_cell_volume 690.595835
_symmetry_space_group_name_H-M "P -1"
_symmetry_group_IT_number 2
_symmetry_cell_setting 'triclinic'
loop_
_space_group_symop_operation_xyz
x,y,z
-x,-y,-z
loop_
_atom_site_type_symbol
_atom_site_label
_atom_site_fract_x
_atom_site_fract_y
_atom_site_fract_z
Si Si1 0.838329 0.275359 0.124007
Si Si2 0.498011 0.611728 0.573450
Si Si3 0.518587 0.916364 0.939286
Si Si4 0.053525 0.139763 0.706749
Si Si5 0.169615 0.642028 0.156630
Si Si6 0.622639 0.607149 0.956710
Si Si7 0.144128 0.469005 0.511836
Si Si8 0.112269 0.168847 0.212854
O O1 0.039369 0.497139 0.341917
O O2 0.825192 0.363399 0.966629
O O3 0.713864 0.192393 0.067786
O O4 0.727492 0.928010 0.055313
O O5 0.500000 0.500000 0.500000
O O6 0.509648 0.514301 0.730981
O O7 0.310568 0.421993 0.376259
O O8 0.656851 0.993733 0.677577
O O9 0.357452 0.763314 0.696112
O O10 0.467485 0.641912 0.994074
O O11 0.500000 0.000000 0.000000
O O12 0.096295 0.350242 0.609855
O O13 0.234685 0.310291 0.929942
O O14 0.939142 0.818578 0.583831
O O15 0.963175 0.064490 0.720138
O O16 0.126768 0.385134 0.220028
O O17 0.000000 0.500000 0.000000
O O18 0.000000 0.000000 0.000000
#
# Coordination Sequence:
#
# PCOD9027778 Si02
#       8
#     2   2   2   2   2   2   2   2
#     4  10  22  41  69  90 127 175 218 271 332 399
#     4  11  24  42  66  97 130 180 225 276 336 399
#     4  11  24  39  60  98 136 166 215 274 331 400
#     4   9  19  38  67  91 124 164 216 269 324 395
#     4  11  24  46  67  98 134 175 229 282 340 405
#     4   9  20  41  62  91 125 167 215 270 325 399
#     4   9  20  39  64  95 124 169 215 265 331 400
#     4  12  25  42  67  99 134 177 225 279 336 404
#
# _framework density 23.168399000000001
#
# number of rings (size 3 to 8) (size 9 to 14) (size 15 to 20)
#    0.000    1.750    0.000    5.250    5.250    3.500 
#    9.000    0.000    0.000    0.000    0.000    0.000 
#    0.000    0.000    0.000    0.000    0.000    0.000 
#
# Total GULP energy -89379.669136 kJ/mol
# GULP energy per Si atom -5586.229321 kJ/mol
# Density = 2.311567 g / cm^3
# Si number density = 23.168399 Si / 1000 Ang^3
#
#
#
# Elastic Constant Matrix: (Units=GPa)
#
#
# Indices 1 2 3 4 5 6 
#
# 1 95.0956 9.7528 22.7862 7.7562 2.2070 9.2758
# 2 9.7528 67.6102 16.7173 3.2436 -2.1026 10.3125
# 3 22.7862 16.7173 141.6826 17.8596 6.0992 -2.5460
# 4 7.7562 3.2436 17.8596 27.2218 8.4059 5.4006
# 5 2.2070 -2.1026 6.0992 8.4059 35.5120 -5.1873
# 6 9.2758 10.3125 -2.5460 5.4006 -5.1873 31.2061
#
#
#
# Elastic Compliance Matrix: (Units=1/GPa)
#
#
# Indices 1 2 3 4 5 6 
#
# 1 0.011405 -0.000720 -0.001618 -0.001278 -0.000634 -0.003168
# 2 -0.000720 0.016181 -0.001969 0.000481 0.000453 -0.005302
# 3 -0.001618 -0.001969 0.008264 -0.005349 0.000235 0.002771
# 4 -0.001278 0.000481 -0.005349 0.046053 -0.011346 -0.010071
# 5 -0.000634 0.000453 0.000235 -0.011346 0.031942 0.007331
# 6 -0.003168 -0.005302 0.002771 -0.010071 0.007331 0.037926
#
#
# Mechanical properties :
#
#
# Convention : Reuss Voigt Hill
#
# Bulk Modulus (GPa) = 36.71486 44.76677 40.74082
# Shear Modulus (GPa) = 29.50469 35.79678 32.65074
#
# Velocity S-wave (km/s) = 3.57247 3.93500 3.75811
# Velocity P-wave (km/s) = 5.73568 6.32534 6.03771
#
# Compressibility (1/GPa) = 0.02723692
#
# Stress axis : x y z
#
# Youngs Moduli (GPa) = 87.67898 61.80073 121.00081
#
# Poissons Ratio (x) = 0.04452 0.19575
# Poissons Ratio (y) = 0.06316 0.23822
# Poissons Ratio (z) = 0.14185 0.12167
#
# Static dielectric constant tensor:
#      x y z
#    x 1.877810 0.001010 -0.030460 
#    y 0.001010 1.949140 0.024450 
#    z -0.030460 0.024450 1.934630 
# 
# From -- ./inp_files/307819.got.cif
#   From: 2010.05.17/outbox.cif.g08.bks.cpg/sg2_154_cif.got.tgz:307819.got - 2010.06.03 11:33:40.
