data_PCOD9027544
_publ_section_title
;
Structure prediction by ZEFSAII (Michael W. Deem and Ramdas Pophale) SiO2 
 PCOD9027544
Probable space group: P -1
;
_chemical_formula_sum "Si O2"
_cell_formula_units_Z 14
_cell_length_a 12.106107
_cell_length_b 25.577238
_cell_length_c 9.974330
_cell_angle_alpha 155.288046
_cell_angle_beta 141.820248
_cell_angle_gamma 28.218412
_cell_volume 608.882122
_symmetry_space_group_name_H-M "P -1"
_symmetry_group_IT_number 2
_symmetry_cell_setting 'triclinic'
loop_
_space_group_symop_operation_xyz
x,y,z
-x,-y,-z
loop_
_atom_site_type_symbol
_atom_site_label
_atom_site_fract_x
_atom_site_fract_y
_atom_site_fract_z
Si Si1 0.027428 0.619706 0.734050
Si Si2 0.278705 0.903731 0.569040
Si Si3 0.984680 0.778774 0.323849
Si Si4 0.449235 0.689081 0.487982
Si Si5 0.839355 0.669300 0.165357
Si Si6 0.697292 0.831650 0.671144
Si Si7 0.601553 0.096538 0.831045
O O1 0.305933 0.492891 0.686116
O O2 0.000000 0.500000 0.500000
O O3 0.885034 0.690104 0.625248
O O4 0.924888 0.766188 0.084630
O O5 0.382964 0.754103 0.423006
O O6 0.463971 0.849403 0.498764
O O7 0.000000 0.000000 0.500000
O O8 0.316049 0.019647 0.948509
O O9 0.253857 0.689621 0.365514
O O10 0.943088 0.682722 0.161424
O O11 0.846438 0.961264 0.675891
O O12 0.422137 0.830393 0.876298
O O13 0.793435 0.792966 0.523029
O O14 0.582400 0.736457 0.038387
O O15 0.000000 0.500000 0.000000
O O16 0.500000 0.000000 0.500000
#
# Coordination Sequence:
#
# PCOD9027544 Si02
#       7
#     2   2   2   2   2   2   2
#     4  12  23  44  71  97 134 184 232 271 345 414
#     4  11  25  42  70 103 138 173 230 285 345 402
#     4  11  25  42  68 102 133 176 232 286 337 411
#     4  12  24  44  70 101 136 177 232 290 335 410
#     4  11  24  44  67  96 136 178 226 275 349 408
#     4  11  25  44  70  98 141 180 222 285 347 407
#     4  10  22  41  68  93 132 179 226 265 335 416
#
# _framework density 22.992957000000001
#
# number of rings (size 3 to 8) (size 9 to 14) (size 15 to 20)
#    0.000    0.857    1.429    6.857    6.000    0.000 
#    0.000    1.429    0.000    0.000    0.000    0.000 
#    0.000    0.000    0.000    0.000    0.000    0.000 
#
# Total GULP energy -78133.059918 kJ/mol
# GULP energy per Si atom -5580.932851 kJ/mol
# Density = 2.294062 g / cm^3
# Si number density = 22.992957 Si / 1000 Ang^3
#
#
#
# Elastic Constant Matrix: (Units=GPa)
#
#
# Indices 1 2 3 4 5 6 
#
# 1 106.9876 53.8253 23.6979 -8.0679 -10.0695 -22.6903
# 2 53.8253 144.4460 -0.2048 4.3938 1.6044 -3.8360
# 3 23.6979 -0.2048 80.1472 -4.3178 -15.1567 0.6221
# 4 -8.0679 4.3938 -4.3178 34.4052 3.3884 -1.5347
# 5 -10.0695 1.6044 -15.1567 3.3884 30.6834 -6.0863
# 6 -22.6903 -3.8360 0.6221 -1.5347 -6.0863 42.1045
#
#
#
# Elastic Compliance Matrix: (Units=1/GPa)
#
#
# Indices 1 2 3 4 5 6 
#
# 1 0.015690 -0.005790 -0.003565 0.003872 0.005018 0.008847
# 2 -0.005790 0.009103 0.001247 -0.002283 -0.002041 -0.002688
# 3 -0.003565 0.001247 0.014641 0.000224 0.005737 -0.001187
# 4 0.003872 -0.002283 0.000224 0.030548 -0.001318 0.002798
# 5 0.005018 -0.002041 0.005737 -0.001318 0.038913 0.008010
# 6 0.008847 -0.002688 -0.001187 0.002798 0.008010 0.029551
#
#
# Mechanical properties :
#
#
# Convention : Reuss Voigt Hill
#
# Bulk Modulus (GPa) = 43.07116 54.02418 48.54767
# Shear Modulus (GPa) = 30.78803 38.38945 34.58874
#
# Velocity S-wave (km/s) = 3.66323 4.09053 3.88276
# Velocity P-wave (km/s) = 6.05519 6.77177 6.42348
#
# Compressibility (1/GPa) = 0.02321739
#
# Stress axis : x y z
#
# Youngs Moduli (GPa) = 63.73365 109.85191 68.30347
#
# Poissons Ratio (x) = 0.63608 0.24352
# Poissons Ratio (y) = 0.36904 -0.08519
# Poissons Ratio (z) = 0.22722 -0.13701
#
# Static dielectric constant tensor:
#      x y z
#    x 1.968150 -0.119000 -0.074230 
#    y -0.119000 2.029030 0.056660 
#    z -0.074230 0.056660 1.984750 
# 
# From -- ./inp_files/262869.got.cif
#   From: 2010.05.17/outbox.cif.g08.bks.cpg/sg2_132_cif.got.tgz:262869.got - 2010.06.03 11:33:40.
