data_PCOD9027872
_publ_section_title
;
Structure prediction by ZEFSAII (Michael W. Deem and Ramdas Pophale) SiO2 
 PCOD9027872
Probable space group: P -1
;
_chemical_formula_sum "Si O2"
_cell_formula_units_Z 16
_cell_length_a 12.485355
_cell_length_b 15.246413
_cell_length_c 9.283763
_cell_angle_alpha 109.185865
_cell_angle_beta 127.143243
_cell_angle_gamma 114.165763
_cell_volume 785.086701
_symmetry_space_group_name_H-M "P -1"
_symmetry_group_IT_number 2
_symmetry_cell_setting 'triclinic'
loop_
_space_group_symop_operation_xyz
x,y,z
-x,-y,-z
loop_
_atom_site_type_symbol
_atom_site_label
_atom_site_fract_x
_atom_site_fract_y
_atom_site_fract_z
Si Si1 0.913473 0.567877 0.336815
Si Si2 0.617750 0.245951 0.093621
Si Si3 0.814061 0.911327 0.179520
Si Si4 0.086822 0.125260 0.249244
Si Si5 0.612505 0.150858 0.750223
Si Si6 0.910726 0.663831 0.668641
Si Si7 0.496853 0.394050 0.380817
Si Si8 0.577103 0.336721 0.709925
O O1 0.757461 0.403127 0.203124
O O2 0.900061 0.646298 0.477828
O O3 0.177820 0.686199 0.612340
O O4 0.795043 0.506201 0.053115
O O5 0.411074 0.167614 0.978542
O O6 0.523132 0.125921 0.825165
O O7 0.735292 0.770233 0.968144
O O8 0.000000 0.000000 0.500000
O O9 0.930191 0.034221 0.212958
O O10 0.073057 0.218952 0.219756
O O11 0.350133 0.246996 0.558285
O O12 0.000000 0.000000 0.000000
O O13 0.590132 0.232888 0.683963
O O14 0.500000 0.000000 0.500000
O O15 0.874708 0.271876 0.060742
O O16 0.688743 0.497855 0.471187
O O17 0.500000 0.500000 0.500000
O O18 0.551270 0.355121 0.535277
#
# Coordination Sequence:
#
# PCOD9027872 Si02
#       8
#     2   2   2   2   2   2   2   2
#     4   9  19  39  66  95 125 171 222 278 331 400
#     4   9  19  40  65  95 134 170 222 278 336 396
#     4  12  25  42  69  99 138 183 226 284 348 402
#     4  12  24  43  65  97 142 178 221 280 348 403
#     4  10  22  41  69  98 136 180 224 272 350 416
#     4  11  23  42  68  96 132 179 226 282 336 405
#     4  12  25  44  66 102 138 174 235 288 329 405
#     4  11  23  41  68  97 133 177 225 278 341 397
#
# _framework density 20.379916000000001
#
# number of rings (size 3 to 8) (size 9 to 14) (size 15 to 20)
#    0.000    1.250    3.750    3.000    0.000    3.000 
#    0.000    2.500    0.000    0.000    0.000    0.000 
#    0.000    0.000    0.000    0.000    0.000    0.000 
#
# Total GULP energy -89365.763527 kJ/mol
# GULP energy per Si atom -5585.360220 kJ/mol
# Density = 2.033353 g / cm^3
# Si number density = 20.379916 Si / 1000 Ang^3
#
#
#
# Elastic Constant Matrix: (Units=GPa)
#
#
# Indices 1 2 3 4 5 6 
#
# 1 101.6900 41.9353 50.9818 4.3402 -0.5384 -8.8082
# 2 41.9353 91.5247 37.9514 -1.6810 5.0560 -4.3246
# 3 50.9818 37.9514 117.3867 -7.1230 -15.1232 1.6115
# 4 4.3402 -1.6810 -7.1230 24.3670 -0.5989 2.4222
# 5 -0.5384 5.0560 -15.1232 -0.5989 36.2242 5.8360
# 6 -8.8082 -4.3246 1.6115 2.4222 5.8360 36.0495
#
#
#
# Elastic Compliance Matrix: (Units=1/GPa)
#
#
# Indices 1 2 3 4 5 6 
#
# 1 0.015094 -0.004252 -0.005859 -0.005168 -0.002386 0.004173
# 2 -0.004252 0.014528 -0.003311 0.000561 -0.003692 0.001412
# 3 -0.005859 -0.003311 0.013365 0.005269 0.006664 -0.003859
# 4 -0.005168 0.000561 0.005269 0.044121 0.003576 -0.004974
# 5 -0.002386 -0.003692 0.006664 0.003576 0.032014 -0.006747
# 6 0.004173 0.001412 -0.003859 -0.004974 -0.006747 0.030528
#
#
# Mechanical properties :
#
#
# Convention : Reuss Voigt Hill
#
# Bulk Modulus (GPa) = 61.94767 63.59317 62.77042
# Shear Modulus (GPa) = 27.49122 31.31033 29.40077
#
# Velocity S-wave (km/s) = 3.67677 3.92386 3.80232
# Velocity P-wave (km/s) = 6.96328 7.19726 7.08123
#
# Compressibility (1/GPa) = 0.01614266
#
# Stress axis : x y z
#
# Youngs Moduli (GPa) = 66.25034 68.83104 74.82121
#
# Poissons Ratio (x) = 0.29270 0.43838
# Poissons Ratio (y) = 0.28172 0.24774
# Poissons Ratio (z) = 0.38816 0.22791
#
# Static dielectric constant tensor:
#      x y z
#    x 1.757400 -0.000400 -0.020030 
#    y -0.000400 1.716990 -0.001360 
#    z -0.020030 -0.001360 1.746400 
# 
# From -- ./inp_files/273917.got.cif
#   From: 2010.05.17/outbox.cif.g08.bks.cpg/sg2_137_cif.got.tgz:273917.got - 2010.06.03 11:33:40.
