data_PCOD9027551
_publ_section_title
;
Structure prediction by ZEFSAII (Michael W. Deem and Ramdas Pophale) SiO2 
 PCOD9027551
Probable space group: P -1
;
_chemical_formula_sum "Si O2"
_cell_formula_units_Z 16
_cell_length_a 18.780973
_cell_length_b 7.263152
_cell_length_c 6.990089
_cell_angle_alpha 121.534286
_cell_angle_beta 99.036941
_cell_angle_gamma 56.315252
_cell_volume 664.254761
_symmetry_space_group_name_H-M "P -1"
_symmetry_group_IT_number 2
_symmetry_cell_setting 'triclinic'
loop_
_space_group_symop_operation_xyz
x,y,z
-x,-y,-z
loop_
_atom_site_type_symbol
_atom_site_label
_atom_site_fract_x
_atom_site_fract_y
_atom_site_fract_z
Si Si1 0.544849 0.191937 0.831287
Si Si2 0.736769 0.319926 0.198544
Si Si3 0.606057 0.865505 0.317577
Si Si4 0.837012 0.510380 0.561729
Si Si5 0.708024 0.882175 0.018400
Si Si6 0.823092 0.996405 0.728757
Si Si7 0.019663 0.200552 0.036271
Si Si8 0.033973 0.248802 0.626606
O O1 0.574608 0.104244 0.577239
O O2 0.475430 0.118722 0.803573
O O3 0.500000 0.500000 0.000000
O O4 0.627353 0.029151 0.916210
O O5 0.808663 0.350014 0.343735
O O6 0.734196 0.089634 0.168686
O O7 0.748432 0.257924 0.940087
O O8 0.649965 0.607802 0.330060
O O9 0.673585 0.838647 0.175449
O O10 0.941410 0.348394 0.544292
O O11 0.786576 0.621608 0.804246
O O12 0.801460 0.781812 0.579543
O O13 0.890836 0.878379 0.871352
O O14 0.000000 0.000000 0.000000
O O15 0.025178 0.191241 0.807465
O O16 0.881927 0.982246 0.573201
O O17 0.956873 0.505305 0.231474
#
# Coordination Sequence:
#
# PCOD9027551 Si02
#       8
#     2   2   2   2   2   2   2   2
#     4  11  23  46  76 103 139 174 227 277 330 412
#     4  11  24  46  66 100 144 178 229 279 338 409
#     4  11  25  45  73 104 137 184 217 279 338 403
#     4  10  22  45  69  94 143 182 222 290 336 400
#     4  11  24  46  68 105 139 178 229 271 343 404
#     4  10  24  43  67  98 134 181 233 290 333 398
#     4  10  22  41  68  94 124 170 233 285 339 403
#     4  10  23  46  66  96 136 178 234 290 338 393
#
# _framework density 24.087145
#
# number of rings (size 3 to 8) (size 9 to 14) (size 15 to 20)
#    0.000    1.500    2.500    1.875    3.500    3.000 
#    9.000    1.250    0.000    0.000    0.000    0.000 
#    0.000    0.000    0.000    0.000    0.000    0.000 
#
# Total GULP energy -89558.922123 kJ/mol
# GULP energy per Si atom -5597.432633 kJ/mol
# Density = 2.403232 g / cm^3
# Si number density = 24.087145 Si / 1000 Ang^3
#
#
#
# Elastic Constant Matrix: (Units=GPa)
#
#
# Indices 1 2 3 4 5 6 
#
# 1 136.4139 8.8119 62.5246 1.9788 -3.6090 21.4024
# 2 8.8119 52.5903 23.6487 4.8847 9.8824 9.2070
# 3 62.5246 23.6487 159.4589 21.0420 9.0151 14.0337
# 4 1.9788 4.8847 21.0420 41.3326 -5.2519 -2.2585
# 5 -3.6090 9.8824 9.0151 -5.2519 55.4270 -2.0235
# 6 21.4024 9.2070 14.0337 -2.2585 -2.0235 29.8063
#
#
#
# Elastic Compliance Matrix: (Units=1/GPa)
#
#
# Indices 1 2 3 4 5 6 
#
# 1 0.009834 0.000648 -0.003693 0.001172 0.001041 -0.005363
# 2 0.000648 0.022108 -0.002429 -0.002270 -0.003960 -0.006591
# 3 -0.003693 -0.002429 0.008853 -0.004325 -0.001701 -0.001209
# 4 0.001172 -0.002270 -0.004325 0.027339 0.003930 0.004234
# 5 0.001041 -0.003960 -0.001701 0.003930 0.019571 0.002903
# 6 -0.005363 -0.006591 -0.001209 0.004234 0.002903 0.040524
#
#
# Mechanical properties :
#
#
# Convention : Reuss Voigt Hill
#
# Bulk Modulus (GPa) = 33.50711 59.82594 46.66653
# Shear Modulus (GPa) = 33.52885 42.21173 37.87029
#
# Velocity S-wave (km/s) = 3.73497 4.19078 3.96942
# Velocity P-wave (km/s) = 5.70447 6.95040 6.35803
#
# Compressibility (1/GPa) = 0.02984441
#
# Stress axis : x y z
#
# Youngs Moduli (GPa) = 101.69286 45.23320 112.95601
#
# Poissons Ratio (x) = -0.02929 0.41719
# Poissons Ratio (y) = -0.06585 0.27437
# Poissons Ratio (z) = 0.37559 0.10987
#
# Static dielectric constant tensor:
#      x y z
#    x 1.978500 -0.020480 -0.008100 
#    y -0.020480 1.922300 0.039090 
#    z -0.008100 0.039090 1.985160 
# 
# From -- ./inp_files/474612.got.cif
#   From: 2010.05.17/outbox.cif.g08.bks.cpg/sg2_238_cif.got.tgz:474612.got - 2010.06.03 11:33:40.
