data_PCOD9027713
_publ_section_title
;
Structure prediction by ZEFSAII (Michael W. Deem and Ramdas Pophale) SiO2 
 PCOD9027713
Probable space group: P -1
;
_chemical_formula_sum "Si O2"
_cell_formula_units_Z 16
_cell_length_a 9.445650
_cell_length_b 12.454618
_cell_length_c 8.230370
_cell_angle_alpha 50.865373
_cell_angle_beta 91.953779
_cell_angle_gamma 100.283737
_cell_volume 735.035554
_symmetry_space_group_name_H-M "P -1"
_symmetry_group_IT_number 2
_symmetry_cell_setting 'triclinic'
loop_
_space_group_symop_operation_xyz
x,y,z
-x,-y,-z
loop_
_atom_site_type_symbol
_atom_site_label
_atom_site_fract_x
_atom_site_fract_y
_atom_site_fract_z
Si Si1 0.750988 0.779261 0.565131
Si Si2 0.198885 0.496573 0.649372
Si Si3 0.541732 0.954421 0.868514
Si Si4 0.430016 0.735610 0.549862
Si Si5 0.078142 0.933186 0.712543
Si Si6 0.105214 0.461679 0.308862
Si Si7 0.705565 0.266409 0.112471
Si Si8 0.775697 0.793892 0.935306
O O1 0.592860 0.714645 0.553127
O O2 0.862209 0.676997 0.642574
O O3 0.733634 0.800655 0.737078
O O4 0.814097 0.930457 0.341648
O O5 0.319834 0.639118 0.516958
O O6 0.143911 0.454085 0.507276
O O7 0.060699 0.522824 0.721496
O O8 0.257343 0.367023 0.853315
O O9 0.415625 0.834234 0.903578
O O10 0.685558 0.890356 0.935073
O O11 0.565583 0.097615 0.626810
O O12 0.500000 0.000000 0.000000
O O13 0.370288 0.692393 0.768237
O O14 0.174163 0.826152 0.754980
O O15 0.948470 0.853196 0.896031
O O16 0.000000 0.000000 0.500000
O O17 0.210892 0.596376 0.108216
#
# Coordination Sequence:
#
# PCOD9027713 Si02
#       8
#     2   2   2   2   2   2   2   2
#     4  11  24  43  70 102 135 174 230 277 334 396
#     4  11  27  46  66  99 141 177 225 275 347 403
#     4  12  27  45  69 104 141 176 217 279 348 404
#     4  12  25  43  71 102 133 180 224 284 329 407
#     4  10  22  41  69 102 131 172 224 284 330 388
#     4  11  27  46  66  99 138 182 222 280 337 406
#     4  12  23  46  71  98 137 177 231 279 332 396
#     4  11  24  45  70 102 131 180 228 277 330 408
#
# _framework density 21.767655999999999
#
# number of rings (size 3 to 8) (size 9 to 14) (size 15 to 20)
#    0.000    0.750    3.750    3.375    8.750    2.500 
#    0.000    1.250    0.000    0.000    0.000    0.000 
#    0.000    0.000    0.000    0.000    0.000    0.000 
#
# Total GULP energy -89555.400046 kJ/mol
# GULP energy per Si atom -5597.212503 kJ/mol
# Density = 2.171811 g / cm^3
# Si number density = 21.767656 Si / 1000 Ang^3
#
#
#
# Elastic Constant Matrix: (Units=GPa)
#
#
# Indices 1 2 3 4 5 6 
#
# 1 77.6210 0.6691 8.0408 4.2175 -9.5549 -6.9642
# 2 0.6691 53.5601 4.5256 2.7284 -5.9454 -8.5999
# 3 8.0408 4.5256 24.8528 -27.4845 -8.7259 -4.5121
# 4 4.2175 2.7284 -27.4845 32.3596 -0.6940 -2.7105
# 5 -9.5549 -5.9454 -8.7259 -0.6940 27.6489 -8.0712
# 6 -6.9642 -8.5999 -4.5121 -2.7105 -8.0712 45.4842
#
#
#
# Elastic Compliance Matrix: (Units=1/GPa)
#
#
# Indices 1 2 3 4 5 6 
#
# 1 0.012129 -0.000112 0.020363 0.016606 0.013104 0.007171
# 2 -0.000112 0.019418 0.013269 0.010508 0.010780 0.007510
# 3 0.020363 0.013269 -0.222379 -0.197828 -0.077512 -0.041977
# 4 0.016606 0.010508 -0.197828 -0.144647 -0.068540 -0.035878
# 5 0.013104 0.010780 -0.077512 -0.068540 0.015371 -0.005001
# 6 0.007171 0.007510 -0.041977 -0.035878 -0.005001 0.017314
#
#
# Mechanical properties :
#
#
# Convention : Reuss Voigt Hill
#
# Bulk Modulus (GPa) = -8.07806 20.27831 6.10013
# Shear Modulus (GPa) = -12.16256 30.61843 9.22793
#
# Velocity S-wave (km/s) = -2.36634 3.75454 2.06119
# Velocity P-wave (km/s) = 3.34443 5.30391 2.91086
#
# Compressibility (1/GPa) = -0.12379211
#
# Stress axis : x y z
#
# Youngs Moduli (GPa) = 82.44779 51.49847 -4.49683
#
# Poissons Ratio (x) = 0.00577 0.09157
# Poissons Ratio (y) = 0.00924 0.05967
# Poissons Ratio (z) = -1.67888 -0.68334
#
# Static dielectric constant tensor:
#      x y z
#    x 1.798250 0.035670 -0.014590 
#    y 0.035670 1.775700 -0.000230 
#    z -0.014590 -0.000230 1.783460 
# 
# From -- ./inp_files/158735.got.cif
#   From: 2010.05.17/outbox.cif.g08.bks.cpg/sg2_80_cif.got.tgz:158735.got - 2010.06.03 11:33:40.
