data_PCOD9027672
_publ_section_title
;
Structure prediction by ZEFSAII (Michael W. Deem and Ramdas Pophale) SiO2 
 PCOD9027672
Probable space group: P -1
;
_chemical_formula_sum "Si O2"
_cell_formula_units_Z 14
_cell_length_a 9.343447
_cell_length_b 9.221112
_cell_length_c 18.937181
_cell_angle_alpha 149.702717
_cell_angle_beta 52.251151
_cell_angle_gamma 120.845948
_cell_volume 650.316686
_symmetry_space_group_name_H-M "P -1"
_symmetry_group_IT_number 2
_symmetry_cell_setting 'triclinic'
loop_
_space_group_symop_operation_xyz
x,y,z
-x,-y,-z
loop_
_atom_site_type_symbol
_atom_site_label
_atom_site_fract_x
_atom_site_fract_y
_atom_site_fract_z
Si Si1 0.362655 0.259240 0.676022
Si Si2 0.468798 0.123074 0.137807
Si Si3 0.813237 0.614957 0.573228
Si Si4 0.066582 0.559613 0.806036
Si Si5 0.402048 0.921145 0.654897
Si Si6 0.725727 0.906081 0.076209
Si Si7 0.165211 0.181655 0.499020
O O1 0.452601 0.557543 0.756961
O O2 0.171874 0.310002 0.714281
O O3 0.500000 0.000000 0.500000
O O4 0.341579 0.185772 0.733658
O O5 0.272968 0.202576 0.260284
O O6 0.550941 0.899172 0.076796
O O7 0.500000 0.000000 0.000000
O O8 0.686231 0.362263 0.473056
O O9 0.840975 0.809649 0.578892
O O10 0.000000 0.500000 0.500000
O O11 0.103223 0.480808 0.680310
O O12 0.166381 0.860997 0.905426
O O13 0.860167 0.626721 0.918542
O O14 0.623175 0.886181 0.573115
O O15 0.334112 0.982776 0.781341
O O16 0.000000 0.000000 0.500000
#
# Coordination Sequence:
#
# PCOD9027672 Si02
#       7
#     2   2   2   2   2   2   2
#     4  11  22  40  73 103 136 192 242 295 358 425
#     4  11  25  45  69 101 148 188 236 304 370 420
#     4  12  27  43  73 109 139 190 248 296 363 438
#     4  10  22  41  68  99 137 181 242 289 360 426
#     4  12  23  47  75  98 146 190 245 296 363 438
#     4  10  22  44  71  97 134 197 235 291 365 437
#     4  12  26  43  70 105 140 188 247 299 353 432
#
# _framework density 21.527971999999998
#
# number of rings (size 3 to 8) (size 9 to 14) (size 15 to 20)
#    0.000    0.857    5.714    1.286    6.000    1.714 
#    2.571    1.429    0.000    0.000    0.000    0.000 
#    0.000    0.000    0.000    0.000    0.000    0.000 
#
# Total GULP energy -78002.943623 kJ/mol
# GULP energy per Si atom -5571.638830 kJ/mol
# Density = 2.147897 g / cm^3
# Si number density = 21.527972 Si / 1000 Ang^3
#
#
#
# Elastic Constant Matrix: (Units=GPa)
#
#
# Indices 1 2 3 4 5 6 
#
# 1 125.3699 51.9548 75.3283 -19.1542 -27.5802 -10.0559
# 2 51.9548 105.4425 31.6100 -21.7275 -14.4675 -15.2059
# 3 75.3283 31.6100 147.4874 -38.5160 -34.7724 -14.1881
# 4 -19.1542 -21.7275 -38.5160 43.1227 -1.7632 4.7191
# 5 -27.5802 -14.4675 -34.7724 -1.7632 32.8076 -9.3586
# 6 -10.0559 -15.2059 -14.1881 4.7191 -9.3586 33.6560
#
#
#
# Elastic Compliance Matrix: (Units=1/GPa)
#
#
# Indices 1 2 3 4 5 6 
#
# 1 0.014008 -0.004681 -0.005099 -0.000643 0.004644 0.001303
# 2 -0.004681 0.015204 0.005406 0.009836 0.011779 0.009646
# 3 -0.005099 0.005406 0.019682 0.017547 0.023709 0.013349
# 4 -0.000643 0.009836 0.017547 0.043220 0.028578 0.013535
# 5 0.004644 0.011779 0.023709 0.028578 0.075886 0.033798
# 6 0.001303 0.009646 0.013349 0.013535 0.033798 0.047587
#
#
# Mechanical properties :
#
#
# Convention : Reuss Voigt Hill
#
# Bulk Modulus (GPa) = 24.90937 77.34288 51.12613
# Shear Modulus (GPa) = 21.03349 36.54436 28.78893
#
# Velocity S-wave (km/s) = 3.12914 4.12458 3.66085
# Velocity P-wave (km/s) = 4.96500 7.66078 6.45518
#
# Compressibility (1/GPa) = 0.04014553
#
# Stress axis : x y z
#
# Youngs Moduli (GPa) = 71.38869 65.77374 50.80727
#
# Poissons Ratio (x) = 0.30789 0.25906
# Poissons Ratio (y) = 0.33417 -0.27466
# Poissons Ratio (z) = 0.36400 -0.35556
#
# Static dielectric constant tensor:
#      x y z
#    x 1.928990 0.045680 0.072210 
#    y 0.045680 1.769170 0.178730 
#    z 0.072210 0.178730 1.619070 
# 
# From -- ./inp_files/243376.got.cif
#   From: 2010.05.17/outbox.cif.g08.bks.cpg/sg2_122_cif.got.tgz:243376.got - 2010.06.03 11:33:40.
