data_PCOD9027147
_publ_section_title
;
Structure prediction by ZEFSAII (Michael W. Deem and Ramdas Pophale) SiO2 
 PCOD9027147
Probable space group: P -1
;
_chemical_formula_sum "Si O2"
_cell_formula_units_Z 14
_cell_length_a 12.107839
_cell_length_b 11.123321
_cell_length_c 11.631768
_cell_angle_alpha 142.335424
_cell_angle_beta 133.482671
_cell_angle_gamma 41.945172
_cell_volume 620.609226
_symmetry_space_group_name_H-M "P -1"
_symmetry_group_IT_number 2
_symmetry_cell_setting 'triclinic'
loop_
_space_group_symop_operation_xyz
x,y,z
-x,-y,-z
loop_
_atom_site_type_symbol
_atom_site_label
_atom_site_fract_x
_atom_site_fract_y
_atom_site_fract_z
Si Si1 0.921038 0.969768 0.092939
Si Si2 0.097538 0.824913 0.337753
Si Si3 0.625712 0.048611 0.480594
Si Si4 0.597743 0.618701 0.730066
Si Si5 0.066946 0.671667 0.766215
Si Si6 0.542735 0.080515 0.924916
Si Si7 0.717221 0.719437 0.491060
O O1 0.961132 0.871267 0.173984
O O2 0.052987 0.800079 0.969544
O O3 0.725624 0.037409 0.973809
O O4 0.943307 0.186639 0.247490
O O5 0.238978 0.884605 0.426395
O O6 0.207410 0.572360 0.264778
O O7 0.000000 0.000000 0.500000
O O8 0.592787 0.888465 0.247796
O O9 0.438451 0.249280 0.517480
O O10 0.677156 0.943666 0.564379
O O11 0.500000 0.500000 0.500000
O O12 0.574939 0.844373 0.824182
O O13 0.520400 0.720221 0.877383
O O14 0.897122 0.637631 0.621647
O O15 0.240826 0.457398 0.712863
#
# Coordination Sequence:
#
# PCOD9027147 Si02
#       7
#     2   2   2   2   2   2   2
#     4  11  24  43  63 102 137 175 225 287 339 416
#     4  12  27  44  69 100 143 183 228 288 351 409
#     4  11  23  44  66 103 134 175 231 285 334 418
#     4  11  25  46  69  98 134 181 234 282 336 405
#     4  10  22  41  66  99 135 178 223 283 347 402
#     4  11  25  44  71  98 135 182 232 277 343 413
#     4  10  22  41  68  98 133 180 227 278 347 403
#
# _framework density 22.558478999999998
#
# number of rings (size 3 to 8) (size 9 to 14) (size 15 to 20)
#    0.000    1.143    4.286    0.857    6.000    2.857 
#    0.000    1.429    0.000    0.000    0.000    0.000 
#    0.000    0.000    0.000    0.000    0.000    0.000 
#
# Total GULP energy -78126.903051 kJ/mol
# GULP energy per Si atom -5580.493075 kJ/mol
# Density = 2.250713 g / cm^3
# Si number density = 22.558479 Si / 1000 Ang^3
#
#
#
# Elastic Constant Matrix: (Units=GPa)
#
#
# Indices 1 2 3 4 5 6 
#
# 1 79.8729 -0.5848 8.1173 17.1684 -4.5890 -17.6981
# 2 -0.5848 58.5768 16.2868 20.6484 -14.3746 10.4951
# 3 8.1173 16.2868 81.2076 17.9500 -5.4545 -0.5229
# 4 17.1684 20.6484 17.9500 38.6348 -9.5468 -11.8893
# 5 -4.5890 -14.3746 -5.4545 -9.5468 39.6596 -2.2262
# 6 -17.6981 10.4951 -0.5229 -11.8893 -2.2262 28.7026
#
#
#
# Elastic Compliance Matrix: (Units=1/GPa)
#
#
# Indices 1 2 3 4 5 6 
#
# 1 0.015233 0.000865 -0.000596 -0.004351 0.001360 0.007369
# 2 0.000865 0.028520 -0.001353 -0.019249 0.004633 -0.017534
# 3 -0.000596 -0.001353 0.013999 -0.006270 -0.000269 -0.002236
# 4 -0.004351 -0.019249 -0.006270 0.050104 0.005144 0.025395
# 5 0.001360 0.004633 -0.000269 0.005144 0.028448 0.003477
# 6 0.007369 -0.017534 -0.002236 0.025395 0.003477 0.056543
#
#
# Mechanical properties :
#
#
# Convention : Reuss Voigt Hill
#
# Bulk Modulus (GPa) = 17.99076 29.69956 23.84516
# Shear Modulus (GPa) = 23.41453 34.45525 28.93489
#
# Velocity S-wave (km/s) = 3.22522 3.91240 3.58531
# Velocity P-wave (km/s) = 4.67566 5.79684 5.26618
#
# Compressibility (1/GPa) = 0.05558410
#
# Stress axis : x y z
#
# Youngs Moduli (GPa) = 65.64743 35.06251 71.43580
#
# Poissons Ratio (x) = -0.03033 0.04255
# Poissons Ratio (y) = -0.05678 0.09668
# Poissons Ratio (z) = 0.03910 0.04745
#
# Static dielectric constant tensor:
#      x y z
#    x 1.813260 0.026120 -0.001900 
#    y 0.026120 1.936810 0.001950 
#    z -0.001900 0.001950 1.918700 
# 
# From -- ./inp_files/426620.got.cif
#   From: 2010.05.17/outbox.cif.g08.bks.cpg/sg2_214_cif.got.tgz:426620.got - 2010.06.03 11:33:40.
