data_PCOD9027800
_publ_section_title
;
Structure prediction by ZEFSAII (Michael W. Deem and Ramdas Pophale) SiO2 
 PCOD9027800
Probable space group: P -1
;
_chemical_formula_sum "Si O2"
_cell_formula_units_Z 14
_cell_length_a 8.918449
_cell_length_b 11.441526
_cell_length_c 18.237065
_cell_angle_alpha 148.571910
_cell_angle_beta 54.920333
_cell_angle_gamma 139.306451
_cell_volume 618.216802
_symmetry_space_group_name_H-M "P -1"
_symmetry_group_IT_number 2
_symmetry_cell_setting 'triclinic'
loop_
_space_group_symop_operation_xyz
x,y,z
-x,-y,-z
loop_
_atom_site_type_symbol
_atom_site_label
_atom_site_fract_x
_atom_site_fract_y
_atom_site_fract_z
Si Si1 0.888676 0.707063 0.976165
Si Si2 0.971554 0.779549 0.698584
Si Si3 0.702812 0.842399 0.312938
Si Si4 0.351146 0.803027 0.864975
Si Si5 0.505781 0.302735 0.990045
Si Si6 0.730997 0.779102 0.438522
Si Si7 0.391982 0.848200 0.589064
O O1 0.688181 0.455203 0.952487
O O2 0.732003 0.738080 0.981946
O O3 0.048206 0.013663 0.138482
O O4 0.075812 0.667313 0.876505
O O5 0.763534 0.445389 0.572702
O O6 0.206791 0.826236 0.683319
O O7 0.049820 0.909041 0.663396
O O8 0.631872 0.541528 0.146618
O O9 0.707269 0.861246 0.407472
O O10 0.532851 0.889199 0.343995
O O11 0.362560 0.545784 0.711552
O O12 0.500000 0.000000 0.000000
O O13 0.452308 0.018489 0.883281
O O14 0.589255 0.843642 0.563885
O O15 0.000000 0.000000 0.500000
#
# Coordination Sequence:
#
# PCOD9027800 Si02
#       7
#     2   2   2   2   2   2   2
#     4  10  22  41  69  94 123 161 224 269 301 367
#     4   8  18  37  68  88 111 157 220 257 303 355
#     4   9  19  40  62  87 117 163 213 252 310 361
#     4  12  25  43  63  96 137 168 206 253 330 391
#     4  10  22  42  67  96 118 167 220 267 309 361
#     4  12  26  39  58  93 132 165 198 253 324 381
#     4   9  19  40  64  85 120 160 210 252 307 374
#
# _framework density 22.645778
#
# number of rings (size 3 to 8) (size 9 to 14) (size 15 to 20)
#    0.857    1.143    1.429    1.714    2.000    1.714 
#    2.571    0.714    0.000    0.000    0.000    0.000 
#    0.000    0.000    0.000    0.000    0.000    0.000 
#
# Total GULP energy -78115.603964 kJ/mol
# GULP energy per Si atom -5579.685997 kJ/mol
# Density = 2.259424 g / cm^3
# Si number density = 22.645778 Si / 1000 Ang^3
#
#
#
# Elastic Constant Matrix: (Units=GPa)
#
#
# Indices 1 2 3 4 5 6 
#
# 1 62.1384 18.0315 8.4275 5.2094 -15.4615 10.4054
# 2 18.0315 44.2561 19.2361 12.7323 -3.1080 0.4163
# 3 8.4275 19.2361 75.1171 20.5008 -22.9943 -3.7873
# 4 5.2094 12.7323 20.5008 30.7781 1.8541 -6.6441
# 5 -15.4615 -3.1080 -22.9943 1.8541 31.9779 -3.5939
# 6 10.4054 0.4163 -3.7873 -6.6441 -3.5939 32.8838
#
#
#
# Elastic Compliance Matrix: (Units=1/GPa)
#
#
# Indices 1 2 3 4 5 6 
#
# 1 0.022853 -0.008864 0.005086 -0.005744 0.013479 -0.006221
# 2 -0.008864 0.030619 -0.007017 -0.006194 -0.006031 -0.000301
# 3 0.005086 -0.007017 0.025358 -0.016014 0.020992 0.000459
# 4 -0.005744 -0.006194 -0.016014 0.049478 -0.016841 0.008208
# 5 0.013479 -0.006031 0.020992 -0.016841 0.053347 0.000657
# 6 -0.006221 -0.000301 0.000459 0.008208 0.000657 0.034165
#
#
# Mechanical properties :
#
#
# Convention : Reuss Voigt Hill
#
# Bulk Modulus (GPa) = 17.47062 30.32242 23.89652
# Shear Modulus (GPa) = 19.49391 28.18239 23.83815
#
# Velocity S-wave (km/s) = 2.93715 3.53156 3.24798
# Velocity P-wave (km/s) = 4.38566 5.48162 4.96398
#
# Compressibility (1/GPa) = 0.05723896
#
# Stress axis : x y z
#
# Youngs Moduli (GPa) = 43.75880 32.65992 39.43469
#
# Poissons Ratio (x) = 0.28950 -0.20056
# Poissons Ratio (y) = 0.38788 0.27672
# Poissons Ratio (z) = -0.22256 0.22918
#
# Static dielectric constant tensor:
#      x y z
#    x 1.899280 0.029450 -0.021590 
#    y 0.029450 1.847940 -0.013770 
#    z -0.021590 -0.013770 1.818600 
# 
# From -- ./inp_files/589205.got.cif
#   From: 2010.05.17/outbox.cif.g08.bks.cpg/sg2_295_cif.got.tgz:589205.got - 2010.06.03 11:33:40.
