data_PCOD9027940
_publ_section_title
;
Structure prediction by ZEFSAII (Michael W. Deem and Ramdas Pophale) SiO2 
 PCOD9027940
Probable space group: P -1
;
_chemical_formula_sum "Si O2"
_cell_formula_units_Z 16
_cell_length_a 22.051136
_cell_length_b 9.494528
_cell_length_c 20.176756
_cell_angle_alpha 31.030006
_cell_angle_beta 18.220881
_cell_angle_gamma 35.893204
_cell_volume 680.695653
_symmetry_space_group_name_H-M "P -1"
_symmetry_group_IT_number 2
_symmetry_cell_setting 'triclinic'
loop_
_space_group_symop_operation_xyz
x,y,z
-x,-y,-z
loop_
_atom_site_type_symbol
_atom_site_label
_atom_site_fract_x
_atom_site_fract_y
_atom_site_fract_z
Si Si1 0.217474 0.814597 0.646662
Si Si2 0.920236 0.101591 0.441667
Si Si3 0.639782 0.382631 0.552766
Si Si4 0.724205 0.949129 0.273970
Si Si5 0.849596 0.361110 0.553141
Si Si6 0.492363 0.359436 0.136757
Si Si7 0.791112 0.441656 0.095829
Si Si8 0.133822 0.851631 0.093673
O O1 0.276598 0.607051 0.612086
O O2 0.222292 0.665775 0.772256
O O3 0.371723 0.069265 0.379398
O O4 0.003939 0.939075 0.809623
O O5 0.715208 0.097546 0.618008
O O6 0.868860 0.203966 0.527407
O O7 0.045125 0.832784 0.424979
O O8 0.053652 0.322540 0.175651
O O9 0.732889 0.624453 0.403939
O O10 0.413138 0.432368 0.764980
O O11 0.500000 0.000000 0.500000
O O12 0.831260 0.168852 0.121110
O O13 0.765027 0.009081 0.130751
O O14 0.634296 0.445811 0.762672
O O15 0.983131 0.633092 0.305980
O O16 0.500000 0.500000 0.000000
O O17 0.704376 0.292045 0.972195
#
# Coordination Sequence:
#
# PCOD9027940 Si02
#       8
#     2   2   2   2   2   2   2   2
#     4  11  27  45  68 108 139 180 238 281 343 423
#     4  11  25  43  71 102 139 178 230 287 347 404
#     4  11  26  41  71 101 144 178 228 285 347 413
#     4  10  22  41  70 103 130 179 226 280 346 411
#     4  10  26  45  67 107 134 179 240 282 335 421
#     4  11  27  45  74  96 140 187 229 281 346 411
#     4  11  24  44  73 101 142 181 226 291 350 404
#     4  11  24  45  73  96 140 181 231 288 342 404
#
# _framework density 23.505365999999999
#
# number of rings (size 3 to 8) (size 9 to 14) (size 15 to 20)
#    0.000    1.250    1.250    2.625   12.250    4.000 
#    0.000    2.500    0.000    0.000    0.000    0.000 
#    0.000    0.000    0.000    0.000    0.000    0.000 
#
# Total GULP energy -89526.753611 kJ/mol
# GULP energy per Si atom -5595.422101 kJ/mol
# Density = 2.345187 g / cm^3
# Si number density = 23.505366 Si / 1000 Ang^3
#
#
#
# Elastic Constant Matrix: (Units=GPa)
#
#
# Indices 1 2 3 4 5 6 
#
# 1 61.1238 -5.0578 0.0386 13.4583 -5.2416 -16.7325
# 2 -5.0578 59.4910 9.2108 16.1656 -13.9257 -5.1370
# 3 0.0386 9.2108 86.5327 15.7841 -4.9125 -6.9837
# 4 13.4583 16.1656 15.7841 37.1105 -17.7971 -1.4252
# 5 -5.2416 -13.9257 -4.9125 -17.7971 31.0791 10.8758
# 6 -16.7325 -5.1370 -6.9837 -1.4252 10.8758 52.6347
#
#
#
# Elastic Compliance Matrix: (Units=1/GPa)
#
#
# Indices 1 2 3 4 5 6 
#
# 1 0.021250 0.004573 0.002137 -0.012090 -0.003727 0.007928
# 2 0.004573 0.020748 -0.000244 -0.008384 0.004422 0.002306
# 3 0.002137 -0.000244 0.013010 -0.007523 -0.002978 0.002793
# 4 -0.012090 -0.008384 -0.007523 0.049704 0.024779 -0.009434
# 5 -0.003727 0.004422 -0.002978 0.024779 0.051110 -0.011038
# 6 0.007928 0.002306 0.002793 -0.009434 -0.011038 0.024140
#
#
# Mechanical properties :
#
#
# Convention : Reuss Voigt Hill
#
# Bulk Modulus (GPa) = 14.71866 23.94787 19.33326
# Shear Modulus (GPa) = 26.36066 37.69526 32.02796
#
# Velocity S-wave (km/s) = 3.35247 4.00895 3.69532
# Velocity P-wave (km/s) = 4.61095 5.62488 5.14296
#
# Compressibility (1/GPa) = 0.06794099
#
# Stress axis : x y z
#
# Youngs Moduli (GPa) = 47.05864 48.19716 76.86389
#
# Poissons Ratio (x) = -0.22042 -0.16428
# Poissons Ratio (y) = -0.21521 0.01877
# Poissons Ratio (z) = -0.10058 0.01177
#
# Static dielectric constant tensor:
#      x y z
#    x 1.914180 0.017090 -0.066730 
#    y 0.017090 1.920040 -0.042130 
#    z -0.066730 -0.042130 1.964640 
# 
# From -- ./inp_files/577540.got.cif
#   From: 2010.05.17/outbox.cif.g08.bks.cpg/sg2_289_cif.got.tgz:577540.got - 2010.06.03 11:33:40.
