data_PCOD9027878
_publ_section_title
;
Structure prediction by ZEFSAII (Michael W. Deem and Ramdas Pophale) SiO2 
 PCOD9027878
Probable space group: P -1
;
_chemical_formula_sum "Si O2"
_cell_formula_units_Z 16
_cell_length_a 12.955030
_cell_length_b 6.909265
_cell_length_c 29.161349
_cell_angle_alpha 127.595520
_cell_angle_beta 154.337394
_cell_angle_gamma 42.351857
_cell_volume 747.356885
_symmetry_space_group_name_H-M "P -1"
_symmetry_group_IT_number 2
_symmetry_cell_setting 'triclinic'
loop_
_space_group_symop_operation_xyz
x,y,z
-x,-y,-z
loop_
_atom_site_type_symbol
_atom_site_label
_atom_site_fract_x
_atom_site_fract_y
_atom_site_fract_z
Si Si1 0.994699 0.391149 0.249121
Si Si2 0.204713 0.644050 0.930058
Si Si3 0.954804 0.273765 0.495140
Si Si4 0.424162 0.876359 0.408564
Si Si5 0.712947 0.447228 0.324915
Si Si6 0.093797 0.050585 0.740399
Si Si7 0.473123 0.392528 0.088604
Si Si8 0.134124 0.693558 0.083445
O O1 0.002782 0.331357 0.189317
O O2 0.937087 0.711968 0.273025
O O3 0.731559 0.403940 0.171453
O O4 0.277400 0.132889 0.349139
O O5 0.500000 0.500000 0.000000
O O6 0.266179 0.447585 0.971375
O O7 0.096133 0.967055 0.950872
O O8 0.694655 0.580252 0.455380
O O9 0.866250 0.271572 0.407068
O O10 0.226742 0.298048 0.613196
O O11 0.000000 0.000000 0.500000
O O12 0.184991 0.820607 0.321768
O O13 0.500000 0.000000 0.500000
O O14 0.379545 0.574425 0.203477
O O15 0.859266 0.226366 0.308875
O O16 0.370133 0.911687 0.864319
O O17 0.294911 0.638350 0.091201
O O18 0.000000 0.500000 0.000000
#
# Coordination Sequence:
#
# PCOD9027878 Si02
#       8
#     2   2   2   2   2   2   2   2
#     4  10  23  42  68  95 140 174 222 284 341 389
#     4  10  22  42  64  95 135 170 222 283 322 399
#     4  11  25  45  70  98 133 180 222 283 347 387
#     4  11  23  42  65 101 132 167 228 276 332 416
#     4  10  24  44  66  97 141 169 233 280 326 419
#     4  10  22  41  69  99 130 181 215 279 344 402
#     4   9  22  41  65  96 135 170 231 268 327 408
#     4  11  24  44  69  99 137 183 225 275 344 403
#
# _framework density 21.408781000000001
#
# number of rings (size 3 to 8) (size 9 to 14) (size 15 to 20)
#    0.000    1.750    1.250    1.125    8.750    4.000 
#    9.000    0.000    0.000    0.000    0.000    0.000 
#    0.000    0.000    0.000    0.000    0.000    0.000 
#
# Total GULP energy -89363.099512 kJ/mol
# GULP energy per Si atom -5585.193719 kJ/mol
# Density = 2.136005 g / cm^3
# Si number density = 21.408781 Si / 1000 Ang^3
#
#
#
# Elastic Constant Matrix: (Units=GPa)
#
#
# Indices 1 2 3 4 5 6 
#
# 1 65.9732 31.3012 35.2637 -4.7179 -15.9343 -2.4590
# 2 31.3012 91.7020 54.4165 -12.7736 -5.3287 12.0852
# 3 35.2637 54.4165 131.7702 -6.5607 -24.1271 10.1628
# 4 -4.7179 -12.7736 -6.5607 22.4444 -3.1422 -0.3260
# 5 -15.9343 -5.3287 -24.1271 -3.1422 40.4226 -5.0696
# 6 -2.4590 12.0852 10.1628 -0.3260 -5.0696 47.5318
#
#
#
# Elastic Compliance Matrix: (Units=1/GPa)
#
#
# Indices 1 2 3 4 5 6 
#
# 1 0.020938 -0.005724 -0.002215 0.001497 0.006762 0.003744
# 2 -0.005724 0.017438 -0.005653 0.006551 -0.003302 -0.003829
# 3 -0.002215 -0.005653 0.011539 0.000414 0.005228 -0.000584
# 4 0.001497 0.006551 0.000414 0.049471 0.005451 -0.000756
# 5 0.006762 -0.003302 0.005228 0.005451 0.030941 0.003409
# 6 0.003744 -0.003829 -0.000584 -0.000756 0.003409 0.022689
#
#
# Mechanical properties :
#
#
# Convention : Reuss Voigt Hill
#
# Bulk Modulus (GPa) = 43.99371 59.04533 51.51952
# Shear Modulus (GPa) = 26.62744 33.31071 29.96907
#
# Velocity S-wave (km/s) = 3.53053 3.94882 3.74552
# Velocity P-wave (km/s) = 6.10029 6.95922 6.54386
#
# Compressibility (1/GPa) = 0.02273052
#
# Stress axis : x y z
#
# Youngs Moduli (GPa) = 47.76116 57.34510 86.66191
#
# Poissons Ratio (x) = 0.32824 0.19199
# Poissons Ratio (y) = 0.27338 0.48988
# Poissons Ratio (z) = 0.10581 0.32416
#
# Static dielectric constant tensor:
#      x y z
#    x 1.774720 0.003470 0.001960 
#    y 0.003470 1.768870 0.000740 
#    z 0.001960 0.000740 1.859120 
# 
# From -- ./inp_files/617934.got.cif
#   From: 2010.05.17/outbox.cif.g08.bks.cpg/sg2_309_cif.got.tgz:617934.got - 2010.06.03 11:33:40.
