data_PCOD9027900
_publ_section_title
;
Structure prediction by ZEFSAII (Michael W. Deem and Ramdas Pophale) SiO2 
 PCOD9027900
Probable space group: P -1
;
_chemical_formula_sum "Si O2"
_cell_formula_units_Z 12
_cell_length_a 10.327279
_cell_length_b 11.629533
_cell_length_c 7.118262
_cell_angle_alpha 86.643520
_cell_angle_beta 41.013879
_cell_angle_gamma 104.354467
_cell_volume 501.314791
_symmetry_space_group_name_H-M "P -1"
_symmetry_group_IT_number 2
_symmetry_cell_setting 'triclinic'
loop_
_space_group_symop_operation_xyz
x,y,z
-x,-y,-z
loop_
_atom_site_type_symbol
_atom_site_label
_atom_site_fract_x
_atom_site_fract_y
_atom_site_fract_z
Si Si1 0.506880 0.864163 0.025067
Si Si2 0.133711 0.590731 0.514397
Si Si3 0.922553 0.712842 0.965558
Si Si4 0.593449 0.731198 0.625230
Si Si5 0.587205 0.139730 0.476188
Si Si6 0.475321 0.459979 0.752434
O O1 0.652996 0.835021 0.715817
O O2 0.269709 0.737568 0.273626
O O3 0.560419 0.862468 0.184947
O O4 0.500000 0.000000 0.000000
O O5 0.985879 0.596960 0.850847
O O6 0.313817 0.553489 0.409380
O O7 0.000000 0.500000 0.500000
O O8 0.169238 0.822851 0.715115
O O9 0.796730 0.733409 0.281537
O O10 0.744000 0.675312 0.994069
O O11 0.434098 0.763130 0.659331
O O12 0.474772 0.583977 0.841581
O O13 0.500000 0.000000 0.500000
O O14 0.500000 0.500000 0.500000
#
# Coordination Sequence:
#
# PCOD9027900 Si02
#       6
#     2   2   2   2   2   2
#     4  11  23  44  68  98 141 184 236 288 351 424
#     4  11  25  44  73 106 147 187 235 300 360 419
#     4  10  22  41  70 100 136 185 233 282 357 416
#     4  11  24  42  72 103 137 186 236 295 354 429
#     4  11  24  46  67  95 145 188 233 294 354 420
#     4  10  22  42  70 105 143 177 238 290 355 428
#
# _framework density 23.937055999999998
#
# number of rings (size 3 to 8) (size 9 to 14) (size 15 to 20)
#    0.000    1.333    1.667    5.000    0.000   13.333 
#    0.000    4.167    0.000    0.000    0.000    0.000 
#    0.000    0.000    0.000    0.000    0.000    0.000 
#
# Total GULP energy -66869.696229 kJ/mol
# GULP energy per Si atom -5572.474686 kJ/mol
# Density = 2.388257 g / cm^3
# Si number density = 23.937056 Si / 1000 Ang^3
#
#
#
# Elastic Constant Matrix: (Units=GPa)
#
#
# Indices 1 2 3 4 5 6 
#
# 1 118.2190 74.9186 48.2036 14.6779 -16.9249 7.9829
# 2 74.9186 227.5064 71.7508 29.8902 -13.5253 19.9230
# 3 48.2036 71.7508 102.6534 36.2600 -6.6605 5.2962
# 4 14.6779 29.8902 36.2600 45.5547 13.3147 9.1231
# 5 -16.9249 -13.5253 -6.6605 13.3147 45.1419 3.3903
# 6 7.9829 19.9230 5.2962 9.1231 3.3903 52.1173
#
#
#
# Elastic Compliance Matrix: (Units=1/GPa)
#
#
# Indices 1 2 3 4 5 6 
#
# 1 0.012091 -0.002574 -0.003544 -0.000230 0.003359 -0.000686
# 2 -0.002574 0.006472 -0.002730 -0.001221 0.001056 -0.001657
# 3 -0.003544 -0.002730 0.018122 -0.013087 0.004255 0.001759
# 4 -0.000230 -0.001221 -0.013087 0.037912 -0.013270 -0.003941
# 5 0.003359 0.001056 0.004255 -0.013270 0.028335 -0.000871
# 6 -0.000686 -0.001657 0.001759 -0.003941 -0.000871 0.020494
#
#
# Mechanical properties :
#
#
# Convention : Reuss Voigt Hill
#
# Bulk Modulus (GPa) = 52.65958 93.12499 72.89229
# Shear Modulus (GPa) = 33.90950 45.46316 39.68633
#
# Velocity S-wave (km/s) = 3.76787 4.36280 4.07620
# Velocity P-wave (km/s) = 6.40126 8.02292 7.25753
#
# Compressibility (1/GPa) = 0.01898990
#
# Stress axis : x y z
#
# Youngs Moduli (GPa) = 82.70784 154.50188 55.18205
#
# Poissons Ratio (x) = 0.39767 0.19555
# Poissons Ratio (y) = 0.21288 0.15064
# Poissons Ratio (z) = 0.29310 0.42177
#
# Static dielectric constant tensor:
#      x y z
#    x 1.967870 -0.027190 0.041550 
#    y -0.027190 1.959970 -0.032110 
#    z 0.041550 -0.032110 2.093060 
# 
# From -- ./inp_files/249113.got.cif
#   From: 2010.05.17/outbox.cif.g08.bks.cpg/sg2_125_cif.got.tgz:249113.got - 2010.06.03 11:33:40.
