data_PCOD9027109
_publ_section_title
;
Structure prediction by ZEFSAII (Michael W. Deem and Ramdas Pophale) SiO2 
 PCOD9027109
Probable space group: P -1
;
_chemical_formula_sum "Si O2"
_cell_formula_units_Z 16
_cell_length_a 7.274293
_cell_length_b 11.319130
_cell_length_c 16.009108
_cell_angle_alpha 62.556172
_cell_angle_beta 41.499531
_cell_angle_gamma 85.264926
_cell_volume 693.539591
_symmetry_space_group_name_H-M "P -1"
_symmetry_group_IT_number 2
_symmetry_cell_setting 'triclinic'
loop_
_space_group_symop_operation_xyz
x,y,z
-x,-y,-z
loop_
_atom_site_type_symbol
_atom_site_label
_atom_site_fract_x
_atom_site_fract_y
_atom_site_fract_z
Si Si1 0.935231 0.988445 0.380903
Si Si2 0.725209 0.557263 0.024056
Si Si3 0.304610 0.868690 0.729132
Si Si4 0.003996 0.706540 0.388059
Si Si5 0.578055 0.166184 0.936097
Si Si6 0.510656 0.426733 0.717705
Si Si7 0.033178 0.134011 0.003366
Si Si8 0.498019 0.280349 0.089798
O O1 0.646716 0.913631 0.565846
O O2 0.046747 0.862869 0.361289
O O3 0.816644 0.036323 0.320175
O O4 0.184391 0.149970 0.276753
O O5 0.544682 0.531128 0.182222
O O6 0.700779 0.402375 0.047938
O O7 0.556209 0.617879 0.995999
O O8 0.070664 0.693098 0.857926
O O9 0.270192 0.903067 0.826328
O O10 0.662612 0.578938 0.565037
O O11 0.097603 0.731238 0.251194
O O12 0.249574 0.646322 0.354739
O O13 0.296641 0.172623 0.975481
O O14 0.588874 0.186011 0.024312
O O15 0.500000 0.000000 0.000000
O O16 0.180828 0.290830 0.853752
O O17 0.000000 0.000000 0.000000
#
# Coordination Sequence:
#
# PCOD9027109 Si02
#       8
#     2   2   2   2   2   2   2   2
#     4  10  18  33  57  82 110 142 185 236 284 330
#     4   9  17  34  54  78 109 142 187 228 283 335
#     4   9  18  36  55  82 112 147 180 234 288 332
#     4  10  18  33  56  80 108 146 183 229 287 326
#     4  11  18  35  60  82 110 142 193 243 274 325
#     4   9  19  36  54  78 112 147 179 237 281 332
#     4  10  19  37  57  79 110 154 188 218 284 351
#     4  10  17  31  57  84 102 142 190 235 279 324
#
# _framework density 23.070060000000002
#
# number of rings (size 3 to 8) (size 9 to 14) (size 15 to 20)
#    0.000    2.250    6.250    0.000    0.000    0.000 
#    6.750    6.875    0.000    2.250    0.000    0.000 
#    0.000    0.000    0.000    0.000    0.000    0.000 
#
# Total GULP energy -89180.901890 kJ/mol
# GULP energy per Si atom -5573.806368 kJ/mol
# Density = 2.301755 g / cm^3
# Si number density = 23.070060 Si / 1000 Ang^3
#
#
#
# Elastic Constant Matrix: (Units=GPa)
#
#
# Indices 1 2 3 4 5 6 
#
# 1 56.0684 11.9596 9.4724 3.2862 3.7620 2.9234
# 2 11.9596 176.1883 69.2641 -2.3402 -0.0177 18.5383
# 3 9.4724 69.2641 198.6982 6.7395 15.9954 20.8710
# 4 3.2862 -2.3402 6.7395 32.0901 -4.0054 2.0151
# 5 3.7620 -0.0177 15.9954 -4.0054 16.5569 3.0023
# 6 2.9234 18.5383 20.8710 2.0151 3.0023 31.2521
#
#
#
# Elastic Compliance Matrix: (Units=1/GPa)
#
#
# Indices 1 2 3 4 5 6 
#
# 1 0.018595 -0.001289 0.000084 -0.002598 -0.004864 -0.000396
# 2 -0.001289 0.007053 -0.002446 0.001794 0.003622 -0.002894
# 3 0.000084 -0.002446 0.006734 -0.002292 -0.006671 -0.002266
# 4 -0.002598 0.001794 -0.002292 0.033624 0.011403 -0.002554
# 5 -0.004864 0.003622 -0.006671 0.011403 0.071590 -0.004851
# 6 -0.000396 -0.002894 -0.002266 -0.002554 -0.004851 0.035895
#
#
# Mechanical properties :
#
#
# Convention : Reuss Voigt Hill
#
# Bulk Modulus (GPa) = 39.86892 68.03856 53.95374
# Shear Modulus (GPa) = 26.43363 38.66375 32.54869
#
# Velocity S-wave (km/s) = 3.38864 4.09825 3.76022
# Velocity P-wave (km/s) = 5.71224 7.20766 6.50308
#
# Compressibility (1/GPa) = 0.02508220
#
# Stress axis : x y z
#
# Youngs Moduli (GPa) = 53.77686 141.77657 148.49946
#
# Poissons Ratio (x) = 0.18269 -0.01248
# Poissons Ratio (y) = 0.06930 0.36319
# Poissons Ratio (z) = -0.00452 0.34675
#
# Static dielectric constant tensor:
#      x y z
#    x 2.144290 -0.076480 -0.071750 
#    y -0.076480 1.989690 0.032460 
#    z -0.071750 0.032460 1.912790 
# 
# From -- ./inp_files/594472.got.cif
#   From: 2010.05.17/outbox.cif.g08.bks.cpg/sg2_298_cif.got.tgz:594472.got - 2010.06.03 11:33:40.
