data_PCOD9027420
_publ_section_title
;
Structure prediction by ZEFSAII (Michael W. Deem and Ramdas Pophale) SiO2 
 PCOD9027420
Probable space group: P -1
;
_chemical_formula_sum "Si O2"
_cell_formula_units_Z 16
_cell_length_a 12.465692
_cell_length_b 5.197434
_cell_length_c 13.252862
_cell_angle_alpha 71.529314
_cell_angle_beta 47.796144
_cell_angle_gamma 82.885947
_cell_volume 598.427704
_symmetry_space_group_name_H-M "P -1"
_symmetry_group_IT_number 2
_symmetry_cell_setting 'triclinic'
loop_
_space_group_symop_operation_xyz
x,y,z
-x,-y,-z
loop_
_atom_site_type_symbol
_atom_site_label
_atom_site_fract_x
_atom_site_fract_y
_atom_site_fract_z
Si Si1 0.359008 0.983650 0.164804
Si Si2 0.179538 0.888820 0.105967
Si Si3 0.851110 0.430789 0.541331
Si Si4 0.024483 0.487282 0.836369
Si Si5 0.161733 0.959605 0.577301
Si Si6 0.562584 0.213564 0.171641
Si Si7 0.525082 0.197979 0.555207
Si Si8 0.771345 0.580506 0.120004
O O1 0.225687 0.022187 0.168404
O O2 0.292672 0.692883 0.289733
O O3 0.414973 0.168721 0.203280
O O4 0.500000 0.000000 0.000000
O O5 0.037587 0.674382 0.203594
O O6 0.315233 0.735314 0.999701
O O7 0.188693 0.127801 0.989981
O O8 0.885907 0.178969 0.481015
O O9 0.000000 0.500000 0.500000
O O10 0.815966 0.715434 0.479809
O O11 0.056262 0.806346 0.747651
O O12 0.173954 0.412522 0.800478
O O13 0.893047 0.414668 0.008618
O O14 0.310854 0.831879 0.515205
O O15 0.615139 0.444796 0.193058
O O16 0.563089 0.940700 0.275083
O O17 0.500000 0.500000 0.500000
O O18 0.500000 0.000000 0.500000
#
# Coordination Sequence:
#
# PCOD9027420 Si02
#       8
#     2   2   2   2   2   2   2   2
#     4  10  23  47  71 105 145 196 254 314 377 451
#     4  10  22  41  71  98 141 186 245 310 372 445
#     4  12  27  50  75 112 151 201 254 317 378 462
#     4  10  23  41  65 107 137 192 240 307 378 453
#     4  12  27  47  76 104 154 193 250 308 385 456
#     4  10  23  43  65 102 140 186 247 305 376 447
#     4  12  27  46  73 107 146 196 246 307 380 460
#     4  10  22  41  67  99 143 182 248 308 371 452
#
# _framework density 26.736729
#
# number of rings (size 3 to 8) (size 9 to 14) (size 15 to 20)
#    0.000    1.250    1.250    3.000    7.000    1.500 
#    4.500    0.000    0.000    0.000    0.000    0.000 
#    0.000    0.000    0.000    0.000    0.000    0.000 
#
# Total GULP energy -89371.159354 kJ/mol
# GULP energy per Si atom -5585.697460 kJ/mol
# Density = 2.667587 g / cm^3
# Si number density = 26.736729 Si / 1000 Ang^3
#
#
#
# Elastic Constant Matrix: (Units=GPa)
#
#
# Indices 1 2 3 4 5 6 
#
# 1 149.5648 23.7244 25.2763 -1.0375 -13.8086 28.6390
# 2 23.7244 97.4124 41.1529 -19.8770 -7.6308 5.9122
# 3 25.2763 41.1529 168.9513 -17.8748 -3.4607 -0.7477
# 4 -1.0375 -19.8770 -17.8748 42.9090 3.3606 8.4550
# 5 -13.8086 -7.6308 -3.4607 3.3606 36.8960 -12.6979
# 6 28.6390 5.9122 -0.7477 8.4550 -12.6979 41.2327
#
#
#
# Elastic Compliance Matrix: (Units=1/GPa)
#
#
# Indices 1 2 3 4 5 6 
#
# 1 0.008114 -0.001151 -0.000912 0.000253 0.000877 -0.005269
# 2 -0.001151 0.012799 -0.002385 0.005210 0.000871 -0.001879
# 3 -0.000912 -0.002385 0.006803 0.001565 -0.000080 0.000753
# 4 0.000253 0.005210 0.001565 0.028247 -0.003977 -0.007911
# 5 0.000877 0.000871 -0.000080 -0.003977 0.031312 0.009723
# 6 -0.005269 -0.001879 0.000753 -0.007911 0.009723 0.032812
#
#
# Mechanical properties :
#
#
# Convention : Reuss Voigt Hill
#
# Bulk Modulus (GPa) = 53.13144 66.24842 59.68993
# Shear Modulus (GPa) = 36.96664 45.92588 41.44626
#
# Velocity S-wave (km/s) = 3.72239 4.14902 3.94148
# Velocity P-wave (km/s) = 6.19598 6.91262 6.56409
#
# Compressibility (1/GPa) = 0.01882125
#
# Stress axis : x y z
#
# Youngs Moduli (GPa) = 123.23641 78.13349 146.98337
#
# Poissons Ratio (x) = 0.08991 0.13409
# Poissons Ratio (y) = 0.14182 0.35050
# Poissons Ratio (z) = 0.11243 0.18632
#
# Static dielectric constant tensor:
#      x y z
#    x 2.090310 -0.019840 -0.022400 
#    y -0.019840 2.128710 0.104810 
#    z -0.022400 0.104810 2.160920 
# 
# From -- ./inp_files/510719.got.cif
#   From: 2010.05.17/outbox.cif.g08.bks.cpg/sg2_256_cif.got.tgz:510719.got - 2010.06.03 11:33:40.
