data_PCOD9027417
_publ_section_title
;
Structure prediction by ZEFSAII (Michael W. Deem and Ramdas Pophale) SiO2 
 PCOD9027417
Probable space group: P -1
;
_chemical_formula_sum "Si O2"
_cell_formula_units_Z 16
_cell_length_a 9.311551
_cell_length_b 20.140974
_cell_length_c 17.741930
_cell_angle_alpha 160.190720
_cell_angle_beta 142.016994
_cell_angle_gamma 36.749093
_cell_volume 664.919534
_symmetry_space_group_name_H-M "P -1"
_symmetry_group_IT_number 2
_symmetry_cell_setting 'triclinic'
loop_
_space_group_symop_operation_xyz
x,y,z
-x,-y,-z
loop_
_atom_site_type_symbol
_atom_site_label
_atom_site_fract_x
_atom_site_fract_y
_atom_site_fract_z
Si Si1 0.703603 0.729338 0.006388
Si Si2 0.110408 0.769572 0.688574
Si Si3 0.595219 0.193028 0.766072
Si Si4 0.412220 0.166763 0.408649
Si Si5 0.727205 0.378317 0.863257
Si Si6 0.426888 0.227181 0.177604
Si Si7 0.655078 0.488682 0.345606
Si Si8 0.009935 0.786853 0.931619
O O1 0.984255 0.686671 0.095578
O O2 0.534089 0.927722 0.191093
O O3 0.654789 0.764470 0.934207
O O4 0.612287 0.537161 0.787011
O O5 0.326039 0.699316 0.639709
O O6 0.211429 0.643856 0.670786
O O7 0.826256 0.782259 0.582246
O O8 0.099016 0.009570 0.945404
O O9 0.665409 0.287498 0.819578
O O10 0.836223 0.141831 0.862879
O O11 0.500000 0.000000 0.500000
O O12 0.391190 0.376714 0.918909
O O13 0.601500 0.271558 0.635402
O O14 0.348434 0.278877 0.420631
O O15 0.181113 0.316701 0.219597
O O16 0.500000 0.000000 0.000000
O O17 0.801814 0.376961 0.215213
#
# Coordination Sequence:
#
# PCOD9027417 Si02
#       8
#     2   2   2   2   2   2   2   2
#     4  11  24  44  68  99 139 184 230 283 338 403
#     4  10  22  41  67  99 136 181 229 281 341 407
#     4  11  24  43  73  99 136 180 226 282 352 407
#     4  12  24  41  69  99 141 186 230 274 346 403
#     4  11  25  45  66 103 139 178 230 287 332 415
#     4   9  21  39  71  95 132 179 227 282 338 397
#     4  11  24  41  68  99 138 181 228 286 335 411
#     4  11  19  43  70  97 132 182 221 283 354 395
#
# _framework density 24.063063
#
# number of rings (size 3 to 8) (size 9 to 14) (size 15 to 20)
#    0.000    1.250    3.750    1.875    3.500    1.500 
#    0.000    0.625    5.500    0.000    0.000    0.000 
#    0.000    0.000    0.000    0.000    0.000    0.000 
#
# Total GULP energy -89507.601346 kJ/mol
# GULP energy per Si atom -5594.225084 kJ/mol
# Density = 2.400829 g / cm^3
# Si number density = 24.063063 Si / 1000 Ang^3
#
#
#
# Elastic Constant Matrix: (Units=GPa)
#
#
# Indices 1 2 3 4 5 6 
#
# 1 136.6705 52.0610 37.0788 -14.0427 29.8388 -19.0931
# 2 52.0610 101.7038 39.1318 -10.7090 18.7902 -16.0488
# 3 37.0788 39.1318 115.3090 -9.3706 16.2398 -5.4791
# 4 -14.0427 -10.7090 -9.3706 37.4061 -3.3945 8.5358
# 5 29.8388 18.7902 16.2398 -3.3945 42.8101 -4.6573
# 6 -19.0931 -16.0488 -5.4791 8.5358 -4.6573 51.1578
#
#
#
# Elastic Compliance Matrix: (Units=1/GPa)
#
#
# Indices 1 2 3 4 5 6 
#
# 1 0.010528 -0.003492 -0.001266 0.001738 -0.004975 0.001956
# 2 -0.003492 0.013641 -0.003014 0.001132 -0.002073 0.002276
# 3 -0.001266 -0.003014 0.010416 0.001268 -0.001718 -0.000671
# 4 0.001738 0.001132 0.001268 0.028845 -0.000305 -0.003701
# 5 -0.004975 -0.002073 -0.001718 -0.000305 0.028358 -0.000059
# 6 0.001956 0.002276 -0.000671 -0.003701 -0.000059 0.021532
#
#
# Mechanical properties :
#
#
# Convention : Reuss Voigt Hill
#
# Bulk Modulus (GPa) = 52.51765 67.80295 60.16030
# Shear Modulus (GPa) = 36.97984 41.30225 39.14104
#
# Velocity S-wave (km/s) = 3.92444 4.14746 4.03749
# Velocity P-wave (km/s) = 6.51210 7.15357 6.84036
#
# Compressibility (1/GPa) = 0.01904122
#
# Stress axis : x y z
#
# Youngs Moduli (GPa) = 94.98283 73.30923 96.01053
#
# Poissons Ratio (x) = 0.25596 0.12152
# Poissons Ratio (y) = 0.33164 0.28942
# Poissons Ratio (z) = 0.12022 0.22099
#
# Static dielectric constant tensor:
#      x y z
#    x 1.925190 -0.019910 -0.012110 
#    y -0.019910 1.966590 0.009120 
#    z -0.012110 0.009120 1.931890 
# 
# From -- ./inp_files/563002.got.cif
#   From: 2010.05.17/outbox.cif.g08.bks.cpg/sg2_282_cif.got.tgz:563002.got - 2010.06.03 11:33:40.
