data_PCOD9027958
_publ_section_title
;
Structure prediction by ZEFSAII (Michael W. Deem and Ramdas Pophale) SiO2 
 PCOD9027958
Probable space group: P -1
;
_chemical_formula_sum "Si O2"
_cell_formula_units_Z 14
_cell_length_a 6.112542
_cell_length_b 20.854695
_cell_length_c 9.401762
_cell_angle_alpha 134.110408
_cell_angle_beta 130.998786
_cell_angle_gamma 61.341046
_cell_volume 648.868928
_symmetry_space_group_name_H-M "P -1"
_symmetry_group_IT_number 2
_symmetry_cell_setting 'triclinic'
loop_
_space_group_symop_operation_xyz
x,y,z
-x,-y,-z
loop_
_atom_site_type_symbol
_atom_site_label
_atom_site_fract_x
_atom_site_fract_y
_atom_site_fract_z
Si Si1 0.632657 0.207147 0.642321
Si Si2 0.554498 0.186488 0.110688
Si Si3 0.874573 0.918083 0.734227
Si Si4 0.147106 0.078728 0.601049
Si Si5 0.649000 0.503653 0.407549
Si Si6 0.335176 0.312075 0.442057
Si Si7 0.663540 0.310661 0.104193
O O1 0.420162 0.125046 0.408895
O O2 0.500748 0.289553 0.622759
O O3 0.941567 0.168459 0.662572
O O4 0.655379 0.240230 0.864503
O O5 0.387325 0.222197 0.232272
O O6 0.513521 0.267360 0.107069
O O7 0.879080 0.160988 0.259758
O O8 0.000000 0.000000 0.000000
O O9 0.827115 0.942685 0.586796
O O10 0.431909 0.102362 0.846097
O O11 0.000000 0.000000 0.500000
O O12 0.500000 0.500000 0.500000
O O13 0.549335 0.598979 0.445378
O O14 0.548300 0.408677 0.158818
O O15 0.000000 0.500000 0.500000
O O16 0.989533 0.322709 0.318837
#
# Coordination Sequence:
#
# PCOD9027958 Si02
#       7
#     2   2   2   2   2   2   2
#     4  12  25  43  68  98 132 176 230 279 343 412
#     4  12  23  43  70  92 134 180 222 281 341 422
#     4  12  28  43  65  97 131 173 227 286 347 411
#     4  12  28  43  65  97 131 173 227 286 347 411
#     4  10  22  41  70 107 143 186 233 289 352 421
#     4  11  23  42  70  98 137 178 228 278 348 411
#     4  11  23  42  70  98 137 178 228 278 348 411
#
# _framework density 21.576006
#
# number of rings (size 3 to 8) (size 9 to 14) (size 15 to 20)
#    0.000    0.571    7.143    0.857    4.000    2.857 
#    0.000    0.000    0.000    5.143    0.000    0.000 
#    0.000    0.000    0.000    0.000    0.000    0.000 
#
# Total GULP energy -78058.949314 kJ/mol
# GULP energy per Si atom -5575.639237 kJ/mol
# Density = 2.152690 g / cm^3
# Si number density = 21.576006 Si / 1000 Ang^3
#
#
#
# Elastic Constant Matrix: (Units=GPa)
#
#
# Indices 1 2 3 4 5 6 
#
# 1 68.4253 15.4292 8.3220 -7.6647 3.7257 6.8478
# 2 15.4292 92.5112 11.5219 -5.8045 10.7236 15.0260
# 3 8.3220 11.5219 49.3614 6.2095 -0.6675 -3.9980
# 4 -7.6647 -5.8045 6.2095 38.8467 2.1099 2.7008
# 5 3.7257 10.7236 -0.6675 2.1099 37.1166 2.3196
# 6 6.8478 15.0260 -3.9980 2.7008 2.3196 40.4351
#
#
#
# Elastic Compliance Matrix: (Units=1/GPa)
#
#
# Indices 1 2 3 4 5 6 
#
# 1 0.016070 -0.001490 -0.003057 0.003690 -0.001282 -0.002643
# 2 -0.001490 0.012861 -0.003534 0.002719 -0.003481 -0.004858
# 3 -0.003057 -0.003534 0.022619 -0.005142 0.001757 0.004310
# 4 0.003690 0.002719 -0.005142 0.028109 -0.002604 -0.003872
# 5 -0.001282 -0.003481 0.001757 -0.002604 0.028241 0.000238
# 6 -0.002643 -0.004858 0.004310 -0.003872 0.000238 0.027655
#
#
# Mechanical properties :
#
#
# Convention : Reuss Voigt Hill
#
# Bulk Modulus (GPa) = 28.25769 31.20489 29.73129
# Shear Modulus (GPa) = 30.57864 34.94800 32.76332
#
# Velocity S-wave (km/s) = 3.76873 4.02899 3.90103
# Velocity P-wave (km/s) = 5.66242 6.01148 5.83956
#
# Compressibility (1/GPa) = 0.03538860
#
# Stress axis : x y z
#
# Youngs Moduli (GPa) = 62.22804 77.75252 44.21138
#
# Poissons Ratio (x) = 0.11585 0.13516
# Poissons Ratio (y) = 0.09272 0.15622
# Poissons Ratio (z) = 0.19024 0.27474
#
# Static dielectric constant tensor:
#      x y z
#    x 1.807310 -0.014310 -0.008430 
#    y -0.014310 1.826040 0.001450 
#    z -0.008430 0.001450 1.811040 
# 
# From -- ./inp_files/43431.got.cif
#   From: 2010.05.17/outbox.cif.g08.bks.cpg/sg2_22_cif.got.tgz:43431.got - 2010.06.03 11:33:40.
