data_PCOD9027645
_publ_section_title
;
Structure prediction by ZEFSAII (Michael W. Deem and Ramdas Pophale) SiO2 
 PCOD9027645
Probable space group: P -1
;
_chemical_formula_sum "Si O2"
_cell_formula_units_Z 16
_cell_length_a 8.269626
_cell_length_b 31.977089
_cell_length_c 15.390767
_cell_angle_alpha 16.615918
_cell_angle_beta 136.435051
_cell_angle_gamma 143.655121
_cell_volume 662.390219
_symmetry_space_group_name_H-M "P -1"
_symmetry_group_IT_number 2
_symmetry_cell_setting 'triclinic'
loop_
_space_group_symop_operation_xyz
x,y,z
-x,-y,-z
loop_
_atom_site_type_symbol
_atom_site_label
_atom_site_fract_x
_atom_site_fract_y
_atom_site_fract_z
Si Si1 0.208489 0.415237 0.603701
Si Si2 0.214113 0.680932 0.173716
Si Si3 0.492734 0.313220 0.054128
Si Si4 0.268568 0.986695 0.503777
Si Si5 0.126048 0.938943 0.909234
Si Si6 0.966073 0.659977 0.838956
Si Si7 0.569977 0.681828 0.773975
Si Si8 0.858853 0.965154 0.919418
O O1 0.500000 0.500000 0.500000
O O2 0.211054 0.589286 0.266133
O O3 0.304004 0.370046 0.820539
O O4 0.936927 0.241297 0.799777
O O5 0.000000 0.500000 0.500000
O O6 0.121971 0.805918 0.858547
O O7 0.522884 0.806754 0.090417
O O8 0.366422 0.116607 0.364555
O O9 0.478851 0.327854 0.122496
O O10 0.808595 0.394704 0.974612
O O11 0.094213 0.039005 0.275004
O O12 0.500000 0.000000 0.500000
O O13 0.026109 0.917385 0.012488
O O14 0.403782 0.138598 0.606710
O O15 0.836686 0.685468 0.826997
O O16 0.089208 0.849408 0.461920
O O17 0.695132 0.499315 0.005228
O O18 0.000000 0.000000 0.000000
#
# Coordination Sequence:
#
# PCOD9027645 Si02
#       8
#     2   2   2   2   2   2   2   2
#     4  11  24  42  65  99 137 180 229 293 362 423
#     4  12  26  42  68 111 143 181 238 297 366 425
#     4  11  23  41  71  98 132 183 242 290 351 425
#     4  11  20  42  70  96 136 189 234 290 357 424
#     4  10  22  41  68  98 135 183 238 294 351 423
#     4  10  22  45  68  98 137 188 233 295 354 427
#     4  10  23  39  68 104 134 170 248 294 345 421
#     4  11  23  43  69  96 144 193 229 285 375 433
#
# _framework density 24.154945999999999
#
# number of rings (size 3 to 8) (size 9 to 14) (size 15 to 20)
#    0.000    1.250    3.750    1.875    5.250    1.000 
#    0.000    0.000    0.000    4.500    0.000    0.000 
#    0.000    0.000    0.000    0.000    0.000    0.000 
#
# Total GULP energy -89164.106696 kJ/mol
# GULP energy per Si atom -5572.756668 kJ/mol
# Density = 2.409997 g / cm^3
# Si number density = 24.154946 Si / 1000 Ang^3
#
#
#
# Elastic Constant Matrix: (Units=GPa)
#
#
# Indices 1 2 3 4 5 6 
#
# 1 107.2028 51.9815 26.0327 -1.6200 -8.6480 -21.8550
# 2 51.9815 134.5851 58.9597 -26.9995 -4.4339 -35.2992
# 3 26.0327 58.9597 107.6335 -33.1400 -13.5167 8.8847
# 4 -1.6200 -26.9995 -33.1400 43.0866 -1.4831 -1.6945
# 5 -8.6480 -4.4339 -13.5167 -1.4831 44.4715 3.7808
# 6 -21.8550 -35.2992 8.8847 -1.6945 3.7808 41.9800
#
#
#
# Elastic Compliance Matrix: (Units=1/GPa)
#
#
# Indices 1 2 3 4 5 6 
#
# 1 0.012339 -0.003317 -0.002382 -0.003261 0.000902 0.003926
# 2 -0.003317 0.017469 -0.009034 0.004379 -0.002804 0.015303
# 3 -0.002382 -0.009034 0.019361 0.008830 0.005930 -0.013112
# 4 -0.003261 0.004379 0.008830 0.032786 0.003484 0.001125
# 5 0.000902 -0.002804 0.005930 0.003484 0.024745 -0.005231
# 6 0.003926 0.015303 -0.013112 0.001125 -0.005231 0.042024
#
#
# Mechanical properties :
#
#
# Convention : Reuss Voigt Hill
#
# Bulk Modulus (GPa) = 50.75557 69.26324 60.00940
# Shear Modulus (GPa) = 27.06242 40.07078 33.56660
#
# Velocity S-wave (km/s) = 3.35082 4.07739 3.73183
# Velocity P-wave (km/s) = 6.00240 7.13467 6.59289
#
# Compressibility (1/GPa) = 0.01970227
#
# Stress axis : x y z
#
# Youngs Moduli (GPa) = 81.04507 57.24491 51.64943
#
# Poissons Ratio (x) = 0.18987 0.12305
# Poissons Ratio (y) = 0.26882 0.46660
# Poissons Ratio (z) = 0.19308 0.51715
#
# Static dielectric constant tensor:
#      x y z
#    x 2.124140 0.058450 -0.098070 
#    y 0.058450 2.018740 -0.011360 
#    z -0.098070 -0.011360 1.951930 
# 
# From -- ./inp_files/509191.got.cif
#   From: 2010.05.17/outbox.cif.g08.bks.cpg/sg2_255_cif.got.tgz:509191.got - 2010.06.03 11:33:40.
