data_PCOD9027775
_publ_section_title
;
Structure prediction by ZEFSAII (Michael W. Deem and Ramdas Pophale) SiO2 
 PCOD9027775
Probable space group: P -1
;
_chemical_formula_sum "Si O2"
_cell_formula_units_Z 14
_cell_length_a 7.486084
_cell_length_b 9.292938
_cell_length_c 14.749129
_cell_angle_alpha 123.193604
_cell_angle_beta 105.338918
_cell_angle_gamma 117.275646
_cell_volume 550.216462
_symmetry_space_group_name_H-M "P -1"
_symmetry_group_IT_number 2
_symmetry_cell_setting 'triclinic'
loop_
_space_group_symop_operation_xyz
x,y,z
-x,-y,-z
loop_
_atom_site_type_symbol
_atom_site_label
_atom_site_fract_x
_atom_site_fract_y
_atom_site_fract_z
Si Si1 0.402359 0.668201 0.636002
Si Si2 0.149834 0.871910 0.668037
Si Si3 0.094662 0.802524 0.052188
Si Si4 0.518412 0.872017 0.036646
Si Si5 0.228155 0.371979 0.867818
Si Si6 0.699696 0.937610 0.581578
Si Si7 0.401440 0.726785 0.287328
O O1 0.238082 0.732465 0.652617
O O2 0.159758 0.358145 0.495706
O O3 0.686765 0.884021 0.809711
O O4 0.514415 0.751202 0.576745
O O5 0.203366 0.976912 0.815804
O O6 0.385627 0.096904 0.706151
O O7 0.300859 0.788986 0.053940
O O8 0.967953 0.705843 0.101630
O O9 0.836832 0.578043 0.874289
O O10 0.363128 0.592663 0.888304
O O11 0.500000 0.000000 0.000000
O O12 0.017923 0.100903 0.695424
O O13 0.500000 0.500000 0.000000
O O14 0.710793 0.157645 0.661812
O O15 0.568278 0.787786 0.419310
#
# Coordination Sequence:
#
# PCOD9027775 Si02
#       7
#     2   2   2   2   2   2   2
#     4   8  17  28  47  77 115 147 183 241 301 345
#     4   9  17  30  49  82 119 147 181 248 312 336
#     4  10  19  37  60  86 116 162 203 245 296 359
#     4  11  22  34  62  93 120 151 213 255 292 356
#     4  11  22  40  61  88 126 165 199 244 310 368
#     4   9  19  30  55  86 116 148 202 249 294 348
#     4  10  17  31  59  84 116 146 203 256 293 346
#
# _framework density 25.444528999999999
#
# number of rings (size 3 to 8) (size 9 to 14) (size 15 to 20)
#    0.000    2.286    2.857    1.286    2.000    3.429 
#    0.000    1.429    0.000    3.429    0.000    0.000 
#    0.000    0.000    0.000    0.000    0.000    0.000 
#
# Total GULP energy -78012.932050 kJ/mol
# GULP energy per Si atom -5572.352289 kJ/mol
# Density = 2.538662 g / cm^3
# Si number density = 25.444529 Si / 1000 Ang^3
#
#
#
# Elastic Constant Matrix: (Units=GPa)
#
#
# Indices 1 2 3 4 5 6 
#
# 1 24.2288 7.4505 1.6652 5.1660 2.1260 7.4735
# 2 7.4505 65.7264 71.4311 25.2135 3.2562 -2.4462
# 3 1.6652 71.4311 293.8656 27.6516 11.3423 2.9404
# 4 5.1660 25.2135 27.6516 50.7147 -3.4249 -3.8332
# 5 2.1260 3.2562 11.3423 -3.4249 33.8009 1.7612
# 6 7.4735 -2.4462 2.9404 -3.8332 1.7612 10.2378
#
#
#
# Elastic Compliance Matrix: (Units=1/GPa)
#
#
# Indices 1 2 3 4 5 6 
#
# 1 0.061137 -0.009394 0.003202 -0.007237 -0.002136 -0.050136
# 2 -0.009394 0.025940 -0.005550 -0.008117 -0.001487 0.011866
# 3 0.003202 -0.005550 0.004894 -0.000699 -0.001112 -0.005139
# 4 -0.007237 -0.008117 -0.000699 0.026066 0.003451 0.012710
# 5 -0.002136 -0.001487 -0.001112 0.003451 0.030714 -0.002468
# 6 -0.050136 0.011866 -0.005139 0.012710 -0.002468 0.143771
#
#
# Mechanical properties :
#
#
# Convention : Reuss Voigt Hill
#
# Bulk Modulus (GPa) = 14.60128 60.54604 37.57366
# Shear Modulus (GPa) = 14.75650 39.16894 26.96272
#
# Velocity S-wave (km/s) = 2.41082 3.92776 3.25878
# Velocity P-wave (km/s) = 3.67428 6.66458 5.38131
#
# Compressibility (1/GPa) = 0.06848716
#
# Stress axis : x y z
#
# Youngs Moduli (GPa) = 16.35670 38.55064 204.33738
#
# Poissons Ratio (x) = 0.36216 -0.65431
# Poissons Ratio (y) = 0.15366 1.13400
# Poissons Ratio (z) = -0.05238 0.21394
#
# Static dielectric constant tensor:
#      x y z
#    x 2.233220 -0.113600 -0.060480 
#    y -0.113600 1.947620 0.055160 
#    z -0.060480 0.055160 2.143600 
# 
# From -- ./inp_files/168036.got.cif
#   From: 2010.05.17/outbox.cif.g08.bks.cpg/sg2_85_cif.got.tgz:168036.got - 2010.06.03 11:33:40.
