data_PCOD9027833
_publ_section_title
;
Structure prediction by ZEFSAII (Michael W. Deem and Ramdas Pophale) SiO2 
 PCOD9027833
Probable space group: P -1
;
_chemical_formula_sum "Si O2"
_cell_formula_units_Z 14
_cell_length_a 9.480029
_cell_length_b 25.594039
_cell_length_c 5.570214
_cell_angle_alpha 120.465626
_cell_angle_beta 51.071188
_cell_angle_gamma 145.073507
_cell_volume 601.839911
_symmetry_space_group_name_H-M "P -1"
_symmetry_group_IT_number 2
_symmetry_cell_setting 'triclinic'
loop_
_space_group_symop_operation_xyz
x,y,z
-x,-y,-z
loop_
_atom_site_type_symbol
_atom_site_label
_atom_site_fract_x
_atom_site_fract_y
_atom_site_fract_z
Si Si1 0.308272 0.637426 0.129849
Si Si2 0.390412 0.253582 0.433452
Si Si3 0.527820 0.160101 0.206491
Si Si4 0.929909 0.630468 0.765403
Si Si5 0.178699 0.870052 0.455667
Si Si6 0.523650 0.952666 0.671172
Si Si7 0.381628 0.518455 0.857358
O O1 0.486286 0.695017 0.320215
O O2 0.036106 0.608172 0.404955
O O3 0.429809 0.689045 0.864661
O O4 0.285472 0.559381 0.964584
O O5 0.359898 0.173312 0.308638
O O6 0.102913 0.210308 0.563957
O O7 0.392987 0.090457 0.409121
O O8 0.814995 0.262203 0.214637
O O9 0.609617 0.127177 0.861780
O O10 0.653488 0.595851 0.911170
O O11 0.849559 0.571354 0.946326
O O12 0.218013 0.869874 0.695778
O O13 0.270185 0.962603 0.532500
O O14 0.500000 0.000000 0.000000
O O15 0.500000 0.500000 0.500000
#
# Coordination Sequence:
#
# PCOD9027833 Si02
#       7
#     2   2   2   2   2   2   2
#     4  11  27  46  68 102 142 179 229 287 339 409
#     4  11  27  42  73 104 133 186 230 278 346 400
#     4  10  23  42  68  95 135 177 229 281 342 407
#     4  10  25  44  66  99 136 178 229 284 345 406
#     4  10  22  41  69  96 137 177 227 284 335 409
#     4   9  21  41  65  98 134 180 220 280 345 394
#     4  11  26  42  71 100 133 186 228 280 348 406
#
# _framework density 23.261998999999999
#
# number of rings (size 3 to 8) (size 9 to 14) (size 15 to 20)
#    0.000    1.714    0.000    1.286   20.000    1.143 
#    0.000    6.429    0.000    0.000    0.000    0.000 
#    0.000    0.000    0.000    0.000    0.000    0.000 
#
# Total GULP energy -78117.431107 kJ/mol
# GULP energy per Si atom -5579.816508 kJ/mol
# Density = 2.320905 g / cm^3
# Si number density = 23.261999 Si / 1000 Ang^3
#
#
#
# Elastic Constant Matrix: (Units=GPa)
#
#
# Indices 1 2 3 4 5 6 
#
# 1 107.8014 11.2299 22.0134 11.5593 1.2282 -10.4763
# 2 11.2299 50.4355 19.3994 25.4354 3.5055 -14.1090
# 3 22.0134 19.3994 53.9450 16.1576 -0.0288 -2.6203
# 4 11.5593 25.4354 16.1576 30.3304 -4.9467 -0.2063
# 5 1.2282 3.5055 -0.0288 -4.9467 38.1666 8.0411
# 6 -10.4763 -14.1090 -2.6203 -0.2063 8.0411 55.6054
#
#
#
# Elastic Compliance Matrix: (Units=1/GPa)
#
#
# Indices 1 2 3 4 5 6 
#
# 1 0.010501 0.001755 -0.003677 -0.003744 -0.001504 0.002454
# 2 0.001755 0.044544 -0.004971 -0.037196 -0.011701 0.012953
# 3 -0.003677 -0.004971 0.023948 -0.007221 -0.000168 -0.000828
# 4 -0.003744 -0.037196 -0.007221 0.071875 0.015471 -0.012454
# 5 -0.001504 -0.011701 -0.000168 0.015471 0.030947 -0.007678
# 6 0.002454 0.012953 -0.000828 -0.012454 -0.007678 0.022758
#
#
# Mechanical properties :
#
#
# Convention : Reuss Voigt Hill
#
# Bulk Modulus (GPa) = 15.33548 35.27415 25.30481
# Shear Modulus (GPa) = 20.82523 35.45643 28.14083
#
# Velocity S-wave (km/s) = 2.99531 3.90836 3.48190
# Velocity P-wave (km/s) = 4.30922 5.96354 5.20256
#
# Compressibility (1/GPa) = 0.06520828
#
# Stress axis : x y z
#
# Youngs Moduli (GPa) = 95.22550 22.44986 41.75748
#
# Poissons Ratio (x) = -0.03941 0.15353
# Poissons Ratio (y) = -0.16716 0.20758
# Poissons Ratio (z) = 0.35011 0.11160
#
# Static dielectric constant tensor:
#      x y z
#    x 2.097510 0.037610 0.140410 
#    y 0.037610 1.910220 -0.010710 
#    z 0.140410 -0.010710 1.932220 
# 
# From -- ./inp_files/55330.got.cif
#   From: 2010.05.17/outbox.cif.g08.bks.cpg/sg2_28_cif.got.tgz:55330.got - 2010.06.03 11:33:40.
