data_PCOD9027454
_publ_section_title
;
Structure prediction by ZEFSAII (Michael W. Deem and Ramdas Pophale) SiO2 
 PCOD9027454
Probable space group: P -1
;
_chemical_formula_sum "Si O2"
_cell_formula_units_Z 16
_cell_length_a 12.727224
_cell_length_b 13.117492
_cell_length_c 12.724332
_cell_angle_alpha 124.450172
_cell_angle_beta 125.973475
_cell_angle_gamma 24.307319
_cell_volume 704.726825
_symmetry_space_group_name_H-M "P -1"
_symmetry_group_IT_number 2
_symmetry_cell_setting 'triclinic'
loop_
_space_group_symop_operation_xyz
x,y,z
-x,-y,-z
loop_
_atom_site_type_symbol
_atom_site_label
_atom_site_fract_x
_atom_site_fract_y
_atom_site_fract_z
Si Si1 0.618167 0.403706 0.178201
Si Si2 0.717953 0.942852 0.461934
Si Si3 0.276919 0.832398 0.090977
Si Si4 0.288156 0.269913 0.083015
Si Si5 0.234361 0.829478 0.461498
Si Si6 0.928925 0.773719 0.711725
Si Si7 0.126141 0.412716 0.310832
Si Si8 0.465713 0.400915 0.285021
O O1 0.375592 0.694126 0.178212
O O2 0.657232 0.302325 0.252348
O O3 0.851867 0.306934 0.237183
O O4 0.568576 0.341347 0.021999
O O5 0.792571 0.844896 0.566513
O O6 0.919228 0.696917 0.363800
O O7 0.785120 0.030775 0.533903
O O8 0.405412 0.194937 0.408030
O O9 0.263477 0.989069 0.188546
O O10 0.000000 0.000000 0.000000
O O11 0.228783 0.300135 0.188942
O O12 0.389765 0.326867 0.163995
O O13 0.000000 0.500000 0.000000
O O14 0.500000 0.000000 0.000000
O O15 0.257389 0.684217 0.325691
O O16 0.462901 0.662645 0.586011
O O17 0.000000 0.000000 0.500000
O O18 0.022330 0.579612 0.718534
#
# Coordination Sequence:
#
# PCOD9027454 Si02
#       8
#     2   2   2   2   2   2   2   2
#     4  10  22  41  68 101 143 180 247 301 365 437
#     4  12  26  47  73 109 149 190 247 308 371 439
#     4   9  21  40  61  98 137 182 231 301 353 434
#     4  12  29  51  76 107 149 202 249 301 367 447
#     4  11  24  43  76 105 146 188 245 319 368 436
#     4  11  25  41  73 102 143 193 240 294 382 433
#     4  12  28  49  72 106 152 195 249 301 363 452
#     4  11  25  44  73 108 141 192 248 308 376 435
#
# _framework density 22.703831000000001
#
# number of rings (size 3 to 8) (size 9 to 14) (size 15 to 20)
#    0.000    1.000    1.250    3.750   10.500    4.000 
#    0.000    0.000    0.000    0.000    0.000    0.000 
#    0.000    0.000    0.000    0.000    0.000    0.000 
#
# Total GULP energy -89223.860474 kJ/mol
# GULP energy per Si atom -5576.491280 kJ/mol
# Density = 2.265216 g / cm^3
# Si number density = 22.703831 Si / 1000 Ang^3
#
#
#
# Elastic Constant Matrix: (Units=GPa)
#
#
# Indices 1 2 3 4 5 6 
#
# 1 129.4555 24.0999 23.8978 10.6318 6.7395 19.1817
# 2 24.0999 104.2024 29.3552 20.1381 17.1856 6.5452
# 3 23.8978 29.3552 72.7023 20.1827 10.0902 6.0721
# 4 10.6318 20.1381 20.1827 48.1544 9.0205 6.0032
# 5 6.7395 17.1856 10.0902 9.0205 31.0102 -3.4825
# 6 19.1817 6.5452 6.0721 6.0032 -3.4825 36.5035
#
#
#
# Elastic Compliance Matrix: (Units=1/GPa)
#
#
# Indices 1 2 3 4 5 6 
#
# 1 0.008992 -0.001051 -0.002020 0.000069 -0.001221 -0.004329
# 2 -0.001051 0.012056 -0.003065 -0.002469 -0.004867 -0.001158
# 3 -0.002020 -0.003065 0.017419 -0.005095 -0.002122 -0.000651
# 4 0.000069 -0.002469 -0.005095 0.025216 -0.004699 -0.003341
# 5 -0.001221 -0.004867 -0.002122 -0.004699 0.037971 0.006263
# 6 -0.004329 -0.001158 -0.000651 -0.003341 0.006263 0.031132
#
#
# Mechanical properties :
#
#
# Convention : Reuss Voigt Hill
#
# Bulk Modulus (GPa) = 38.17244 51.22957 44.70100
# Shear Modulus (GPa) = 32.51200 38.40077 35.45638
#
# Velocity S-wave (km/s) = 3.78829 4.11710 3.95611
# Velocity P-wave (km/s) = 5.99871 6.72413 6.37175
#
# Compressibility (1/GPa) = 0.02619691
#
# Stress axis : x y z
#
# Youngs Moduli (GPa) = 111.20453 82.94775 57.40787
#
# Poissons Ratio (x) = 0.08716 0.11595
# Poissons Ratio (y) = 0.11686 0.17594
# Poissons Ratio (z) = 0.22460 0.25421
#
# Static dielectric constant tensor:
#      x y z
#    x 1.833360 0.032350 -0.073430 
#    y 0.032350 1.895560 -0.058520 
#    z -0.073430 -0.058520 2.128370 
# 
# From -- ./inp_files/428771.got.cif
#   From: 2010.05.17/outbox.cif.g08.bks.cpg/sg2_215_cif.got.tgz:428771.got - 2010.06.03 11:33:40.
