data_PCOD9027203
_publ_section_title
;
Structure prediction by ZEFSAII (Michael W. Deem and Ramdas Pophale) SiO2 
 PCOD9027203
Probable space group: P -1
;
_chemical_formula_sum "Si O2"
_cell_formula_units_Z 16
_cell_length_a 12.676518
_cell_length_b 21.245936
_cell_length_c 8.816408
_cell_angle_alpha 121.539169
_cell_angle_beta 112.170678
_cell_angle_gamma 21.557601
_cell_volume 696.983845
_symmetry_space_group_name_H-M "P -1"
_symmetry_group_IT_number 2
_symmetry_cell_setting 'triclinic'
loop_
_space_group_symop_operation_xyz
x,y,z
-x,-y,-z
loop_
_atom_site_type_symbol
_atom_site_label
_atom_site_fract_x
_atom_site_fract_y
_atom_site_fract_z
Si Si1 0.801633 0.437431 0.683199
Si Si2 0.801556 0.598659 0.748349
Si Si3 0.283803 0.688234 0.926275
Si Si4 0.238719 0.065076 0.536103
Si Si5 0.585922 0.372703 0.576951
Si Si6 0.426938 0.252030 0.528456
Si Si7 0.080449 0.956568 0.280645
Si Si8 0.718660 0.051209 0.866324
O O1 0.836367 0.498273 0.717095
O O2 0.570527 0.561382 0.853245
O O3 0.639207 0.493303 0.521948
O O4 0.135424 0.209470 0.631022
O O5 0.681975 0.667574 0.598139
O O6 0.131098 0.438431 0.710900
O O7 0.542972 0.789877 0.951461
O O8 0.400449 0.532095 0.807270
O O9 0.128023 0.839187 0.152920
O O10 0.025624 0.840568 0.849279
O O11 0.900112 0.230517 0.561746
O O12 0.438088 0.912899 0.589148
O O13 0.383385 0.942300 0.311619
O O14 0.747532 0.194045 0.430375
O O15 0.690444 0.145686 0.602549
O O16 0.191054 0.926393 0.141858
#
# Coordination Sequence:
#
# PCOD9027203 Si02
#       8
#     2   2   2   2   2   2   2   2
#     4  11  17  32  60  91 106 149 186 225 280 345
#     4  11  22  36  62  74 109 155 196 228 287 333
#     4  11  16  31  56  91 118 140 177 238 284 336
#     4   9  18  34  60  79 119 139 179 236 282 324
#     4   9  17  30  55  88 120 141 170 232 292 333
#     4   9  23  42  50  77 117 153 184 242 285 324
#     4  10  19  32  58  82 114 148 189 226 280 337
#     4  10  17  31  57  86 105 144 189 226 270 345
#
# _framework density 22.956056
#
# number of rings (size 3 to 8) (size 9 to 14) (size 15 to 20)
#    0.000    2.250    5.000    1.875    0.000    2.500 
#    0.000    5.625    8.250    9.000    0.000    0.000 
#    0.000    0.000    0.000    0.000    0.000    0.000 
#
# Total GULP energy -89131.801774 kJ/mol
# GULP energy per Si atom -5570.737611 kJ/mol
# Density = 2.290381 g / cm^3
# Si number density = 22.956056 Si / 1000 Ang^3
#
#
#
# Elastic Constant Matrix: (Units=GPa)
#
#
# Indices 1 2 3 4 5 6 
#
# 1 52.4709 73.5922 18.1753 24.9882 9.0914 48.2156
# 2 73.5922 505.6046 -5.6309 84.9372 107.3194 315.6940
# 3 18.1753 -5.6309 86.2636 36.0026 5.9474 4.0097
# 4 24.9882 84.9372 36.0026 41.1818 21.2225 55.0304
# 5 9.0914 107.3194 5.9474 21.2225 60.4234 76.6452
# 6 48.2156 315.6940 4.0097 55.0304 76.6452 233.8254
#
#
#
# Elastic Compliance Matrix: (Units=1/GPa)
#
#
# Indices 1 2 3 4 5 6 
#
# 1 0.029692 -0.002083 -0.001583 -0.012407 0.007200 -0.002723
# 2 -0.002083 0.016456 0.009409 -0.016663 -0.001917 -0.017400
# 3 -0.001583 0.009409 0.028835 -0.038405 -0.001644 -0.003293
# 4 -0.012407 -0.016663 -0.038405 0.095861 -0.004154 0.004516
# 5 0.007200 -0.001917 -0.001644 -0.004154 0.030497 -0.007887
# 6 -0.002723 -0.017400 -0.003293 0.004516 -0.007887 0.029909
#
#
# Mechanical properties :
#
#
# Convention : Reuss Voigt Hill
#
# Bulk Modulus (GPa) = 11.56508 90.73470 51.14989
# Shear Modulus (GPa) = 20.11364 104.29962 62.20663
#
# Velocity S-wave (km/s) = 2.96325 6.74782 5.21123
# Velocity P-wave (km/s) = 4.09349 10.01609 7.65110
#
# Compressibility (1/GPa) = 0.08646723
#
# Stress axis : x y z
#
# Youngs Moduli (GPa) = 33.67956 60.76746 34.67989
#
# Poissons Ratio (x) = 0.12658 0.05491
# Poissons Ratio (y) = 0.07016 -0.32629
# Poissons Ratio (z) = 0.05333 -0.57174
#
# Static dielectric constant tensor:
#      x y z
#    x 1.950410 0.061830 0.036710 
#    y 0.061830 1.879950 0.046280 
#    z 0.036710 0.046280 1.928270 
# 
# From -- ./inp_files/320316.got.cif
#   From: 2010.05.17/outbox.cif.g08.bks.cpg/sg2_161_cif.got.tgz:320316.got - 2010.06.03 11:33:40.
