data_PCOD9028621
_publ_section_title
;
Structure prediction by ZEFSAII (Michael W. Deem and Ramdas Pophale) SiO2 
 PCOD9028621
Probable space group: P -1
;
_chemical_formula_sum "Si O2"
_cell_formula_units_Z 16
_cell_length_a 17.069238
_cell_length_b 12.490453
_cell_length_c 8.559509
_cell_angle_alpha 68.274234
_cell_angle_beta 58.348949
_cell_angle_gamma 26.912047
_cell_volume 680.130613
_symmetry_space_group_name_H-M "P -1"
_symmetry_group_IT_number 2
_symmetry_cell_setting 'triclinic'
loop_
_space_group_symop_operation_xyz
x,y,z
-x,-y,-z
loop_
_atom_site_type_symbol
_atom_site_label
_atom_site_fract_x
_atom_site_fract_y
_atom_site_fract_z
Si Si1 0.455817 0.740890 0.617175
Si Si2 0.873776 0.039205 0.029811
Si Si3 0.916595 0.423974 0.900946
Si Si4 0.484803 0.144237 0.754426
Si Si5 0.434390 0.958340 0.765313
Si Si6 0.159938 0.247489 0.178709
Si Si7 0.103782 0.597567 0.408857
Si Si8 0.835894 0.221107 0.672581
O O1 0.296140 0.817808 0.755406
O O2 0.502412 0.746220 0.400047
O O3 0.379392 0.937907 0.688156
O O4 0.647791 0.475395 0.639452
O O5 0.792006 0.176782 0.876573
O O6 0.996284 0.787727 0.003596
O O7 0.000000 0.000000 0.000000
O O8 0.955039 0.509098 0.878314
O O9 0.975984 0.363844 0.690152
O O10 0.683823 0.668261 0.040286
O O11 0.421966 0.111331 0.716970
O O12 0.689860 0.891753 0.760071
O O13 0.666924 0.682205 0.679214
O O14 0.303901 0.054263 0.992806
O O15 0.006082 0.327926 0.364620
O O16 0.080944 0.758946 0.337551
O O17 0.000000 0.000000 0.500000
#
# Coordination Sequence:
#
# PCOD9028621 Si02
#       8
#     2   2   2   2   2   2   2   2
#     4  11  26  45  70  97 141 185 222 288 359 401
#     4  12  26  46  70  96 132 182 240 283 335 407
#     4  11  21  42  66 103 136 173 229 290 326 406
#     4  11  21  41  68 104 142 178 225 281 341 425
#     4  10  22  42  64 103 142 179 218 280 346 422
#     4  11  22  38  72 106 138 181 229 276 351 411
#     4  11  21  39  70  98 136 178 222 281 343 399
#     4  11  26  49  67  97 136 180 233 291 343 409
#
# _framework density 23.524894
#
# number of rings (size 3 to 8) (size 9 to 14) (size 15 to 20)
#    0.000    1.000    3.750    3.375    3.500    0.000 
#    2.250    2.500    0.000    0.000    0.000    0.000 
#    0.000    0.000    0.000    0.000    0.000    0.000 
#
# Total GULP energy -89456.189518 kJ/mol
# GULP energy per Si atom -5591.011845 kJ/mol
# Density = 2.347135 g / cm^3
# Si number density = 23.524894 Si / 1000 Ang^3
#
#
#
# Elastic Constant Matrix: (Units=GPa)
#
#
# Indices 1 2 3 4 5 6 
#
# 1 55.4132 4.0981 8.4015 -3.1275 -13.0068 -17.3287
# 2 4.0981 109.3561 34.6185 -13.1768 -12.6693 -6.4179
# 3 8.4015 34.6185 163.6417 -7.9153 -32.5419 -6.9617
# 4 -3.1275 -13.1768 -7.9153 41.3181 1.3052 -0.7130
# 5 -13.0068 -12.6693 -32.5419 1.3052 29.6420 -5.2407
# 6 -17.3287 -6.4179 -6.9617 -0.7130 -5.2407 17.4980
#
#
#
# Elastic Compliance Matrix: (Units=1/GPa)
#
#
# Indices 1 2 3 4 5 6 
#
# 1 0.047363 0.005282 0.008146 0.006591 0.043238 0.065301
# 2 0.005282 0.011206 -0.000174 0.003868 0.008884 0.012091
# 3 0.008146 -0.000174 0.010057 0.002234 0.017508 0.017340
# 4 0.006591 0.003868 0.002234 0.026322 0.008015 0.012308
# 5 0.043238 0.008884 0.017508 0.008015 0.089552 0.080192
# 6 0.065301 0.012091 0.017340 0.012308 0.080192 0.157672
#
#
# Mechanical properties :
#
#
# Convention : Reuss Voigt Hill
#
# Bulk Modulus (GPa) = 10.51133 46.96080 28.73607
# Shear Modulus (GPa) = 14.39368 36.44448 25.41908
#
# Velocity S-wave (km/s) = 2.47624 3.94024 3.29069
# Velocity P-wave (km/s) = 3.55719 6.38014 5.16526
#
# Compressibility (1/GPa) = 0.09513541
#
# Stress axis : x y z
#
# Youngs Moduli (GPa) = 21.11373 89.23422 99.43435
#
# Poissons Ratio (x) = -0.47136 -0.81002
# Poissons Ratio (y) = -0.11153 0.01727
# Poissons Ratio (z) = -0.17200 0.01550
#
# Static dielectric constant tensor:
#      x y z
#    x 1.950640 -0.021890 0.030990 
#    y -0.021890 1.892850 0.019410 
#    z 0.030990 0.019410 1.868140 
# 
# From -- ./inp_files/333012.got.cif
#   From: 2010.05.17/outbox.cif.g08.bks.cpg/sg2_167_cif.got.tgz:333012.got - 2010.06.03 11:33:40.
