data_PCOD9028423
_publ_section_title
;
Structure prediction by ZEFSAII (Michael W. Deem and Ramdas Pophale) SiO2 
 PCOD9028423
Probable space group: P -1
;
_chemical_formula_sum "Si O2"
_cell_formula_units_Z 16
_cell_length_a 10.958451
_cell_length_b 6.962398
_cell_length_c 11.301948
_cell_angle_alpha 95.733283
_cell_angle_beta 107.103302
_cell_angle_gamma 68.983874
_cell_volume 769.331995
_symmetry_space_group_name_H-M "P -1"
_symmetry_group_IT_number 2
_symmetry_cell_setting 'triclinic'
loop_
_space_group_symop_operation_xyz
x,y,z
-x,-y,-z
loop_
_atom_site_type_symbol
_atom_site_label
_atom_site_fract_x
_atom_site_fract_y
_atom_site_fract_z
Si Si1 0.716002 0.915324 0.590350
Si Si2 0.100552 0.625886 0.056380
Si Si3 0.541540 0.042173 0.319614
Si Si4 0.573598 0.673003 0.134909
Si Si5 0.860437 0.325054 0.195444
Si Si6 0.590794 0.595647 0.864461
Si Si7 0.059460 0.509084 0.389037
Si Si8 0.954098 0.092632 0.716170
O O1 0.655728 0.000948 0.450133
O O2 0.794200 0.669556 0.590142
O O3 0.592276 0.963822 0.649553
O O4 0.827155 0.013760 0.667176
O O5 0.250321 0.470891 0.124960
O O6 0.048550 0.794675 0.153004
O O7 0.120272 0.718538 0.941440
O O8 0.000000 0.500000 0.000000
O O9 0.582468 0.863101 0.222600
O O10 0.499595 0.257356 0.252139
O O11 0.707693 0.473012 0.182455
O O12 0.448747 0.606770 0.139179
O O13 0.565887 0.705272 0.993128
O O14 0.959292 0.449417 0.267187
O O15 0.911918 0.110134 0.265932
O O16 0.058366 0.734636 0.373885
O O17 0.000000 0.500000 0.500000
#
# Coordination Sequence:
#
# PCOD9028423 Si02
#       8
#     2   2   2   2   2   2   2   2
#     4  10  25  40  63  96 122 165 223 251 316 377
#     4  11  21  42  67  96 127 162 206 265 319 375
#     4  11  22  42  65  89 128 171 206 265 310 369
#     4  10  22  42  61  96 130 164 212 257 309 379
#     4  10  23  39  63  97 125 166 213 250 321 380
#     4  10  23  40  65  94 127 164 213 254 316 379
#     4  11  23  41  62  90 129 166 210 264 309 373
#     4  11  23  42  65  93 127 166 206 269 314 373
#
# _framework density 20.797264999999999
#
# number of rings (size 3 to 8) (size 9 to 14) (size 15 to 20)
#    0.000    1.500    1.250    3.000    1.750    6.000 
#    6.750    3.125    0.000    0.000    0.000    0.000 
#    0.000    0.000    0.000    0.000    0.000    0.000 
#
# Total GULP energy -89474.849173 kJ/mol
# GULP energy per Si atom -5592.178073 kJ/mol
# Density = 2.074993 g / cm^3
# Si number density = 20.797265 Si / 1000 Ang^3
#
#
#
# Elastic Constant Matrix: (Units=GPa)
#
#
# Indices 1 2 3 4 5 6 
#
# 1 50.0433 9.4639 -7.0493 -12.4773 12.0308 -8.2923
# 2 9.4639 74.3383 7.7818 -20.9596 -2.1628 2.4271
# 3 -7.0493 7.7818 63.8064 -12.9489 6.4887 -5.3055
# 4 -12.4773 -20.9596 -12.9489 35.5900 -3.5750 1.3010
# 5 12.0308 -2.1628 6.4887 -3.5750 28.9448 -0.9729
# 6 -8.2923 2.4271 -5.3055 1.3010 -0.9729 18.5980
#
#
#
# Elastic Compliance Matrix: (Units=1/GPa)
#
#
# Indices 1 2 3 4 5 6 
#
# 1 0.029514 -0.002637 0.008080 0.009944 -0.012562 0.014456
# 2 -0.002637 0.016683 -0.001214 0.008970 0.003584 -0.004139
# 3 0.008080 -0.001214 0.019779 0.008344 -0.006568 0.008476
# 4 0.009944 0.008970 0.008344 0.039766 -0.000326 0.002845
# 5 -0.012562 0.003584 -0.006568 -0.000326 0.041276 -0.005760
# 6 0.014456 -0.004139 0.008476 0.002845 -0.005760 0.062673
#
#
# Mechanical properties :
#
#
# Convention : Reuss Voigt Hill
#
# Bulk Modulus (GPa) = 13.43477 23.17563 18.30520
# Shear Modulus (GPa) = 22.11942 28.49266 25.30604
#
# Velocity S-wave (km/s) = 3.26479 3.70539 3.49205
# Velocity P-wave (km/s) = 4.54815 5.42903 5.00800
#
# Compressibility (1/GPa) = 0.07443374
#
# Stress axis : x y z
#
# Youngs Moduli (GPa) = 33.88206 59.93986 50.55801
#
# Poissons Ratio (x) = 0.15806 -0.40850
# Poissons Ratio (y) = 0.08935 0.06139
# Poissons Ratio (z) = -0.27376 0.07278
#
# Static dielectric constant tensor:
#      x y z
#    x 1.735940 -0.010560 -0.004940 
#    y -0.010560 1.722030 -0.017470 
#    z -0.004940 -0.017470 1.758220 
# 
# From -- ./inp_files/70051.got.cif
#   From: 2010.05.17/outbox.cif.g08.bks.cpg/sg2_36_cif.got.tgz:70051.got - 2010.06.03 11:33:40.
