data_PCOD9028974
_publ_section_title
;
Structure prediction by ZEFSAII (Michael W. Deem and Ramdas Pophale) SiO2 
 PCOD9028974
Probable space group: P -1
;
_chemical_formula_sum "Si O2"
_cell_formula_units_Z 16
_cell_length_a 18.164956
_cell_length_b 9.629200
_cell_length_c 14.125983
_cell_angle_alpha 40.012542
_cell_angle_beta 151.420448
_cell_angle_gamma 140.546854
_cell_volume 719.050943
_symmetry_space_group_name_H-M "P -1"
_symmetry_group_IT_number 2
_symmetry_cell_setting 'triclinic'
loop_
_space_group_symop_operation_xyz
x,y,z
-x,-y,-z
loop_
_atom_site_type_symbol
_atom_site_label
_atom_site_fract_x
_atom_site_fract_y
_atom_site_fract_z
Si Si1 0.419923 0.559471 0.470942
Si Si2 0.233786 0.678855 0.809746
Si Si3 0.312825 0.182839 0.702184
Si Si4 0.774113 0.147824 0.978710
Si Si5 0.012817 0.339864 0.318008
Si Si6 0.941805 0.170422 0.968442
Si Si7 0.486616 0.705877 0.941165
Si Si8 0.741422 0.763888 0.821969
O O1 0.500000 0.500000 0.500000
O O2 0.360575 0.337697 0.583343
O O3 0.276935 0.646900 0.229400
O O4 0.563736 0.744253 0.594504
O O5 0.048086 0.643527 0.652046
O O6 0.317278 0.934089 0.810128
O O7 0.302116 0.680863 0.779080
O O8 0.267644 0.475773 0.013577
O O9 0.140434 0.205770 0.525404
O O10 0.430776 0.291072 0.865063
O O11 0.900405 0.117315 0.059346
O O12 0.862004 0.215616 0.142801
O O13 0.605775 0.939200 0.908017
O O14 0.080924 0.594764 0.217958
O O15 0.817820 0.964107 0.877992
O O16 0.125699 0.192867 0.134808
O O17 0.500000 0.500000 0.000000
#
# Coordination Sequence:
#
# PCOD9028974 Si02
#       8
#     2   2   2   2   2   2   2   2
#     4  12  25  40  68 105 131 179 231 286 340 409
#     4  11  22  44  70  97 135 182 227 284 338 419
#     4  12  25  44  73 101 140 186 235 282 348 416
#     4  12  25  42  68 101 139 175 235 289 339 406
#     4  11  24  43  70 103 134 183 238 286 348 406
#     4  10  22  42  65  97 142 180 220 292 341 410
#     4  12  27  46  69 103 142 184 228 288 355 418
#     4  10  23  41  68  97 138 183 230 275 359 405
#
# _framework density 22.251553999999999
#
# number of rings (size 3 to 8) (size 9 to 14) (size 15 to 20)
#    0.000    0.750    3.750    4.125    1.750    1.500 
#    0.000    0.625    0.000    0.000    0.000    0.000 
#    0.000    0.000    0.000    0.000    0.000    0.000 
#
# Total GULP energy -89402.227696 kJ/mol
# GULP energy per Si atom -5587.639231 kJ/mol
# Density = 2.220091 g / cm^3
# Si number density = 22.251554 Si / 1000 Ang^3
#
#
#
# Elastic Constant Matrix: (Units=GPa)
#
#
# Indices 1 2 3 4 5 6 
#
# 1 165.1059 52.0714 -6.7130 -19.2819 14.4649 16.9057
# 2 52.0714 107.4101 30.0950 -16.6744 -0.9825 -2.2031
# 3 -6.7130 30.0950 34.7046 -6.8637 0.6383 -0.8952
# 4 -19.2819 -16.6744 -6.8637 21.8068 6.7412 3.8671
# 5 14.4649 -0.9825 0.6383 6.7412 30.5332 -4.8751
# 6 16.9057 -2.2031 -0.8952 3.8671 -4.8751 40.6510
#
#
#
# Elastic Compliance Matrix: (Units=1/GPa)
#
#
# Indices 1 2 3 4 5 6 
#
# 1 0.011955 -0.007107 0.011064 0.013128 -0.010234 -0.007589
# 2 -0.007107 0.017467 -0.016596 -0.000453 0.005044 0.004185
# 3 0.011064 -0.016596 0.048823 0.017454 -0.011848 -0.007507
# 4 0.013128 -0.000453 0.017454 0.073054 -0.025133 -0.015064
# 5 -0.010234 0.005044 -0.011848 -0.025133 0.045493 0.012115
# 6 -0.007589 0.004185 -0.007507 -0.015064 0.012115 0.030703
#
#
# Mechanical properties :
#
#
# Convention : Reuss Voigt Hill
#
# Bulk Modulus (GPa) = 18.87960 50.90303 34.89132
# Shear Modulus (GPa) = 18.48923 34.04934 26.26928
#
# Velocity S-wave (km/s) = 2.88569 3.91602 3.43965
# Velocity P-wave (km/s) = 4.42787 6.58580 5.61154
#
# Compressibility (1/GPa) = 0.05296723
#
# Stress axis : x y z
#
# Youngs Moduli (GPa) = 83.64816 57.25021 20.48221
#
# Poissons Ratio (x) = 0.40687 -0.22662
# Poissons Ratio (y) = 0.59448 0.33993
# Poissons Ratio (z) = -0.92551 0.95014
#
# Static dielectric constant tensor:
#      x y z
#    x 2.156420 -0.118170 0.115630 
#    y -0.118170 1.944450 -0.007420 
#    z 0.115630 -0.007420 1.838670 
# 
# From -- ./inp_files/537594.got.cif
#   From: 2010.05.17/outbox.cif.g08.bks.cpg/sg2_269_cif.got.tgz:537594.got - 2010.06.03 11:33:40.
