data_PCOD9028064
_publ_section_title
;
Structure prediction by ZEFSAII (Michael W. Deem and Ramdas Pophale) SiO2 
 PCOD9028064
Probable space group: P -1
;
_chemical_formula_sum "Si O2"
_cell_formula_units_Z 14
_cell_length_a 7.541420
_cell_length_b 12.009771
_cell_length_c 8.402350
_cell_angle_alpha 65.044447
_cell_angle_beta 66.468983
_cell_angle_gamma 104.173916
_cell_volume 548.842278
_symmetry_space_group_name_H-M "P -1"
_symmetry_group_IT_number 2
_symmetry_cell_setting 'triclinic'
loop_
_space_group_symop_operation_xyz
x,y,z
-x,-y,-z
loop_
_atom_site_type_symbol
_atom_site_label
_atom_site_fract_x
_atom_site_fract_y
_atom_site_fract_z
Si Si1 0.426565 0.959893 0.818260
Si Si2 0.164769 0.661721 0.222869
Si Si3 0.442386 0.302566 0.364636
Si Si4 0.916205 0.627056 0.660675
Si Si5 0.238270 0.135140 0.867694
Si Si6 0.705740 0.586939 0.250067
Si Si7 0.751721 0.174133 0.339994
O O1 0.246401 0.909878 0.764835
O O2 0.381153 0.058852 0.891110
O O3 0.657888 0.062071 0.586330
O O4 0.358023 0.812797 0.011113
O O5 0.220790 0.540806 0.223607
O O6 0.099232 0.665231 0.428714
O O7 0.935966 0.621736 0.232942
O O8 0.241420 0.304952 0.344323
O O9 0.330410 0.225764 0.617897
O O10 0.632033 0.466807 0.216424
O O11 0.570821 0.219512 0.323514
O O12 0.044603 0.686557 0.743905
O O13 0.267430 0.261346 0.896430
O O14 0.000000 0.000000 0.000000
O O15 0.500000 0.500000 0.500000
#
# Coordination Sequence:
#
# PCOD9028064 Si02
#       7
#     2   2   2   2   2   2   2
#     4  10  22  41  60  88 124 166 202 240 307 366
#     4  11  21  36  63  95 122 152 206 256 300 358
#     4  10  20  38  60  87 120 159 201 245 305 357
#     4  11  22  37  64  93 120 156 203 258 299 352
#     4  10  17  31  60  89 113 152 204 246 291 356
#     4  10  17  33  58  90 117 155 192 248 303 349
#     4  10  23  42  65  83 125 169 197 245 304 364
#
# _framework density 25.508237999999999
#
# number of rings (size 3 to 8) (size 9 to 14) (size 15 to 20)
#    0.000    1.714    5.714    0.000    0.000    1.143 
#    0.000    8.571    0.000    0.000    0.000    0.000 
#    0.000    0.000    0.000    0.000    0.000    0.000 
#
# Total GULP energy -78193.346735 kJ/mol
# GULP energy per Si atom -5585.239052 kJ/mol
# Density = 2.545018 g / cm^3
# Si number density = 25.508238 Si / 1000 Ang^3
#
#
#
# Elastic Constant Matrix: (Units=GPa)
#
#
# Indices 1 2 3 4 5 6 
#
# 1 85.2946 34.6081 10.5905 -4.4664 3.0338 -4.8120
# 2 34.6081 132.3560 40.5171 -32.5897 -5.3406 6.5016
# 3 10.5905 40.5171 131.9344 -47.2368 -11.1767 -4.3075
# 4 -4.4664 -32.5897 -47.2368 41.6129 -6.3044 8.1474
# 5 3.0338 -5.3406 -11.1767 -6.3044 25.3460 -12.9752
# 6 -4.8120 6.5016 -4.3075 8.1474 -12.9752 40.1532
#
#
#
# Elastic Compliance Matrix: (Units=1/GPa)
#
#
# Indices 1 2 3 4 5 6 
#
# 1 0.013763 -0.004541 -0.001727 -0.004981 -0.003548 0.002063
# 2 -0.004541 0.011456 0.001077 0.010999 0.004621 -0.003022
# 3 -0.001727 0.001077 0.015849 0.020368 0.013238 0.001464
# 4 -0.004981 0.010999 0.020368 0.059809 0.024516 -0.004406
# 5 -0.003548 0.004621 0.013238 0.024516 0.060351 0.014774
# 6 0.002063 -0.003022 0.001464 -0.004406 0.014774 0.031467
#
#
# Mechanical properties :
#
#
# Convention : Reuss Voigt Hill
#
# Bulk Modulus (GPa) = 32.58684 57.89074 45.23879
# Shear Modulus (GPa) = 23.44068 39.01371 31.22719
#
# Velocity S-wave (km/s) = 3.03470 3.91507 3.50265
# Velocity P-wave (km/s) = 5.00819 6.57124 5.84222
#
# Compressibility (1/GPa) = 0.03068724
#
# Stress axis : x y z
#
# Youngs Moduli (GPa) = 72.65982 87.28857 63.09509
#
# Poissons Ratio (x) = 0.39638 0.10894
# Poissons Ratio (y) = 0.32995 -0.06797
# Poissons Ratio (z) = 0.12546 -0.09403
#
# Static dielectric constant tensor:
#      x y z
#    x 2.006880 -0.145100 0.008920 
#    y -0.145100 1.223810 0.072920 
#    z 0.008920 0.072920 2.046430 
# 
# From -- ./inp_files/393812.got.cif
#   From: 2010.05.17/outbox.cif.g08.bks.cpg/sg2_197_cif.got.tgz:393812.got - 2010.06.03 11:33:40.
