data_PCOD9028378
_publ_section_title
;
Structure prediction by ZEFSAII (Michael W. Deem and Ramdas Pophale) SiO2 
 PCOD9028378
Probable space group: P -1
;
_chemical_formula_sum "Si O2"
_cell_formula_units_Z 16
_cell_length_a 11.120998
_cell_length_b 6.690272
_cell_length_c 12.289526
_cell_angle_alpha 126.266591
_cell_angle_beta 78.403945
_cell_angle_gamma 99.677296
_cell_volume 720.783631
_symmetry_space_group_name_H-M "P -1"
_symmetry_group_IT_number 2
_symmetry_cell_setting 'triclinic'
loop_
_space_group_symop_operation_xyz
x,y,z
-x,-y,-z
loop_
_atom_site_type_symbol
_atom_site_label
_atom_site_fract_x
_atom_site_fract_y
_atom_site_fract_z
Si Si1 0.122647 0.485930 0.901335
Si Si2 0.356216 0.773372 0.054319
Si Si3 0.444583 0.292549 0.184075
Si Si4 0.860158 0.402046 0.314217
Si Si5 0.578575 0.267016 0.373562
Si Si6 0.840716 0.974636 0.552138
Si Si7 0.585348 0.173285 0.689457
Si Si8 0.955598 0.037875 0.333255
O O1 0.124029 0.620424 0.826021
O O2 0.124026 0.194999 0.777617
O O3 0.239791 0.600429 0.982330
O O4 0.000000 0.500000 0.000000
O O5 0.391047 0.742551 0.163162
O O6 0.340253 0.068354 0.130884
O O7 0.472695 0.713617 0.940306
O O8 0.532865 0.225988 0.245058
O O9 0.407565 0.572954 0.297562
O O10 0.724497 0.313205 0.354697
O O11 0.868078 0.691616 0.433969
O O12 0.958827 0.253591 0.314230
O O13 0.500000 0.500000 0.500000
O O14 0.535672 0.010703 0.360009
O O15 0.914043 0.048945 0.673124
O O16 0.697939 0.005264 0.592927
O O17 0.891382 0.118772 0.482697
#
# Coordination Sequence:
#
# PCOD9028378 Si02
#       8
#     2   2   2   2   2   2   2   2
#     4  11  24  44  66  94 129 167 222 274 315 385
#     4  10  22  42  60  92 134 162 222 269 310 385
#     4  10  23  41  63  94 130 175 206 266 325 380
#     4  11  23  42  67  94 133 173 209 270 327 382
#     4  11  23  39  61 103 138 160 211 263 320 393
#     4  10  22  43  60  97 131 161 223 269 309 397
#     4  11  23  37  68  94 129 174 212 257 329 385
#     4  10  24  41  68  90 126 177 214 265 331 371
#
# _framework density 22.198063000000001
#
# number of rings (size 3 to 8) (size 9 to 14) (size 15 to 20)
#    0.000    1.500    2.500    1.500    3.500    2.000 
#    0.000    6.250    0.000    0.000    0.000    0.000 
#    0.000    0.000    0.000    0.000    0.000    0.000 
#
# Total GULP energy -89375.814407 kJ/mol
# GULP energy per Si atom -5585.988400 kJ/mol
# Density = 2.214754 g / cm^3
# Si number density = 22.198063 Si / 1000 Ang^3
#
#
#
# Elastic Constant Matrix: (Units=GPa)
#
#
# Indices 1 2 3 4 5 6 
#
# 1 66.4042 20.7192 17.0961 1.9314 4.5789 25.3217
# 2 20.7192 93.3821 15.8288 11.6287 4.3328 -3.6877
# 3 17.0961 15.8288 59.7147 3.0768 6.1922 4.2145
# 4 1.9314 11.6287 3.0768 33.2238 9.4935 6.0045
# 5 4.5789 4.3328 6.1922 9.4935 29.1356 3.0562
# 6 25.3217 -3.6877 4.2145 6.0045 3.0562 34.5287
#
#
#
# Elastic Compliance Matrix: (Units=1/GPa)
#
#
# Indices 1 2 3 4 5 6 
#
# 1 0.025614 -0.006282 -0.004361 0.005179 -0.001789 -0.019665
# 2 -0.006282 0.013403 -0.002026 -0.005581 0.000487 0.007213
# 3 -0.004361 -0.002026 0.018787 -0.000072 -0.003085 0.000974
# 4 0.005179 -0.005581 -0.000072 0.036637 -0.010879 -0.009793
# 5 -0.001789 0.000487 -0.003085 -0.010879 0.038710 0.000206
# 6 -0.019665 0.007213 0.000974 -0.009793 0.000206 0.045719
#
#
# Mechanical properties :
#
#
# Convention : Reuss Voigt Hill
#
# Bulk Modulus (GPa) = 30.80314 36.30990 33.55652
# Shear Modulus (GPa) = 23.25255 30.43476 26.84365
#
# Velocity S-wave (km/s) = 3.24003 3.70679 3.48124
# Velocity P-wave (km/s) = 5.28239 5.89179 5.59539
#
# Compressibility (1/GPa) = 0.03246422
#
# Stress axis : x y z
#
# Youngs Moduli (GPa) = 39.04159 74.60823 53.22878
#
# Poissons Ratio (x) = 0.46871 0.23214
# Poissons Ratio (y) = 0.24527 0.10786
# Poissons Ratio (z) = 0.17027 0.15118
#
# Static dielectric constant tensor:
#      x y z
#    x 1.818110 0.025920 -0.003120 
#    y 0.025920 1.850340 0.011800 
#    z -0.003120 0.011800 1.849150 
# 
# From -- ./inp_files/68635.got.cif
#   From: 2010.05.17/outbox.cif.g08.bks.cpg/sg2_35_cif.got.tgz:68635.got - 2010.06.03 11:33:40.
