data_PCOD9028397
_publ_section_title
;
Structure prediction by ZEFSAII (Michael W. Deem and Ramdas Pophale) SiO2 
 PCOD9028397
Probable space group: P -1
;
_chemical_formula_sum "Si O2"
_cell_formula_units_Z 16
_cell_length_a 8.946319
_cell_length_b 8.234657
_cell_length_c 20.599678
_cell_angle_alpha 123.339930
_cell_angle_beta 144.485376
_cell_angle_gamma 51.880537
_cell_volume 689.858697
_symmetry_space_group_name_H-M "P -1"
_symmetry_group_IT_number 2
_symmetry_cell_setting 'triclinic'
loop_
_space_group_symop_operation_xyz
x,y,z
-x,-y,-z
loop_
_atom_site_type_symbol
_atom_site_label
_atom_site_fract_x
_atom_site_fract_y
_atom_site_fract_z
Si Si1 0.087648 0.786375 0.520531
Si Si2 0.773058 0.688753 0.193461
Si Si3 0.758514 0.798589 0.538132
Si Si4 0.826107 0.480303 0.294589
Si Si5 0.421551 0.526658 0.400818
Si Si6 0.927072 0.498153 0.079172
Si Si7 0.756816 0.954617 0.863962
Si Si8 0.236909 0.704286 0.150498
O O1 0.419234 0.705972 0.619312
O O2 0.940251 0.797892 0.539827
O O3 0.967165 0.643594 0.402629
O O4 0.000000 0.000000 0.500000
O O5 0.764662 0.518733 0.206007
O O6 0.542879 0.906849 0.181390
O O7 0.100587 0.655648 0.304976
O O8 0.718449 0.618389 0.087728
O O9 0.604761 0.632378 0.448706
O O10 0.967508 0.740827 0.659805
O O11 0.500000 0.000000 0.500000
O O12 0.538794 0.556761 0.246225
O O13 0.500000 0.500000 0.500000
O O14 0.039249 0.671734 0.127966
O O15 0.146287 0.293821 0.146217
O O16 0.824630 0.403544 0.960357
O O17 0.763506 0.069584 0.822210
O O18 0.000000 0.000000 0.000000
#
# Coordination Sequence:
#
# PCOD9028397 Si02
#       8
#     2   2   2   2   2   2   2   2
#     4  11  24  40  66  89 129 180 216 268 332 394
#     4  11  23  39  70  96 128 176 222 269 334 400
#     4  11  24  40  61  93 128 169 219 269 327 397
#     4  10  22  42  61  89 130 167 214 269 327 381
#     4  11  21  41  59  88 134 163 212 276 318 389
#     4  10  22  42  69  94 131 175 217 276 344 384
#     4   9  21  43  65  93 131 168 222 275 329 397
#     4   9  21  42  64  95 133 166 222 278 325 403
#
# _framework density 23.193155000000001
#
# number of rings (size 3 to 8) (size 9 to 14) (size 15 to 20)
#    0.000    1.750    2.500    2.250    3.500    7.500 
#    0.000    8.125    0.000    0.000    0.000    0.000 
#    0.000    0.000    0.000    0.000    0.000    0.000 
#
# Total GULP energy -89164.902286 kJ/mol
# GULP energy per Si atom -5572.806393 kJ/mol
# Density = 2.314037 g / cm^3
# Si number density = 23.193155 Si / 1000 Ang^3
#
#
#
# Elastic Constant Matrix: (Units=GPa)
#
#
# Indices 1 2 3 4 5 6 
#
# 1 136.2402 25.8993 10.5314 -0.0034 -2.9519 1.6889
# 2 25.8993 108.3168 3.0925 -29.6092 -0.2372 2.8687
# 3 10.5314 3.0925 60.9176 -16.6237 11.0672 -3.1450
# 4 -0.0034 -29.6092 -16.6237 28.4702 -13.1877 2.8077
# 5 -2.9519 -0.2372 11.0672 -13.1877 35.5549 -4.6824
# 6 1.6889 2.8687 -3.1450 2.8077 -4.6824 32.2969
#
#
#
# Elastic Compliance Matrix: (Units=1/GPa)
#
#
# Indices 1 2 3 4 5 6 
#
# 1 0.008149 -0.003268 -0.002553 -0.005092 -0.000440 -0.000006
# 2 -0.003268 0.016169 0.004667 0.022773 0.006589 -0.001835
# 3 -0.002553 0.004667 0.021383 0.017101 -0.000461 0.000248
# 4 -0.005092 0.022773 0.017101 0.080101 0.023639 -0.003628
# 5 -0.000440 0.006589 -0.000461 0.023639 0.037408 0.002761
# 6 -0.000006 -0.001835 0.000248 -0.003628 0.002761 0.031866
#
#
# Mechanical properties :
#
#
# Convention : Reuss Voigt Hill
#
# Bulk Modulus (GPa) = 23.04528 42.72455 32.88492
# Shear Modulus (GPa) = 23.60178 36.99449 30.29814
#
# Velocity S-wave (km/s) = 3.19347 3.99815 3.61825
# Velocity P-wave (km/s) = 4.85340 6.30673 5.62718
#
# Compressibility (1/GPa) = 0.04339283
#
# Stress axis : x y z
#
# Youngs Moduli (GPa) = 122.71400 61.84775 46.76553
#
# Poissons Ratio (x) = 0.20214 0.11938
# Poissons Ratio (y) = 0.40107 -0.21826
# Poissons Ratio (z) = 0.31326 -0.28864
#
# Static dielectric constant tensor:
#      x y z
#    x 1.890860 -0.023580 0.020430 
#    y -0.023580 1.679040 0.027200 
#    z 0.020430 0.027200 1.977180 
# 
# From -- ./inp_files/588079.got.cif
#   From: 2010.05.17/outbox.cif.g08.bks.cpg/sg2_295_cif.got.tgz:588079.got - 2010.06.03 11:33:40.
