data_PCOD9028679
_publ_section_title
;
Structure prediction by ZEFSAII (Michael W. Deem and Ramdas Pophale) SiO2 
 PCOD9028679
Probable space group: P -1
;
_chemical_formula_sum "Si O2"
_cell_formula_units_Z 13
_cell_length_a 15.911376
_cell_length_b 6.195380
_cell_length_c 11.206881
_cell_angle_alpha 110.996059
_cell_angle_beta 35.733379
_cell_angle_gamma 91.763874
_cell_volume 529.410344
_symmetry_space_group_name_H-M "P -1"
_symmetry_group_IT_number 2
_symmetry_cell_setting 'triclinic'
loop_
_space_group_symop_operation_xyz
x,y,z
-x,-y,-z
loop_
_atom_site_type_symbol
_atom_site_label
_atom_site_fract_x
_atom_site_fract_y
_atom_site_fract_z
Si Si1 0.558472 0.097033 0.680498
Si Si2 0.323786 0.945891 0.825419
Si Si3 0.138448 0.736935 0.848998
Si Si4 0.930122 0.460292 0.695552
Si Si5 0.500000 0.000000 0.000000
Si Si6 0.891679 0.717320 0.311531
Si Si7 0.339747 0.691813 0.009526
O O1 0.499894 0.937680 0.626720
O O2 0.481343 0.083295 0.894027
O O3 0.749409 0.970642 0.462613
O O4 0.481376 0.391679 0.783903
O O5 0.279596 0.800395 0.743518
O O6 0.307657 0.814069 0.939580
O O7 0.186938 0.254805 0.051888
O O8 0.173623 0.495685 0.673601
O O9 0.056469 0.664526 0.042129
O O10 0.000000 0.000000 0.000000
O O11 0.821090 0.321197 0.767451
O O12 0.000000 0.500000 0.500000
O O13 0.071033 0.291858 0.594258
O O14 0.599341 0.161602 0.942254
#
# Coordination Sequence:
#
# PCOD9028679 Si02
#       7
#     2   2   2   2   1   2   2
#     4  10  24  40  65 100 135 175 226 280 345 407
#     4  10  22  44  66  94 135 182 221 279 340 401
#     4  11  23  45  69  95 137 177 235 285 335 400
#     4  11  24  41  69 104 139 178 228 280 346 413
#     4  10  22  42  64  92 138 184 220 268 340 412
#     4  11  25  42  69 103 131 180 232 283 340 401
#     4  10  22  43  64  95 138 180 220 276 339 411
#
# _framework density 24.555622
#
# number of rings (size 3 to 8) (size 9 to 14) (size 15 to 20)
#    0.000    1.538    3.077    0.462    6.462    4.923 
#    0.000    1.538    0.000    0.000    0.000    0.000 
#    0.000    0.000    0.000    0.000    0.000    0.000 
#
# Total GULP energy -72545.157521 kJ/mol
# GULP energy per Si atom -5580.396732 kJ/mol
# Density = 2.449973 g / cm^3
# Si number density = 24.555622 Si / 1000 Ang^3
#
#
#
# Elastic Constant Matrix: (Units=GPa)
#
#
# Indices 1 2 3 4 5 6 
#
# 1 213.6785 72.7406 33.9537 -15.0578 -23.6858 39.9335
# 2 72.7406 114.2831 27.1934 -4.7233 -11.4264 21.4764
# 3 33.9537 27.1934 50.8550 -6.1988 -17.3974 11.3046
# 4 -15.0578 -4.7233 -6.1988 33.6220 -10.2446 -5.9745
# 5 -23.6858 -11.4264 -17.3974 -10.2446 27.5720 -7.1834
# 6 39.9335 21.4764 11.3046 -5.9745 -7.1834 55.8299
#
#
#
# Elastic Compliance Matrix: (Units=1/GPa)
#
#
# Indices 1 2 3 4 5 6 
#
# 1 0.007239 -0.003364 -0.000039 0.003971 0.005563 -0.002735
# 2 -0.003364 0.012069 -0.004640 -0.001523 -0.001824 -0.001694
# 3 -0.000039 -0.004640 0.031210 0.011704 0.021973 -0.000427
# 4 0.003971 -0.001523 0.011704 0.042194 0.026710 0.003328
# 5 0.005563 -0.001824 0.021973 0.026710 0.064991 0.003494
# 6 -0.002735 -0.001694 -0.000427 0.003328 0.003494 0.021412
#
#
# Mechanical properties :
#
#
# Convention : Reuss Voigt Hill
#
# Bulk Modulus (GPa) = 29.04439 71.84357 50.44398
# Shear Modulus (GPa) = 24.19221 39.73336 31.96279
#
# Velocity S-wave (km/s) = 3.14220 4.02692 3.61175
# Velocity P-wave (km/s) = 5.00182 7.13740 6.16282
#
# Compressibility (1/GPa) = 0.03443006
#
# Stress axis : x y z
#
# Youngs Moduli (GPa) = 138.14213 82.85979 32.04118
#
# Poissons Ratio (x) = 0.27873 0.00126
# Poissons Ratio (y) = 0.46469 0.14868
# Poissons Ratio (z) = 0.00544 0.38450
#
# Static dielectric constant tensor:
#      x y z
#    x 1.888120 0.007060 -0.007450 
#    y 0.007060 1.906380 0.019900 
#    z -0.007450 0.019900 2.027810 
# 
# From -- ./inp_files/23129.got.cif
#   From: 2010.05.17/outbox.cif.g08.bks.cpg/sg2_12_cif.got.tgz:23129.got - 2010.06.03 11:33:40.
