data_PCOD9028878
_publ_section_title
;
Structure prediction by ZEFSAII (Michael W. Deem and Ramdas Pophale) SiO2 
 PCOD9028878
Probable space group: P -1
;
_chemical_formula_sum "Si O2"
_cell_formula_units_Z 12
_cell_length_a 5.183692
_cell_length_b 12.693159
_cell_length_c 7.371885
_cell_angle_alpha 107.851030
_cell_angle_beta 92.485341
_cell_angle_gamma 86.659728
_cell_volume 460.748726
_symmetry_space_group_name_H-M "P -1"
_symmetry_group_IT_number 2
_symmetry_cell_setting 'triclinic'
loop_
_space_group_symop_operation_xyz
x,y,z
-x,-y,-z
loop_
_atom_site_type_symbol
_atom_site_label
_atom_site_fract_x
_atom_site_fract_y
_atom_site_fract_z
Si Si1 0.799333 0.792362 0.406799
Si Si2 0.930242 0.517950 0.792738
Si Si3 0.557874 0.569461 0.220145
Si Si4 0.186176 0.237946 0.204150
Si Si5 0.049472 0.917849 0.177543
Si Si6 0.468138 0.934059 0.716274
O O1 0.662232 0.690332 0.256725
O O2 0.908216 0.756772 0.587851
O O3 0.012980 0.843005 0.314675
O O4 0.572908 0.883861 0.500966
O O5 0.716943 0.431218 0.691604
O O6 0.816371 0.639945 0.811928
O O7 0.209343 0.494475 0.699902
O O8 0.000000 0.500000 0.000000
O O9 0.500000 0.500000 0.000000
O O10 0.462309 0.170728 0.204346
O O11 0.023436 0.161392 0.030248
O O12 0.816387 0.011976 0.245472
O O13 0.317064 0.975610 0.188290
#
# Coordination Sequence:
#
# PCOD9028878 Si02
#       6
#     2   2   2   2   2   2
#     4  10  25  43  68 103 129 176 222 269 325 396
#     4  10  22  42  65  93 127 169 216 269 327 383
#     4  10  22  42  65  93 127 169 216 269 327 383
#     4  10  25  43  68 103 129 176 222 269 325 396
#     4  12  22  48  66  96 140 176 212 272 328 386
#     4  10  26  42  68  98 136 174 220 268 324 390
#
# _framework density 26.044566
#
# number of rings (size 3 to 8) (size 9 to 14) (size 15 to 20)
#    1.000    0.667    0.000    4.000    0.000    9.333 
#    0.000    0.000    0.000    0.000    0.000    0.000 
#    0.000    0.000    0.000    0.000    0.000    0.000 
#
# Total GULP energy -67126.036934 kJ/mol
# GULP energy per Si atom -5593.836411 kJ/mol
# Density = 2.598529 g / cm^3
# Si number density = 26.044566 Si / 1000 Ang^3
#
#
#
# Elastic Constant Matrix: (Units=GPa)
#
#
# Indices 1 2 3 4 5 6 
#
# 1 114.6406 14.1580 17.7080 -4.3304 21.0941 3.3347
# 2 14.1580 151.4962 32.8273 -11.1290 1.6374 3.9526
# 3 17.7080 32.8273 86.7323 2.1862 -15.8388 0.8430
# 4 -4.3304 -11.1290 2.1862 55.9982 5.0194 -5.7482
# 5 21.0941 1.6374 -15.8388 5.0194 38.8225 2.5211
# 6 3.3347 3.9526 0.8430 -5.7482 2.5211 22.2224
#
#
#
# Elastic Compliance Matrix: (Units=1/GPa)
#
#
# Indices 1 2 3 4 5 6 
#
# 1 0.010724 -0.000020 -0.003588 0.001616 -0.007485 -0.000202
# 2 -0.000020 0.007451 -0.003180 0.001706 -0.001785 -0.000558
# 3 -0.003588 -0.003180 0.015111 -0.002382 0.008625 -0.001064
# 4 0.001616 0.001706 -0.002382 0.019364 -0.004756 0.005093
# 5 -0.007485 -0.001785 0.008625 -0.004756 0.034295 -0.004007
# 6 -0.000202 -0.000558 -0.001064 0.005093 -0.004007 0.046941
#
#
# Mechanical properties :
#
#
# Convention : Reuss Voigt Hill
#
# Bulk Modulus (GPa) = 50.73153 53.58394 52.15774
# Shear Modulus (GPa) = 32.46111 42.62034 37.54072
#
# Velocity S-wave (km/s) = 3.53422 4.04968 3.80070
# Velocity P-wave (km/s) = 6.01459 6.51806 6.27138
#
# Compressibility (1/GPa) = 0.01971161
#
# Stress axis : x y z
#
# Youngs Moduli (GPa) = 93.25084 134.21316 66.17623
#
# Poissons Ratio (x) = 0.00268 0.23741
# Poissons Ratio (y) = 0.00186 0.21041
# Poissons Ratio (z) = 0.33455 0.42674
#
# Static dielectric constant tensor:
#      x y z
#    x 2.291840 0.002620 -0.168810 
#    y 0.002620 2.063210 -0.070390 
#    z -0.168810 -0.070390 2.162740 
# 
# From -- ./inp_files/30573.got.cif
#   From: 2010.05.17/outbox.cif.g08.bks.cpg/sg2_16_cif.got.tgz:30573.got - 2010.06.03 11:33:40.
