data_PCOD9028535
_publ_section_title
;
Structure prediction by ZEFSAII (Michael W. Deem and Ramdas Pophale) SiO2 
 PCOD9028535
Probable space group: P -1
;
_chemical_formula_sum "Si O2"
_cell_formula_units_Z 14
_cell_length_a 8.839877
_cell_length_b 8.100733
_cell_length_c 11.112554
_cell_angle_alpha 83.752354
_cell_angle_beta 54.151378
_cell_angle_gamma 92.973088
_cell_volume 634.556237
_symmetry_space_group_name_H-M "P -1"
_symmetry_group_IT_number 2
_symmetry_cell_setting 'triclinic'
loop_
_space_group_symop_operation_xyz
x,y,z
-x,-y,-z
loop_
_atom_site_type_symbol
_atom_site_label
_atom_site_fract_x
_atom_site_fract_y
_atom_site_fract_z
Si Si1 0.559325 0.615247 0.578335
Si Si2 0.393135 0.101374 0.135810
Si Si3 0.708442 0.094597 0.308121
Si Si4 0.879994 0.465813 0.440535
Si Si5 0.359907 0.891721 0.397945
Si Si6 0.417091 0.557083 0.906703
Si Si7 0.085686 0.304248 0.141037
O O1 0.500000 0.500000 0.500000
O O2 0.431892 0.763235 0.629110
O O3 0.783302 0.632913 0.453643
O O4 0.528156 0.537708 0.733378
O O5 0.554297 0.243724 0.103316
O O6 0.229035 0.189263 0.143133
O O7 0.311067 0.986022 0.293870
O O8 0.500000 0.000000 0.000000
O O9 0.726869 0.044168 0.443547
O O10 0.912566 0.186958 0.166962
O O11 0.587253 0.942306 0.305127
O O12 0.724203 0.302331 0.550819
O O13 0.000000 0.500000 0.500000
O O14 0.995932 0.408200 0.279191
O O15 0.500000 0.500000 0.000000
O O16 0.214910 0.446236 0.993524
#
# Coordination Sequence:
#
# PCOD9028535 Si02
#       7
#     2   2   2   2   2   2   2
#     4  12  22  44  68 101 132 177 222 270 345 398
#     4  11  24  41  66  96 131 182 219 266 340 392
#     4  10  22  43  65  94 131 173 213 274 336 390
#     4  11  24  40  68  99 129 172 230 273 327 401
#     4  10  22  42  63  90 139 170 210 277 332 383
#     4  10  23  42  70  94 138 176 219 280 330 395
#     4  10  23  43  64 100 129 170 228 272 320 404
#
# _framework density 22.062663000000001
#
# number of rings (size 3 to 8) (size 9 to 14) (size 15 to 20)
#    0.000    1.429    4.286    1.714    6.000    2.857 
#    2.571    2.143    0.000    0.000    0.000    0.000 
#    0.000    0.000    0.000    0.000    0.000    0.000 
#
# Total GULP energy -78017.047160 kJ/mol
# GULP energy per Si atom -5572.646226 kJ/mol
# Density = 2.201245 g / cm^3
# Si number density = 22.062663 Si / 1000 Ang^3
#
#
#
# Elastic Constant Matrix: (Units=GPa)
#
#
# Indices 1 2 3 4 5 6 
#
# 1 78.9547 27.2294 -0.4625 11.1245 -14.8560 8.7686
# 2 27.2294 84.8881 41.1730 4.4082 -10.5726 7.0202
# 3 -0.4625 41.1730 64.7008 13.0351 -0.5372 -5.4594
# 4 11.1245 4.4082 13.0351 31.7079 5.3489 -6.9506
# 5 -14.8560 -10.5726 -0.5372 5.3489 46.0562 -4.5847
# 6 8.7686 7.0202 -5.4594 -6.9506 -4.5847 51.4326
#
#
#
# Elastic Compliance Matrix: (Units=1/GPa)
#
#
# Indices 1 2 3 4 5 6 
#
# 1 0.017839 -0.007750 0.006791 -0.009258 0.004923 -0.002075
# 2 -0.007750 0.021703 -0.015091 0.005128 0.001470 -0.002419
# 3 0.006791 -0.015091 0.027568 -0.011197 0.000584 0.002367
# 4 -0.009258 0.005128 -0.011197 0.040741 -0.006209 0.004642
# 5 0.004923 0.001470 0.000584 -0.006209 0.024402 0.000358
# 6 -0.002075 -0.002419 0.002367 0.004642 0.000358 0.021037
#
#
# Mechanical properties :
#
#
# Convention : Reuss Voigt Hill
#
# Bulk Modulus (GPa) = 28.56456 40.49151 34.52803
# Shear Modulus (GPa) = 25.37274 36.54624 30.95949
#
# Velocity S-wave (km/s) = 3.39489 4.07440 3.75007
# Velocity P-wave (km/s) = 5.32373 6.36609 5.86810
#
# Compressibility (1/GPa) = 0.03500842
#
# Stress axis : x y z
#
# Youngs Moduli (GPa) = 56.05565 46.07730 36.27383
#
# Poissons Ratio (x) = 0.35712 -0.24632
# Poissons Ratio (y) = 0.43445 0.54741
# Poissons Ratio (z) = -0.38065 0.69536
#
# Static dielectric constant tensor:
#      x y z
#    x 3.085870 -0.701710 0.115190 
#    y -0.701710 2.263380 -0.112200 
#    z 0.115190 -0.112200 1.843030 
# 
# From -- ./inp_files/381885.got.cif
#   From: 2010.05.17/outbox.cif.g08.bks.cpg/sg2_191_cif.got.tgz:381885.got - 2010.06.03 11:33:40.
