data_PCOD9028267
_publ_section_title
;
Structure prediction by ZEFSAII (Michael W. Deem and Ramdas Pophale) SiO2 
 PCOD9028267
Probable space group: P -1
;
_chemical_formula_sum "Si O2"
_cell_formula_units_Z 13
_cell_length_a 12.496002
_cell_length_b 11.274739
_cell_length_c 8.627183
_cell_angle_alpha 59.084533
_cell_angle_beta 95.385335
_cell_angle_gamma 47.906966
_cell_volume 561.270781
_symmetry_space_group_name_H-M "P -1"
_symmetry_group_IT_number 2
_symmetry_cell_setting 'triclinic'
loop_
_space_group_symop_operation_xyz
x,y,z
-x,-y,-z
loop_
_atom_site_type_symbol
_atom_site_label
_atom_site_fract_x
_atom_site_fract_y
_atom_site_fract_z
Si Si1 0.082958 0.726593 0.358068
Si Si2 0.426432 0.377771 0.417378
Si Si3 0.000000 0.500000 0.500000
Si Si4 0.318601 0.668405 0.651836
Si Si5 0.293348 0.880517 0.789258
Si Si6 0.468086 0.161569 0.272153
Si Si7 0.345717 0.111096 0.031927
O O1 0.209253 0.631683 0.289645
O O2 0.178399 0.714179 0.516229
O O3 0.105266 0.538274 0.509404
O O4 0.849041 0.999616 0.169031
O O5 0.565308 0.360880 0.434840
O O6 0.402226 0.351769 0.253952
O O7 0.544914 0.134502 0.698347
O O8 0.858338 0.712034 0.194603
O O9 0.228163 0.868834 0.634617
O O10 0.486990 0.400265 0.943791
O O11 0.324274 0.009933 0.664706
O O12 0.325543 0.256459 0.057466
O O13 0.500000 0.000000 0.500000
O O14 0.500000 0.000000 0.000000
#
# Coordination Sequence:
#
# PCOD9028267 Si02
#       7
#     2   2   1   2   2   2   2
#     4  12  24  40  67 100 136 177 232 278 337 414
#     4  10  23  43  70 100 140 180 228 285 353 395
#     4  12  26  38  68 102 130 178 230 270 344 404
#     4  10  23  46  66  99 137 185 224 287 342 401
#     4  10  22  41  73  96 134 183 232 277 346 410
#     4   9  20  41  71  95 139 183 220 287 342 401
#     4  11  21  43  67  95 138 184 227 279 336 412
#
# _framework density 23.161726999999999
#
# number of rings (size 3 to 8) (size 9 to 14) (size 15 to 20)
#    0.000    1.538    1.538    2.769    4.308    0.615 
#    2.769    0.769   10.154    0.000    0.000    0.000 
#    0.000    0.000    0.000    0.000    0.000    0.000 
#
# Total GULP energy -72375.291962 kJ/mol
# GULP energy per Si atom -5567.330151 kJ/mol
# Density = 2.310901 g / cm^3
# Si number density = 23.161727 Si / 1000 Ang^3
#
#
#
# Elastic Constant Matrix: (Units=GPa)
#
#
# Indices 1 2 3 4 5 6 
#
# 1 153.4532 33.2029 33.5865 11.3812 3.8873 3.5295
# 2 33.2029 84.9321 39.7808 15.6756 20.7506 -13.3662
# 3 33.5865 39.7808 83.8696 28.2981 14.5622 -3.1672
# 4 11.3812 15.6756 28.2981 28.1951 5.1481 11.9401
# 5 3.8873 20.7506 14.5622 5.1481 44.7330 16.0993
# 6 3.5295 -13.3662 -3.1672 11.9401 16.0993 43.5832
#
#
#
# Elastic Compliance Matrix: (Units=1/GPa)
#
#
# Indices 1 2 3 4 5 6 
#
# 1 0.007740 -0.003446 -0.003157 0.003045 0.002989 -0.003851
# 2 -0.003446 0.022119 -0.001671 -0.013367 -0.013488 0.015585
# 3 -0.003157 -0.001671 0.024575 -0.025901 -0.008158 0.011639
# 4 0.003045 -0.013367 -0.025901 0.079007 0.017653 -0.034394
# 5 0.002989 -0.013488 -0.008158 0.017653 0.037490 -0.023656
# 6 -0.003851 0.015585 0.011639 -0.034394 -0.023656 0.047043
#
#
# Mechanical properties :
#
#
# Convention : Reuss Voigt Hill
#
# Bulk Modulus (GPa) = 26.39453 59.48838 42.94146
# Shear Modulus (GPa) = 20.23053 37.68123 28.95588
#
# Velocity S-wave (km/s) = 2.95862 4.03783 3.53960
# Velocity P-wave (km/s) = 4.80539 6.89046 5.94012
#
# Compressibility (1/GPa) = 0.03788663
#
# Stress axis : x y z
#
# Youngs Moduli (GPa) = 129.19543 45.21005 40.69112
#
# Poissons Ratio (x) = 0.15577 0.12847
# Poissons Ratio (y) = 0.44515 0.06800
# Poissons Ratio (z) = 0.40791 0.07555
#
# Static dielectric constant tensor:
#      x y z
#    x 1.983240 0.162150 -0.022160 
#    y 0.162150 2.124210 -0.033840 
#    z -0.022160 -0.033840 1.853800 
# 
# From -- ./inp_files/169044.got.cif
#   From: 2010.05.17/outbox.cif.g08.bks.cpg/sg2_85_cif.got.tgz:169044.got - 2010.06.03 11:33:40.
