data_PCOD9028059
_publ_section_title
;
Structure prediction by ZEFSAII (Michael W. Deem and Ramdas Pophale) SiO2 
 PCOD9028059
Probable space group: P -1
;
_chemical_formula_sum "Si O2"
_cell_formula_units_Z 16
_cell_length_a 13.371524
_cell_length_b 9.464956
_cell_length_c 9.809272
_cell_angle_alpha 59.976865
_cell_angle_beta 48.511332
_cell_angle_gamma 57.086576
_cell_volume 761.000795
_symmetry_space_group_name_H-M "P -1"
_symmetry_group_IT_number 2
_symmetry_cell_setting 'triclinic'
loop_
_space_group_symop_operation_xyz
x,y,z
-x,-y,-z
loop_
_atom_site_type_symbol
_atom_site_label
_atom_site_fract_x
_atom_site_fract_y
_atom_site_fract_z
Si Si1 0.933822 0.278445 0.199760
Si Si2 0.650155 0.644911 0.822908
Si Si3 0.040267 0.891903 0.314053
Si Si4 0.947771 0.768238 0.186811
Si Si5 0.637565 0.834414 0.456321
Si Si6 0.365934 0.499879 0.534125
Si Si7 0.937218 0.623623 0.711452
Si Si8 0.347461 0.694704 0.170375
O O1 0.778030 0.410195 0.297922
O O2 0.037810 0.342831 0.169585
O O3 0.947684 0.087539 0.333514
O O4 0.979279 0.255442 0.013691
O O5 0.655210 0.750726 0.631094
O O6 0.777807 0.644009 0.806023
O O7 0.668616 0.449390 0.852630
O O8 0.495102 0.721782 0.990948
O O9 0.205539 0.856468 0.209310
O O10 0.018214 0.853256 0.194941
O O11 0.991368 0.755574 0.511543
O O12 0.782074 0.871378 0.275768
O O13 0.966758 0.572574 0.313170
O O14 0.623545 0.690863 0.432569
O O15 0.500000 0.000000 0.500000
O O16 0.500000 0.500000 0.500000
O O17 0.356506 0.610341 0.351518
#
# Coordination Sequence:
#
# PCOD9028059 Si02
#       8
#     2   2   2   2   2   2   2   2
#     4  12  28  43  68 107 144 179 227 295 351 406
#     4  10  22  41  71 100 129 180 230 284 337 409
#     4  12  24  45  72  99 137 184 239 284 337 413
#     4  12  25  44  73 101 136 186 237 282 342 416
#     4  11  25  44  66 100 138 179 230 281 337 417
#     4  11  26  43  66  96 144 182 217 280 360 408
#     4  12  22  45  74 100 134 183 238 284 341 405
#     4  10  22  42  68 100 134 175 232 281 340 409
#
# _framework density 21.024946
#
# number of rings (size 3 to 8) (size 9 to 14) (size 15 to 20)
#    0.000    0.750    5.000    2.250    5.250    1.000 
#    0.000    0.625    0.000    0.000    0.000    0.000 
#    0.000    0.000    0.000    0.000    0.000    0.000 
#
# Total GULP energy -89583.643773 kJ/mol
# GULP energy per Si atom -5598.977736 kJ/mol
# Density = 2.097709 g / cm^3
# Si number density = 21.024946 Si / 1000 Ang^3
#
#
#
# Elastic Constant Matrix: (Units=GPa)
#
#
# Indices 1 2 3 4 5 6 
#
# 1 180.6582 44.0322 46.7825 27.3056 -5.5068 -15.3237
# 2 44.0322 121.0789 21.6735 15.9110 -6.4307 -21.5548
# 3 46.7825 21.6735 98.8261 27.9665 -15.7280 -10.0369
# 4 27.3056 15.9110 27.9665 28.7512 -3.1351 -4.5102
# 5 -5.5068 -6.4307 -15.7280 -3.1351 29.9935 11.3988
# 6 -15.3237 -21.5548 -10.0369 -4.5102 11.3988 25.8845
#
#
#
# Elastic Compliance Matrix: (Units=1/GPa)
#
#
# Indices 1 2 3 4 5 6 
#
# 1 0.007113 -0.001412 -0.001935 -0.003889 -0.001236 0.002151
# 2 -0.001412 0.010572 -0.000142 -0.003277 -0.001441 0.007976
# 3 -0.001935 -0.000142 0.015669 -0.012651 0.006627 -0.000311
# 4 -0.003889 -0.003277 -0.012651 0.052358 -0.002725 0.000386
# 5 -0.001236 -0.001441 0.006627 -0.002725 0.043155 -0.018841
# 6 0.002151 0.007976 -0.000311 0.000386 -0.018841 0.054793
#
#
# Mechanical properties :
#
#
# Convention : Reuss Voigt Hill
#
# Bulk Modulus (GPa) = 37.91290 69.50439 53.70864
# Shear Modulus (GPa) = 25.07139 36.13083 30.60111
#
# Velocity S-wave (km/s) = 3.45695 4.14995 3.81920
# Velocity P-wave (km/s) = 5.83142 7.48950 6.71186
#
# Compressibility (1/GPa) = 0.02637625
#
# Stress axis : x y z
#
# Youngs Moduli (GPa) = 140.58321 94.58867 63.81950
#
# Poissons Ratio (x) = 0.13356 0.12350
# Poissons Ratio (y) = 0.19850 0.00906
# Poissons Ratio (z) = 0.27206 0.01342
#
# Static dielectric constant tensor:
#      x y z
#    x 1.726620 0.003210 0.004600 
#    y 0.003210 1.759750 -0.023970 
#    z 0.004600 -0.023970 1.770720 
# 
# From -- ./inp_files/205394.got.cif
#   From: 2010.05.17/outbox.cif.g08.bks.cpg/sg2_103_cif.got.tgz:205394.got - 2010.06.03 11:33:40.
