data_PCOD9028567
_publ_section_title
;
Structure prediction by ZEFSAII (Michael W. Deem and Ramdas Pophale) SiO2 
 PCOD9028567
Probable space group: P -1
;
_chemical_formula_sum "Si O2"
_cell_formula_units_Z 12
_cell_length_a 5.283985
_cell_length_b 7.628348
_cell_length_c 17.168767
_cell_angle_alpha 135.300199
_cell_angle_beta 93.185467
_cell_angle_gamma 73.236971
_cell_volume 454.472575
_symmetry_space_group_name_H-M "P -1"
_symmetry_group_IT_number 2
_symmetry_cell_setting 'triclinic'
loop_
_space_group_symop_operation_xyz
x,y,z
-x,-y,-z
loop_
_atom_site_type_symbol
_atom_site_label
_atom_site_fract_x
_atom_site_fract_y
_atom_site_fract_z
Si Si1 0.815744 0.839982 0.685462
Si Si2 0.456654 0.508788 0.594477
Si Si3 0.130104 0.337073 0.751772
Si Si4 0.796479 0.882162 0.997011
Si Si5 0.058371 0.211898 0.868081
Si Si6 0.674589 0.160391 0.626853
O O1 0.645075 0.681926 0.673408
O O2 0.132822 0.651699 0.643586
O O3 0.753448 0.914299 0.614709
O O4 0.806056 0.118849 0.814251
O O5 0.500000 0.500000 0.500000
O O6 0.579832 0.227420 0.555565
O O7 0.226367 0.156193 0.773534
O O8 0.393763 0.358671 0.723941
O O9 0.918570 0.582969 0.871788
O O10 0.945788 0.232376 0.660719
O O11 0.787283 0.956108 0.110161
O O12 0.500000 0.000000 0.000000
O O13 0.000000 0.000000 0.000000
O O14 0.000000 0.500000 0.000000
#
# Coordination Sequence:
#
# PCOD9028567 Si02
#       6
#     2   2   2   2   2   2
#     4  11  25  46  76 103 142 197 230 293 374 409
#     4  12  28  47  74 109 141 183 244 301 361 439
#     4  10  22  42  63  94 135 185 223 285 344 402
#     4  11  24  36  59  97 134 178 225 279 335 406
#     4   9  22  44  67  97 142 183 235 279 343 427
#     4  11  24  45  70 102 142 176 241 295 352 434
#
# _framework density 26.404233999999999
#
# number of rings (size 3 to 8) (size 9 to 14) (size 15 to 20)
#    0.000    1.333    0.000    4.500    7.000    4.000 
#    0.000   14.167    0.000    0.000    0.000    0.000 
#    0.000    0.000    0.000    0.000    0.000    0.000 
#
# Total GULP energy -66917.941760 kJ/mol
# GULP energy per Si atom -5576.495147 kJ/mol
# Density = 2.634414 g / cm^3
# Si number density = 26.404234 Si / 1000 Ang^3
#
#
#
# Elastic Constant Matrix: (Units=GPa)
#
#
# Indices 1 2 3 4 5 6 
#
# 1 166.8984 49.0789 35.4623 -0.9690 -0.5554 -19.2688
# 2 49.0789 156.3410 33.5480 -36.1621 9.1527 -4.9817
# 3 35.4623 33.5480 64.2930 -24.7596 -5.7024 -10.6947
# 4 -0.9690 -36.1621 -24.7596 64.0023 -4.5742 8.9277
# 5 -0.5554 9.1527 -5.7024 -4.5742 34.7071 3.1737
# 6 -19.2688 -4.9817 -10.6947 8.9277 3.1737 43.8558
#
#
#
# Elastic Compliance Matrix: (Units=1/GPa)
#
#
# Indices 1 2 3 4 5 6 
#
# 1 0.007778 -0.002187 -0.003908 -0.003076 -0.000610 0.002887
# 2 -0.002187 0.008534 -0.002075 0.004007 -0.001991 -0.001169
# 3 -0.003908 -0.002075 0.022423 0.007577 0.005020 0.001610
# 4 -0.003076 0.004007 0.007577 0.021522 0.003311 -0.003669
# 5 -0.000610 -0.001991 0.005020 0.003311 0.030788 -0.002172
# 6 0.002887 -0.001169 0.001610 -0.003669 -0.002172 0.025234
#
#
# Mechanical properties :
#
#
# Convention : Reuss Voigt Hill
#
# Bulk Modulus (GPa) = 44.65015 69.30121 56.97568
# Shear Modulus (GPa) = 35.69294 46.47591 41.08442
#
# Velocity S-wave (km/s) = 3.68066 4.19999 3.94887
# Velocity P-wave (km/s) = 5.91692 7.05855 6.51280
#
# Compressibility (1/GPa) = 0.02239634
#
# Stress axis : x y z
#
# Youngs Moduli (GPa) = 128.55971 117.17536 44.59734
#
# Poissons Ratio (x) = 0.25627 0.17427
# Poissons Ratio (y) = 0.28117 0.09253
# Poissons Ratio (z) = 0.50237 0.24312
#
# Static dielectric constant tensor:
#      x y z
#    x 1.984110 0.230170 0.169370 
#    y 0.230170 2.314140 -0.150120 
#    z 0.169370 -0.150120 1.885220 
# 
# From -- ./inp_files/546338.got.cif
#   From: 2010.05.17/outbox.cif.g08.bks.cpg/sg2_274_cif.got.tgz:546338.got - 2010.06.03 11:33:40.
