data_PCOD9028135
_publ_section_title
;
Structure prediction by ZEFSAII (Michael W. Deem and Ramdas Pophale) SiO2 
 PCOD9028135
Probable space group: P -1
;
_chemical_formula_sum "Si O2"
_cell_formula_units_Z 16
_cell_length_a 12.862899
_cell_length_b 8.367534
_cell_length_c 18.934607
_cell_angle_alpha 104.994682
_cell_angle_beta 35.668108
_cell_angle_gamma 131.942778
_cell_volume 667.537055
_symmetry_space_group_name_H-M "P -1"
_symmetry_group_IT_number 2
_symmetry_cell_setting 'triclinic'
loop_
_space_group_symop_operation_xyz
x,y,z
-x,-y,-z
loop_
_atom_site_type_symbol
_atom_site_label
_atom_site_fract_x
_atom_site_fract_y
_atom_site_fract_z
Si Si1 0.187146 0.690977 0.717998
Si Si2 0.635381 0.045658 0.109399
Si Si3 0.361739 0.433348 0.427815
Si Si4 0.701961 0.377532 0.212509
Si Si5 0.607125 0.660548 0.884740
Si Si6 0.632518 0.728547 0.159743
Si Si7 0.771541 0.977702 0.359729
Si Si8 0.782992 0.135480 0.791793
O O1 0.198930 0.688886 0.794757
O O2 0.097441 0.797493 0.746192
O O3 0.981490 0.387546 0.767005
O O4 0.530551 0.905502 0.527899
O O5 0.625597 0.223805 0.166140
O O6 0.533198 0.833417 0.197721
O O7 0.426872 0.895069 0.138763
O O8 0.992862 0.281519 0.923965
O O9 0.431333 0.290998 0.376939
O O10 0.456832 0.555227 0.309588
O O11 0.025128 0.236401 0.614591
O O12 0.590010 0.697914 0.386673
O O13 0.457874 0.460294 0.876523
O O14 0.970513 0.898567 0.718135
O O15 0.590757 0.844422 0.901000
O O16 0.500000 0.500000 0.000000
O O17 0.000000 0.000000 0.000000
#
# Coordination Sequence:
#
# PCOD9028135 Si02
#       8
#     2   2   2   2   2   2   2   2
#     4  10  22  41  71  95 138 175 220 281 331 403
#     4  11  26  42  64 100 134 174 230 272 335 400
#     4  11  23  45  74  97 139 180 223 279 332 406
#     4  11  23  40  67  95 132 185 218 279 329 395
#     4  12  27  41  66  99 136 175 225 279 331 402
#     4  12  25  45  68  97 135 180 224 277 341 398
#     4  10  22  43  66 104 130 176 227 270 341 395
#     4  11  26  44  68 105 134 178 229 276 339 398
#
# _framework density 23.968705
#
# number of rings (size 3 to 8) (size 9 to 14) (size 15 to 20)
#    0.000    1.000    1.250    4.500    5.250    6.000 
#    0.000    0.000    0.000    0.000    0.000    0.000 
#    0.000    0.000    0.000    0.000    0.000    0.000 
#
# Total GULP energy -89617.244968 kJ/mol
# GULP energy per Si atom -5601.077810 kJ/mol
# Density = 2.391415 g / cm^3
# Si number density = 23.968705 Si / 1000 Ang^3
#
#
#
# Elastic Constant Matrix: (Units=GPa)
#
#
# Indices 1 2 3 4 5 6 
#
# 1 133.3225 24.2640 30.3606 -10.7778 3.0398 -0.0928
# 2 24.2640 44.1010 18.4586 -3.7407 -2.1560 14.1774
# 3 30.3606 18.4586 101.6041 11.1558 10.9613 8.3056
# 4 -10.7778 -3.7407 11.1558 30.1593 -5.6961 -0.1265
# 5 3.0398 -2.1560 10.9613 -5.6961 37.3130 -0.2411
# 6 -0.0928 14.1774 8.3056 -0.1265 -0.2411 48.5166
#
#
#
# Elastic Compliance Matrix: (Units=1/GPa)
#
#
# Indices 1 2 3 4 5 6 
#
# 1 0.009140 -0.004158 -0.002566 0.003774 0.000356 0.001684
# 2 -0.004158 0.030001 -0.004502 0.004632 0.004050 -0.007972
# 3 -0.002566 -0.004502 0.012817 -0.007148 -0.004914 -0.000927
# 4 0.003774 0.004632 -0.007148 0.039245 0.008051 0.000020
# 5 0.000356 0.004050 -0.004914 0.008051 0.029677 -0.000173
# 6 0.001684 -0.007972 -0.000927 0.000020 -0.000173 0.023102
#
#
# Mechanical properties :
#
#
# Convention : Reuss Voigt Hill
#
# Bulk Modulus (GPa) = 33.89110 47.24378 40.56744
# Shear Modulus (GPa) = 28.36561 36.92741 32.64651
#
# Velocity S-wave (km/s) = 3.44385 3.92937 3.69460
# Velocity P-wave (km/s) = 5.47576 6.35138 5.92975
#
# Compressibility (1/GPa) = 0.02950627
#
# Stress axis : x y z
#
# Youngs Moduli (GPa) = 109.41034 33.33228 78.01891
#
# Poissons Ratio (x) = 0.13861 0.20020
# Poissons Ratio (y) = 0.45497 0.35121
# Poissons Ratio (z) = 0.28075 0.15005
#
# Static dielectric constant tensor:
#      x y z
#    x 1.880820 -0.033500 0.024050 
#    y -0.033500 1.866280 -0.029090 
#    z 0.024050 -0.029090 1.944140 
# 
# From -- ./inp_files/208329.got.cif
#   From: 2010.05.17/outbox.cif.g08.bks.cpg/sg2_105_cif.got.tgz:208329.got - 2010.06.03 11:33:40.
