data_PCOD9028682
_publ_section_title
;
Structure prediction by ZEFSAII (Michael W. Deem and Ramdas Pophale) SiO2 
 PCOD9028682
Probable space group: P -1
;
_chemical_formula_sum "Si O2"
_cell_formula_units_Z 16
_cell_length_a 8.344374
_cell_length_b 8.609607
_cell_length_c 13.014463
_cell_angle_alpha 123.496360
_cell_angle_beta 101.005158
_cell_angle_gamma 70.666324
_cell_volume 735.691316
_symmetry_space_group_name_H-M "P -1"
_symmetry_group_IT_number 2
_symmetry_cell_setting 'triclinic'
loop_
_space_group_symop_operation_xyz
x,y,z
-x,-y,-z
loop_
_atom_site_type_symbol
_atom_site_label
_atom_site_fract_x
_atom_site_fract_y
_atom_site_fract_z
Si Si1 0.904712 0.379299 0.876487
Si Si2 0.739784 0.063449 0.778139
Si Si3 0.542513 0.767229 0.349735
Si Si4 0.850774 0.318475 0.510791
Si Si5 0.382564 0.464808 0.254480
Si Si6 0.208316 0.290071 0.472706
Si Si7 0.517678 0.022591 0.131266
Si Si8 0.206376 0.088124 0.714364
O O1 0.851777 0.207919 0.867876
O O2 0.740995 0.520142 0.852923
O O3 0.033120 0.255829 0.763056
O O4 0.000000 0.500000 0.000000
O O5 0.643706 0.143234 0.688252
O O6 0.820945 0.839889 0.674863
O O7 0.606214 0.074243 0.856005
O O8 0.541316 0.543238 0.269697
O O9 0.609167 0.797730 0.482359
O O10 0.666070 0.838421 0.315514
O O11 0.731290 0.398783 0.622662
O O12 0.800362 0.493904 0.485827
O O13 0.054357 0.289978 0.531655
O O14 0.822172 0.114070 0.399847
O O15 0.450599 0.251211 0.228649
O O16 0.703335 0.944829 0.174791
O O17 0.500000 0.000000 0.000000
#
# Coordination Sequence:
#
# PCOD9028682 Si02
#       8
#     2   2   2   2   2   2   2   2
#     4  11  24  44  66  90 127 170 218 263 307 369
#     4  10  22  42  64  93 122 165 217 256 313 372
#     4  10  24  36  64  93 132 163 203 256 318 385
#     4  11  24  37  66  92 136 161 204 261 320 384
#     4  11  24  42  64  97 127 170 210 258 320 375
#     4  11  21  40  59  97 132 163 201 257 322 381
#     4  11  24  44  66  90 127 170 218 263 307 369
#     4  11  24  42  64  97 127 170 210 258 320 375
#
# _framework density 21.748252000000001
#
# number of rings (size 3 to 8) (size 9 to 14) (size 15 to 20)
#    0.000    1.250    2.500    2.625    7.000    3.000 
#    0.000    8.750    0.000    0.000    0.000    0.000 
#    0.000    0.000    0.000    0.000    0.000    0.000 
#
# Total GULP energy -89311.561527 kJ/mol
# GULP energy per Si atom -5581.972595 kJ/mol
# Density = 2.169875 g / cm^3
# Si number density = 21.748252 Si / 1000 Ang^3
#
#
#
# Elastic Constant Matrix: (Units=GPa)
#
#
# Indices 1 2 3 4 5 6 
#
# 1 76.2879 42.4602 24.2056 8.2986 13.5171 23.6548
# 2 42.4602 70.3624 30.2955 9.2714 17.4224 20.8932
# 3 24.2056 30.2955 81.4220 3.9683 18.6836 10.9942
# 4 8.2986 9.2714 3.9683 33.2272 2.9281 8.6207
# 5 13.5171 17.4224 18.6836 2.9281 36.3608 6.6424
# 6 23.6548 20.8932 10.9942 8.6207 6.6424 42.3603
#
#
#
# Elastic Compliance Matrix: (Units=1/GPa)
#
#
# Indices 1 2 3 4 5 6 
#
# 1 0.021388 -0.010023 -0.001475 -0.000629 -0.001189 -0.006303
# 2 -0.010023 0.025020 -0.004490 -0.002385 -0.004976 -0.004313
# 3 -0.001475 -0.004490 0.015628 0.000286 -0.005309 -0.000244
# 4 -0.000629 -0.002385 0.000286 0.032230 -0.000446 -0.005036
# 5 -0.001189 -0.004976 -0.005309 -0.000446 0.033206 -0.000620
# 6 -0.006303 -0.004313 -0.000244 -0.005036 -0.000620 0.030439
#
#
# Mechanical properties :
#
#
# Convention : Reuss Voigt Hill
#
# Bulk Modulus (GPa) = 33.26440 46.88834 40.07637
# Shear Modulus (GPa) = 25.01175 31.13040 28.07107
#
# Velocity S-wave (km/s) = 3.39493 3.78749 3.59657
# Velocity P-wave (km/s) = 5.54038 6.38225 5.97616
#
# Compressibility (1/GPa) = 0.03006217
#
# Stress axis : x y z
#
# Youngs Moduli (GPa) = 46.75517 39.96724 63.98838
#
# Poissons Ratio (x) = 0.40059 0.09435
# Poissons Ratio (y) = 0.46863 0.28728
# Poissons Ratio (z) = 0.06894 0.17944
#
# Static dielectric constant tensor:
#      x y z
#    x 1.809720 -0.020070 0.003180 
#    y -0.020070 1.822110 0.020610 
#    z 0.003180 0.020610 1.799370 
# 
# From -- ./inp_files/184105.got.cif
#   From: 2010.05.17/outbox.cif.g08.bks.cpg/sg2_93_cif.got.tgz:184105.got - 2010.06.03 11:33:40.
