data_PCOD9028275
_publ_section_title
;
Structure prediction by ZEFSAII (Michael W. Deem and Ramdas Pophale) SiO2 
 PCOD9028275
Probable space group: P -1
;
_chemical_formula_sum "Si O2"
_cell_formula_units_Z 16
_cell_length_a 9.401156
_cell_length_b 15.030641
_cell_length_c 9.682430
_cell_angle_alpha 76.605201
_cell_angle_beta 51.056895
_cell_angle_gamma 112.098292
_cell_volume 749.609423
_symmetry_space_group_name_H-M "P -1"
_symmetry_group_IT_number 2
_symmetry_cell_setting 'triclinic'
loop_
_space_group_symop_operation_xyz
x,y,z
-x,-y,-z
loop_
_atom_site_type_symbol
_atom_site_label
_atom_site_fract_x
_atom_site_fract_y
_atom_site_fract_z
Si Si1 0.772415 0.885576 0.086723
Si Si2 0.558062 0.557885 0.595826
Si Si3 0.098974 0.850729 0.794068
Si Si4 0.921832 0.609364 0.848402
Si Si5 0.502373 0.887318 0.697490
Si Si6 0.416042 0.707700 0.596119
Si Si7 0.497565 0.108154 0.982693
Si Si8 0.980242 0.602978 0.497229
O O1 0.532456 0.802980 0.362263
O O2 0.718957 0.927935 0.971355
O O3 0.844270 0.809588 0.016492
O O4 0.000000 0.000000 0.000000
O O5 0.500000 0.500000 0.500000
O O6 0.582999 0.675030 0.518655
O O7 0.789608 0.583045 0.511483
O O8 0.324558 0.473675 0.876034
O O9 0.262826 0.869969 0.815888
O O10 0.054854 0.751356 0.754410
O O11 0.263542 0.983604 0.567755
O O12 0.878545 0.584617 0.721285
O O13 0.121066 0.599413 0.776210
O O14 0.442941 0.773157 0.696469
O O15 0.546987 0.889856 0.829562
O O16 0.753089 0.251566 0.734396
O O17 0.500000 0.000000 0.000000
O O18 0.000000 0.500000 0.500000
#
# Coordination Sequence:
#
# PCOD9028275 Si02
#       8
#     2   2   2   2   2   2   2   2
#     4  12  24  44  71 103 147 185 235 296 363 430
#     4  12  28  45  75 105 139 186 249 289 353 438
#     4  10  22  41  73  99 143 183 235 287 364 419
#     4  11  24  47  71  99 144 188 233 295 358 424
#     4  10  23  42  69 105 139 184 232 293 356 426
#     4  11  24  44  71 105 139 185 234 293 360 422
#     4  12  28  45  74 105 143 185 243 294 352 426
#     4  12  29  49  73 104 149 191 238 297 363 419
#
# _framework density 21.344449000000001
#
# number of rings (size 3 to 8) (size 9 to 14) (size 15 to 20)
#    0.000    0.750    2.500    3.750   12.250    1.500 
#    0.000    0.000    0.000    0.000    0.000    0.000 
#    0.000    0.000    0.000    0.000    0.000    0.000 
#
# Total GULP energy -89482.127412 kJ/mol
# GULP energy per Si atom -5592.632963 kJ/mol
# Density = 2.129587 g / cm^3
# Si number density = 21.344449 Si / 1000 Ang^3
#
#
#
# Elastic Constant Matrix: (Units=GPa)
#
#
# Indices 1 2 3 4 5 6 
#
# 1 175.3711 59.2275 39.2599 23.0371 16.5432 14.0808
# 2 59.2275 83.5297 23.1802 19.3676 14.9739 2.7312
# 3 39.2599 23.1802 69.0318 16.8537 11.3759 9.1231
# 4 23.0371 19.3676 16.8537 39.7146 6.4999 6.3072
# 5 16.5432 14.9739 11.3759 6.4999 38.0559 11.7398
# 6 14.0808 2.7312 9.1231 6.3072 11.7398 37.6052
#
#
#
# Elastic Compliance Matrix: (Units=1/GPa)
#
#
# Indices 1 2 3 4 5 6 
#
# 1 0.008180 -0.004771 -0.002524 -0.001021 -0.000170 -0.001880
# 2 -0.004771 0.017663 -0.001698 -0.004888 -0.004503 0.003141
# 3 -0.002524 -0.001698 0.018288 -0.004797 -0.002314 -0.001841
# 4 -0.001021 -0.004888 -0.004797 0.030765 -0.000496 -0.003104
# 5 -0.000170 -0.004503 -0.002314 -0.000496 0.031625 -0.008838
# 6 -0.001880 0.003141 -0.001841 -0.003104 -0.008838 0.030794
#
#
# Mechanical properties :
#
#
# Convention : Reuss Voigt Hill
#
# Bulk Modulus (GPa) = 38.24792 63.47418 50.86105
# Shear Modulus (GPa) = 30.48481 36.82616 33.65549
#
# Velocity S-wave (km/s) = 3.78329 4.15821 3.97518
# Velocity P-wave (km/s) = 6.08627 7.27027 6.70446
#
# Compressibility (1/GPa) = 0.02614521
#
# Stress axis : x y z
#
# Youngs Moduli (GPa) = 122.25684 56.61406 54.68148
#
# Poissons Ratio (x) = 0.27009 0.13804
# Poissons Ratio (y) = 0.58325 0.09283
# Poissons Ratio (z) = 0.30862 0.09611
#
# Static dielectric constant tensor:
#      x y z
#    x 1.769500 -0.025630 -0.020690 
#    y -0.025630 1.796210 -0.028060 
#    z -0.020690 -0.028060 1.779570 
# 
# From -- ./inp_files/206724.got.cif
#   From: 2010.05.17/outbox.cif.g08.bks.cpg/sg2_104_cif.got.tgz:206724.got - 2010.06.03 11:33:40.
