data_PCOD9028522
_publ_section_title
;
Structure prediction by ZEFSAII (Michael W. Deem and Ramdas Pophale) SiO2 
 PCOD9028522
Probable space group: P -1
;
_chemical_formula_sum "Si O2"
_cell_formula_units_Z 14
_cell_length_a 12.291412
_cell_length_b 18.568273
_cell_length_c 9.429745
_cell_angle_alpha 128.423961
_cell_angle_beta 36.302659
_cell_angle_gamma 148.710325
_cell_volume 645.765498
_symmetry_space_group_name_H-M "P -1"
_symmetry_group_IT_number 2
_symmetry_cell_setting 'triclinic'
loop_
_space_group_symop_operation_xyz
x,y,z
-x,-y,-z
loop_
_atom_site_type_symbol
_atom_site_label
_atom_site_fract_x
_atom_site_fract_y
_atom_site_fract_z
Si Si1 0.323649 0.416623 0.727193
Si Si2 0.677936 0.793596 0.479747
Si Si3 0.710449 0.360369 0.703948
Si Si4 0.248113 0.297002 0.208305
Si Si5 0.782577 0.901161 0.816320
Si Si6 0.369513 0.860187 0.398492
Si Si7 0.968705 0.453054 0.136448
O O1 0.500000 0.500000 0.500000
O O2 0.235921 0.279281 0.675837
O O3 0.538568 0.541630 0.768423
O O4 0.054467 0.379759 0.959723
O O5 0.680894 0.843451 0.692181
O O6 0.351614 0.661088 0.613080
O O7 0.904431 0.934201 0.319558
O O8 0.649471 0.231209 0.583187
O O9 0.000000 0.500000 0.500000
O O10 0.805688 0.409296 0.830718
O O11 0.433498 0.317062 0.915523
O O12 0.204512 0.193187 0.233830
O O13 0.948339 0.231138 0.420674
O O14 0.573273 0.893501 0.104905
O O15 0.500000 0.000000 0.500000
O O16 0.000000 0.500000 0.000000
#
# Coordination Sequence:
#
# PCOD9028522 Si02
#       7
#     2   2   2   2   2   2   2
#     4  11  20  34  63  94 117 157 203 249 319 372
#     4  11  22  37  60  93 129 156 200 260 313 374
#     4  10  24  42  63  95 126 159 209 261 313 367
#     4  10  22  42  63  87 124 160 205 260 304 373
#     4  10  24  40  57  91 127 161 203 256 316 368
#     4  11  25  42  64  83 119 172 214 248 305 373
#     4  11  21  37  65  94 123 160 203 258 316 368
#
# _framework density 21.679697999999998
#
# number of rings (size 3 to 8) (size 9 to 14) (size 15 to 20)
#    0.000    1.429    2.857    2.571    2.000    8.571 
#    0.000    2.857    0.000    0.000    0.000    0.000 
#    0.000    0.000    0.000    0.000    0.000    0.000 
#
# Total GULP energy -78187.142447 kJ/mol
# GULP energy per Si atom -5584.795889 kJ/mol
# Density = 2.163035 g / cm^3
# Si number density = 21.679698 Si / 1000 Ang^3
#
#
#
# Elastic Constant Matrix: (Units=GPa)
#
#
# Indices 1 2 3 4 5 6 
#
# 1 28.8526 4.6851 31.1251 2.2952 -17.6631 2.4838
# 2 4.6851 116.2697 36.1955 5.7929 -3.0380 -20.3062
# 3 31.1251 36.1955 119.3247 -4.0204 -27.0063 -11.8491
# 4 2.2952 5.7929 -4.0204 46.8655 -1.0678 -3.2505
# 5 -17.6631 -3.0380 -27.0063 -1.0678 34.2086 -7.0679
# 6 2.4838 -20.3062 -11.8491 -3.2505 -7.0679 28.8689
#
#
#
# Elastic Compliance Matrix: (Units=1/GPa)
#
#
# Indices 1 2 3 4 5 6 
#
# 1 0.061178 0.001260 -0.012197 -0.004047 0.020973 -0.004705
# 2 0.001260 0.010586 -0.002828 -0.001170 0.000601 0.006192
# 3 -0.012197 -0.002828 0.014710 0.002847 0.006606 0.007035
# 4 -0.004047 -0.001170 0.002847 0.022205 0.001483 0.003557
# 5 0.020973 0.000601 0.006606 0.001483 0.048120 0.013277
# 6 -0.004705 0.006192 0.007035 0.003557 0.013277 0.045938
#
#
# Mechanical properties :
#
#
# Convention : Reuss Voigt Hill
#
# Bulk Modulus (GPa) = 16.96562 45.38424 31.17493
# Shear Modulus (GPa) = 20.00684 34.81805 27.41244
#
# Velocity S-wave (km/s) = 3.04112 4.01187 3.55974
# Velocity P-wave (km/s) = 4.49152 6.51456 5.59523
#
# Compressibility (1/GPa) = 0.05894275
#
# Stress axis : x y z
#
# Youngs Moduli (GPa) = 16.34579 94.46629 67.98278
#
# Poissons Ratio (x) = -0.11901 0.82917
# Poissons Ratio (y) = -0.02059 0.19227
# Poissons Ratio (z) = 0.19937 0.26717
#
# Static dielectric constant tensor:
#      x y z
#    x 2.100590 0.128340 0.033380 
#    y 0.128340 1.824660 0.004890 
#    z 0.033380 0.004890 1.880710 
# 
# From -- ./inp_files/279763.got.cif
#   From: 2010.05.17/outbox.cif.g08.bks.cpg/sg2_140_cif.got.tgz:279763.got - 2010.06.03 11:33:40.
