data_PCOD9028947
_publ_section_title
;
Structure prediction by ZEFSAII (Michael W. Deem and Ramdas Pophale) SiO2 
 PCOD9028947
Probable space group: P -1
;
_chemical_formula_sum "Si O2"
_cell_formula_units_Z 16
_cell_length_a 8.244305
_cell_length_b 15.489749
_cell_length_c 14.569044
_cell_angle_alpha 145.353043
_cell_angle_beta 109.691261
_cell_angle_gamma 48.403478
_cell_volume 688.622523
_symmetry_space_group_name_H-M "P -1"
_symmetry_group_IT_number 2
_symmetry_cell_setting 'triclinic'
loop_
_space_group_symop_operation_xyz
x,y,z
-x,-y,-z
loop_
_atom_site_type_symbol
_atom_site_label
_atom_site_fract_x
_atom_site_fract_y
_atom_site_fract_z
Si Si1 0.288260 0.459808 0.171718
Si Si2 0.571107 0.154931 0.227180
Si Si3 0.756874 0.246957 0.201601
Si Si4 0.146325 0.314530 0.147319
Si Si5 0.666050 0.618905 0.436887
Si Si6 0.846554 0.994356 0.394558
Si Si7 0.238374 0.217523 0.676880
Si Si8 0.731397 0.452195 0.971259
O O1 0.524717 0.361940 0.188943
O O2 0.246058 0.313440 0.067917
O O3 0.003528 0.692520 0.345898
O O4 0.304163 0.485123 0.089335
O O5 0.673697 0.249854 0.290687
O O6 0.345904 0.254879 0.204436
O O7 0.452042 0.208923 0.351880
O O8 0.802800 0.895828 0.028420
O O9 0.793362 0.401686 0.328378
O O10 0.000000 0.000000 0.000000
O O11 0.873422 0.530870 0.324077
O O12 0.404877 0.754061 0.453583
O O13 0.774605 0.873486 0.312942
O O14 0.000000 0.000000 0.500000
O O15 0.043413 0.810526 0.196558
O O16 0.237950 0.399936 0.849346
O O17 0.500000 0.000000 0.500000
O O18 0.500000 0.500000 0.000000
#
# Coordination Sequence:
#
# PCOD9028947 Si02
#       8
#     2   2   2   2   2   2   2   2
#     4  10  23  42  68  93 136 178 226 280 357 413
#     4  10  23  41  65  96 135 173 230 286 339 412
#     4  11  23  44  63  98 140 185 228 291 347 411
#     4  10  22  42  65  96 132 174 224 290 343 408
#     4  12  23  40  72  96 133 184 232 279 358 410
#     4  11  24  43  65 100 141 180 234 290 344 421
#     4  11  23  43  68 100 138 179 230 293 352 425
#     4  11  25  44  69 104 138 182 235 293 359 437
#
# _framework density 23.23479
#
# number of rings (size 3 to 8) (size 9 to 14) (size 15 to 20)
#    0.000    1.250    1.250    5.250    3.500    2.000 
#    0.000    1.250    0.000    0.000    0.000    0.000 
#    0.000    0.000    0.000    0.000    0.000    0.000 
#
# Total GULP energy -89086.114056 kJ/mol
# GULP energy per Si atom -5567.882129 kJ/mol
# Density = 2.318191 g / cm^3
# Si number density = 23.234790 Si / 1000 Ang^3
#
#
#
# Elastic Constant Matrix: (Units=GPa)
#
#
# Indices 1 2 3 4 5 6 
#
# 1 101.3853 23.4029 32.6443 -3.7608 -19.7313 20.5445
# 2 23.4029 79.2977 6.9806 -1.2537 -18.6165 -4.8356
# 3 32.6443 6.9806 113.9494 15.7053 -22.2553 -6.2869
# 4 -3.7608 -1.2537 15.7053 35.9911 -3.0119 -4.7290
# 5 -19.7313 -18.6165 -22.2553 -3.0119 46.1792 8.8454
# 6 20.5445 -4.8356 -6.2869 -4.7290 8.8454 43.2878
#
#
#
# Elastic Compliance Matrix: (Units=1/GPa)
#
#
# Indices 1 2 3 4 5 6 
#
# 1 0.014653 -0.003331 -0.003844 0.002367 0.004871 -0.008621
# 2 -0.003331 0.014733 0.001020 0.000429 0.004559 0.002490
# 3 -0.003844 0.001020 0.011262 -0.004683 0.003439 0.002360
# 4 0.002367 0.000429 -0.004683 0.030331 0.000632 0.001429
# 5 0.004871 0.004559 0.003439 0.000632 0.028629 -0.007084
# 6 -0.008621 0.002490 0.002360 0.001429 -0.007084 0.029417
#
#
# Mechanical properties :
#
#
# Convention : Reuss Voigt Hill
#
# Bulk Modulus (GPa) = 35.28819 46.74312 41.01566
# Shear Modulus (GPa) = 33.16074 40.53192 36.84633
#
# Velocity S-wave (km/s) = 3.78193 4.18119 3.98656
# Velocity P-wave (km/s) = 5.85588 6.59327 6.23548
#
# Compressibility (1/GPa) = 0.02833809
#
# Stress axis : x y z
#
# Youngs Moduli (GPa) = 68.24612 67.87583 88.79543
#
# Poissons Ratio (x) = 0.22608 0.34136
# Poissons Ratio (y) = 0.22731 -0.09060
# Poissons Ratio (z) = 0.26236 -0.06926
#
# Static dielectric constant tensor:
#      x y z
#    x 2.252750 0.074090 -0.239570 
#    y 0.074090 1.998120 -0.005170 
#    z -0.239570 -0.005170 2.225180 
# 
# From -- ./inp_files/505599.got.cif
#   From: 2010.05.17/outbox.cif.g08.bks.cpg/sg2_253_cif.got.tgz:505599.got - 2010.06.03 11:33:40.
