data_PCOD9028004
_publ_section_title
;
Structure prediction by ZEFSAII (Michael W. Deem and Ramdas Pophale) SiO2 
 PCOD9028004
Probable space group: P -1
;
_chemical_formula_sum "Si O2"
_cell_formula_units_Z 16
_cell_length_a 13.970638
_cell_length_b 16.216776
_cell_length_c 5.361070
_cell_angle_alpha 91.893404
_cell_angle_beta 76.120743
_cell_angle_gamma 144.771188
_cell_volume 650.760726
_symmetry_space_group_name_H-M "P -1"
_symmetry_group_IT_number 2
_symmetry_cell_setting 'triclinic'
loop_
_space_group_symop_operation_xyz
x,y,z
-x,-y,-z
loop_
_atom_site_type_symbol
_atom_site_label
_atom_site_fract_x
_atom_site_fract_y
_atom_site_fract_z
Si Si1 0.503002 0.092403 0.216246
Si Si2 0.325528 0.729832 0.394566
Si Si3 0.046529 0.105859 0.179345
Si Si4 0.570024 0.464661 0.560444
Si Si5 0.294770 0.169392 0.374467
Si Si6 0.219355 0.816167 0.663040
Si Si7 0.112421 0.327023 0.917233
Si Si8 0.386322 0.616897 0.081882
O O1 0.555887 0.191208 0.420180
O O2 0.623000 0.097568 0.233043
O O3 0.301826 0.925444 0.391645
O O4 0.578439 0.169801 0.907959
O O5 0.177612 0.695422 0.561986
O O6 0.289183 0.610459 0.331760
O O7 0.183907 0.163056 0.298134
O O8 0.115944 0.237812 0.024437
O O9 0.857643 0.990944 0.420263
O O10 0.000000 0.000000 0.000000
O O11 0.500000 0.500000 0.500000
O O12 0.435585 0.306056 0.494350
O O13 0.550361 0.426952 0.853308
O O14 0.785374 0.612767 0.401962
O O15 0.425380 0.214033 0.106834
O O16 0.076988 0.766823 0.905541
O O17 0.243290 0.488799 0.960845
#
# Coordination Sequence:
#
# PCOD9028004 Si02
#       8
#     2   2   2   2   2   2   2   2
#     4   9  21  42  67 101 138 187 225 290 352 407
#     4  10  22  41  70  95 142 182 230 285 347 420
#     4  11  23  42  65 100 129 171 222 291 353 400
#     4  11  23  44  66  91 135 180 224 280 348 414
#     4  10  23  40  65  91 131 167 225 278 340 417
#     4   9  22  39  66  99 141 177 232 283 357 405
#     4  11  25  41  65  99 133 173 232 285 342 423
#     4  11  25  41  65  98 129 189 227 277 348 418
#
# _framework density 24.58661
#
# number of rings (size 3 to 8) (size 9 to 14) (size 15 to 20)
#    0.750    1.000    0.000    3.375    5.250    5.500 
#    0.000    1.250    0.000    0.000    0.000    0.000 
#    0.000    0.000    0.000    0.000    0.000    0.000 
#
# Total GULP energy -89133.933162 kJ/mol
# GULP energy per Si atom -5570.870823 kJ/mol
# Density = 2.453065 g / cm^3
# Si number density = 24.586610 Si / 1000 Ang^3
#
#
#
# Elastic Constant Matrix: (Units=GPa)
#
#
# Indices 1 2 3 4 5 6 
#
# 1 71.9593 2.7787 30.8751 -14.5302 -11.2154 -4.7537
# 2 2.7787 48.2290 12.3896 -10.6251 -7.7054 -6.0765
# 3 30.8751 12.3896 96.9138 -25.8131 -0.3073 8.4751
# 4 -14.5302 -10.6251 -25.8131 40.1624 0.3250 -10.0012
# 5 -11.2154 -7.7054 -0.3073 0.3250 38.4353 -4.4243
# 6 -4.7537 -6.0765 8.4751 -10.0012 -4.4243 34.4314
#
#
#
# Elastic Compliance Matrix: (Units=1/GPa)
#
#
# Indices 1 2 3 4 5 6 
#
# 1 0.018902 0.003686 -0.005500 0.006031 0.006996 0.007265
# 2 0.003686 0.025402 -0.002969 0.008344 0.007117 0.009061
# 3 -0.005500 -0.002969 0.014216 0.005509 -0.002537 -0.003508
# 4 0.006031 0.008344 0.005509 0.035761 0.004547 0.011921
# 5 0.006996 0.007117 -0.002537 0.004547 0.030356 0.008068
# 6 0.007265 0.009061 -0.003508 0.011921 0.008068 0.037008
#
#
# Mechanical properties :
#
#
# Convention : Reuss Voigt Hill
#
# Bulk Modulus (GPa) = 20.42745 34.35431 27.39088
# Shear Modulus (GPa) = 26.66257 34.00974 30.33615
#
# Velocity S-wave (km/s) = 3.29665 3.72326 3.51643
# Velocity P-wave (km/s) = 4.77671 5.69971 5.25850
#
# Compressibility (1/GPa) = 0.04895375
#
# Stress axis : x y z
#
# Youngs Moduli (GPa) = 52.90355 39.36765 70.34256
#
# Poissons Ratio (x) = -0.14509 0.38687
# Poissons Ratio (y) = -0.19498 0.20884
# Poissons Ratio (z) = 0.29096 0.11688
#
# Static dielectric constant tensor:
#      x y z
#    x 2.022830 -0.058510 -0.034650 
#    y -0.058510 2.015600 -0.023450 
#    z -0.034650 -0.023450 2.154940 
# 
# From -- ./inp_files/99731.got.cif
#   From: 2010.05.17/outbox.cif.g08.bks.cpg/sg2_50_cif.got.tgz:99731.got - 2010.06.03 11:33:40.
