data_PCOD9028758
_publ_section_title
;
Structure prediction by ZEFSAII (Michael W. Deem and Ramdas Pophale) SiO2 
 PCOD9028758
Probable space group: P -1
;
_chemical_formula_sum "Si O2"
_cell_formula_units_Z 14
_cell_length_a 8.778642
_cell_length_b 9.072544
_cell_length_c 9.322345
_cell_angle_alpha 115.977574
_cell_angle_beta 75.996778
_cell_angle_gamma 65.584462
_cell_volume 520.317681
_symmetry_space_group_name_H-M "P -1"
_symmetry_group_IT_number 2
_symmetry_cell_setting 'triclinic'
loop_
_space_group_symop_operation_xyz
x,y,z
-x,-y,-z
loop_
_atom_site_type_symbol
_atom_site_label
_atom_site_fract_x
_atom_site_fract_y
_atom_site_fract_z
Si Si1 0.033675 0.110609 0.413532
Si Si2 0.427435 0.644474 0.795874
Si Si3 0.595110 0.962643 0.804293
Si Si4 0.196875 0.419698 0.261880
Si Si5 0.325468 0.803042 0.587157
Si Si6 0.735977 0.814020 0.260245
Si Si7 0.083465 0.616890 0.887097
O O1 0.246017 0.996237 0.248306
O O2 0.947655 0.337345 0.585875
O O3 0.887885 0.142981 0.336774
O O4 0.000000 0.000000 0.500000
O O5 0.593679 0.623946 0.851627
O O6 0.383649 0.792156 0.734461
O O7 0.543877 0.417252 0.606697
O O8 0.217149 0.695626 0.898943
O O9 0.734846 0.712637 0.663843
O O10 0.424738 0.100484 0.789807
O O11 0.500000 0.000000 0.000000
O O12 0.080301 0.346369 0.174073
O O13 0.320495 0.975123 0.571984
O O14 0.762041 0.629758 0.258154
O O15 0.951688 0.704445 0.097390
#
# Coordination Sequence:
#
# PCOD9028758 Si02
#       7
#     2   2   2   2   2   2   2
#     4  11  26  44  72 106 140 181 235 293 352 412
#     4  10  23  41  69  98 134 174 236 287 343 412
#     4  12  25  45  71 103 140 186 235 284 350 424
#     4  11  23  46  71 104 137 186 236 286 348 423
#     4  10  22  42  64  98 133 175 232 287 341 415
#     4  11  25  43  64  98 140 180 231 283 355 411
#     4  11  25  44  66  98 140 183 227 292 349 409
#
# _framework density 26.906638000000001
#
# number of rings (size 3 to 8) (size 9 to 14) (size 15 to 20)
#    0.000    1.143    2.857    2.143    6.000    2.286 
#    0.000    2.143    0.000    0.000    0.000    0.000 
#    0.000    0.000    0.000    0.000    0.000    0.000 
#
# Total GULP energy -78134.880721 kJ/mol
# GULP energy per Si atom -5581.062909 kJ/mol
# Density = 2.684540 g / cm^3
# Si number density = 26.906638 Si / 1000 Ang^3
#
#
#
# Elastic Constant Matrix: (Units=GPa)
#
#
# Indices 1 2 3 4 5 6 
#
# 1 193.1733 29.3147 49.2349 -17.9556 -41.1050 1.1025
# 2 29.3147 103.7060 29.3003 13.2240 -15.3009 7.9074
# 3 49.2349 29.3003 101.2342 -1.2053 -34.6877 6.4978
# 4 -17.9556 13.2240 -1.2053 35.4040 11.0895 -3.8999
# 5 -41.1050 -15.3009 -34.6877 11.0895 57.5239 1.5802
# 6 1.1025 7.9074 6.4978 -3.8999 1.5802 40.0534
#
#
#
# Elastic Compliance Matrix: (Units=1/GPa)
#
#
# Indices 1 2 3 4 5 6 
#
# 1 0.006739 -0.001403 -0.001970 0.003116 0.002637 0.000610
# 2 -0.001403 0.011914 -0.001873 -0.006249 0.002316 -0.002709
# 3 -0.001970 -0.001873 0.013889 -0.002266 0.006970 -0.002325
# 4 0.003116 -0.006249 -0.002266 0.035074 -0.007707 0.005235
# 5 0.002637 0.002316 0.006970 -0.007707 0.025667 -0.003424
# 6 0.000610 -0.002709 -0.002325 0.005235 -0.003424 0.026507
#
#
# Mechanical properties :
#
#
# Convention : Reuss Voigt Hill
#
# Bulk Modulus (GPa) = 45.35186 68.20147 56.77667
# Shear Modulus (GPa) = 36.32926 45.94716 41.13821
#
# Velocity S-wave (km/s) = 3.67849 4.13686 3.91439
# Velocity P-wave (km/s) = 5.91046 6.94411 6.44803
#
# Compressibility (1/GPa) = 0.02204981
#
# Stress axis : x y z
#
# Youngs Moduli (GPa) = 148.39049 83.93802 72.00134
#
# Poissons Ratio (x) = 0.11778 0.14184
# Poissons Ratio (y) = 0.20822 0.13483
# Poissons Ratio (z) = 0.29232 0.15718
#
# Static dielectric constant tensor:
#      x y z
#    x 2.199180 0.026270 0.064350 
#    y 0.026270 2.137670 0.018740 
#    z 0.064350 0.018740 2.172550 
# 
# From -- ./inp_files/159234.got.cif
#   From: 2010.05.17/outbox.cif.g08.bks.cpg/sg2_80_cif.got.tgz:159234.got - 2010.06.03 11:33:40.
