data_PCOD9028369
_publ_section_title
;
Structure prediction by ZEFSAII (Michael W. Deem and Ramdas Pophale) SiO2 
 PCOD9028369
Probable space group: P -1
;
_chemical_formula_sum "Si O2"
_cell_formula_units_Z 16
_cell_length_a 22.653974
_cell_length_b 5.600782
_cell_length_c 5.175675
_cell_angle_alpha 77.781018
_cell_angle_beta 81.677457
_cell_angle_gamma 106.028782
_cell_volume 602.257391
_symmetry_space_group_name_H-M "P -1"
_symmetry_group_IT_number 2
_symmetry_cell_setting 'triclinic'
loop_
_space_group_symop_operation_xyz
x,y,z
-x,-y,-z
loop_
_atom_site_type_symbol
_atom_site_label
_atom_site_fract_x
_atom_site_fract_y
_atom_site_fract_z
Si Si1 0.033015 0.874435 0.310065
Si Si2 0.940570 0.598521 0.094137
Si Si3 0.254931 0.199276 0.065368
Si Si4 0.513274 0.847850 0.775473
Si Si5 0.145076 0.696127 0.235833
Si Si6 0.230477 0.478366 0.522852
Si Si7 0.613343 0.473170 0.172381
Si Si8 0.362081 0.812830 0.282172
O O1 0.097018 0.826667 0.360574
O O2 0.968617 0.640257 0.352366
O O3 0.000000 0.000000 0.500000
O O4 0.057760 0.106659 0.031711
O O5 0.886012 0.427918 0.984206
O O6 0.000000 0.500000 0.000000
O O7 0.233885 0.379479 0.830828
O O8 0.329591 0.262313 0.955846
O O9 0.244316 0.288077 0.341316
O O10 0.209900 0.919282 0.088346
O O11 0.460164 0.570069 0.831140
O O12 0.500000 0.000000 0.500000
O O13 0.588414 0.912398 0.731704
O O14 0.500000 0.000000 0.000000
O O15 0.165239 0.514770 0.468554
O O16 0.288403 0.745706 0.400418
O O17 0.619326 0.379276 0.481308
O O18 0.629344 0.281424 0.992529
#
# Coordination Sequence:
#
# PCOD9028369 Si02
#       8
#     2   2   2   2   2   2   2   2
#     4  10  22  46  68  94 121 154 199 257 311 367
#     4   9  21  44  64  93 121 153 195 248 308 368
#     4  10  22  42  60  91 128 168 212 258 308 374
#     4   8  12  20  40  75 102 147 202 249 300 355
#     4  11  23  43  65  97 124 166 208 252 311 382
#     4  10  22  42  60  89 128 170 209 260 311 368
#     4   8  14  26  48  73 114 153 199 255 303 353
#     4   8  14  26  48  73 112 153 203 252 301 359
#
# _framework density 26.566717000000001
#
# number of rings (size 3 to 8) (size 9 to 14) (size 15 to 20)
#    0.000    2.750    0.000    0.750    0.000    3.000 
#   29.250    0.000    0.000    0.750    0.000    0.000 
#    0.000   30.000    0.000    0.000    0.000    4.500 
#
# Total GULP energy -89186.150616 kJ/mol
# GULP energy per Si atom -5574.134414 kJ/mol
# Density = 2.650625 g / cm^3
# Si number density = 26.566717 Si / 1000 Ang^3
#
#
#
# Elastic Constant Matrix: (Units=GPa)
#
#
# Indices 1 2 3 4 5 6 
#
# 1 167.6567 37.4341 7.2101 5.6659 42.0882 42.7133
# 2 37.4341 101.0621 4.1871 3.7266 12.2628 59.0956
# 3 7.2101 4.1871 95.7758 17.9760 16.9261 1.5830
# 4 5.6659 3.7266 17.9760 49.0521 0.0151 2.9304
# 5 42.0882 12.2628 16.9261 0.0151 28.6384 7.5076
# 6 42.7133 59.0956 1.5830 2.9304 7.5076 54.1079
#
#
#
# Elastic Compliance Matrix: (Units=1/GPa)
#
#
# Indices 1 2 3 4 5 6 
#
# 1 0.013078 0.005329 0.002893 -0.002171 -0.019704 -0.013378
# 2 0.005329 0.030017 0.001256 -0.001245 -0.012181 -0.035270
# 3 0.002893 0.001256 0.013315 -0.005181 -0.012111 -0.002084
# 4 -0.002171 -0.001245 -0.005181 0.022563 0.006484 0.001104
# 5 -0.019704 -0.012181 -0.012111 0.006484 0.071273 0.018972
# 6 -0.013378 -0.035270 -0.002084 0.001104 0.018972 0.064932
#
#
# Mechanical properties :
#
#
# Convention : Reuss Voigt Hill
#
# Bulk Modulus (GPa) = 13.26826 51.35080 32.30953
# Shear Modulus (GPa) = 22.58931 47.40389 34.99660
#
# Velocity S-wave (km/s) = 2.91913 4.22872 3.63341
# Velocity P-wave (km/s) = 4.04561 6.57371 5.45805
#
# Compressibility (1/GPa) = 0.07536783
#
# Stress axis : x y z
#
# Youngs Moduli (GPa) = 76.46228 33.31479 75.10063
#
# Poissons Ratio (x) = -0.17755 -0.21728
# Poissons Ratio (y) = -0.40751 -0.09432
# Poissons Ratio (z) = -0.22122 -0.04184
#
# Static dielectric constant tensor:
#      x y z
#    x 2.094660 0.043380 -0.047480 
#    y 0.043380 1.966180 -0.094310 
#    z -0.047480 -0.094310 1.589350 
# 
# From -- ./inp_files/12329.got.cif
#   From: 2010.05.17/outbox.cif.g08.bks.cpg/sg2_7_cif.got.tgz:12329.got - 2010.06.03 11:33:40.
