data_PCOD9028301
_publ_section_title
;
Structure prediction by ZEFSAII (Michael W. Deem and Ramdas Pophale) SiO2 
 PCOD9028301
Probable space group: P -1
;
_chemical_formula_sum "Si O2"
_cell_formula_units_Z 12
_cell_length_a 9.010515
_cell_length_b 7.558938
_cell_length_c 9.070455
_cell_angle_alpha 64.012814
_cell_angle_beta 66.335799
_cell_angle_gamma 89.224460
_cell_volume 498.644215
_symmetry_space_group_name_H-M "P -1"
_symmetry_group_IT_number 2
_symmetry_cell_setting 'triclinic'
loop_
_space_group_symop_operation_xyz
x,y,z
-x,-y,-z
loop_
_atom_site_type_symbol
_atom_site_label
_atom_site_fract_x
_atom_site_fract_y
_atom_site_fract_z
Si Si1 0.407727 0.510270 0.708722
Si Si2 0.254854 0.431500 0.480267
Si Si3 0.245875 0.791837 0.838514
Si Si4 0.064971 0.602638 0.254009
Si Si5 0.474660 0.912635 0.205899
Si Si6 0.872870 0.142379 0.458769
O O1 0.320922 0.521072 0.581909
O O2 0.587728 0.657409 0.597320
O O3 0.296824 0.580022 0.851215
O O4 0.454516 0.293106 0.768016
O O5 0.214766 0.576379 0.311734
O O6 0.074355 0.307655 0.635637
O O7 0.185591 0.875863 0.681322
O O8 0.399481 0.944933 0.788374
O O9 0.115183 0.731577 0.043032
O O10 0.977234 0.371867 0.343504
O O11 0.291045 0.900736 0.354542
O O12 0.500000 0.000000 0.000000
O O13 0.000000 0.000000 0.500000
#
# Coordination Sequence:
#
# PCOD9028301 Si02
#       6
#     2   2   2   2   2   2
#     4  11  23  48  74 103 147 197 240 300 363 436
#     4  10  22  41  74  99 142 195 241 292 362 433
#     4  12  28  48  78 108 148 197 247 297 372 439
#     4  11  24  46  71 109 148 193 241 302 372 429
#     4  12  29  50  73 112 148 194 251 301 363 445
#     4  12  28  48  73 110 155 190 246 310 366 433
#
# _framework density 24.065255000000001
#
# number of rings (size 3 to 8) (size 9 to 14) (size 15 to 20)
#    0.000    0.667    3.333    3.000    9.333    1.333 
#    0.000    1.667    0.000    0.000    0.000    0.000 
#    0.000    0.000    0.000    0.000    0.000    0.000 
#
# Total GULP energy -66986.897215 kJ/mol
# GULP energy per Si atom -5582.241435 kJ/mol
# Density = 2.401048 g / cm^3
# Si number density = 24.065255 Si / 1000 Ang^3
#
#
#
# Elastic Constant Matrix: (Units=GPa)
#
#
# Indices 1 2 3 4 5 6 
#
# 1 172.5182 43.8899 70.9011 -1.4450 30.6532 -4.0755
# 2 43.8899 114.8842 41.4160 -11.8149 12.9647 -2.9517
# 3 70.9011 41.4160 182.0573 6.9497 14.1467 -11.8856
# 4 -1.4450 -11.8149 6.9497 31.2056 5.6516 1.0293
# 5 30.6532 12.9647 14.1467 5.6516 40.9206 5.4692
# 6 -4.0755 -2.9517 -11.8856 1.0293 5.4692 45.0581
#
#
#
# Elastic Compliance Matrix: (Units=1/GPa)
#
#
# Indices 1 2 3 4 5 6 
#
# 1 0.008089 -0.001511 -0.002429 0.001228 -0.004986 0.000569
# 2 -0.001511 0.010705 -0.001833 0.004804 -0.002323 0.000253
# 3 -0.002429 -0.001833 0.007044 -0.002444 0.000094 0.001563
# 4 0.001228 0.004804 -0.002444 0.035648 -0.006487 -0.000246
# 5 -0.004986 -0.002323 0.000094 -0.006487 0.030322 -0.004111
# 6 0.000569 0.000253 0.001563 -0.000246 -0.004111 0.023178
#
#
# Mechanical properties :
#
#
# Convention : Reuss Voigt Hill
#
# Bulk Modulus (GPa) = 69.96912 86.87488 78.42200
# Shear Modulus (GPa) = 38.08182 44.32038 41.20110
#
# Velocity S-wave (km/s) = 3.98230 4.29613 4.14219
# Velocity P-wave (km/s) = 7.09104 7.79661 7.45218
#
# Compressibility (1/GPa) = 0.01429202
#
# Stress axis : x y z
#
# Youngs Moduli (GPa) = 123.62853 93.41158 141.97237
#
# Poissons Ratio (x) = 0.14115 0.34479
# Poissons Ratio (y) = 0.18681 0.26026
# Poissons Ratio (z) = 0.30024 0.17124
#
# Static dielectric constant tensor:
#      x y z
#    x 2.031720 0.063870 -0.078110 
#    y 0.063870 2.035450 -0.065740 
#    z -0.078110 -0.065740 1.937980 
# 
# From -- ./inp_files/144415.got.cif
#   From: 2010.05.17/outbox.cif.g08.bks.cpg/sg2_73_cif.got.tgz:144415.got - 2010.06.03 11:33:40.
