data_PCOD9028542
_publ_section_title
;
Structure prediction by ZEFSAII (Michael W. Deem and Ramdas Pophale) SiO2 
 PCOD9028542
Probable space group: P -1
;
_chemical_formula_sum "Si O2"
_cell_formula_units_Z 15
_cell_length_a 9.546617
_cell_length_b 6.693073
_cell_length_c 17.806648
_cell_angle_alpha 122.014918
_cell_angle_beta 54.833201
_cell_angle_gamma 130.600698
_cell_volume 683.730112
_symmetry_space_group_name_H-M "P -1"
_symmetry_group_IT_number 2
_symmetry_cell_setting 'triclinic'
loop_
_space_group_symop_operation_xyz
x,y,z
-x,-y,-z
loop_
_atom_site_type_symbol
_atom_site_label
_atom_site_fract_x
_atom_site_fract_y
_atom_site_fract_z
Si Si1 0.252314 0.595793 0.087446
Si Si2 0.761537 0.354709 0.608310
Si Si3 0.000000 0.500000 0.000000
Si Si4 0.298387 0.078697 0.948557
Si Si5 0.391292 0.947502 0.737437
Si Si6 0.598187 0.620058 0.613174
Si Si7 0.002094 0.429986 0.697628
Si Si8 0.233092 0.129745 0.552150
O O1 0.485029 0.810833 0.060932
O O2 0.150839 0.615079 0.198765
O O3 0.233324 0.298600 0.031734
O O4 0.145003 0.627806 0.054826
O O5 0.741232 0.585474 0.618166
O O6 0.912756 0.434405 0.645790
O O7 0.546772 0.164229 0.675136
O O8 0.802782 0.172359 0.500434
O O9 0.142686 0.779738 0.963624
O O10 0.326994 0.075955 0.849046
O O11 0.500727 0.792916 0.708028
O O12 0.201827 0.714032 0.706938
O O13 0.419583 0.323146 0.585295
O O14 0.704952 0.761714 0.530900
O O15 0.061721 0.196376 0.637019
#
# Coordination Sequence:
#
# PCOD9028542 Si02
#       8
#     2   2   1   2   2   2   2   2
#     4  11  25  46  68 100 136 176 221 278 334 400
#     4  11  21  40  67  91 125 180 216 263 331 390
#     4  12  24  44  74 100 126 176 226 270 344 396
#     4  11  24  47  69  95 137 174 220 279 338 397
#     4  10  22  42  63  91 134 167 214 277 324 384
#     4   9  20  39  63  94 125 174 217 263 323 392
#     4  11  22  41  63  95 131 170 217 273 326 386
#     4   9  20  39  62  91 136 166 213 275 321 380
#
# _framework density 21.938482
#
# number of rings (size 3 to 8) (size 9 to 14) (size 15 to 20)
#    0.000    1.600    2.667    2.400    0.000    1.600 
#    2.400    6.667    0.000    0.000    0.000    0.000 
#    0.000    0.000    0.000    0.000    0.000    0.000 
#
# Total GULP energy -83710.687285 kJ/mol
# GULP energy per Si atom -5580.712486 kJ/mol
# Density = 2.188855 g / cm^3
# Si number density = 21.938482 Si / 1000 Ang^3
#
#
#
# Elastic Constant Matrix: (Units=GPa)
#
#
# Indices 1 2 3 4 5 6 
#
# 1 79.2483 25.1546 18.9208 -0.1401 2.0598 10.4009
# 2 25.1546 64.2989 16.3107 -7.9621 -5.2173 22.8825
# 3 18.9208 16.3107 105.7715 11.4316 -17.1108 1.1687
# 4 -0.1401 -7.9621 11.4316 25.7676 0.7931 0.6420
# 5 2.0598 -5.2173 -17.1108 0.7931 30.7247 0.5434
# 6 10.4009 22.8825 1.1687 0.6420 0.5434 23.8472
#
#
#
# Elastic Compliance Matrix: (Units=1/GPa)
#
#
# Indices 1 2 3 4 5 6 
#
# 1 0.015069 -0.005030 -0.002383 -0.000279 -0.003157 -0.001550
# 2 -0.005030 0.029666 -0.004100 0.011517 0.003262 -0.026455
# 3 -0.002383 -0.004100 0.012257 -0.007024 0.006393 0.004416
# 4 -0.000279 0.011517 -0.007024 0.045864 -0.002914 -0.011753
# 5 -0.003157 0.003262 0.006393 -0.002914 0.036998 -0.002831
# 6 -0.001550 -0.026455 0.004416 -0.011753 -0.002831 0.068159
#
#
# Mechanical properties :
#
#
# Convention : Reuss Voigt Hill
#
# Bulk Modulus (GPa) = 29.44067 41.12122 35.28095
# Shear Modulus (GPa) = 20.63032 28.66341 24.64687
#
# Velocity S-wave (km/s) = 3.06987 3.61852 3.35543
# Velocity P-wave (km/s) = 5.10042 6.02020 5.57930
#
# Compressibility (1/GPa) = 0.03396662
#
# Stress axis : x y z
#
# Youngs Moduli (GPa) = 66.36079 33.70910 81.58278
#
# Poissons Ratio (x) = 0.16955 0.19445
# Poissons Ratio (y) = 0.33379 0.33445
# Poissons Ratio (z) = 0.15817 0.13819
#
# Static dielectric constant tensor:
#      x y z
#    x 1.791340 0.036500 -0.022710 
#    y 0.036500 1.789400 0.010760 
#    z -0.022710 0.010760 1.778280 
# 
# From -- ./inp_files/552923.got.cif
#   From: 2010.05.17/outbox.cif.g08.bks.cpg/sg2_277_cif.got.tgz:552923.got - 2010.06.03 11:33:40.
