data_PCOD9028151
_publ_section_title
;
Structure prediction by ZEFSAII (Michael W. Deem and Ramdas Pophale) SiO2 
 PCOD9028151
Probable space group: P -1
;
_chemical_formula_sum "Si O2"
_cell_formula_units_Z 12
_cell_length_a 7.481363
_cell_length_b 9.279249
_cell_length_c 7.190574
_cell_angle_alpha 79.408304
_cell_angle_beta 88.520379
_cell_angle_gamma 101.632593
_cell_volume 479.570559
_symmetry_space_group_name_H-M "P -1"
_symmetry_group_IT_number 2
_symmetry_cell_setting 'triclinic'
loop_
_space_group_symop_operation_xyz
x,y,z
-x,-y,-z
loop_
_atom_site_type_symbol
_atom_site_label
_atom_site_fract_x
_atom_site_fract_y
_atom_site_fract_z
Si Si1 0.027507 0.853167 0.922199
Si Si2 0.151232 0.667841 0.499980
Si Si3 0.392932 0.549240 0.227183
Si Si4 0.302058 0.965645 0.607715
Si Si5 0.213758 0.441893 0.867022
Si Si6 0.803061 0.745295 0.577097
O O1 0.895771 0.817041 0.750523
O O2 0.235461 0.889460 0.826648
O O3 0.957208 0.697595 0.071466
O O4 0.000000 0.000000 0.000000
O O5 0.284217 0.637164 0.343773
O O6 0.196142 0.844661 0.495244
O O7 0.180041 0.574593 0.704956
O O8 0.932318 0.647155 0.497297
O O9 0.606500 0.618476 0.186388
O O10 0.377893 0.379011 0.344315
O O11 0.282695 0.517902 0.044917
O O12 0.500000 0.000000 0.500000
O O13 0.233386 0.119419 0.573461
#
# Coordination Sequence:
#
# PCOD9028151 Si02
#       6
#     2   2   2   2   2   2
#     4  10  23  41  66  97 136 179 209 281 338 389
#     4  11  22  41  69  99 132 186 218 277 343 393
#     4  10  22  41  71  98 134 177 223 286 328 396
#     4  11  25  45  68  96 136 176 227 274 338 412
#     4  10  23  42  66 104 137 167 237 276 331 403
#     4  10  23  46  63  98 135 169 230 272 334 409
#
# _framework density 25.022389
#
# number of rings (size 3 to 8) (size 9 to 14) (size 15 to 20)
#    0.000    1.667    0.000    4.000    4.667    6.000 
#   15.000    0.833    0.000    0.000    0.000    0.000 
#    0.000    0.000    0.000    0.000    0.000    0.000 
#
# Total GULP energy -67105.091778 kJ/mol
# GULP energy per Si atom -5592.090981 kJ/mol
# Density = 2.496544 g / cm^3
# Si number density = 25.022389 Si / 1000 Ang^3
#
#
#
# Elastic Constant Matrix: (Units=GPa)
#
#
# Indices 1 2 3 4 5 6 
#
# 1 104.7919 36.4128 54.3548 -11.6040 -39.6775 -15.4198
# 2 36.4128 103.7194 48.8440 14.5286 -5.5588 -24.1284
# 3 54.3548 48.8440 131.6035 0.3108 -27.6597 -22.9766
# 4 -11.6040 14.5286 0.3108 37.1285 -5.1161 -5.0484
# 5 -39.6775 -5.5588 -27.6597 -5.1161 48.5358 1.6348
# 6 -15.4198 -24.1284 -22.9766 -5.0484 1.6348 40.7698
#
#
#
# Elastic Compliance Matrix: (Units=1/GPa)
#
#
# Indices 1 2 3 4 5 6 
#
# 1 0.020792 -0.006106 -0.002317 0.011631 0.016078 0.003740
# 2 -0.006106 0.015275 -0.003807 -0.008216 -0.006406 0.003825
# 3 -0.002317 -0.003807 0.011447 0.001714 0.004261 0.003364
# 4 0.011631 -0.008216 0.001714 0.036195 0.013209 0.004455
# 5 0.016078 -0.006406 0.004261 0.013209 0.036670 0.004856
# 6 0.003740 0.003825 0.003364 0.004455 0.004856 0.030459
#
#
# Mechanical properties :
#
#
# Convention : Reuss Voigt Hill
#
# Bulk Modulus (GPa) = 43.37376 68.81534 56.09455
# Shear Modulus (GPa) = 27.32529 38.65369 32.98949
#
# Velocity S-wave (km/s) = 3.30818 3.93461 3.63492
# Velocity P-wave (km/s) = 5.65364 6.94282 6.33113
#
# Compressibility (1/GPa) = 0.02305542
#
# Stress axis : x y z
#
# Youngs Moduli (GPa) = 48.09615 65.46657 87.35936
#
# Poissons Ratio (x) = 0.39973 0.20238
# Poissons Ratio (y) = 0.29367 0.33255
# Poissons Ratio (z) = 0.11142 0.24921
#
# Static dielectric constant tensor:
#      x y z
#    x 2.080030 0.073830 -0.056320 
#    y 0.073830 1.948740 0.013120 
#    z -0.056320 0.013120 2.072410 
# 
# From -- ./inp_files/157234.got.cif
#   From: 2010.05.17/outbox.cif.g08.bks.cpg/sg2_79_cif.got.tgz:157234.got - 2010.06.03 11:33:40.
