data_PCOD9028636
_publ_section_title
;
Structure prediction by ZEFSAII (Michael W. Deem and Ramdas Pophale) SiO2 
 PCOD9028636
Probable space group: P -1
;
_chemical_formula_sum "Si O2"
_cell_formula_units_Z 16
_cell_length_a 7.217405
_cell_length_b 5.013870
_cell_length_c 23.192142
_cell_angle_alpha 65.512991
_cell_angle_beta 86.271769
_cell_angle_gamma 67.964075
_cell_volume 703.891243
_symmetry_space_group_name_H-M "P -1"
_symmetry_group_IT_number 2
_symmetry_cell_setting 'triclinic'
loop_
_space_group_symop_operation_xyz
x,y,z
-x,-y,-z
loop_
_atom_site_type_symbol
_atom_site_label
_atom_site_fract_x
_atom_site_fract_y
_atom_site_fract_z
Si Si1 0.929474 0.369777 0.957252
Si Si2 0.353713 0.800659 0.394990
Si Si3 0.295854 0.739466 0.717896
Si Si4 0.437431 0.940371 0.263295
Si Si5 0.784471 0.245559 0.413057
Si Si6 0.818722 0.715631 0.549234
Si Si7 0.480236 0.235100 0.122931
Si Si8 0.765719 0.538789 0.143644
O O1 0.692926 0.538684 0.934642
O O2 0.047738 0.437348 0.895035
O O3 0.000000 0.500000 0.000000
O O4 0.000000 0.000000 0.000000
O O5 0.297187 0.962421 0.318741
O O6 0.576089 0.532046 0.407721
O O7 0.219241 0.602143 0.432380
O O8 0.335826 0.063746 0.419265
O O9 0.491764 0.413607 0.732043
O O10 0.200227 0.813669 0.650400
O O11 0.179709 0.642167 0.779894
O O12 0.371000 0.003519 0.717557
O O13 0.379669 0.181703 0.189712
O O14 0.965959 0.336106 0.423732
O O15 0.791630 0.933599 0.474457
O O16 0.650900 0.364770 0.124076
O O17 0.598937 0.888905 0.125830
#
# Coordination Sequence:
#
# PCOD9028636 Si02
#       8
#     2   2   2   2   2   2   2   2
#     4  12  26  41  64  98 126 159 201 238 292 361
#     4  11  22  40  60  86 119 157 202 252 304 356
#     4   9  19  37  62  85 115 158 199 249 301 346
#     4   9  19  37  62  88 115 156 204 246 298 351
#     4  10  23  41  59  86 123 154 203 258 295 361
#     4  11  25  37  59  88 117 163 203 241 314 367
#     4  10  22  42  64  89 126 161 198 251 291 345
#     4  10  22  42  64  89 121 161 202 244 301 350
#
# _framework density 22.730784
#
# number of rings (size 3 to 8) (size 9 to 14) (size 15 to 20)
#    0.000    1.750    0.000    3.750    0.000   11.000 
#    0.000    5.000    0.000    0.000    0.000    0.000 
#    0.000    0.000    0.000    0.000    0.000    0.000 
#
# Total GULP energy -89570.607376 kJ/mol
# GULP energy per Si atom -5598.162961 kJ/mol
# Density = 2.267905 g / cm^3
# Si number density = 22.730784 Si / 1000 Ang^3
#
#
#
# Elastic Constant Matrix: (Units=GPa)
#
#
# Indices 1 2 3 4 5 6 
#
# 1 42.0363 -14.2370 5.8405 -12.1979 -11.6304 -8.1424
# 2 -14.2370 34.3689 -4.4277 -6.0321 -6.7568 10.6306
# 3 5.8405 -4.4277 52.8838 6.5363 -2.3257 -5.5138
# 4 -12.1979 -6.0321 6.5363 29.5967 -5.0780 -9.0357
# 5 -11.6304 -6.7568 -2.3257 -5.0780 41.0814 -0.6818
# 6 -8.1424 10.6306 -5.5138 -9.0357 -0.6818 32.9464
#
#
#
# Elastic Compliance Matrix: (Units=1/GPa)
#
#
# Indices 1 2 3 4 5 6 
#
# 1 0.055989 0.029853 -0.005902 0.039274 0.025522 0.014516
# 2 0.029853 0.050164 -0.001580 0.025783 0.019773 -0.001592
# 3 -0.005902 -0.001580 0.020311 -0.007414 -0.001691 0.000382
# 4 0.039274 0.025783 -0.007414 0.066672 0.023495 0.018918
# 5 0.025522 0.019773 -0.001691 0.023495 0.037742 0.006869
# 6 0.014516 -0.001592 0.000382 0.018918 0.006869 0.039848
#
#
# Mechanical properties :
#
#
# Convention : Reuss Voigt Hill
#
# Bulk Modulus (GPa) = 5.84093 11.51561 8.67827
# Shear Modulus (GPa) = 17.66455 30.19913 23.93184
#
# Velocity S-wave (km/s) = 2.79071 3.64889 3.24827
# Velocity P-wave (km/s) = 3.59990 4.77804 4.23018
#
# Compressibility (1/GPa) = 0.17120575
#
# Stress axis : x y z
#
# Youngs Moduli (GPa) = 17.86057 19.93462 49.23513
#
# Poissons Ratio (x) = -0.59511 0.29060
# Poissons Ratio (y) = -0.53320 0.07780
# Poissons Ratio (z) = 0.10542 0.03150
#
# Static dielectric constant tensor:
#      x y z
#    x 1.841400 -0.033270 -0.024090 
#    y -0.033270 1.798800 0.008240 
#    z -0.024090 0.008240 1.859170 
# 
# From -- ./inp_files/605461.got.cif
#   From: 2010.05.17/outbox.cif.g08.bks.cpg/sg2_303_cif.got.tgz:605461.got - 2010.06.03 11:33:40.
