data_PCOD9029174
_publ_section_title
;
Structure prediction by ZEFSAII (Michael W. Deem and Ramdas Pophale) SiO2 
 PCOD9029174
Probable space group: P -1
;
_chemical_formula_sum "Si O2"
_cell_formula_units_Z 12
_cell_length_a 10.985237
_cell_length_b 11.556849
_cell_length_c 10.883649
_cell_angle_alpha 138.649673
_cell_angle_beta 124.004876
_cell_angle_gamma 87.282382
_cell_volume 554.865975
_symmetry_space_group_name_H-M "P -1"
_symmetry_group_IT_number 2
_symmetry_cell_setting 'triclinic'
loop_
_space_group_symop_operation_xyz
x,y,z
-x,-y,-z
loop_
_atom_site_type_symbol
_atom_site_label
_atom_site_fract_x
_atom_site_fract_y
_atom_site_fract_z
Si Si1 0.206785 0.094904 0.139920
Si Si2 0.946901 0.959053 0.253769
Si Si3 0.956585 0.582374 0.920709
Si Si4 0.330159 0.506696 0.929635
Si Si5 0.382487 0.520761 0.233846
Si Si6 0.141186 0.653019 0.818649
O O1 0.397144 0.353702 0.503499
O O2 0.178278 0.086153 0.972206
O O3 0.231846 0.917122 0.056813
O O4 0.000000 0.000000 0.000000
O O5 0.772981 0.767506 0.099210
O O6 0.113439 0.236937 0.592641
O O7 0.052260 0.855152 0.206641
O O8 0.019933 0.560860 0.807144
O O9 0.722207 0.446650 0.693843
O O10 0.000000 0.500000 0.000000
O O11 0.308045 0.639839 0.922821
O O12 0.500000 0.500000 0.000000
O O13 0.376231 0.617540 0.179288
O O14 0.000000 0.500000 0.500000
#
# Coordination Sequence:
#
# PCOD9029174 Si02
#       6
#     2   2   2   2   2   2
#     4  12  22  42  70 100 138 177 225 285 348 413
#     4  10  22  42  66  94 140 177 225 276 346 404
#     4  10  22  43  69  95 135 180 234 278 339 406
#     4  12  25  43  68 104 138 181 229 289 342 406
#     4  10  24  40  72  95 132 184 233 273 349 400
#     4  12  25  43  70 101 141 177 231 288 344 409
#
# _framework density 21.626846
#
# number of rings (size 3 to 8) (size 9 to 14) (size 15 to 20)
#    1.000    0.000    5.000    2.000    0.000    2.000 
#    0.000    0.833    0.000    0.000    0.000    0.000 
#    0.000    0.000    0.000    0.000    0.000    0.000 
#
# Total GULP energy -66909.218878 kJ/mol
# GULP energy per Si atom -5575.768240 kJ/mol
# Density = 2.157762 g / cm^3
# Si number density = 21.626846 Si / 1000 Ang^3
#
#
#
# Elastic Constant Matrix: (Units=GPa)
#
#
# Indices 1 2 3 4 5 6 
#
# 1 60.0758 19.0582 -5.8074 -3.7158 -1.0915 -9.4838
# 2 19.0582 156.9370 13.9723 -14.1256 -6.8959 -11.9357
# 3 -5.8074 13.9723 59.7269 -4.2378 4.6531 -10.3140
# 4 -3.7158 -14.1256 -4.2378 34.4030 0.9417 -7.7662
# 5 -1.0915 -6.8959 4.6531 0.9417 30.5090 -10.0345
# 6 -9.4838 -11.9357 -10.3140 -7.7662 -10.0345 35.5176
#
#
#
# Elastic Compliance Matrix: (Units=1/GPa)
#
#
# Indices 1 2 3 4 5 6 
#
# 1 0.018812 -0.001714 0.003467 0.003212 0.001855 0.006680
# 2 -0.001714 0.007352 -0.001326 0.003300 0.002727 0.003120
# 3 0.003467 -0.001326 0.018844 0.003636 -0.001039 0.006454
# 4 0.003212 0.003300 0.003636 0.033669 0.002957 0.011220
# 5 0.001855 0.002727 -0.001039 0.002957 0.037599 0.012379
# 6 0.006680 0.003120 0.006454 0.011220 0.012379 0.038812
#
#
# Mechanical properties :
#
#
# Convention : Reuss Voigt Hill
#
# Bulk Modulus (GPa) = 21.80522 36.79842 29.30182
# Shear Modulus (GPa) = 29.49483 36.72037 33.10760
#
# Velocity S-wave (km/s) = 3.69698 4.12504 3.91686
# Velocity P-wave (km/s) = 5.32240 6.30397 5.83386
#
# Compressibility (1/GPa) = 0.04586058
#
# Stress axis : x y z
#
# Youngs Moduli (GPa) = 53.15868 136.01006 53.06807
#
# Poissons Ratio (x) = 0.23319 -0.18400
# Poissons Ratio (y) = 0.09114 0.07038
# Poissons Ratio (z) = -0.18431 0.18038
#
# Static dielectric constant tensor:
#      x y z
#    x 1.873190 0.034870 -0.048350 
#    y 0.034870 1.865920 0.004930 
#    z -0.048350 0.004930 1.888820 
# 
# From -- ./inp_files/374898.got.cif
#   From: 2010.05.17/outbox.cif.g08.bks.cpg/sg2_188_cif.got.tgz:374898.got - 2010.06.03 11:33:40.
