data_PCOD9029745
_publ_section_title
;
Structure prediction by ZEFSAII (Michael W. Deem and Ramdas Pophale) SiO2 
 PCOD9029745
Probable space group: P -1
;
_chemical_formula_sum "Si O2"
_cell_formula_units_Z 16
_cell_length_a 8.474179
_cell_length_b 12.648973
_cell_length_c 22.953078
_cell_angle_alpha 33.430013
_cell_angle_beta 115.333298
_cell_angle_gamma 137.748346
_cell_volume 782.576889
_symmetry_space_group_name_H-M "P -1"
_symmetry_group_IT_number 2
_symmetry_cell_setting 'triclinic'
loop_
_space_group_symop_operation_xyz
x,y,z
-x,-y,-z
loop_
_atom_site_type_symbol
_atom_site_label
_atom_site_fract_x
_atom_site_fract_y
_atom_site_fract_z
Si Si1 0.240417 0.689771 0.403585
Si Si2 0.068936 0.328908 0.722356
Si Si3 0.571902 0.794360 0.499044
Si Si4 0.824755 0.726856 0.946672
Si Si5 0.994430 0.694328 0.872197
Si Si6 0.569075 0.372586 0.638729
Si Si7 0.178576 0.686213 0.082545
Si Si8 0.979346 0.552054 0.703840
O O1 0.497366 0.890440 0.394052
O O2 0.249755 0.514677 0.442095
O O3 0.000000 0.500000 0.500000
O O4 0.186237 0.811785 0.293000
O O5 0.335258 0.575853 0.610485
O O6 0.098562 0.487241 0.710727
O O7 0.992726 0.047362 0.852015
O O8 0.575329 0.597181 0.555966
O O9 0.842438 0.103162 0.429466
O O10 0.885176 0.751927 0.875844
O O11 0.500000 0.500000 0.000000
O O12 0.970310 0.668190 0.029093
O O13 0.829126 0.498862 0.878454
O O14 0.278220 0.026145 0.742502
O O15 0.000000 0.500000 0.000000
O O16 0.690399 0.358523 0.718722
O O17 0.060663 0.542579 0.193277
O O18 0.500000 0.000000 0.000000
#
# Coordination Sequence:
#
# PCOD9029745 Si02
#       8
#     2   2   2   2   2   2   2   2
#     4   9  21  37  61  89 123 170 217 273 322 390
#     4  10  23  42  64  91 136 171 215 276 344 396
#     4  11  21  40  63  95 125 170 231 273 329 391
#     4  11  25  43  72  98 129 176 231 275 330 405
#     4  10  22  42  68  92 126 176 218 272 332 394
#     4  11  21  40  66  92 132 175 225 271 327 403
#     4  11  26  45  67  99 136 172 222 278 340 397
#     4  11  24  39  64  93 137 175 210 278 343 396
#
# _framework density 20.445274999999999
#
# number of rings (size 3 to 8) (size 9 to 14) (size 15 to 20)
#    0.000    1.500    1.250    3.375   10.500    0.500 
#    0.000    0.000    0.000    0.000    0.000    0.000 
#    0.000    0.000    0.000    0.000    0.000    0.000 
#
# Total GULP energy -89134.814424 kJ/mol
# GULP energy per Si atom -5570.925901 kJ/mol
# Density = 2.039874 g / cm^3
# Si number density = 20.445275 Si / 1000 Ang^3
#
#
#
# Elastic Constant Matrix: (Units=GPa)
#
#
# Indices 1 2 3 4 5 6 
#
# 1 92.5782 33.1380 40.7185 -3.4249 -13.8762 -20.7060
# 2 33.1380 113.1841 39.3382 -8.4088 -14.4659 -14.6883
# 3 40.7185 39.3382 80.3964 -13.3512 -7.9414 -13.0229
# 4 -3.4249 -8.4088 -13.3512 44.5281 -7.0025 -0.3051
# 5 -13.8762 -14.4659 -7.9414 -7.0025 23.5198 -1.7385
# 6 -20.7060 -14.6883 -13.0229 -0.3051 -1.7385 39.7518
#
#
#
# Elastic Compliance Matrix: (Units=1/GPa)
#
#
# Indices 1 2 3 4 5 6 
#
# 1 0.016393 -0.000826 -0.005953 0.000595 0.007820 0.006630
# 2 -0.000826 0.011761 -0.003919 0.001982 0.006229 0.002919
# 3 -0.005953 -0.003919 0.018604 0.004687 0.001878 0.001664
# 4 0.000595 0.001982 0.004687 0.026059 0.011153 0.003266
# 5 0.007820 0.006229 0.001878 0.011153 0.055619 0.009508
# 6 0.006630 0.002919 0.001664 0.003266 0.009508 0.030674
#
#
# Mechanical properties :
#
#
# Convention : Reuss Voigt Hill
#
# Bulk Modulus (GPa) = 39.42947 56.94980 48.18964
# Shear Modulus (GPa) = 26.46037 33.09088 29.77562
#
# Velocity S-wave (km/s) = 3.60141 4.02744 3.82037
# Velocity P-wave (km/s) = 6.05151 7.03862 6.56365
#
# Compressibility (1/GPa) = 0.02536174
#
# Stress axis : x y z
#
# Youngs Moduli (GPa) = 61.00287 85.02385 53.75101
#
# Poissons Ratio (x) = 0.07026 0.31997
# Poissons Ratio (y) = 0.05041 0.21065
# Poissons Ratio (z) = 0.36314 0.33321
#
# Static dielectric constant tensor:
#      x y z
#    x 1.781020 0.046410 0.008850 
#    y 0.046410 1.733680 0.007300 
#    z 0.008850 0.007300 1.736290 
# 
# From -- ./inp_files/285166.got.cif
#   From: 2010.05.17/outbox.cif.g08.bks.cpg/sg2_143_cif.got.tgz:285166.got - 2010.06.03 11:33:40.
