data_PCOD9029236
_publ_section_title
;
Structure prediction by ZEFSAII (Michael W. Deem and Ramdas Pophale) SiO2 
 PCOD9029236
Probable space group: P -1
;
_chemical_formula_sum "Si O2"
_cell_formula_units_Z 10
_cell_length_a 4.908819
_cell_length_b 15.281755
_cell_length_c 5.042868
_cell_angle_alpha 98.184153
_cell_angle_beta 89.981248
_cell_angle_gamma 69.462762
_cell_volume 350.126164
_symmetry_space_group_name_H-M "P -1"
_symmetry_group_IT_number 2
_symmetry_cell_setting 'triclinic'
loop_
_space_group_symop_operation_xyz
x,y,z
-x,-y,-z
loop_
_atom_site_type_symbol
_atom_site_label
_atom_site_fract_x
_atom_site_fract_y
_atom_site_fract_z
Si Si1 0.372108 0.222527 0.133940
Si Si2 0.265869 0.613015 0.245871
Si Si3 0.180867 0.062631 0.934640
Si Si4 0.802501 0.185788 0.611235
Si Si5 0.679772 0.577342 0.729617
O O1 0.158057 0.163737 0.104242
O O2 0.600942 0.190413 0.361393
O O3 0.208777 0.335920 0.194191
O O4 0.574693 0.198066 0.861158
O O5 0.095017 0.723430 0.338585
O O6 0.521284 0.589991 0.454400
O O7 0.128478 0.532459 0.266275
O O8 0.422926 0.598014 0.956973
O O9 0.078588 0.093038 0.645045
O O10 0.500000 0.000000 0.000000
O O11 0.000000 0.000000 0.000000
#
# Coordination Sequence:
#
# PCOD9029236 Si02
#       5
#     2   2   2   2   2
#     4  10  22  42  66  97 134 173 220 273 333 397
#     4   8  14  28  55  89 126 166 208 258 318 388
#     4  12  26  48  71 100 133 176 230 284 340 398
#     4  10  22  42  66  97 134 173 220 273 333 397
#     4   8  14  28  55  89 126 166 208 258 318 388
#
# _framework density 28.561131
#
# number of rings (size 3 to 8) (size 9 to 14) (size 15 to 20)
#    0.000    2.400    2.000    0.000    0.000    3.200 
#    0.000    1.000    0.000    0.000    0.000   28.000 
#    0.000    0.000    0.000    0.000    0.000    0.000 
#
# Total GULP energy -56087.038545 kJ/mol
# GULP energy per Si atom -5608.703854 kJ/mol
# Density = 2.849612 g / cm^3
# Si number density = 28.561131 Si / 1000 Ang^3
#
#
#
# Elastic Constant Matrix: (Units=GPa)
#
#
# Indices 1 2 3 4 5 6 
#
# 1 136.1046 70.3172 62.6023 -9.0660 26.9111 21.9498
# 2 70.3172 250.1809 37.7429 -1.4103 34.8742 40.6182
# 3 62.6023 37.7429 179.6694 -12.3530 3.4390 3.9970
# 4 -9.0660 -1.4103 -12.3530 60.5756 4.5064 13.2249
# 5 26.9111 34.8742 3.4390 4.5064 37.8999 11.4741
# 6 21.9498 40.6182 3.9970 13.2249 11.4741 47.3755
#
#
#
# Elastic Compliance Matrix: (Units=1/GPa)
#
#
# Indices 1 2 3 4 5 6 
#
# 1 0.011377 -0.001384 -0.003353 0.002069 -0.005850 -0.002962
# 2 -0.001384 0.005450 -0.000472 0.000810 -0.003031 -0.003484
# 3 -0.003353 -0.000472 0.006819 0.000570 0.001897 0.000764
# 4 0.002069 0.000810 0.000570 0.018508 -0.002576 -0.006243
# 5 -0.005850 -0.003031 0.001897 -0.002576 0.034193 -0.002413
# 6 -0.002962 -0.003484 0.000764 -0.006243 -0.002413 0.027730
#
#
# Mechanical properties :
#
#
# Convention : Reuss Voigt Hill
#
# Bulk Modulus (GPa) = 75.59322 100.80884 88.20103
# Shear Modulus (GPa) = 42.05135 55.52303 48.78719
#
# Velocity S-wave (km/s) = 3.84126 4.41387 4.13748
# Velocity P-wave (km/s) = 6.79693 7.83255 7.33304
#
# Compressibility (1/GPa) = 0.01322870
#
# Stress axis : x y z
#
# Youngs Moduli (GPa) = 87.89930 183.49301 146.64767
#
# Poissons Ratio (x) = 0.25389 0.49174
# Poissons Ratio (y) = 0.12162 0.06915
# Poissons Ratio (z) = 0.29475 0.08652
#
# Static dielectric constant tensor:
#      x y z
#    x 2.158470 -0.040950 -0.092600 
#    y -0.040950 2.282630 0.038260 
#    z -0.092600 0.038260 2.250230 
# 
# From -- ./inp_files/2725.got.cif
#   From: 2010.05.17/outbox.cif.g08.bks.cpg/sg2_2_cif.got.tgz:2725.got - 2010.06.03 11:33:40.
