data_PCOD9029259
_publ_section_title
;
Structure prediction by ZEFSAII (Michael W. Deem and Ramdas Pophale) SiO2 
 PCOD9029259
Probable space group: P -1
;
_chemical_formula_sum "Si O2"
_cell_formula_units_Z 16
_cell_length_a 11.763974
_cell_length_b 10.003350
_cell_length_c 8.765771
_cell_angle_alpha 83.636400
_cell_angle_beta 114.837754
_cell_angle_gamma 127.426440
_cell_volume 728.328631
_symmetry_space_group_name_H-M "P -1"
_symmetry_group_IT_number 2
_symmetry_cell_setting 'triclinic'
loop_
_space_group_symop_operation_xyz
x,y,z
-x,-y,-z
loop_
_atom_site_type_symbol
_atom_site_label
_atom_site_fract_x
_atom_site_fract_y
_atom_site_fract_z
Si Si1 0.343787 0.999933 0.220929
Si Si2 0.647718 0.622230 0.181997
Si Si3 0.329765 0.880561 0.558027
Si Si4 0.722882 0.466880 0.494000
Si Si5 0.817364 0.833023 0.966649
Si Si6 0.173205 0.650887 0.015388
Si Si7 0.615415 0.456368 0.749311
Si Si8 0.064340 0.654572 0.635840
O O1 0.511343 0.041979 0.265703
O O2 0.345584 0.984734 0.407235
O O3 0.303348 0.123343 0.137140
O O4 0.213183 0.820107 0.090977
O O5 0.692996 0.515537 0.308497
O O6 0.790985 0.775021 0.138237
O O7 0.559655 0.650849 0.259513
O O8 0.500000 0.500000 0.000000
O O9 0.296377 0.706768 0.498412
O O10 0.183471 0.826758 0.586667
O O11 0.611408 0.449619 0.565102
O O12 0.907611 0.619302 0.619158
O O13 0.737748 0.655471 0.850663
O O14 0.000000 0.000000 0.000000
O O15 0.161198 0.651794 0.826887
O O16 0.300548 0.625704 0.141675
O O17 0.000000 0.500000 0.000000
O O18 0.000000 0.500000 0.500000
#
# Coordination Sequence:
#
# PCOD9029259 Si02
#       8
#     2   2   2   2   2   2   2   2
#     4  11  24  43  65  95 137 174 217 275 345 394
#     4  10  24  41  67  95 128 178 224 266 325 405
#     4  10  22  42  66  98 134 174 219 277 341 390
#     4  11  21  43  69 100 130 172 235 273 325 394
#     4  11  26  43  65  94 138 179 213 271 343 398
#     4  12  22  42  68  98 130 166 231 270 327 396
#     4  11  23  43  69  98 127 181 223 278 320 398
#     4  10  23  36  66  99 128 171 216 283 324 390
#
# _framework density 21.968104
#
# number of rings (size 3 to 8) (size 9 to 14) (size 15 to 20)
#    0.000    1.250    2.500    3.375   10.500    0.500 
#    0.000    0.625    0.000    0.000    0.000    0.000 
#    0.000    0.000    0.000    0.000    0.000    0.000 
#
# Total GULP energy -89323.923414 kJ/mol
# GULP energy per Si atom -5582.745213 kJ/mol
# Density = 2.191810 g / cm^3
# Si number density = 21.968104 Si / 1000 Ang^3
#
#
#
# Elastic Constant Matrix: (Units=GPa)
#
#
# Indices 1 2 3 4 5 6 
#
# 1 62.3906 23.9570 -4.9548 -0.9560 -16.8410 20.4434
# 2 23.9570 70.5243 17.1727 -9.3524 -9.7893 6.9675
# 3 -4.9548 17.1727 86.2682 -21.8474 -4.8485 -0.0309
# 4 -0.9560 -9.3524 -21.8474 32.5119 1.4740 7.5982
# 5 -16.8410 -9.7893 -4.8485 1.4740 29.5143 -9.5564
# 6 20.4434 6.9675 -0.0309 7.5982 -9.5564 46.5649
#
#
#
# Elastic Compliance Matrix: (Units=1/GPa)
#
#
# Indices 1 2 3 4 5 6 
#
# 1 0.024177 -0.006677 0.003993 0.002951 0.009449 -0.008155
# 2 -0.006677 0.017764 -0.003154 0.002696 0.001473 0.000133
# 3 0.003993 -0.003154 0.015061 0.009771 0.002454 -0.002362
# 4 0.002951 0.002696 0.009771 0.040163 -0.000527 -0.008354
# 5 0.009449 0.001473 0.002454 -0.000527 0.041567 0.004250
# 6 -0.008155 0.000133 -0.002362 -0.008354 0.004250 0.027270
#
#
# Mechanical properties :
#
#
# Convention : Reuss Voigt Hill
#
# Bulk Modulus (GPa) = 22.06191 32.39256 27.22723
# Shear Modulus (GPa) = 25.93556 33.91875 29.92716
#
# Velocity S-wave (km/s) = 3.43971 3.93364 3.69494
# Velocity P-wave (km/s) = 5.08331 5.95052 5.53393
#
# Compressibility (1/GPa) = 0.04532700
#
# Stress axis : x y z
#
# Youngs Moduli (GPa) = 41.36202 56.29252 66.39846
#
# Poissons Ratio (x) = 0.37584 -0.26514
# Poissons Ratio (y) = 0.27615 0.20942
# Poissons Ratio (z) = -0.16516 0.17755
#
# Static dielectric constant tensor:
#      x y z
#    x 2.011730 -0.040910 -0.195510 
#    y -0.040910 1.941970 0.165630 
#    z -0.195510 0.165630 2.056600 
# 
# From -- ./inp_files/243653.got.cif
#   From: 2010.05.17/outbox.cif.g08.bks.cpg/sg2_122_cif.got.tgz:243653.got - 2010.06.03 11:33:40.
