data_PCOD9029666
_publ_section_title
;
Structure prediction by ZEFSAII (Michael W. Deem and Ramdas Pophale) SiO2 
 PCOD9029666
Probable space group: P -1
;
_chemical_formula_sum "Si O2"
_cell_formula_units_Z 12
_cell_length_a 8.033275
_cell_length_b 12.894290
_cell_length_c 8.803919
_cell_angle_alpha 133.283483
_cell_angle_beta 131.064701
_cell_angle_gamma 45.161068
_cell_volume 443.362036
_symmetry_space_group_name_H-M "P -1"
_symmetry_group_IT_number 2
_symmetry_cell_setting 'triclinic'
loop_
_space_group_symop_operation_xyz
x,y,z
-x,-y,-z
loop_
_atom_site_type_symbol
_atom_site_label
_atom_site_fract_x
_atom_site_fract_y
_atom_site_fract_z
Si Si1 0.331951 0.626764 0.895125
Si Si2 0.006971 0.701515 0.017535
Si Si3 0.491217 0.922816 0.577633
Si Si4 0.454793 0.835233 0.944292
Si Si5 0.932689 0.621469 0.426993
Si Si6 0.946891 0.165609 0.522347
O O1 0.460015 0.705753 0.943001
O O2 0.119061 0.762389 0.009406
O O3 0.168703 0.574211 0.633343
O O4 0.500000 0.500000 0.000000
O O5 0.720527 0.783974 0.975876
O O6 0.051140 0.528121 0.808896
O O7 0.138705 0.718869 0.266102
O O8 0.200262 0.996190 0.525834
O O9 0.500000 0.000000 0.500000
O O10 0.674509 0.735232 0.474753
O O11 0.607795 0.001139 0.842263
O O12 0.264078 0.851101 0.714764
O O13 0.962376 0.737294 0.439000
#
# Coordination Sequence:
#
# PCOD9029666 Si02
#       6
#     2   2   2   2   2   2
#     4  11  27  40  67 107 139 184 228 276 352 408
#     4  11  24  44  70 103 139 177 227 292 339 403
#     4   9  20  41  72 100 134 184 226 281 342 407
#     4  10  24  47  71 101 140 177 233 284 338 412
#     4  10  22  42  68 102 142 175 227 288 341 404
#     4   9  21  40  70 100 131 181 228 273 348 404
#
# _framework density 27.065916000000001
#
# number of rings (size 3 to 8) (size 9 to 14) (size 15 to 20)
#    0.000    2.000    0.000    1.000   11.667    7.333 
#    0.000    3.333    0.000   17.000    0.000    0.000 
#    0.000    0.000    0.000    0.000    0.000    0.000 
#
# Total GULP energy -67205.601019 kJ/mol
# GULP energy per Si atom -5600.466752 kJ/mol
# Density = 2.700431 g / cm^3
# Si number density = 27.065916 Si / 1000 Ang^3
#
#
#
# Elastic Constant Matrix: (Units=GPa)
#
#
# Indices 1 2 3 4 5 6 
#
# 1 129.0824 27.8758 42.8762 -9.5933 -19.4984 0.3083
# 2 27.8758 123.5354 63.7040 10.6483 -18.1541 20.9981
# 3 42.8762 63.7040 249.3519 16.5383 -15.1625 -1.3820
# 4 -9.5933 10.6483 16.5383 50.0181 -5.3597 -11.5807
# 5 -19.4984 -18.1541 -15.1625 -5.3597 42.8563 -4.0274
# 6 0.3083 20.9981 -1.3820 -11.5807 -4.0274 33.6690
#
#
#
# Elastic Compliance Matrix: (Units=1/GPa)
#
#
# Indices 1 2 3 4 5 6 
#
# 1 0.009330 -0.001695 -0.001161 0.003543 0.003804 0.002598
# 2 -0.001695 0.011786 -0.002388 -0.003783 0.002107 -0.008482
# 3 -0.001161 -0.002388 0.004906 -0.000995 0.000202 0.001383
# 4 0.003543 -0.003783 -0.000995 0.024829 0.003823 0.011283
# 5 0.003804 0.002107 0.000202 0.003823 0.026805 0.003181
# 6 0.002598 -0.008482 0.001383 0.011283 0.003181 0.039285
#
#
# Mechanical properties :
#
#
# Convention : Reuss Voigt Hill
#
# Bulk Modulus (GPa) = 64.36766 85.65353 75.01060
# Shear Modulus (GPa) = 37.70577 49.80959 43.75768
#
# Velocity S-wave (km/s) = 3.73649 4.29453 4.02519
# Velocity P-wave (km/s) = 6.51526 7.50371 7.02688
#
# Compressibility (1/GPa) = 0.01553575
#
# Stress axis : x y z
#
# Youngs Moduli (GPa) = 107.17911 84.84711 203.83771
#
# Poissons Ratio (x) = 0.14380 0.23659
# Poissons Ratio (y) = 0.18165 0.48669
# Poissons Ratio (z) = 0.12440 0.20258
#
# Static dielectric constant tensor:
#      x y z
#    x 2.215130 0.035150 0.023460 
#    y 0.035150 2.221510 -0.082990 
#    z 0.023460 -0.082990 2.068170 
# 
# From -- ./inp_files/204537.got.cif
#   From: 2010.05.17/outbox.cif.g08.bks.cpg/sg2_103_cif.got.tgz:204537.got - 2010.06.03 11:33:40.
