data_PCOD9029171
_publ_section_title
;
Structure prediction by ZEFSAII (Michael W. Deem and Ramdas Pophale) SiO2 
 PCOD9029171
Probable space group: P -1
;
_chemical_formula_sum "Si O2"
_cell_formula_units_Z 12
_cell_length_a 8.252563
_cell_length_b 10.165323
_cell_length_c 11.769197
_cell_angle_alpha 63.741433
_cell_angle_beta 35.267042
_cell_angle_gamma 79.328427
_cell_volume 480.784463
_symmetry_space_group_name_H-M "P -1"
_symmetry_group_IT_number 2
_symmetry_cell_setting 'triclinic'
loop_
_space_group_symop_operation_xyz
x,y,z
-x,-y,-z
loop_
_atom_site_type_symbol
_atom_site_label
_atom_site_fract_x
_atom_site_fract_y
_atom_site_fract_z
Si Si1 0.145141 0.590626 0.695546
Si Si2 0.340903 0.102133 0.120827
Si Si3 0.502946 0.544470 0.112665
Si Si4 0.247895 0.368997 0.539250
Si Si5 0.482568 0.937771 0.304245
Si Si6 0.942029 0.999153 0.197272
O O1 0.103786 0.464630 0.667103
O O2 0.417126 0.588307 0.619273
O O3 0.840001 0.560024 0.948403
O O4 0.251561 0.764144 0.515235
O O5 0.514959 0.283718 0.935083
O O6 0.353101 0.049083 0.263105
O O7 0.023581 0.061847 0.253948
O O8 0.500000 0.000000 0.000000
O O9 0.500000 0.500000 0.000000
O O10 0.275053 0.425219 0.372540
O O11 0.102547 0.184117 0.705083
O O12 0.654964 0.013597 0.292145
O O13 0.763326 0.918409 0.078689
#
# Coordination Sequence:
#
# PCOD9029171 Si02
#       6
#     2   2   2   2   2   2
#     4  10  23  44  72  98 138 182 228 288 341 412
#     4  10  22  42  66  94 134 181 222 280 337 403
#     4  12  28  44  64 106 141 180 229 283 344 414
#     4  10  22  45  71 100 136 184 227 281 353 410
#     4   9  19  39  63 100 126 171 230 272 339 403
#     4   9  19  38  70  96 125 178 225 280 335 407
#
# _framework density 24.959209000000001
#
# number of rings (size 3 to 8) (size 9 to 14) (size 15 to 20)
#    0.000    2.000    0.000    2.500    7.000    2.667 
#    3.000    1.667    0.000    0.000    0.000    0.000 
#    0.000    0.000    0.000    0.000    0.000    0.000 
#
# Total GULP energy -67214.935165 kJ/mol
# GULP energy per Si atom -5601.244597 kJ/mol
# Density = 2.490240 g / cm^3
# Si number density = 24.959209 Si / 1000 Ang^3
#
#
#
# Elastic Constant Matrix: (Units=GPa)
#
#
# Indices 1 2 3 4 5 6 
#
# 1 144.3366 16.4506 12.3788 -9.7640 13.8827 7.0602
# 2 16.4506 108.2633 35.6360 -6.1958 10.1773 7.2401
# 3 12.3788 35.6360 109.6068 -5.3310 17.8580 2.5973
# 4 -9.7640 -6.1958 -5.3310 28.0071 -5.1539 -9.5820
# 5 13.8827 10.1773 17.8580 -5.1539 49.6548 2.7621
# 6 7.0602 7.2401 2.5973 -9.5820 2.7621 35.3872
#
#
#
# Elastic Compliance Matrix: (Units=1/GPa)
#
#
# Indices 1 2 3 4 5 6 
#
# 1 0.007342 -0.000742 -0.000223 0.001828 -0.001593 -0.000677
# 2 -0.000742 0.010607 -0.003182 0.000846 -0.000650 -0.001509
# 3 -0.000223 -0.003182 0.010715 0.000819 -0.003075 0.000371
# 4 0.001828 0.000846 0.000819 0.040669 0.002675 0.010206
# 5 -0.001593 -0.000650 -0.003075 0.002675 0.022119 -0.000326
# 6 -0.000677 -0.001509 0.000371 0.010206 -0.000326 0.031464
#
#
# Mechanical properties :
#
#
# Convention : Reuss Voigt Hill
#
# Bulk Modulus (GPa) = 49.09397 54.57083 51.83240
# Shear Modulus (GPa) = 36.23112 42.45922 39.34517
#
# Velocity S-wave (km/s) = 3.81414 4.12897 3.97467
# Velocity P-wave (km/s) = 6.25374 6.68151 6.47116
#
# Compressibility (1/GPa) = 0.02036910
#
# Stress axis : x y z
#
# Youngs Moduli (GPa) = 136.20240 94.27371 93.32454
#
# Poissons Ratio (x) = 0.07000 0.02084
# Poissons Ratio (y) = 0.10113 0.29696
# Poissons Ratio (z) = 0.03042 0.29998
#
# Static dielectric constant tensor:
#      x y z
#    x 2.110810 0.032670 0.011710 
#    y 0.032670 1.992830 0.161650 
#    z 0.011710 0.161650 2.075130 
# 
# From -- ./inp_files/166932.got.cif
#   From: 2010.05.17/outbox.cif.g08.bks.cpg/sg2_84_cif.got.tgz:166932.got - 2010.06.03 11:33:40.
