data_PCOD9029935
_publ_section_title
;
Structure prediction by ZEFSAII (Michael W. Deem and Ramdas Pophale) SiO2 
 PCOD9029935
Probable space group: P -1
;
_chemical_formula_sum "Si O2"
_cell_formula_units_Z 14
_cell_length_a 6.193225
_cell_length_b 17.280682
_cell_length_c 5.866100
_cell_angle_alpha 69.553844
_cell_angle_beta 98.918128
_cell_angle_gamma 93.732248
_cell_volume 581.105022
_symmetry_space_group_name_H-M "P -1"
_symmetry_group_IT_number 2
_symmetry_cell_setting 'triclinic'
loop_
_space_group_symop_operation_xyz
x,y,z
-x,-y,-z
loop_
_atom_site_type_symbol
_atom_site_label
_atom_site_fract_x
_atom_site_fract_y
_atom_site_fract_z
Si Si1 0.131934 0.754434 0.154371
Si Si2 0.047141 0.611896 0.615288
Si Si3 0.261012 0.315439 0.122193
Si Si4 0.581883 0.190678 0.231822
Si Si5 0.675169 0.533390 0.310873
Si Si6 0.084691 0.902189 0.307876
Si Si7 0.323884 0.058509 0.024931
O O1 0.157090 0.690107 0.428552
O O2 0.146394 0.847518 0.153213
O O3 0.895811 0.733621 0.030393
O O4 0.314245 0.747313 0.000403
O O5 0.225442 0.540964 0.746257
O O6 0.906983 0.644594 0.768946
O O7 0.871501 0.572177 0.453656
O O8 0.384764 0.391598 0.941538
O O9 0.429015 0.246835 0.308134
O O10 0.785799 0.143989 0.425749
O O11 0.434716 0.124095 0.141957
O O12 0.500000 0.500000 0.500000
O O13 0.168965 0.995951 0.207762
O O14 0.823095 0.902976 0.241373
O O15 0.500000 0.000000 0.000000
#
# Coordination Sequence:
#
# PCOD9029935 Si02
#       7
#     2   2   2   2   2   2   2
#     4  11  23  44  65 102 142 180 238 295 347 425
#     4  10  23  41  67 102 138 188 233 296 351 420
#     4  11  24  42  69 102 144 184 241 290 358 426
#     4  12  25  43  73 105 138 194 237 291 365 420
#     4  10  22  42  68  99 143 185 235 294 352 421
#     4  11  25  44  70 101 143 184 238 297 354 424
#     4  11  24  47  70 101 143 186 239 296 353 428
#
# _framework density 24.092030999999999
#
# number of rings (size 3 to 8) (size 9 to 14) (size 15 to 20)
#    0.000    1.143    2.857    2.571    0.000    8.000 
#    0.000    0.000    0.000    0.000    0.000    0.000 
#    0.000    0.000    0.000    0.000    0.000    0.000 
#
# Total GULP energy -78311.206620 kJ/mol
# GULP energy per Si atom -5593.657616 kJ/mol
# Density = 2.403720 g / cm^3
# Si number density = 24.092031 Si / 1000 Ang^3
#
#
#
# Elastic Constant Matrix: (Units=GPa)
#
#
# Indices 1 2 3 4 5 6 
#
# 1 104.4266 59.1039 53.5501 -13.2012 8.3980 -21.8191
# 2 59.1039 118.9591 61.4883 -7.4339 17.2795 -1.2633
# 3 53.5501 61.4883 107.5462 -11.7031 17.5770 -1.6065
# 4 -13.2012 -7.4339 -11.7031 38.7957 7.6924 6.0626
# 5 8.3980 17.2795 17.5770 7.6924 44.3525 -9.8837
# 6 -21.8191 -1.2633 -1.6065 6.0626 -9.8837 46.8734
#
#
#
# Elastic Compliance Matrix: (Units=1/GPa)
#
#
# Indices 1 2 3 4 5 6 
#
# 1 0.017460 -0.006133 -0.005384 0.001301 0.002820 0.008204
# 2 -0.006133 0.014306 -0.004558 0.000499 -0.003454 -0.003418
# 3 -0.005384 -0.004558 0.015710 0.003552 -0.004843 -0.003571
# 4 0.001301 0.000499 0.003552 0.029739 -0.008078 -0.004809
# 5 0.002820 -0.003454 -0.004843 -0.008078 0.028485 0.008105
# 6 0.008204 -0.003418 -0.003571 -0.004809 0.008105 0.027269
#
#
# Mechanical properties :
#
#
# Convention : Reuss Voigt Hill
#
# Bulk Modulus (GPa) = 65.24908 75.46851 70.35879
# Shear Modulus (GPa) = 29.37262 36.45696 32.91479
#
# Velocity S-wave (km/s) = 3.49547 3.89426 3.70024
# Velocity P-wave (km/s) = 6.59038 7.18425 6.89371
#
# Compressibility (1/GPa) = 0.01532589
#
# Stress axis : x y z
#
# Youngs Moduli (GPa) = 57.27320 69.90161 63.65550
#
# Poissons Ratio (x) = 0.42872 0.34273
# Poissons Ratio (y) = 0.35127 0.29012
# Poissons Ratio (z) = 0.30836 0.31858
#
# Static dielectric constant tensor:
#      x y z
#    x 1.964020 -0.003750 0.027150 
#    y -0.003750 1.900020 -0.010180 
#    z 0.027150 -0.010180 1.955590 
# 
# From -- ./inp_files/140584.got.cif
#   From: 2010.05.17/outbox.cif.g08.bks.cpg/sg2_71_cif.got.tgz:140584.got - 2010.06.03 11:33:40.
