data_PCOD9029046
_publ_section_title
;
Structure prediction by ZEFSAII (Michael W. Deem and Ramdas Pophale) SiO2 
 PCOD9029046
Probable space group: P -1
;
_chemical_formula_sum "Si O2"
_cell_formula_units_Z 16
_cell_length_a 18.775663
_cell_length_b 19.417402
_cell_length_c 6.670261
_cell_angle_alpha 121.507607
_cell_angle_beta 109.486005
_cell_angle_gamma 21.506822
_cell_volume 663.282386
_symmetry_space_group_name_H-M "P -1"
_symmetry_group_IT_number 2
_symmetry_cell_setting 'triclinic'
loop_
_space_group_symop_operation_xyz
x,y,z
-x,-y,-z
loop_
_atom_site_type_symbol
_atom_site_label
_atom_site_fract_x
_atom_site_fract_y
_atom_site_fract_z
Si Si1 0.155108 0.987236 0.138043
Si Si2 0.808392 0.278540 0.932563
Si Si3 0.920895 0.398303 0.103375
Si Si4 0.498471 0.501629 0.263457
Si Si5 0.219413 0.585492 0.268525
Si Si6 0.642404 0.097936 0.065780
Si Si7 0.842319 0.688615 0.963511
Si Si8 0.410890 0.208329 0.296207
O O1 0.030463 0.073486 0.956742
O O2 0.976074 0.176776 0.432131
O O3 0.346033 0.733218 0.992501
O O4 0.245606 0.986428 0.168322
O O5 0.624056 0.447568 0.188174
O O6 0.746210 0.265707 0.706560
O O7 0.766200 0.391646 0.905165
O O8 0.739940 0.581103 0.389618
O O9 0.012659 0.396646 0.165187
O O10 0.823854 0.464369 0.903813
O O11 0.138096 0.124558 0.930312
O O12 0.500000 0.500000 0.500000
O O13 0.442104 0.363640 0.272545
O O14 0.518909 0.142668 0.102636
O O15 0.740766 0.714074 0.793135
O O16 0.000000 0.500000 0.000000
O O17 0.624417 0.959065 0.238200
#
# Coordination Sequence:
#
# PCOD9029046 Si02
#       8
#     2   2   2   2   2   2   2   2
#     4  12  26  45  70  99 141 183 225 285 344 411
#     4  11  25  46  71 103 137 178 228 283 341 413
#     4  11  24  43  69 101 137 188 230 286 343 407
#     4  11  26  47  75 104 135 179 229 284 347 411
#     4  12  26  43  68 102 137 184 234 278 347 411
#     4  11  24  43  67  98 139 181 229 284 338 407
#     4  10  22  42  66 102 138 183 230 285 345 403
#     4  10  23  42  69  99 141 179 234 285 340 408
#
# _framework density 24.122454000000001
#
# number of rings (size 3 to 8) (size 9 to 14) (size 15 to 20)
#    0.000    1.000    2.500    3.000    0.000    7.500 
#    0.000    0.000    0.000    0.000    0.000    0.000 
#    0.000    0.000    0.000    0.000    0.000    0.000 
#
# Total GULP energy -89185.437215 kJ/mol
# GULP energy per Si atom -5574.089826 kJ/mol
# Density = 2.406755 g / cm^3
# Si number density = 24.122454 Si / 1000 Ang^3
#
#
#
# Elastic Constant Matrix: (Units=GPa)
#
#
# Indices 1 2 3 4 5 6 
#
# 1 114.3493 40.0241 34.1000 -6.2526 -28.2063 -3.8585
# 2 40.0241 159.4642 55.9836 9.6870 -11.9413 13.4181
# 3 34.1000 55.9836 110.0991 1.1896 -3.1957 -3.4711
# 4 -6.2526 9.6870 1.1896 29.5979 1.2734 -4.7588
# 5 -28.2063 -11.9413 -3.1957 1.2734 27.9379 -3.2707
# 6 -3.8585 13.4181 -3.4711 -4.7588 -3.2707 32.4124
#
#
#
# Elastic Compliance Matrix: (Units=1/GPa)
#
#
# Indices 1 2 3 4 5 6 
#
# 1 0.013891 -0.002117 -0.002757 0.003837 0.013112 0.004121
# 2 -0.002117 0.008909 -0.003961 -0.004023 0.000831 -0.004871
# 3 -0.002757 -0.003961 0.011935 0.000745 -0.002863 0.002410
# 4 0.003837 -0.004023 0.000745 0.037073 0.001462 0.007792
# 5 0.013112 0.000831 -0.002863 0.001462 0.049712 0.006141
# 6 0.004121 -0.004871 0.002410 0.007792 0.006141 0.035381
#
#
# Mechanical properties :
#
#
# Convention : Reuss Voigt Hill
#
# Bulk Modulus (GPa) = 58.59141 71.56977 65.08059
# Shear Modulus (GPa) = 27.73761 34.90997 31.32379
#
# Velocity S-wave (km/s) = 3.39465 3.80833 3.60743
# Velocity P-wave (km/s) = 6.30133 7.00511 6.66252
#
# Compressibility (1/GPa) = 0.01706735
#
# Stress axis : x y z
#
# Youngs Moduli (GPa) = 71.98689 112.24349 83.78432
#
# Poissons Ratio (x) = 0.23757 0.23100
# Poissons Ratio (y) = 0.15237 0.33184
# Poissons Ratio (z) = 0.19848 0.44455
#
# Static dielectric constant tensor:
#      x y z
#    x 2.046030 -0.034320 0.007380 
#    y -0.034320 1.900600 -0.000890 
#    z 0.007380 -0.000890 1.911460 
# 
# From -- ./inp_files/120457.got.cif
#   From: 2010.05.17/outbox.cif.g08.bks.cpg/sg2_61_cif.got.tgz:120457.got - 2010.06.03 11:33:40.
