data_PCOD9029312
_publ_section_title
;
Structure prediction by ZEFSAII (Michael W. Deem and Ramdas Pophale) SiO2 
 PCOD9029312
Probable space group: P -1
;
_chemical_formula_sum "Si O2"
_cell_formula_units_Z 15
_cell_length_a 11.280786
_cell_length_b 10.054874
_cell_length_c 9.019101
_cell_angle_alpha 123.540234
_cell_angle_beta 125.982174
_cell_angle_gamma 52.814079
_cell_volume 627.821684
_symmetry_space_group_name_H-M "P -1"
_symmetry_group_IT_number 2
_symmetry_cell_setting 'triclinic'
loop_
_space_group_symop_operation_xyz
x,y,z
-x,-y,-z
loop_
_atom_site_type_symbol
_atom_site_label
_atom_site_fract_x
_atom_site_fract_y
_atom_site_fract_z
Si Si1 0.810389 0.830543 0.777937
Si Si2 0.714844 0.776135 0.002172
Si Si3 0.774090 0.345549 0.378458
Si Si4 0.366271 0.862843 0.674880
Si Si5 0.462523 0.258382 0.572380
Si Si6 0.727396 0.211537 0.944395
Si Si7 0.139084 0.523609 0.857505
Si Si8 0.000000 0.500000 0.500000
O O1 0.652304 0.841188 0.588759
O O2 0.959666 0.648829 0.730117
O O3 0.832226 0.005592 0.873455
O O4 0.786844 0.808277 0.920931
O O5 0.832258 0.597522 0.056806
O O6 0.690096 0.936868 0.191483
O O7 0.542572 0.772980 0.832409
O O8 0.755238 0.220382 0.413867
O O9 0.639242 0.541049 0.429621
O O10 0.939441 0.364200 0.480394
O O11 0.732936 0.265213 0.150053
O O12 0.400770 0.831235 0.507331
O O13 0.549297 0.249909 0.785296
O O14 0.786866 0.338003 0.975607
O O15 0.183934 0.420864 0.673379
#
# Coordination Sequence:
#
# PCOD9029312 Si02
#       8
#     2   2   2   2   2   2   2   1
#     4  11  22  44  67  97 140 173 227 280 337 397
#     4  10  22  42  67 101 132 181 221 278 340 400
#     4  11  21  44  68  97 140 179 225 277 343 399
#     4  10  22  42  69 100 141 170 228 284 331 397
#     4  11  23  40  70 105 134 175 226 282 335 402
#     4  11  24  41  68 103 134 179 225 281 336 402
#     4  11  23  43  67  94 137 180 224 273 340 408
#     4  10  24  42  64  96 136 176 220 284 330 398
#
# _framework density 23.892133000000001
#
# number of rings (size 3 to 8) (size 9 to 14) (size 15 to 20)
#    0.000    1.333    2.667    2.800    0.000    3.200 
#    2.400    0.667    0.000    0.000    0.000    0.000 
#    0.000    0.000    0.000    0.000    0.000    0.000 
#
# Total GULP energy -83706.275170 kJ/mol
# GULP energy per Si atom -5580.418345 kJ/mol
# Density = 2.383775 g / cm^3
# Si number density = 23.892133 Si / 1000 Ang^3
#
#
#
# Elastic Constant Matrix: (Units=GPa)
#
#
# Indices 1 2 3 4 5 6 
#
# 1 89.4272 37.0402 25.8754 15.3778 14.0325 5.8177
# 2 37.0402 108.9079 40.2054 12.3039 12.2496 7.8810
# 3 25.8754 40.2054 99.3348 17.8336 10.8576 -2.2525
# 4 15.3778 12.3039 17.8336 36.4059 -8.4029 2.7534
# 5 14.0325 12.2496 10.8576 -8.4029 34.4177 9.8922
# 6 5.8177 7.8810 -2.2525 2.7534 9.8922 25.2899
#
#
#
# Elastic Compliance Matrix: (Units=1/GPa)
#
#
# Indices 1 2 3 4 5 6 
#
# 1 0.014827 -0.003437 -0.000615 -0.006339 -0.006406 0.000801
# 2 -0.003437 0.012190 -0.003829 -0.000839 -0.001124 -0.002818
# 3 -0.000615 -0.003829 0.013848 -0.007079 -0.006133 0.005738
# 4 -0.006339 -0.000839 -0.007079 0.038667 0.017411 -0.009931
# 5 -0.006406 -0.001124 -0.006133 0.017411 0.043297 -0.017554
# 6 0.000801 -0.002818 0.005738 -0.009931 -0.017554 0.048694
#
#
# Mechanical properties :
#
#
# Convention : Reuss Voigt Hill
#
# Bulk Modulus (GPa) = 39.83497 55.99023 47.91260
# Shear Modulus (GPa) = 25.55562 32.19264 28.87413
#
# Velocity S-wave (km/s) = 3.27406 3.67470 3.48015
# Velocity P-wave (km/s) = 5.56791 6.44127 6.02045
#
# Compressibility (1/GPa) = 0.02510357
#
# Stress axis : x y z
#
# Youngs Moduli (GPa) = 67.44501 82.03692 72.21156
#
# Poissons Ratio (x) = 0.28197 0.04438
# Poissons Ratio (y) = 0.23182 0.27649
# Poissons Ratio (z) = 0.04145 0.31411
#
# Static dielectric constant tensor:
#      x y z
#    x 1.982650 -0.024750 -0.026170 
#    y -0.024750 1.925730 0.031740 
#    z -0.026170 0.031740 1.924220 
# 
# From -- ./inp_files/158568.got.cif
#   From: 2010.05.17/outbox.cif.g08.bks.cpg/sg2_80_cif.got.tgz:158568.got - 2010.06.03 11:33:40.
