data_PCOD9029663
_publ_section_title
;
Structure prediction by ZEFSAII (Michael W. Deem and Ramdas Pophale) SiO2 
 PCOD9029663
Probable space group: P -1
;
_chemical_formula_sum "Si O2"
_cell_formula_units_Z 16
_cell_length_a 11.547651
_cell_length_b 11.641567
_cell_length_c 5.522711
_cell_angle_alpha 96.576821
_cell_angle_beta 106.372451
_cell_angle_gamma 57.322081
_cell_volume 598.927205
_symmetry_space_group_name_H-M "P -1"
_symmetry_group_IT_number 2
_symmetry_cell_setting 'triclinic'
loop_
_space_group_symop_operation_xyz
x,y,z
-x,-y,-z
loop_
_atom_site_type_symbol
_atom_site_label
_atom_site_fract_x
_atom_site_fract_y
_atom_site_fract_z
Si Si1 0.688028 0.392427 0.777707
Si Si2 0.038829 0.351126 0.397787
Si Si3 0.483379 0.310953 0.747012
Si Si4 0.212731 0.443013 0.952972
Si Si5 0.234160 0.193943 0.092029
Si Si6 0.527853 0.088688 0.353862
Si Si7 0.749169 0.056640 0.136766
Si Si8 0.155180 0.755096 0.654451
O O1 0.534109 0.414097 0.735648
O O2 0.755693 0.300860 0.556259
O O3 0.704318 0.522179 0.790501
O O4 0.764689 0.323209 0.065985
O O5 0.934724 0.413046 0.116478
O O6 0.975703 0.268188 0.464803
O O7 0.000000 0.500000 0.500000
O O8 0.193958 0.252949 0.355208
O O9 0.327676 0.391073 0.791844
O O10 0.493941 0.223759 0.502682
O O11 0.607981 0.190052 0.965606
O O12 0.172888 0.329199 0.929202
O O13 0.399842 0.127571 0.104345
O O14 0.194561 0.080493 0.017115
O O15 0.683079 0.026591 0.323463
O O16 0.500000 0.000000 0.500000
O O17 0.861457 0.099173 0.272562
#
# Coordination Sequence:
#
# PCOD9029663 Si02
#       8
#     2   2   2   2   2   2   2   2
#     4  10  22  42  68 102 139 184 231 291 355 412
#     4  11  25  46  68 101 139 187 240 282 341 424
#     4  11  21  40  66 101 140 176 227 295 356 414
#     4  11  23  42  67 101 139 185 232 285 346 421
#     4  12  24  41  69  98 143 184 231 291 347 419
#     4  12  22  39  67 101 139 175 229 286 357 419
#     4  11  23  43  65 102 138 175 233 292 360 410
#     4  10  23  45  72  98 142 185 234 295 344 420
#
# _framework density 26.714428000000002
#
# number of rings (size 3 to 8) (size 9 to 14) (size 15 to 20)
#    0.000    1.000    3.750    3.375    0.000    2.500 
#    0.000    4.375    0.000    6.000    0.000    0.000 
#    0.000    0.000    0.000    0.000    0.000    0.000 
#
# Total GULP energy -89306.928002 kJ/mol
# GULP energy per Si atom -5581.683000 kJ/mol
# Density = 2.665363 g / cm^3
# Si number density = 26.714428 Si / 1000 Ang^3
#
#
#
# Elastic Constant Matrix: (Units=GPa)
#
#
# Indices 1 2 3 4 5 6 
#
# 1 149.7266 28.7351 21.0294 25.4001 -5.3665 31.1102
# 2 28.7351 88.6666 24.7053 10.4596 6.4138 21.1776
# 3 21.0294 24.7053 78.5496 23.1813 -1.2907 14.4949
# 4 25.4001 10.4596 23.1813 62.4282 7.4946 13.7587
# 5 -5.3665 6.4138 -1.2907 7.4946 39.1606 11.2749
# 6 31.1102 21.1776 14.4949 13.7587 11.2749 46.9108
#
#
#
# Elastic Compliance Matrix: (Units=1/GPa)
#
#
# Indices 1 2 3 4 5 6 
#
# 1 0.008572 -0.001490 -0.000105 -0.002487 0.003346 -0.005054
# 2 -0.001490 0.013687 -0.003386 0.000627 -0.001538 -0.003959
# 3 -0.000105 -0.003386 0.015813 -0.005047 0.002737 -0.002466
# 4 -0.002487 0.000627 -0.005047 0.019683 -0.003821 -0.001929
# 5 0.003346 -0.001538 0.002737 -0.003821 0.029467 -0.008332
# 6 -0.005054 -0.003959 -0.002466 -0.001929 -0.008332 0.029787
#
#
# Mechanical properties :
#
#
# Convention : Reuss Voigt Hill
#
# Bulk Modulus (GPa) = 35.57332 51.76469 43.66901
# Shear Modulus (GPa) = 36.67295 45.86478 41.26887
#
# Velocity S-wave (km/s) = 3.70912 4.14799 3.93468
# Velocity P-wave (km/s) = 5.62925 6.50847 6.08476
#
# Compressibility (1/GPa) = 0.02811096
#
# Stress axis : x y z
#
# Youngs Moduli (GPa) = 116.66537 73.06003 63.23824
#
# Poissons Ratio (x) = 0.10888 0.00661
# Poissons Ratio (y) = 0.17386 0.21411
# Poissons Ratio (z) = 0.01219 0.24737
#
# Static dielectric constant tensor:
#      x y z
#    x 2.102350 -0.063860 0.128090 
#    y -0.063860 2.390010 -0.321590 
#    z 0.128090 -0.321590 2.450200 
# 
# From -- ./inp_files/69775.got.cif
#   From: 2010.05.17/outbox.cif.g08.bks.cpg/sg2_35_cif.got.tgz:69775.got - 2010.06.03 11:33:40.
