data_PCOD9029795
_publ_section_title
;
Structure prediction by ZEFSAII (Michael W. Deem and Ramdas Pophale) SiO2 
 PCOD9029795
Probable space group: P -1
;
_chemical_formula_sum "Si O2"
_cell_formula_units_Z 14
_cell_length_a 12.033742
_cell_length_b 11.200609
_cell_length_c 11.874921
_cell_angle_alpha 130.778902
_cell_angle_beta 47.016072
_cell_angle_gamma 92.586521
_cell_volume 613.078638
_symmetry_space_group_name_H-M "P -1"
_symmetry_group_IT_number 2
_symmetry_cell_setting 'triclinic'
loop_
_space_group_symop_operation_xyz
x,y,z
-x,-y,-z
loop_
_atom_site_type_symbol
_atom_site_label
_atom_site_fract_x
_atom_site_fract_y
_atom_site_fract_z
Si Si1 0.542482 0.153469 0.050195
Si Si2 0.362548 0.026567 0.348950
Si Si3 0.441992 0.607350 0.283561
Si Si4 0.329099 0.676709 0.821235
Si Si5 0.866701 0.881374 0.201140
Si Si6 0.259183 0.469588 0.166819
Si Si7 0.890047 0.554702 0.373107
O O1 0.680371 0.128196 0.038149
O O2 0.288985 0.399166 0.397008
O O3 0.500000 0.000000 0.000000
O O4 0.671345 0.071787 0.792457
O O5 0.253063 0.082571 0.579296
O O6 0.254750 0.265068 0.519500
O O7 0.617754 0.787176 0.041704
O O8 0.575982 0.445193 0.198075
O O9 0.306866 0.573028 0.287946
O O10 0.279335 0.869121 0.594892
O O11 0.614824 0.556074 0.045531
O O12 0.500000 0.500000 0.500000
O O13 0.097979 0.777306 0.016177
O O14 0.926906 0.695969 0.960981
O O15 0.015558 0.598664 0.381013
#
# Coordination Sequence:
#
# PCOD9029795 Si02
#       7
#     2   2   2   2   2   2   2
#     4  10  23  43  62  95 128 171 224 256 324 394
#     4  10  22  42  68  95 130 172 225 264 318 390
#     4  10  24  42  66 102 128 171 223 267 331 385
#     4  12  24  46  66  93 138 171 212 278 326 390
#     4  11  25  41  69 101 129 173 217 272 335 377
#     4  10  22  42  68  96 135 169 220 276 315 392
#     4  11  23  42  64  99 134 176 216 263 332 387
#
# _framework density 22.835570000000001
#
# number of rings (size 3 to 8) (size 9 to 14) (size 15 to 20)
#    0.000    1.429    2.857    1.286    4.000    5.143 
#    0.000    0.000    0.000    0.000    0.000    0.000 
#    0.000    0.000    0.000    0.000    0.000    0.000 
#
# Total GULP energy -78045.792055 kJ/mol
# GULP energy per Si atom -5574.699432 kJ/mol
# Density = 2.278360 g / cm^3
# Si number density = 22.835570 Si / 1000 Ang^3
#
#
#
# Elastic Constant Matrix: (Units=GPa)
#
#
# Indices 1 2 3 4 5 6 
#
# 1 71.0335 -7.6056 -18.3640 -0.1912 0.4782 14.2018
# 2 -7.6056 47.4068 -4.8656 14.4589 -8.4156 4.5184
# 3 -18.3640 -4.8656 69.1072 5.9063 23.8904 2.0974
# 4 -0.1912 14.4589 5.9063 29.9551 -3.8230 4.3958
# 5 0.4782 -8.4156 23.8904 -3.8230 47.3705 7.7412
# 6 14.2018 4.5184 2.0974 4.3958 7.7412 16.4015
#
#
#
# Elastic Compliance Matrix: (Units=1/GPa)
#
#
# Indices 1 2 3 4 5 6 
#
# 1 0.020458 0.006376 0.006234 -0.001037 0.001046 -0.020484
# 2 0.006376 0.028031 0.003613 -0.011833 0.004182 -0.012508
# 3 0.006234 0.003613 0.020423 -0.006605 -0.009830 -0.002595
# 4 -0.001037 -0.011833 -0.006605 0.042550 0.006197 -0.009327
# 5 0.001046 0.004182 -0.009830 0.006197 0.030018 -0.016630
# 6 -0.020484 -0.012508 -0.002595 -0.009327 -0.016630 0.092833
#
#
# Mechanical properties :
#
#
# Convention : Reuss Voigt Hill
#
# Bulk Modulus (GPa) = 9.86608 13.98634 11.92621
# Shear Modulus (GPa) = 21.21772 33.30426 27.26099
#
# Velocity S-wave (km/s) = 3.05151 3.82309 3.45888
# Velocity P-wave (km/s) = 4.09212 5.06223 4.60280
#
# Compressibility (1/GPa) = 0.10135738
#
# Stress axis : x y z
#
# Youngs Moduli (GPa) = 48.88146 35.67438 48.96555
#
# Poissons Ratio (x) = -0.22746 -0.30524
# Poissons Ratio (y) = -0.31167 -0.17691
# Poissons Ratio (z) = -0.30472 -0.12889
#
# Static dielectric constant tensor:
#      x y z
#    x 1.817880 0.000430 0.024810 
#    y 0.000430 1.962540 0.047600 
#    z 0.024810 0.047600 1.878120 
# 
# From -- ./inp_files/257233.got.cif
#   From: 2010.05.17/outbox.cif.g08.bks.cpg/sg2_129_cif.got.tgz:257233.got - 2010.06.03 11:33:40.
