data_PCOD9029330
_publ_section_title
;
Structure prediction by ZEFSAII (Michael W. Deem and Ramdas Pophale) SiO2 
 PCOD9029330
Probable space group: P -1
;
_chemical_formula_sum "Si O2"
_cell_formula_units_Z 16
_cell_length_a 11.583595
_cell_length_b 7.774513
_cell_length_c 20.479321
_cell_angle_alpha 137.181956
_cell_angle_beta 132.616009
_cell_angle_gamma 79.670036
_cell_volume 713.046093
_symmetry_space_group_name_H-M "P -1"
_symmetry_group_IT_number 2
_symmetry_cell_setting 'triclinic'
loop_
_space_group_symop_operation_xyz
x,y,z
-x,-y,-z
loop_
_atom_site_type_symbol
_atom_site_label
_atom_site_fract_x
_atom_site_fract_y
_atom_site_fract_z
Si Si1 0.605612 0.344734 0.594971
Si Si2 0.792341 0.426364 0.426116
Si Si3 0.317327 0.903384 0.947685
Si Si4 0.907695 0.688388 0.690545
Si Si5 0.314277 0.827033 0.261797
Si Si6 0.501299 0.509031 0.280731
Si Si7 0.587550 0.324583 0.965075
Si Si8 0.925470 0.590715 0.067113
O O1 0.798260 0.508358 0.667528
O O2 0.609402 0.567707 0.712489
O O3 0.500000 0.000000 0.500000
O O4 0.433244 0.196060 0.432036
O O5 0.807257 0.513627 0.533310
O O6 0.719439 0.607116 0.408982
O O7 0.000000 0.500000 0.500000
O O8 0.599182 0.045324 0.231993
O O9 0.120015 0.757314 0.790586
O O10 0.292026 0.661639 0.923582
O O11 0.500000 0.000000 0.000000
O O12 0.384536 0.211119 0.102729
O O13 0.967312 0.045381 0.816616
O O14 0.472338 0.756096 0.306073
O O15 0.111704 0.608115 0.169237
O O16 0.205259 0.700740 0.115927
O O17 0.500000 0.500000 0.000000
O O18 0.758243 0.520895 0.031637
#
# Coordination Sequence:
#
# PCOD9029330 Si02
#       8
#     2   2   2   2   2   2   2   2
#     4  10  24  42  67 102 143 177 229 282 345 418
#     4  11  24  45  70 102 138 186 237 289 350 412
#     4  11  24  44  71 100 134 183 239 289 347 415
#     4  12  24  44  73 101 140 185 230 284 355 414
#     4  10  22  42  67 102 143 177 226 281 341 419
#     4  10  22  43  71  96 144 179 228 285 348 413
#     4  11  25  44  69  99 138 179 234 296 341 409
#     4  11  23  40  70 102 140 178 230 280 351 412
#
# _framework density 22.438942999999998
#
# number of rings (size 3 to 8) (size 9 to 14) (size 15 to 20)
#    0.000    1.250    1.250    4.500    3.500    6.500 
#    2.250    0.625    0.000    0.000    0.000    0.000 
#    0.000    0.000    0.000    0.000    0.000    0.000 
#
# Total GULP energy -89135.721237 kJ/mol
# GULP energy per Si atom -5570.982577 kJ/mol
# Density = 2.238787 g / cm^3
# Si number density = 22.438943 Si / 1000 Ang^3
#
#
#
# Elastic Constant Matrix: (Units=GPa)
#
#
# Indices 1 2 3 4 5 6 
#
# 1 137.0796 26.3661 29.1966 7.8949 8.7380 -10.1580
# 2 26.3661 71.4753 37.5271 -5.0920 5.4337 -8.4571
# 3 29.1966 37.5271 79.6929 -22.0516 -1.2926 -5.3053
# 4 7.8949 -5.0920 -22.0516 32.0363 -4.5673 8.2520
# 5 8.7380 5.4337 -1.2926 -4.5673 53.7017 -2.8317
# 6 -10.1580 -8.4571 -5.3053 8.2520 -2.8317 32.0701
#
#
#
# Elastic Compliance Matrix: (Units=1/GPa)
#
#
# Indices 1 2 3 4 5 6 
#
# 1 0.009225 -0.000895 -0.004632 -0.006777 -0.001914 0.003494
# 2 -0.000895 0.020053 -0.010281 -0.005141 -0.002335 0.004420
# 3 -0.004632 -0.010281 0.023683 0.017467 0.003616 -0.004436
# 4 -0.006777 -0.005141 0.017467 0.048092 0.005474 -0.012504
# 5 -0.001914 -0.002335 0.003616 0.005474 0.019706 -0.000292
# 6 0.003494 0.004420 -0.004436 -0.012504 -0.000292 0.035912
#
#
# Mechanical properties :
#
#
# Convention : Reuss Voigt Hill
#
# Bulk Modulus (GPa) = 46.84829 52.71416 49.78122
# Shear Modulus (GPa) = 25.58814 36.57217 31.08016
#
# Velocity S-wave (km/s) = 3.38056 4.04152 3.72573
# Velocity P-wave (km/s) = 6.01341 6.73215 6.38290
#
# Compressibility (1/GPa) = 0.02134550
#
# Stress axis : x y z
#
# Youngs Moduli (GPa) = 108.40138 49.86725 42.22397
#
# Poissons Ratio (x) = 0.04462 0.19558
# Poissons Ratio (y) = 0.09700 0.43411
# Poissons Ratio (z) = 0.50211 0.51269
#
# Static dielectric constant tensor:
#      x y z
#    x 1.927700 -0.014660 0.025890 
#    y -0.014660 1.969110 -0.018440 
#    z 0.025890 -0.018440 1.857880 
# 
# From -- ./inp_files/609931.got.cif
#   From: 2010.05.17/outbox.cif.g08.bks.cpg/sg2_305_cif.got.tgz:609931.got - 2010.06.03 11:33:40.
