data_PCOD9029195
_publ_section_title
;
Structure prediction by ZEFSAII (Michael W. Deem and Ramdas Pophale) SiO2 
 PCOD9029195
Probable space group: P -1
;
_chemical_formula_sum "Si O2"
_cell_formula_units_Z 10
_cell_length_a 11.557087
_cell_length_b 11.552325
_cell_length_c 8.878202
_cell_angle_alpha 40.179824
_cell_angle_beta 113.644803
_cell_angle_gamma 143.831706
_cell_volume 371.913020
_symmetry_space_group_name_H-M "P -1"
_symmetry_group_IT_number 2
_symmetry_cell_setting 'triclinic'
loop_
_space_group_symop_operation_xyz
x,y,z
-x,-y,-z
loop_
_atom_site_type_symbol
_atom_site_label
_atom_site_fract_x
_atom_site_fract_y
_atom_site_fract_z
Si Si1 0.670320 0.815424 0.161931
Si Si2 0.688390 0.123965 0.087205
Si Si3 0.862205 0.941919 0.828741
Si Si4 0.483528 0.182292 0.374673
Si Si5 0.823272 0.651755 0.673711
O O1 0.500000 0.500000 0.500000
O O2 0.841807 0.953104 0.984516
O O3 0.798257 0.109319 0.047646
O O4 0.887421 0.758094 0.424961
O O5 0.559673 0.882857 0.402936
O O6 0.447776 0.638907 0.131462
O O7 0.857802 0.482724 0.882885
O O8 0.725664 0.947052 0.675763
O O9 0.715989 0.585375 0.070945
O O10 0.000000 0.000000 0.500000
O O11 0.500000 0.000000 0.500000
O O12 0.500000 0.000000 0.000000
#
# Coordination Sequence:
#
# PCOD9029195 Si02
#       5
#     2   2   2   2   2
#     4  11  23  46  67  95 143 180 218 287 348 399
#     4  10  22  42  66  95 139 180 217 283 348 397
#     4  11  24  42  70 100 135 183 231 281 342 406
#     4  11  21  41  68  99 140 182 225 280 348 411
#     4  11  24  43  69 104 136 172 238 282 333 417
#
# _framework density 26.888006000000001
#
# number of rings (size 3 to 8) (size 9 to 14) (size 15 to 20)
#    0.000    1.200    2.000    6.000    0.000    2.400 
#    3.600    0.000    0.000    0.000    0.000    0.000 
#    0.000    0.000    0.000    0.000    0.000    0.000 
#
# Total GULP energy -55990.878932 kJ/mol
# GULP energy per Si atom -5599.087893 kJ/mol
# Density = 2.682681 g / cm^3
# Si number density = 26.888006 Si / 1000 Ang^3
#
#
#
# Elastic Constant Matrix: (Units=GPa)
#
#
# Indices 1 2 3 4 5 6 
#
# 1 183.9082 59.2874 61.4149 -6.0595 -20.7400 -35.3707
# 2 59.2874 121.1712 30.7322 12.0425 9.5080 -27.9597
# 3 61.4149 30.7322 133.4109 11.5299 7.3028 -15.8480
# 4 -6.0595 12.0425 11.5299 67.1285 -12.8538 7.3355
# 5 -20.7400 9.5080 7.3028 -12.8538 61.1139 -4.4778
# 6 -35.3707 -27.9597 -15.8480 7.3355 -4.4778 56.2538
#
#
#
# Elastic Compliance Matrix: (Units=1/GPa)
#
#
# Indices 1 2 3 4 5 6 
#
# 1 0.008865 -0.003414 -0.003425 0.002580 0.004708 0.002951
# 2 -0.003414 0.011401 -0.000146 -0.003370 -0.003356 0.003651
# 3 -0.003425 -0.000146 0.009542 -0.002514 -0.002767 0.000570
# 4 0.002580 -0.003370 -0.002514 0.017444 0.005177 -0.002624
# 5 0.004708 -0.003356 -0.002767 0.005177 0.020007 0.001430
# 6 0.002951 0.003651 0.000570 -0.002624 0.001430 0.022063
#
#
# Mechanical properties :
#
#
# Convention : Reuss Voigt Hill
#
# Bulk Modulus (GPa) = 63.13524 82.37325 72.75425
# Shear Modulus (GPa) = 46.05257 56.03629 51.04443
#
# Velocity S-wave (km/s) = 4.14303 4.57011 4.36180
# Velocity P-wave (km/s) = 6.81308 7.65180 7.24459
#
# Compressibility (1/GPa) = 0.01583901
#
# Stress axis : x y z
#
# Youngs Moduli (GPa) = 112.80111 87.71186 104.79708
#
# Poissons Ratio (x) = 0.29944 0.35890
# Poissons Ratio (y) = 0.38509 0.01530
# Poissons Ratio (z) = 0.38631 0.01281
#
# Static dielectric constant tensor:
#      x y z
#    x 2.261820 0.113950 0.186270 
#    y 0.113950 2.243700 0.036680 
#    z 0.186270 0.036680 2.171140 
# 
# From -- ./inp_files/148115.got.cif
#   From: 2010.05.17/outbox.cif.g08.bks.cpg/sg2_75_cif.got.tgz:148115.got - 2010.06.03 11:33:40.
