data_PCOD9029713
_publ_section_title
;
Structure prediction by ZEFSAII (Michael W. Deem and Ramdas Pophale) SiO2 
 PCOD9029713
Probable space group: P -1
;
_chemical_formula_sum "Si O2"
_cell_formula_units_Z 13
_cell_length_a 4.876616
_cell_length_b 11.266612
_cell_length_c 19.801727
_cell_angle_alpha 150.619255
_cell_angle_beta 77.066506
_cell_angle_gamma 95.582055
_cell_volume 509.237446
_symmetry_space_group_name_H-M "P -1"
_symmetry_group_IT_number 2
_symmetry_cell_setting 'triclinic'
loop_
_space_group_symop_operation_xyz
x,y,z
-x,-y,-z
loop_
_atom_site_type_symbol
_atom_site_label
_atom_site_fract_x
_atom_site_fract_y
_atom_site_fract_z
Si Si1 0.973834 0.083779 0.745316
Si Si2 0.460026 0.441597 0.187182
Si Si3 0.275703 0.724501 0.654101
Si Si4 0.742117 0.029795 0.583194
Si Si5 0.000000 0.500000 0.000000
Si Si6 0.833597 0.478981 0.301226
Si Si7 0.458173 0.219976 0.934219
O O1 0.743518 0.264003 0.898835
O O2 0.868375 0.057176 0.664166
O O3 0.069851 0.836026 0.658992
O O4 0.206286 0.252178 0.826313
O O5 0.663769 0.347154 0.191704
O O6 0.138934 0.468548 0.245547
O O7 0.477241 0.722647 0.304253
O O8 0.510228 0.269912 0.033812
O O9 0.500000 0.500000 0.500000
O O10 0.129251 0.635818 0.683626
O O11 0.425274 0.944394 0.781431
O O12 0.654229 0.763263 0.458217
O O13 0.000000 0.000000 0.500000
O O14 0.832100 0.601237 0.985143
#
# Coordination Sequence:
#
# PCOD9029713 Si02
#       7
#     2   2   2   2   1   2   2
#     4  11  24  44  74 105 147 186 250 301 370 434
#     4  11  26  46  75 108 146 193 243 304 369 432
#     4  11  28  47  73 103 146 199 247 297 364 441
#     4  10  23  43  71 106 145 191 241 305 366 429
#     4  10  22  42  68 110 146 176 242 300 372 422
#     4  11  27  47  72 105 152 194 245 298 362 442
#     4  11  25  43  75 108 144 196 238 307 364 441
#
# _framework density 25.528366999999999
#
# number of rings (size 3 to 8) (size 9 to 14) (size 15 to 20)
#    0.000    1.231    1.538    1.846   10.769    2.462 
#    2.769    0.000    0.000    0.000    0.000    0.000 
#    0.000    0.000    0.000    0.000    0.000    0.000 
#
# Total GULP energy -72674.259374 kJ/mol
# GULP energy per Si atom -5590.327644 kJ/mol
# Density = 2.547026 g / cm^3
# Si number density = 25.528367 Si / 1000 Ang^3
#
#
#
# Elastic Constant Matrix: (Units=GPa)
#
#
# Indices 1 2 3 4 5 6 
#
# 1 91.9485 81.0386 -16.6109 -13.0235 11.2282 7.3370
# 2 81.0386 278.2370 -0.8977 -17.5884 20.7165 16.2815
# 3 -16.6109 -0.8977 177.6634 -30.0491 4.6099 -24.6253
# 4 -13.0235 -17.5884 -30.0491 58.7485 -8.3630 13.2471
# 5 11.2282 20.7165 4.6099 -8.3630 45.1216 -4.3666
# 6 7.3370 16.2815 -24.6253 13.2471 -4.3666 59.7102
#
#
#
# Elastic Compliance Matrix: (Units=1/GPa)
#
#
# Indices 1 2 3 4 5 6 
#
# 1 0.015604 -0.004170 0.001897 0.003128 -0.001661 -0.000813
# 2 -0.004170 0.005000 -0.000424 0.000452 -0.001249 -0.001218
# 3 0.001897 -0.000424 0.006615 0.003228 -0.000173 0.001882
# 4 0.003128 0.000452 0.003228 0.020619 0.002158 -0.003593
# 5 -0.001661 -0.001249 -0.000173 0.002158 0.023734 0.001730
# 6 -0.000813 -0.001218 0.001882 -0.003593 0.001730 0.018879
#
#
# Mechanical properties :
#
#
# Convention : Reuss Voigt Hill
#
# Bulk Modulus (GPa) = 45.81748 74.98986 60.40367
# Shear Modulus (GPa) = 48.48675 65.00398 56.74536
#
# Velocity S-wave (km/s) = 4.36286 5.05160 4.71981
# Velocity P-wave (km/s) = 6.58529 7.96642 7.30855
#
# Compressibility (1/GPa) = 0.02182573
#
# Stress axis : x y z
#
# Youngs Moduli (GPa) = 64.08522 200.00166 151.16684
#
# Poissons Ratio (x) = 0.83394 -0.28681
# Poissons Ratio (y) = 0.26721 0.06417
# Poissons Ratio (z) = -0.12159 0.08490
#
# Static dielectric constant tensor:
#      x y z
#    x 2.209790 0.168040 0.133700 
#    y 0.168040 2.136970 0.107660 
#    z 0.133700 0.107660 2.096910 
# 
# From -- ./inp_files/60556.got.cif
#   From: 2010.05.17/outbox.cif.g08.bks.cpg/sg2_31_cif.got.tgz:60556.got - 2010.06.03 11:33:40.
