data_PCOD9029907
_publ_section_title
;
Structure prediction by ZEFSAII (Michael W. Deem and Ramdas Pophale) SiO2 
 PCOD9029907
Probable space group: P -1
;
_chemical_formula_sum "Si O2"
_cell_formula_units_Z 15
_cell_length_a 9.104639
_cell_length_b 15.582396
_cell_length_c 19.158289
_cell_angle_alpha 19.035475
_cell_angle_beta 131.138745
_cell_angle_gamma 127.944736
_cell_volume 667.363316
_symmetry_space_group_name_H-M "P -1"
_symmetry_group_IT_number 2
_symmetry_cell_setting 'triclinic'
loop_
_space_group_symop_operation_xyz
x,y,z
-x,-y,-z
loop_
_atom_site_type_symbol
_atom_site_label
_atom_site_fract_x
_atom_site_fract_y
_atom_site_fract_z
Si Si1 0.195583 0.618913 0.499523
Si Si2 0.158659 0.448490 0.290115
Si Si3 0.903599 0.281469 0.448763
Si Si4 0.531897 0.164260 0.954173
Si Si5 0.493732 0.521473 0.898577
Si Si6 0.000000 0.000000 0.500000
Si Si7 0.508804 0.037397 0.748714
Si Si8 0.129250 0.238165 0.227356
O O1 0.140039 0.710258 0.489749
O O2 0.363938 0.391899 0.731102
O O3 0.000000 0.500000 0.500000
O O4 0.289745 0.842313 0.308531
O O5 0.259722 0.697312 0.096731
O O6 0.058049 0.480379 0.310293
O O7 0.004062 0.296406 0.311591
O O8 0.334325 0.234581 0.519670
O O9 0.701405 0.352257 0.292298
O O10 0.974825 0.987034 0.675911
O O11 0.509368 0.003761 0.142254
O O12 0.500000 0.000000 0.000000
O O13 0.673587 0.692207 0.800662
O O14 0.500000 0.500000 0.000000
O O15 0.522365 0.236804 0.089753
O O16 0.160035 0.101295 0.416770
O O17 0.000000 0.500000 0.000000
#
# Coordination Sequence:
#
# PCOD9029907 Si02
#       8
#     2   2   2   2   2   1   2   2
#     4  11  27  48  72  99 140 181 235 298 358 408
#     4  10  25  42  71  99 141 179 238 281 356 420
#     4  11  25  46  67 107 141 184 234 295 347 426
#     4  11  26  48  73 100 137 186 241 298 349 424
#     4  12  25  43  72 102 146 186 229 289 361 418
#     4  10  22  42  68  98 140 182 228 280 336 426
#     4  11  25  47  70 101 137 185 235 286 355 428
#     4  11  25  43  70 100 140 186 234 274 351 419
#
# _framework density 22.476514000000002
#
# number of rings (size 3 to 8) (size 9 to 14) (size 15 to 20)
#    0.000    1.067    1.333    3.600   13.067    2.667 
#    0.000    0.000    0.000    0.000    0.000    0.000 
#    0.000    0.000    0.000    0.000    0.000    0.000 
#
# Total GULP energy -83633.999583 kJ/mol
# GULP energy per Si atom -5575.599972 kJ/mol
# Density = 2.242536 g / cm^3
# Si number density = 22.476514 Si / 1000 Ang^3
#
#
#
# Elastic Constant Matrix: (Units=GPa)
#
#
# Indices 1 2 3 4 5 6 
#
# 1 173.1391 44.1148 39.0968 3.7043 -57.2331 -14.2181
# 2 44.1148 81.3624 28.4046 6.8127 -29.4369 -21.9708
# 3 39.0968 28.4046 68.0030 12.6653 -28.9040 -7.4549
# 4 3.7043 6.8127 12.6653 24.3086 2.9955 -0.5408
# 5 -57.2331 -29.4369 -28.9040 2.9955 58.1103 -4.0016
# 6 -14.2181 -21.9708 -7.4549 -0.5408 -4.0016 57.1596
#
#
#
# Elastic Compliance Matrix: (Units=1/GPa)
#
#
# Indices 1 2 3 4 5 6 
#
# 1 0.009222 -0.000837 -0.000702 -0.001806 0.008572 0.002464
# 2 -0.000837 0.018951 -0.002088 -0.004979 0.008500 0.007352
# 3 -0.000702 -0.002088 0.023116 -0.012596 0.010581 0.002659
# 4 -0.001806 -0.004979 -0.012596 0.050936 -0.013500 -0.004469
# 5 0.008572 0.008500 0.010581 -0.013500 0.036550 0.009210
# 6 0.002464 0.007352 0.002659 -0.004469 0.009210 0.021883
#
#
# Mechanical properties :
#
#
# Convention : Reuss Voigt Hill
#
# Bulk Modulus (GPa) = 22.70999 60.63743 41.67371
# Shear Modulus (GPa) = 27.38351 41.97493 34.67922
#
# Velocity S-wave (km/s) = 3.49423 4.32615 3.93225
# Velocity P-wave (km/s) = 5.13861 7.21046 6.26083
#
# Compressibility (1/GPa) = 0.04403348
#
# Stress axis : x y z
#
# Youngs Moduli (GPa) = 108.43337 52.76768 43.25992
#
# Poissons Ratio (x) = 0.04417 0.03038
# Poissons Ratio (y) = 0.09077 0.09035
# Poissons Ratio (z) = 0.07616 0.11020
#
# Static dielectric constant tensor:
#      x y z
#    x 1.851340 -0.056960 -0.014280 
#    y -0.056960 1.922010 0.049160 
#    z -0.014280 0.049160 1.874120 
# 
# From -- ./inp_files/241806.got.cif
#   From: 2010.05.17/outbox.cif.g08.bks.cpg/sg2_121_cif.got.tgz:241806.got - 2010.06.03 11:33:40.
