data_PCOD9029335
_publ_section_title
;
Structure prediction by ZEFSAII (Michael W. Deem and Ramdas Pophale) SiO2 
 PCOD9029335
Probable space group: P -1
;
_chemical_formula_sum "Si O2"
_cell_formula_units_Z 16
_cell_length_a 4.959590
_cell_length_b 13.496721
_cell_length_c 11.686528
_cell_angle_alpha 132.434233
_cell_angle_beta 79.940741
_cell_angle_gamma 99.996424
_cell_volume 566.810403
_symmetry_space_group_name_H-M "P -1"
_symmetry_group_IT_number 2
_symmetry_cell_setting 'triclinic'
loop_
_space_group_symop_operation_xyz
x,y,z
-x,-y,-z
loop_
_atom_site_type_symbol
_atom_site_label
_atom_site_fract_x
_atom_site_fract_y
_atom_site_fract_z
Si Si1 0.993383 0.804131 0.777846
Si Si2 0.304824 0.675028 0.844383
Si Si3 0.223539 0.618747 0.050508
Si Si4 0.285721 0.678591 0.336611
Si Si5 0.649777 0.949281 0.080063
Si Si6 0.944828 0.893803 0.251480
Si Si7 0.786824 0.858676 0.483836
Si Si8 0.862858 0.561176 0.448951
O O1 0.041531 0.715041 0.818558
O O2 0.859248 0.715025 0.615396
O O3 0.280907 0.888039 0.791540
O O4 0.795169 0.914877 0.920496
O O5 0.379655 0.549802 0.658338
O O6 0.355276 0.602819 0.905731
O O7 0.413975 0.828444 0.987141
O O8 0.387192 0.636600 0.170676
O O9 0.060273 0.749988 0.141789
O O10 0.000000 0.500000 0.000000
O O11 0.547289 0.743713 0.434839
O O12 0.079317 0.795543 0.421897
O O13 0.083675 0.571923 0.336011
O O14 0.787274 0.909061 0.158165
O O15 0.764209 0.905613 0.389634
O O16 0.190454 0.011670 0.336181
O O17 0.000000 0.500000 0.500000
#
# Coordination Sequence:
#
# PCOD9029335 Si02
#       8
#     2   2   2   2   2   2   2   2
#     4  10  23  43  63  97 134 175 228 285 345 413
#     4  11  22  43  67  98 129 181 226 287 344 419
#     4  11  22  41  68  94 139 175 230 280 349 412
#     4  11  23  47  69 105 136 186 228 291 348 423
#     4  11  22  41  69  97 133 172 231 284 351 406
#     4  10  22  42  67 103 135 180 223 293 346 422
#     4  10  24  43  73 103 141 178 233 286 361 413
#     4  10  23  45  64  96 138 180 236 282 349 416
#
# _framework density 28.228134000000001
#
# number of rings (size 3 to 8) (size 9 to 14) (size 15 to 20)
#    0.000    1.500    2.500    1.875    0.000    7.000 
#   20.250    1.875    0.000    0.000    0.000    0.000 
#    0.000    0.000    0.000    0.000    0.000    0.000 
#
# Total GULP energy -89306.736432 kJ/mol
# GULP energy per Si atom -5581.671027 kJ/mol
# Density = 2.816389 g / cm^3
# Si number density = 28.228134 Si / 1000 Ang^3
#
#
#
# Elastic Constant Matrix: (Units=GPa)
#
#
# Indices 1 2 3 4 5 6 
#
# 1 56.1218 -0.9550 34.3867 10.2339 20.2577 9.4167
# 2 -0.9550 123.7215 36.0419 9.7896 11.7895 -7.2919
# 3 34.3867 36.0419 226.2156 7.8066 35.1641 -2.6931
# 4 10.2339 9.7896 7.8066 64.4583 -0.4738 12.2422
# 5 20.2577 11.7895 35.1641 -0.4738 42.0883 0.4876
# 6 9.4167 -7.2919 -2.6931 12.2422 0.4876 29.1963
#
#
#
# Elastic Compliance Matrix: (Units=1/GPa)
#
#
# Indices 1 2 3 4 5 6 
#
# 1 0.024597 0.001705 -0.002396 -0.002732 -0.010271 -0.006411
# 2 0.001705 0.008978 -0.001225 -0.001967 -0.002362 0.002444
# 3 -0.002396 -0.001225 0.005489 -0.000343 -0.003107 0.001169
# 4 -0.002732 -0.001967 -0.000343 0.017651 0.002433 -0.007084
# 5 -0.010271 -0.002362 -0.003107 0.002433 0.031977 0.000882
# 6 -0.006411 0.002444 0.001169 -0.007084 0.000882 0.039992
#
#
# Mechanical properties :
#
#
# Convention : Reuss Voigt Hill
#
# Bulk Modulus (GPa) = 28.38496 60.55624 44.47060
# Shear Modulus (GPa) = 34.65952 49.58761 42.12356
#
# Velocity S-wave (km/s) = 3.50785 4.19582 3.86716
# Velocity P-wave (km/s) = 5.14627 6.70613 5.97730
#
# Compressibility (1/GPa) = 0.03522992
#
# Stress axis : x y z
#
# Youngs Moduli (GPa) = 40.65568 111.38897 182.19340
#
# Poissons Ratio (x) = -0.18990 0.43654
# Poissons Ratio (y) = -0.06931 0.22325
# Poissons Ratio (z) = 0.09741 0.13649
#
# Static dielectric constant tensor:
#      x y z
#    x 2.325790 0.092310 -0.095020 
#    y 0.092310 2.291660 0.013620 
#    z -0.095020 0.013620 2.290770 
# 
# From -- ./inp_files/101499.got.cif
#   From: 2010.05.17/outbox.cif.g08.bks.cpg/sg2_51_cif.got.tgz:101499.got - 2010.06.03 11:33:40.
