data_PCOD9029546
_publ_section_title
;
Structure prediction by ZEFSAII (Michael W. Deem and Ramdas Pophale) SiO2 
 PCOD9029546
Probable space group: P -1
;
_chemical_formula_sum "Si O2"
_cell_formula_units_Z 12
_cell_length_a 11.756025
_cell_length_b 5.979804
_cell_length_c 9.304797
_cell_angle_alpha 85.496974
_cell_angle_beta 127.917385
_cell_angle_gamma 110.024177
_cell_volume 477.095309
_symmetry_space_group_name_H-M "P -1"
_symmetry_group_IT_number 2
_symmetry_cell_setting 'triclinic'
loop_
_space_group_symop_operation_xyz
x,y,z
-x,-y,-z
loop_
_atom_site_type_symbol
_atom_site_label
_atom_site_fract_x
_atom_site_fract_y
_atom_site_fract_z
Si Si1 0.416987 0.083748 0.668488
Si Si2 0.650392 0.445623 0.039025
Si Si3 0.166094 0.586735 0.546632
Si Si4 0.717053 0.596327 0.620199
Si Si5 0.661054 0.855042 0.839943
Si Si6 0.836158 0.366768 0.948285
O O1 0.517760 0.204883 0.882992
O O2 0.404936 0.318916 0.566958
O O3 0.243954 0.877800 0.561310
O O4 0.512048 0.925262 0.686028
O O5 0.611911 0.671343 0.943969
O O6 0.802523 0.489797 0.055741
O O7 0.710951 0.446900 0.243983
O O8 0.169483 0.428877 0.416441
O O9 0.000000 0.500000 0.500000
O O10 0.731328 0.774637 0.758014
O O11 0.714079 0.369833 0.728530
O O12 0.800336 0.096770 0.981740
O O13 0.000000 0.500000 0.000000
#
# Coordination Sequence:
#
# PCOD9029546 Si02
#       6
#     2   2   2   2   2   2
#     4  11  24  43  69  98 134 173 224 280 328 391
#     4  10  24  43  67  97 133 179 222 269 334 395
#     4  12  27  45  66  98 137 177 223 273 331 400
#     4  11  24  41  69 100 130 173 221 273 334 391
#     4  10  23  43  69 100 132 170 224 278 330 392
#     4  10  22  42  67  97 135 177 222 273 329 393
#
# _framework density 25.152208999999999
#
# number of rings (size 3 to 8) (size 9 to 14) (size 15 to 20)
#    0.000    1.333    0.000    4.000    0.000   19.333 
#    0.000    0.000    0.000    0.000    0.000    0.000 
#    0.000    0.000    0.000    0.000    0.000    0.000 
#
# Total GULP energy -66859.985645 kJ/mol
# GULP energy per Si atom -5571.665470 kJ/mol
# Density = 2.509496 g / cm^3
# Si number density = 25.152209 Si / 1000 Ang^3
#
#
#
# Elastic Constant Matrix: (Units=GPa)
#
#
# Indices 1 2 3 4 5 6 
#
# 1 134.9726 14.8550 8.7733 17.4392 1.3281 -13.4967
# 2 14.8550 99.6474 28.9931 -12.7562 17.9747 -0.3680
# 3 8.7733 28.9931 92.0932 -23.7350 -14.7081 -10.4773
# 4 17.4392 -12.7562 -23.7350 30.0531 11.4894 3.7398
# 5 1.3281 17.9747 -14.7081 11.4894 40.6921 14.2981
# 6 -13.4967 -0.3680 -10.4773 3.7398 14.2981 29.8650
#
#
#
# Elastic Compliance Matrix: (Units=1/GPa)
#
#
# Indices 1 2 3 4 5 6 
#
# 1 0.009273 -0.002108 -0.001808 -0.008580 0.000937 0.004156
# 2 -0.002108 0.014409 -0.003682 0.008258 -0.010663 0.002004
# 3 -0.001808 -0.003682 0.015592 0.010107 0.003959 0.001446
# 4 -0.008580 0.008258 0.010107 0.055640 -0.015504 0.000225
# 5 0.000937 -0.010663 0.003959 -0.015504 0.040624 -0.015826
# 6 0.004156 0.002004 0.001446 0.000225 -0.015826 0.043443
#
#
# Mechanical properties :
#
#
# Convention : Reuss Voigt Hill
#
# Bulk Modulus (GPa) = 41.53389 47.99511 44.76450
# Shear Modulus (GPa) = 24.72759 38.39483 31.56121
#
# Velocity S-wave (km/s) = 3.13887 3.91128 3.54617
# Velocity P-wave (km/s) = 5.44845 6.28656 5.88245
#
# Compressibility (1/GPa) = 0.02407673
#
# Stress axis : x y z
#
# Youngs Moduli (GPa) = 107.83505 69.40145 64.13687
#
# Poissons Ratio (x) = 0.14632 0.11599
# Poissons Ratio (y) = 0.22734 0.23615
# Poissons Ratio (z) = 0.19501 0.25553
#
# Static dielectric constant tensor:
#      x y z
#    x 2.080090 -0.031830 0.052810 
#    y -0.031830 2.033790 -0.018280 
#    z 0.052810 -0.018280 2.009850 
# 
# From -- ./inp_files/228626.got.cif
#   From: 2010.05.17/outbox.cif.g08.bks.cpg/sg2_115_cif.got.tgz:228626.got - 2010.06.03 11:33:40.
