data_PCOD9029732
_publ_section_title
;
Structure prediction by ZEFSAII (Michael W. Deem and Ramdas Pophale) SiO2 
 PCOD9029732
Probable space group: P -1
;
_chemical_formula_sum "Si O2"
_cell_formula_units_Z 12
_cell_length_a 25.053758
_cell_length_b 16.287509
_cell_length_c 15.424459
_cell_angle_alpha 154.485340
_cell_angle_beta 13.570280
_cell_angle_gamma 160.460124
_cell_volume 486.449771
_symmetry_space_group_name_H-M "P -1"
_symmetry_group_IT_number 2
_symmetry_cell_setting 'triclinic'
loop_
_space_group_symop_operation_xyz
x,y,z
-x,-y,-z
loop_
_atom_site_type_symbol
_atom_site_label
_atom_site_fract_x
_atom_site_fract_y
_atom_site_fract_z
Si Si1 0.923398 0.844293 0.694070
Si Si2 0.550411 0.779587 0.901465
Si Si3 0.432109 0.956027 0.715147
Si Si4 0.654873 0.755122 0.299128
Si Si5 0.683932 0.018193 0.646439
Si Si6 0.736051 0.336170 0.457249
O O1 0.919744 0.625419 0.456054
O O2 0.013870 0.879855 0.685736
O O3 0.602669 0.765156 0.114252
O O4 0.173319 0.080871 0.467752
O O5 0.405766 0.495365 0.864383
O O6 0.652407 0.921998 0.968454
O O7 0.323341 0.813129 0.250473
O O8 0.711244 0.190695 0.442761
O O9 0.508043 0.815060 0.518608
O O10 0.207447 0.756279 0.806048
O O11 0.536953 0.758263 0.583205
O O12 0.000000 0.000000 0.000000
O O13 0.500000 0.000000 0.000000
#
# Coordination Sequence:
#
# PCOD9029732 Si02
#       6
#     2   2   2   2   2   2
#     4  10  22  42  68  91 129 168 209 259 313 378
#     4  10  24  43  65  96 128 164 208 268 317 365
#     4  10  24  44  62  96 124 169 214 257 316 370
#     4  11  24  40  66  96 127 165 210 263 317 373
#     4   9  21  42  64  96 123 163 205 265 314 367
#     4  10  23  43  65  93 125 173 212 254 311 377
#
# _framework density 24.668530000000001
#
# number of rings (size 3 to 8) (size 9 to 14) (size 15 to 20)
#    0.000    2.000    0.000    1.000    9.333    5.333 
#   18.000    0.000    0.000    0.000    0.000    0.000 
#    0.000    0.000    0.000    0.000    0.000    0.000 
#
# Total GULP energy -67127.320712 kJ/mol
# GULP energy per Si atom -5593.943393 kJ/mol
# Density = 2.461238 g / cm^3
# Si number density = 24.668530 Si / 1000 Ang^3
#
#
#
# Elastic Constant Matrix: (Units=GPa)
#
#
# Indices 1 2 3 4 5 6 
#
# 1 144.0949 57.7179 25.5693 16.3208 17.7516 12.5133
# 2 57.7179 167.8759 21.9608 32.4027 7.6827 7.5357
# 3 25.5693 21.9608 71.5050 9.7898 1.9125 9.2209
# 4 16.3208 32.4027 9.7898 41.3219 6.5468 10.6935
# 5 17.7516 7.6827 1.9125 6.5468 31.6877 9.0756
# 6 12.5133 7.5357 9.2209 10.6935 9.0756 31.1585
#
#
#
# Elastic Compliance Matrix: (Units=1/GPa)
#
#
# Indices 1 2 3 4 5 6 
#
# 1 0.008931 -0.002538 -0.002145 -0.000110 -0.003903 -0.001164
# 2 -0.002538 0.007915 -0.000947 -0.005322 0.000341 0.001112
# 3 -0.002145 -0.000947 0.015657 -0.001485 0.001813 -0.003561
# 4 -0.000110 -0.005322 -0.001485 0.031314 -0.002681 -0.008195
# 5 -0.003903 0.000341 0.001813 -0.002681 0.036626 -0.008800
# 6 -0.001164 0.001112 -0.003561 -0.008195 -0.008800 0.038722
#
#
# Mechanical properties :
#
#
# Convention : Reuss Voigt Hill
#
# Bulk Modulus (GPa) = 47.07422 65.99685 56.53554
# Shear Modulus (GPa) = 31.74463 39.38215 35.56339
#
# Velocity S-wave (km/s) = 3.59116 3.99990 3.80103
# Velocity P-wave (km/s) = 6.02655 6.93857 6.49858
#
# Compressibility (1/GPa) = 0.02124305
#
# Stress axis : x y z
#
# Youngs Moduli (GPa) = 111.96467 126.34323 63.86926
#
# Poissons Ratio (x) = 0.32068 0.13698
# Poissons Ratio (y) = 0.28418 0.06050
# Poissons Ratio (z) = 0.24013 0.11968
#
# Static dielectric constant tensor:
#      x y z
#    x 1.987480 0.002700 0.036600 
#    y 0.002700 1.914760 -0.001870 
#    z 0.036600 -0.001870 2.115670 
# 
# From -- ./inp_files/543046.got.cif
#   From: 2010.05.17/outbox.cif.g08.bks.cpg/sg2_272_cif.got.tgz:543046.got - 2010.06.03 11:33:40.
