data_PCOD9029685
_publ_section_title
;
Structure prediction by ZEFSAII (Michael W. Deem and Ramdas Pophale) SiO2 
 PCOD9029685
Probable space group: P -1
;
_chemical_formula_sum "Si O2"
_cell_formula_units_Z 15
_cell_length_a 11.223855
_cell_length_b 13.496127
_cell_length_c 7.943623
_cell_angle_alpha 94.132454
_cell_angle_beta 84.911831
_cell_angle_gamma 32.539182
_cell_volume 619.987363
_symmetry_space_group_name_H-M "P -1"
_symmetry_group_IT_number 2
_symmetry_cell_setting 'triclinic'
loop_
_space_group_symop_operation_xyz
x,y,z
-x,-y,-z
loop_
_atom_site_type_symbol
_atom_site_label
_atom_site_fract_x
_atom_site_fract_y
_atom_site_fract_z
Si Si1 0.675594 0.062908 0.511976
Si Si2 0.007897 0.649726 0.059878
Si Si3 0.598153 0.575411 0.817948
Si Si4 0.849686 0.590147 0.288321
Si Si5 0.156994 0.771642 0.793626
Si Si6 0.000000 0.000000 0.500000
Si Si7 0.071417 0.650286 0.567720
Si Si8 0.736021 0.019025 0.099232
O O1 0.737588 0.021885 0.301726
O O2 0.757235 0.111512 0.575326
O O3 0.843415 0.865124 0.555029
O O4 0.413755 0.222945 0.598011
O O5 0.203776 0.587002 0.091219
O O6 0.934943 0.638056 0.231866
O O7 0.789880 0.864804 0.039592
O O8 0.118176 0.496013 0.896845
O O9 0.389908 0.646518 0.833897
O O10 0.728455 0.486678 0.612729
O O11 0.493120 0.759001 0.894912
O O12 0.979124 0.426518 0.383032
O O13 0.107787 0.871392 0.644174
O O14 0.162592 0.654197 0.710466
O O15 0.942874 0.928475 0.968046
#
# Coordination Sequence:
#
# PCOD9029685 Si02
#       8
#     2   2   2   2   2   1   2   2
#     4  11  24  42  72 100 142 178 230 283 347 408
#     4  11  28  46  71 101 136 183 245 279 344 411
#     4  12  25  44  68 104 142 180 224 289 343 407
#     4  11  25  51  70  96 139 188 231 293 340 405
#     4  11  24  42  74 101 147 180 225 281 347 419
#     4  10  22  42  68 104 138 182 220 270 348 418
#     4  11  23  45  68 104 135 185 231 276 347 419
#     4  12  24  46  65 109 137 178 231 285 344 409
#
# _framework density 24.194043000000001
#
# number of rings (size 3 to 8) (size 9 to 14) (size 15 to 20)
#    0.000    0.800    5.333    0.800    3.733    3.733 
#    0.000    2.667    0.000    0.000    0.000    0.000 
#    0.000    0.000    0.000    0.000    0.000    0.000 
#
# Total GULP energy -83630.199971 kJ/mol
# GULP energy per Si atom -5575.346665 kJ/mol
# Density = 2.413898 g / cm^3
# Si number density = 24.194043 Si / 1000 Ang^3
#
#
#
# Elastic Constant Matrix: (Units=GPa)
#
#
# Indices 1 2 3 4 5 6 
#
# 1 75.6906 24.3726 22.8872 -1.6339 -8.6330 11.7281
# 2 24.3726 113.2908 19.9997 4.9169 -16.7087 20.0446
# 3 22.8872 19.9997 82.0998 12.9748 -13.5962 7.6835
# 4 -1.6339 4.9169 12.9748 36.7341 11.5487 -2.8563
# 5 -8.6330 -16.7087 -13.5962 11.5487 41.7841 -10.8375
# 6 11.7281 20.0446 7.6835 -2.8563 -10.8375 28.5565
#
#
#
# Elastic Compliance Matrix: (Units=1/GPa)
#
#
# Indices 1 2 3 4 5 6 
#
# 1 0.015681 -0.002177 -0.003923 0.002240 -0.000520 -0.003830
# 2 -0.002177 0.010988 -0.000594 -0.002755 0.003010 -0.005792
# 3 -0.003923 -0.000594 0.015663 -0.007554 0.005960 -0.000680
# 4 0.002240 -0.002755 -0.007554 0.034307 -0.012089 0.001890
# 5 -0.000520 0.003010 0.005960 -0.012089 0.032263 0.007532
# 6 -0.003830 -0.005792 -0.000680 0.001890 0.007532 0.043887
#
#
# Mechanical properties :
#
#
# Convention : Reuss Voigt Hill
#
# Bulk Modulus (GPa) = 34.54872 45.06669 39.80771
# Shear Modulus (GPa) = 28.43719 35.00306 31.72012
#
# Velocity S-wave (km/s) = 3.43210 3.80776 3.62480
# Velocity P-wave (km/s) = 5.47874 6.16439 5.83165
#
# Compressibility (1/GPa) = 0.02894463
#
# Stress axis : x y z
#
# Youngs Moduli (GPa) = 63.76955 91.00510 63.84461
#
# Poissons Ratio (x) = 0.19815 0.25045
# Poissons Ratio (y) = 0.13885 0.03792
# Poissons Ratio (z) = 0.25016 0.05405
#
# Static dielectric constant tensor:
#      x y z
#    x 0.284100 -0.156910 0.763910 
#    y -0.156910 1.859970 0.059540 
#    z 0.763910 0.059540 1.640250 
# 
# From -- ./inp_files/236579.got.cif
#   From: 2010.05.17/outbox.cif.g08.bks.cpg/sg2_119_cif.got.tgz:236579.got - 2010.06.03 11:33:40.
