data_PCOD9029180
_publ_section_title
;
Structure prediction by ZEFSAII (Michael W. Deem and Ramdas Pophale) SiO2 
 PCOD9029180
Probable space group: P -1
;
_chemical_formula_sum "Si O2"
_cell_formula_units_Z 16
_cell_length_a 20.639288
_cell_length_b 11.672691
_cell_length_c 8.536698
_cell_angle_alpha 87.234854
_cell_angle_beta 90.479741
_cell_angle_gamma 158.487138
_cell_volume 749.556615
_symmetry_space_group_name_H-M "P -1"
_symmetry_group_IT_number 2
_symmetry_cell_setting 'triclinic'
loop_
_space_group_symop_operation_xyz
x,y,z
-x,-y,-z
loop_
_atom_site_type_symbol
_atom_site_label
_atom_site_fract_x
_atom_site_fract_y
_atom_site_fract_z
Si Si1 0.540782 0.326122 0.773336
Si Si2 0.676875 0.760861 0.892666
Si Si3 0.821581 0.333947 0.348572
Si Si4 0.724978 0.258990 0.694023
Si Si5 0.865722 0.748030 0.650820
Si Si6 0.599437 0.266229 0.071383
Si Si7 0.015871 0.181185 0.859310
Si Si8 0.910330 0.363683 0.836985
O O1 0.601760 0.558030 0.765058
O O2 0.670548 0.478780 0.643761
O O3 0.344850 0.970718 0.744054
O O4 0.574583 0.332116 0.949060
O O5 0.760372 0.020390 0.838440
O O6 0.500000 0.500000 0.000000
O O7 0.845587 0.963985 0.951693
O O8 0.758134 0.254589 0.527524
O O9 0.917428 0.607921 0.270730
O O10 0.951622 0.441758 0.309816
O O11 0.821814 0.541868 0.681167
O O12 0.824204 0.344866 0.817965
O O13 0.516155 0.914992 0.759627
O O14 0.000000 0.000000 0.500000
O O15 0.942618 0.947939 0.784739
O O16 0.803586 0.564841 0.073042
O O17 0.500000 0.000000 0.000000
O O18 0.000000 0.500000 0.000000
#
# Coordination Sequence:
#
# PCOD9029180 Si02
#       8
#     2   2   2   2   2   2   2   2
#     4  11  24  43  68  94 136 176 222 284 333 403
#     4  10  22  42  66  95 131 172 221 276 335 391
#     4  11  22  43  67  96 130 180 226 271 336 397
#     4  12  25  41  70  97 137 176 225 280 335 407
#     4  11  23  40  65  98 136 174 219 273 342 401
#     4  12  23  41  63 103 133 171 229 274 339 402
#     4  10  23  38  67  97 134 173 222 278 332 401
#     4  11  25  44  71  96 131 178 229 281 333 400
#
# _framework density 21.345953999999999
#
# number of rings (size 3 to 8) (size 9 to 14) (size 15 to 20)
#    0.000    1.000    3.750    2.625    3.500    4.000 
#    0.000    1.875    0.000    0.000    0.000    0.000 
#    0.000    0.000    0.000    0.000    0.000    0.000 
#
# Total GULP energy -89282.195732 kJ/mol
# GULP energy per Si atom -5580.137233 kJ/mol
# Density = 2.129737 g / cm^3
# Si number density = 21.345954 Si / 1000 Ang^3
#
#
#
# Elastic Constant Matrix: (Units=GPa)
#
#
# Indices 1 2 3 4 5 6 
#
# 1 115.9110 55.8080 25.5724 -7.1262 -17.5868 2.3842
# 2 55.8080 147.3692 31.6785 -16.9028 -7.9706 13.4315
# 3 25.5724 31.6785 67.2465 -21.0339 -13.7558 14.0835
# 4 -7.1262 -16.9028 -21.0339 41.9715 4.4328 -9.9249
# 5 -17.5868 -7.9706 -13.7558 4.4328 28.2241 -4.1830
# 6 2.3842 13.4315 14.0835 -9.9249 -4.1830 51.9789
#
#
#
# Elastic Compliance Matrix: (Units=1/GPa)
#
#
# Indices 1 2 3 4 5 6 
#
# 1 0.011723 -0.003925 -0.002024 -0.000882 0.005542 0.001302
# 2 -0.003925 0.008987 -0.002238 0.001670 -0.001458 -0.001334
# 3 -0.002024 -0.002238 0.021191 0.007951 0.006740 -0.003010
# 4 -0.000882 0.001670 0.007951 0.029072 -0.000327 0.002979
# 5 0.005542 -0.001458 0.006740 -0.000327 0.042048 0.001618
# 6 0.001302 -0.001334 -0.003010 0.002979 0.001618 0.021038
#
#
# Mechanical properties :
#
#
# Convention : Reuss Voigt Hill
#
# Bulk Modulus (GPa) = 39.17276 61.84937 50.51107
# Shear Modulus (GPa) = 31.45800 38.93274 35.19537
#
# Velocity S-wave (km/s) = 3.84307 4.27534 4.06496
# Velocity P-wave (km/s) = 6.17118 7.30815 6.76360
#
# Compressibility (1/GPa) = 0.02552794
#
# Stress axis : x y z
#
# Youngs Moduli (GPa) = 85.30036 111.26930 47.19059
#
# Poissons Ratio (x) = 0.43668 0.09553
# Poissons Ratio (y) = 0.33476 0.10560
# Poissons Ratio (z) = 0.17268 0.24899
#
# Static dielectric constant tensor:
#      x y z
#    x 1.832300 0.016020 0.012670 
#    y 0.016020 1.810220 -0.037180 
#    z 0.012670 -0.037180 1.819640 
# 
# From -- ./inp_files/218305.got.cif
#   From: 2010.05.17/outbox.cif.g08.bks.cpg/sg2_110_cif.got.tgz:218305.got - 2010.06.03 11:33:40.
