data_PCOD9029647
_publ_section_title
;
Structure prediction by ZEFSAII (Michael W. Deem and Ramdas Pophale) SiO2 
 PCOD9029647
Probable space group: P -1
;
_chemical_formula_sum "Si O2"
_cell_formula_units_Z 14
_cell_length_a 10.641764
_cell_length_b 5.435453
_cell_length_c 14.767480
_cell_angle_alpha 116.220264
_cell_angle_beta 52.665027
_cell_angle_gamma 91.850987
_cell_volume 575.074233
_symmetry_space_group_name_H-M "P -1"
_symmetry_group_IT_number 2
_symmetry_cell_setting 'triclinic'
loop_
_space_group_symop_operation_xyz
x,y,z
-x,-y,-z
loop_
_atom_site_type_symbol
_atom_site_label
_atom_site_fract_x
_atom_site_fract_y
_atom_site_fract_z
Si Si1 0.126504 0.821922 0.288435
Si Si2 0.727044 0.648221 0.994096
Si Si3 0.408417 0.772753 0.286199
Si Si4 0.928108 0.389011 0.350247
Si Si5 0.554155 0.709764 0.576302
Si Si6 0.936217 0.325815 0.119732
Si Si7 0.363025 0.736195 0.833843
O O1 0.257774 0.582211 0.127989
O O2 0.236414 0.900842 0.330365
O O3 0.016330 0.637960 0.349188
O O4 0.027696 0.100715 0.316355
O O5 0.914101 0.543286 0.939393
O O6 0.564284 0.698818 0.134545
O O7 0.708380 0.980173 0.027144
O O8 0.449841 0.447129 0.249256
O O9 0.419832 0.977813 0.398669
O O10 0.741242 0.515525 0.490914
O O11 0.913009 0.329952 0.239175
O O12 0.500000 0.500000 0.500000
O O13 0.399090 0.818870 0.730878
O O14 0.760853 0.446751 0.162549
O O15 0.000000 0.000000 0.000000
#
# Coordination Sequence:
#
# PCOD9029647 Si02
#       7
#     2   2   2   2   2   2   2
#     4  11  27  46  72 102 147 185 237 282 349 425
#     4   9  22  41  66 102 134 184 224 290 346 419
#     4  11  26  42  70 102 137 191 231 290 349 416
#     4  11  26  47  71 103 140 192 231 291 346 412
#     4  11  25  46  68 101 139 180 241 289 354 412
#     4   9  19  41  65 101 137 175 229 288 351 411
#     4  10  22  42  68 101 137 179 233 291 354 412
#
# _framework density 24.344683
#
# number of rings (size 3 to 8) (size 9 to 14) (size 15 to 20)
#    0.000    1.714    1.429    0.429   12.000    5.143 
#    0.000    0.000    0.000    0.000    0.000    0.000 
#    0.000    0.000    0.000    0.000    0.000    0.000 
#
# Total GULP energy -77946.998743 kJ/mol
# GULP energy per Si atom -5567.642767 kJ/mol
# Density = 2.428927 g / cm^3
# Si number density = 24.344683 Si / 1000 Ang^3
#
#
#
# Elastic Constant Matrix: (Units=GPa)
#
#
# Indices 1 2 3 4 5 6 
#
# 1 107.6996 53.4267 37.9046 9.1416 -15.8445 -0.3513
# 2 53.4267 89.1186 29.4325 7.2372 -3.6714 3.8006
# 3 37.9046 29.4325 108.2987 21.8674 0.1409 13.5072
# 4 9.1416 7.2372 21.8674 36.3913 2.3225 -15.9793
# 5 -15.8445 -3.6714 0.1409 2.3225 30.9838 7.8964
# 6 -0.3513 3.8006 13.5072 -15.9793 7.8964 23.3147
#
#
#
# Elastic Compliance Matrix: (Units=1/GPa)
#
#
# Indices 1 2 3 4 5 6 
#
# 1 0.015365 -0.007856 -0.003288 -0.000364 0.006744 0.000884
# 2 -0.007856 0.016504 -0.000803 -0.002364 -0.000953 -0.003641
# 3 -0.003288 -0.000803 0.019396 -0.024641 0.007803 -0.030687
# 4 -0.000364 -0.002364 -0.024641 0.078370 -0.025887 0.077136
# 5 0.006744 -0.000953 0.007803 -0.025887 0.047198 -0.037991
# 6 0.000884 -0.003641 -0.030687 0.077136 -0.037991 0.127011
#
#
# Mechanical properties :
#
#
# Convention : Reuss Voigt Hill
#
# Bulk Modulus (GPa) = 36.53610 60.73829 48.63720
# Shear Modulus (GPa) = 14.84289 30.42817 22.63553
#
# Velocity S-wave (km/s) = 2.47188 3.53921 3.05256
# Velocity P-wave (km/s) = 4.81533 6.45793 5.69615
#
# Compressibility (1/GPa) = 0.02737019
#
# Stress axis : x y z
#
# Youngs Moduli (GPa) = 65.08130 60.59206 51.55808
#
# Poissons Ratio (x) = 0.47600 0.16955
# Poissons Ratio (y) = 0.51127 0.04140
# Poissons Ratio (z) = 0.21402 0.04865
#
# Static dielectric constant tensor:
#      x y z
#    x 2.027710 0.016210 -0.029960 
#    y 0.016210 2.242110 -0.031190 
#    z -0.029960 -0.031190 1.938520 
# 
# From -- ./inp_files/368885.got.cif
#   From: 2010.05.17/outbox.cif.g08.bks.cpg/sg2_185_cif.got.tgz:368885.got - 2010.06.03 11:33:40.
