data_PCOD9029607
_publ_section_title
;
Structure prediction by ZEFSAII (Michael W. Deem and Ramdas Pophale) SiO2 
 PCOD9029607
Probable space group: P -1
;
_chemical_formula_sum "Si O2"
_cell_formula_units_Z 12
_cell_length_a 8.256950
_cell_length_b 5.510609
_cell_length_c 11.651283
_cell_angle_alpha 76.139366
_cell_angle_beta 71.480346
_cell_angle_gamma 94.907195
_cell_volume 480.470474
_symmetry_space_group_name_H-M "P -1"
_symmetry_group_IT_number 2
_symmetry_cell_setting 'triclinic'
loop_
_space_group_symop_operation_xyz
x,y,z
-x,-y,-z
loop_
_atom_site_type_symbol
_atom_site_label
_atom_site_fract_x
_atom_site_fract_y
_atom_site_fract_z
Si Si1 0.698560 0.992077 0.771057
Si Si2 0.414173 0.213543 0.434090
Si Si3 0.595564 0.704809 0.222299
Si Si4 0.223416 0.425271 0.036090
Si Si5 0.127508 0.863056 0.913354
Si Si6 0.036228 0.224885 0.562382
O O1 0.644132 0.892222 0.667314
O O2 0.685801 0.744312 0.880893
O O3 0.572662 0.192470 0.799527
O O4 0.898874 0.131825 0.704347
O O5 0.463300 0.518706 0.649637
O O6 0.240264 0.256624 0.532009
O O7 0.500000 0.000000 0.500000
O O8 0.730363 0.947921 0.209111
O O9 0.698804 0.611531 0.103189
O O10 0.014127 0.326931 0.105916
O O11 0.233081 0.726222 0.998933
O O12 0.000000 0.000000 0.000000
O O13 0.000000 0.500000 0.500000
O O14 0.000000 0.000000 0.500000
#
# Coordination Sequence:
#
# PCOD9029607 Si02
#       6
#     2   2   2   2   2   2
#     4  11  24  42  69  97 134 181 226 287 350 422
#     4  11  26  45  68  99 135 183 237 293 349 414
#     4  11  22  41  67  99 134 171 227 279 352 421
#     4  10  22  42  67  99 137 172 221 276 356 418
#     4   9  21  40  62  94 133 175 216 273 339 417
#     4  10  22  47  68  98 138 186 240 290 356 419
#
# _framework density 24.975522000000002
#
# number of rings (size 3 to 8) (size 9 to 14) (size 15 to 20)
#    0.000    1.667    1.667    1.500    0.000   11.333 
#    6.000    0.000    0.000    0.000    0.000    0.000 
#    0.000    0.000    0.000    0.000    0.000    0.000 
#
# Total GULP energy -67117.464710 kJ/mol
# GULP energy per Si atom -5593.122059 kJ/mol
# Density = 2.491868 g / cm^3
# Si number density = 24.975522 Si / 1000 Ang^3
#
#
#
# Elastic Constant Matrix: (Units=GPa)
#
#
# Indices 1 2 3 4 5 6 
#
# 1 146.2764 63.1010 80.2763 -31.5603 -29.2009 -25.7977
# 2 63.1010 140.6830 56.8266 -49.5062 -5.4880 -37.9117
# 3 80.2763 56.8266 121.8042 -47.3900 -12.1258 -12.6211
# 4 -31.5603 -49.5062 -47.3900 54.9988 -3.6414 -0.8746
# 5 -29.2009 -5.4880 -12.1258 -3.6414 55.2056 -7.0307
# 6 -25.7977 -37.9117 -12.6211 -0.8746 -7.0307 55.8436
#
#
#
# Elastic Compliance Matrix: (Units=1/GPa)
#
#
# Indices 1 2 3 4 5 6 
#
# 1 0.013341 -0.001500 -0.006602 0.001091 0.006095 0.004437
# 2 -0.001500 0.015359 0.000615 0.013868 0.003119 0.010483
# 3 -0.006602 0.000615 0.017072 0.011585 0.001283 0.001569
# 4 0.001091 0.013868 0.011585 0.042104 0.009104 0.014343
# 5 0.006095 0.003119 0.001283 0.009104 0.023592 0.008335
# 6 0.004437 0.010483 0.001569 0.014343 0.008335 0.028703
#
#
# Mechanical properties :
#
#
# Convention : Reuss Voigt Hill
#
# Bulk Modulus (GPa) = 32.46895 89.90794 61.18844
# Shear Modulus (GPa) = 30.22794 47.11357 38.67075
#
# Velocity S-wave (km/s) = 3.48271 4.34797 3.93917
# Velocity P-wave (km/s) = 5.40379 7.82835 6.72622
#
# Compressibility (1/GPa) = 0.03079866
#
# Stress axis : x y z
#
# Youngs Moduli (GPa) = 74.95652 65.10742 58.57701
#
# Poissons Ratio (x) = 0.09764 0.38671
# Poissons Ratio (y) = 0.11241 -0.03602
# Poissons Ratio (z) = 0.49485 -0.04003
#
# Static dielectric constant tensor:
#      x y z
#    x 2.037940 0.061160 0.026770 
#    y 0.061160 1.994850 -0.011680 
#    z 0.026770 -0.011680 1.948980 
# 
# From -- ./inp_files/372338.got.cif
#   From: 2010.05.17/outbox.cif.g08.bks.cpg/sg2_187_cif.got.tgz:372338.got - 2010.06.03 11:33:40.
