data_PCOD9029345
_publ_section_title
;
Structure prediction by ZEFSAII (Michael W. Deem and Ramdas Pophale) SiO2 
 PCOD9029345
Probable space group: P -1
;
_chemical_formula_sum "Si O2"
_cell_formula_units_Z 12
_cell_length_a 13.636583
_cell_length_b 7.460002
_cell_length_c 7.606466
_cell_angle_alpha 135.046286
_cell_angle_beta 122.426829
_cell_angle_gamma 56.451684
_cell_volume 441.587289
_symmetry_space_group_name_H-M "P -1"
_symmetry_group_IT_number 2
_symmetry_cell_setting 'triclinic'
loop_
_space_group_symop_operation_xyz
x,y,z
-x,-y,-z
loop_
_atom_site_type_symbol
_atom_site_label
_atom_site_fract_x
_atom_site_fract_y
_atom_site_fract_z
Si Si1 0.394531 0.364083 0.788697
Si Si2 0.233218 0.748305 0.128412
Si Si3 0.171353 0.976347 0.748181
Si Si4 0.517549 0.185427 0.432186
Si Si5 0.277814 0.427821 0.268456
Si Si6 0.044548 0.203002 0.418098
O O1 0.415004 0.234524 0.525102
O O2 0.431655 0.118058 0.785800
O O3 0.500000 0.500000 0.000000
O O4 0.269296 0.568682 0.866452
O O5 0.361435 0.778174 0.341774
O O6 0.200091 0.573700 0.128221
O O7 0.133156 0.026263 0.234231
O O8 0.119669 0.139884 0.631690
O O9 0.249217 0.681868 0.550832
O O10 0.240409 0.152999 0.047499
O O11 0.063974 0.919491 0.719121
O O12 0.422706 0.347950 0.312936
O O13 0.000000 0.500000 0.500000
#
# Coordination Sequence:
#
# PCOD9029345 Si02
#       6
#     2   2   2   2   2   2
#     4   9  21  39  62 101 146 183 242 302 359 443
#     4  10  23  42  72 106 142 189 254 306 363 454
#     4  10  26  50  75 112 151 191 255 312 364 452
#     4  10  22  42  67 104 147 191 234 304 382 445
#     4  11  25  46  75 105 152 198 236 310 383 442
#     4  10  24  51  78 107 146 198 253 312 373 432
#
# _framework density 27.174695
#
# number of rings (size 3 to 8) (size 9 to 14) (size 15 to 20)
#    0.000    2.000    0.000    0.500    9.333   10.667 
#    0.000    5.833    0.000    0.000    0.000    0.000 
#    0.000    0.000    0.000    0.000    0.000    0.000 
#
# Total GULP energy -66966.220209 kJ/mol
# GULP energy per Si atom -5580.518351 kJ/mol
# Density = 2.711284 g / cm^3
# Si number density = 27.174695 Si / 1000 Ang^3
#
#
#
# Elastic Constant Matrix: (Units=GPa)
#
#
# Indices 1 2 3 4 5 6 
#
# 1 79.2659 33.5270 66.5172 28.3972 -4.4245 -16.2286
# 2 33.5270 168.8449 70.8379 40.6605 -15.5383 -26.7513
# 3 66.5172 70.8379 182.6605 32.4098 7.0612 -11.7493
# 4 28.3972 40.6605 32.4098 49.2741 -4.6071 -10.5794
# 5 -4.4245 -15.5383 7.0612 -4.6071 65.2920 -1.5949
# 6 -16.2286 -26.7513 -11.7493 -10.5794 -1.5949 41.2185
#
#
#
# Elastic Compliance Matrix: (Units=1/GPa)
#
#
# Indices 1 2 3 4 5 6 
#
# 1 0.021855 0.001558 -0.006873 -0.007932 0.002175 0.005705
# 2 0.001558 0.009015 -0.002940 -0.005250 0.002305 0.004368
# 3 -0.006873 -0.002940 0.009114 -0.000282 -0.002224 -0.002175
# 4 -0.007932 -0.005250 -0.000282 0.029634 0.000359 0.001009
# 5 0.002175 0.002305 -0.002224 0.000359 0.016337 0.002443
# 6 0.005705 0.004368 -0.002175 0.001009 0.002443 0.029076
#
#
# Mechanical properties :
#
#
# Convention : Reuss Voigt Hill
#
# Bulk Modulus (GPa) = 42.59937 85.83727 64.21832
# Shear Modulus (GPa) = 35.87669 48.48288 42.17978
#
# Velocity S-wave (km/s) = 3.63743 4.22847 3.94403
# Velocity P-wave (km/s) = 5.77506 7.44954 6.66510
#
# Compressibility (1/GPa) = 0.02347453
#
# Stress axis : x y z
#
# Youngs Moduli (GPa) = 45.75556 110.92327 109.72391
#
# Poissons Ratio (x) = -0.17280 0.75408
# Poissons Ratio (y) = -0.07128 0.32261
# Poissons Ratio (z) = 0.31446 0.32614
#
# Static dielectric constant tensor:
#      x y z
#    x 2.192370 0.175520 -0.022310 
#    y 0.175520 2.552720 -0.117160 
#    z -0.022310 -0.117160 2.208130 
# 
# From -- ./inp_files/95079.got.cif
#   From: 2010.05.17/outbox.cif.g08.bks.cpg/sg2_48_cif.got.tgz:95079.got - 2010.06.03 11:33:40.
