data_PCOD9029474
_publ_section_title
;
Structure prediction by ZEFSAII (Michael W. Deem and Ramdas Pophale) SiO2 
 PCOD9029474
Probable space group: P -1
;
_chemical_formula_sum "Si O2"
_cell_formula_units_Z 16
_cell_length_a 16.127886
_cell_length_b 18.815198
_cell_length_c 5.622188
_cell_angle_alpha 113.749016
_cell_angle_beta 123.738668
_cell_angle_gamma 29.800827
_cell_volume 692.005587
_symmetry_space_group_name_H-M "P -1"
_symmetry_group_IT_number 2
_symmetry_cell_setting 'triclinic'
loop_
_space_group_symop_operation_xyz
x,y,z
-x,-y,-z
loop_
_atom_site_type_symbol
_atom_site_label
_atom_site_fract_x
_atom_site_fract_y
_atom_site_fract_z
Si Si1 0.223402 0.176377 0.601959
Si Si2 0.655536 0.372946 0.265698
Si Si3 0.541045 0.067894 0.980625
Si Si4 0.558494 0.736834 0.577709
Si Si5 0.112114 0.849249 0.034767
Si Si6 0.491516 0.385129 0.403566
Si Si7 0.942810 0.495471 0.650592
Si Si8 0.784168 0.982185 0.878052
O O1 0.381823 0.126437 0.664258
O O2 0.190859 0.120590 0.325789
O O3 0.044068 0.345646 0.596724
O O4 0.320397 0.083177 0.873838
O O5 0.847437 0.228799 0.241226
O O6 0.569766 0.351961 0.221582
O O7 0.649590 0.450478 0.539666
O O8 0.500000 0.500000 0.000000
O O9 0.667721 0.045950 0.015878
O O10 0.427762 0.191701 0.161374
O O11 0.584744 0.647270 0.677928
O O12 0.720247 0.629896 0.495421
O O13 0.352999 0.877895 0.323342
O O14 0.985465 0.888282 0.076867
O O15 0.316219 0.732462 0.301049
O O16 0.000000 0.000000 0.000000
O O17 0.000000 0.500000 0.500000
O O18 0.000000 0.500000 0.000000
#
# Coordination Sequence:
#
# PCOD9029474 Si02
#       8
#     2   2   2   2   2   2   2   2
#     4  10  23  43  66  96 134 173 227 285 344 417
#     4   9  22  43  63  88 128 177 223 276 342 398
#     4  10  22  42  67  95 133 171 227 275 354 412
#     4  11  24  41  68  99 131 178 229 281 356 415
#     4  11  23  41  63  96 134 168 232 278 339 407
#     4  10  22  43  66  92 134 179 222 285 341 414
#     4  12  27  48  72 105 143 184 236 293 357 423
#     4  11  24  41  67  97 130 184 223 284 345 421
#
# _framework density 23.121200000000002
#
# number of rings (size 3 to 8) (size 9 to 14) (size 15 to 20)
#    0.000    1.500    2.500    1.125    5.250    2.500 
#    4.500    0.000    0.000    0.000    0.000    0.000 
#    0.000    0.000    0.000    0.000    0.000    0.000 
#
# Total GULP energy -89389.567384 kJ/mol
# GULP energy per Si atom -5586.847961 kJ/mol
# Density = 2.306857 g / cm^3
# Si number density = 23.121200 Si / 1000 Ang^3
#
#
#
# Elastic Constant Matrix: (Units=GPa)
#
#
# Indices 1 2 3 4 5 6 
#
# 1 127.5728 39.9034 2.1294 1.3421 -15.5517 2.1845
# 2 39.9034 167.2989 11.4033 3.2107 -5.3187 2.3429
# 3 2.1294 11.4033 27.7935 -0.3404 -9.2655 -0.2335
# 4 1.3421 3.2107 -0.3404 11.8494 -4.7419 -9.6633
# 5 -15.5517 -5.3187 -9.2655 -4.7419 34.0621 -4.6850
# 6 2.1845 2.3429 -0.2335 -9.6633 -4.6850 30.2737
#
#
#
# Elastic Compliance Matrix: (Units=1/GPa)
#
#
# Indices 1 2 3 4 5 6 
#
# 1 0.009028 -0.002186 0.001824 0.002349 0.004743 0.001016
# 2 -0.002186 0.006766 -0.003206 -0.003841 -0.001605 -0.001865
# 3 0.001824 -0.003206 0.042269 0.013464 0.014669 0.007010
# 4 0.002349 -0.003841 0.013464 0.137217 0.029931 0.048663
# 5 0.004743 -0.001605 0.014669 0.029931 0.041616 0.015889
# 6 0.001016 -0.001865 0.007010 0.048663 0.015889 0.051149
#
#
# Mechanical properties :
#
#
# Convention : Reuss Voigt Hill
#
# Bulk Modulus (GPa) = 19.63626 47.72637 33.68132
# Shear Modulus (GPa) = 16.01754 33.18564 24.60159
#
# Velocity S-wave (km/s) = 2.63490 3.79263 3.26548
# Velocity P-wave (km/s) = 4.21522 6.31390 5.36812
#
# Compressibility (1/GPa) = 0.05092618
#
# Stress axis : x y z
#
# Youngs Moduli (GPa) = 110.76444 147.79518 23.65786
#
# Poissons Ratio (x) = 0.32311 -0.04315
# Poissons Ratio (y) = 0.24215 0.07586
# Poissons Ratio (z) = -0.20202 0.47388
#
# Static dielectric constant tensor:
#      x y z
#    x 1.848350 0.071160 0.020630 
#    y 0.071160 1.699050 -0.030610 
#    z 0.020630 -0.030610 1.932750 
# 
# From -- ./inp_files/37949.got.cif
#   From: 2010.05.17/outbox.cif.g08.bks.cpg/sg2_19_cif.got.tgz:37949.got - 2010.06.03 11:33:40.
