data_PCOD9030237
_publ_section_title
;
Structure prediction by ZEFSAII (Michael W. Deem and Ramdas Pophale) SiO2 
 PCOD9030237
Probable space group: P -1
;
_chemical_formula_sum "Si O2"
_cell_formula_units_Z 16
_cell_length_a 30.310355
_cell_length_b 5.236182
_cell_length_c 11.914312
_cell_angle_alpha 104.929704
_cell_angle_beta 20.451310
_cell_angle_gamma 99.969937
_cell_volume 625.221454
_symmetry_space_group_name_H-M "P -1"
_symmetry_group_IT_number 2
_symmetry_cell_setting 'triclinic'
loop_
_space_group_symop_operation_xyz
x,y,z
-x,-y,-z
loop_
_atom_site_type_symbol
_atom_site_label
_atom_site_fract_x
_atom_site_fract_y
_atom_site_fract_z
Si Si1 0.919173 0.053102 0.376911
Si Si2 0.267455 0.382875 0.858788
Si Si3 0.468381 0.926809 0.191980
Si Si4 0.915780 0.548880 0.062191
Si Si5 0.411067 0.298137 0.732782
Si Si6 0.713209 0.779045 0.751999
Si Si7 0.965629 0.837591 0.670001
Si Si8 0.252947 0.673246 0.722632
O O1 0.778722 0.026119 0.665692
O O2 0.924480 0.195475 0.501323
O O3 0.988564 0.739466 0.191163
O O4 0.002607 0.217213 0.120083
O O5 0.306877 0.320802 0.884664
O O6 0.276682 0.651252 0.797611
O O7 0.369272 0.165626 0.519116
O O8 0.117839 0.375548 0.195517
O O9 0.389200 0.686566 0.347616
O O10 0.594314 0.867437 0.961703
O O11 0.500000 0.000000 0.000000
O O12 0.823680 0.591849 0.394202
O O13 0.819449 0.545533 0.185145
O O14 0.500000 0.500000 0.500000
O O15 0.500000 0.000000 0.500000
O O16 0.339020 0.352505 0.029613
O O17 0.848490 0.054891 0.030967
O O18 0.000000 0.000000 0.500000
#
# Coordination Sequence:
#
# PCOD9030237 Si02
#       8
#     2   2   2   2   2   2   2   2
#     4  11  25  49  70 112 144 190 241 305 364 433
#     4  11  22  45  70  97 146 183 235 300 352 422
#     4  11  25  43  73 106 139 188 243 290 367 432
#     4  11  25  47  76 104 149 185 245 302 366 427
#     4  12  28  48  69 105 149 193 242 295 358 434
#     4  12  26  47  74 105 148 197 240 301 369 440
#     4  10  22  42  70 102 139 187 241 289 360 426
#     4  10  23  44  72 103 145 182 239 310 351 425
#
# _framework density 25.590935000000002
#
# number of rings (size 3 to 8) (size 9 to 14) (size 15 to 20)
#    0.000    1.000    2.500    3.000    5.250    5.500 
#    4.500    0.000    0.000    0.000    0.000    0.000 
#    0.000    0.000    0.000    0.000    0.000    0.000 
#
# Total GULP energy -89573.948104 kJ/mol
# GULP energy per Si atom -5598.371756 kJ/mol
# Density = 2.553269 g / cm^3
# Si number density = 25.590935 Si / 1000 Ang^3
#
#
#
# Elastic Constant Matrix: (Units=GPa)
#
#
# Indices 1 2 3 4 5 6 
#
# 1 212.4608 33.0375 77.7044 -21.5960 -7.0152 -13.6868
# 2 33.0375 101.8247 43.1838 -27.3241 -5.9614 -14.7975
# 3 77.7044 43.1838 144.4544 -37.4729 -4.7250 -7.4593
# 4 -21.5960 -27.3241 -37.4729 52.1716 -1.9357 4.1181
# 5 -7.0152 -5.9614 -4.7250 -1.9357 58.9628 -10.2913
# 6 -13.6868 -14.7975 -7.4593 4.1181 -10.2913 39.2179
#
#
#
# Elastic Compliance Matrix: (Units=1/GPa)
#
#
# Indices 1 2 3 4 5 6 
#
# 1 0.005989 -0.000401 -0.002993 0.000023 0.000704 0.001552
# 2 -0.000401 0.012878 -0.002098 0.004803 0.002001 0.004341
# 3 -0.002993 -0.002098 0.010522 0.005257 0.000398 -0.000282
# 4 0.000023 0.004803 0.005257 0.025487 0.001856 0.000631
# 5 0.000704 0.002001 0.000398 0.001856 0.018332 0.005692
# 6 0.001552 0.004341 -0.000282 0.000631 0.005692 0.029052
#
#
# Mechanical properties :
#
#
# Convention : Reuss Voigt Hill
#
# Bulk Modulus (GPa) = 54.33482 85.17682 69.75582
# Shear Modulus (GPa) = 41.88340 50.39141 46.13740
#
# Velocity S-wave (km/s) = 4.04994 4.44228 4.25064
# Velocity P-wave (km/s) = 6.56868 7.72451 7.16992
#
# Compressibility (1/GPa) = 0.01840440
#
# Stress axis : x y z
#
# Youngs Moduli (GPa) = 166.96735 77.65373 95.04124
#
# Poissons Ratio (x) = 0.03115 0.28442
# Poissons Ratio (y) = 0.06697 0.19944
# Poissons Ratio (z) = 0.49966 0.16295
#
# Static dielectric constant tensor:
#      x y z
#    x 2.063460 0.093010 -0.006730 
#    y 0.093010 2.173570 0.069740 
#    z -0.006730 0.069740 2.039090 
# 
# From -- ./inp_files/477390.got.cif
#   From: 2010.05.17/outbox.cif.g08.bks.cpg/sg2_239_cif.got.tgz:477390.got - 2010.06.03 11:33:40.
