data_PCOD9030425
_publ_section_title
;
Structure prediction by ZEFSAII (Michael W. Deem and Ramdas Pophale) SiO2 
 PCOD9030425
Probable space group: P -1
;
_chemical_formula_sum "Si O2"
_cell_formula_units_Z 14
_cell_length_a 9.446585
_cell_length_b 18.158876
_cell_length_c 9.649096
_cell_angle_alpha 61.040382
_cell_angle_beta 70.428699
_cell_angle_gamma 25.595475
_cell_volume 602.589267
_symmetry_space_group_name_H-M "P -1"
_symmetry_group_IT_number 2
_symmetry_cell_setting 'triclinic'
loop_
_space_group_symop_operation_xyz
x,y,z
-x,-y,-z
loop_
_atom_site_type_symbol
_atom_site_label
_atom_site_fract_x
_atom_site_fract_y
_atom_site_fract_z
Si Si1 0.552386 0.373281 0.126625
Si Si2 0.334041 0.226955 0.680237
Si Si3 0.796024 0.695991 0.024974
Si Si4 0.516185 0.006958 0.323708
Si Si5 0.723914 0.312503 0.655588
Si Si6 0.468211 0.346540 0.462996
Si Si7 0.691277 0.205257 0.988152
O O1 0.635090 0.313565 0.313083
O O2 0.788910 0.196942 0.111153
O O3 0.500000 0.500000 0.000000
O O4 0.193190 0.504928 0.101603
O O5 0.521282 0.057983 0.695133
O O6 0.442545 0.259413 0.543434
O O7 0.925295 0.424878 0.604975
O O8 0.368789 0.208508 0.853417
O O9 0.627866 0.696959 0.015045
O O10 0.729838 0.800864 0.837110
O O11 0.890340 0.854439 0.307466
O O12 0.500000 0.000000 0.500000
O O13 0.500000 0.500000 0.500000
O O14 0.677873 0.261323 0.608256
O O15 0.598051 0.337568 0.816649
O O16 0.000000 0.000000 0.000000
#
# Coordination Sequence:
#
# PCOD9030425 Si02
#       7
#     2   2   2   2   2   2   2
#     4  11  27  45  74 104 143 186 237 291 353 425
#     4  10  22  44  68  98 135 182 231 284 348 417
#     4  11  25  47  69 102 139 190 231 292 352 420
#     4  12  28  42  69 104 143 179 232 295 353 416
#     4  12  24  45  72 100 142 185 236 287 354 424
#     4  10  22  42  70  99 131 183 232 280 345 415
#     4  12  26  47  73 106 142 187 239 294 355 419
#
# _framework density 23.233070999999999
#
# number of rings (size 3 to 8) (size 9 to 14) (size 15 to 20)
#    0.000    0.857    4.286    1.714    8.000    1.143 
#    0.000    1.429    0.000    0.000    0.000    0.000 
#    0.000    0.000    0.000    0.000    0.000    0.000 
#
# Total GULP energy -78261.157859 kJ/mol
# GULP energy per Si atom -5590.082704 kJ/mol
# Density = 2.318019 g / cm^3
# Si number density = 23.233071 Si / 1000 Ang^3
#
#
#
# Elastic Constant Matrix: (Units=GPa)
#
#
# Indices 1 2 3 4 5 6 
#
# 1 89.8877 15.2490 -8.3294 23.2430 -5.0040 3.4475
# 2 15.2490 45.0391 -8.1223 5.4364 -9.9984 6.9275
# 3 -8.3294 -8.1223 103.4571 18.2329 -14.6268 11.1084
# 4 23.2430 5.4364 18.2329 29.7957 -2.3537 12.4868
# 5 -5.0040 -9.9984 -14.6268 -2.3537 38.9165 -2.3467
# 6 3.4475 6.9275 11.1084 12.4868 -2.3467 26.3399
#
#
#
# Elastic Compliance Matrix: (Units=1/GPa)
#
#
# Indices 1 2 3 4 5 6 
#
# 1 0.016091 -0.003189 0.003624 -0.016143 0.001939 0.005030
# 2 -0.003189 0.026870 0.003882 -0.001257 0.007453 -0.007027
# 3 0.003624 0.003882 0.013067 -0.010433 0.005650 -0.001557
# 4 -0.016143 -0.001257 -0.010433 0.062067 -0.003949 -0.022932
# 5 0.001939 0.007453 0.005650 -0.003949 0.029740 -0.000075
# 6 0.005030 -0.007027 -0.001557 -0.022932 -0.000075 0.050676
#
#
# Mechanical properties :
#
#
# Convention : Reuss Voigt Hill
#
# Bulk Modulus (GPa) = 15.46481 26.21985 20.84233
# Shear Modulus (GPa) = 23.64841 34.98285 29.31563
#
# Velocity S-wave (km/s) = 3.19388 3.88459 3.55604
# Velocity P-wave (km/s) = 4.50244 5.60626 5.08439
#
# Compressibility (1/GPa) = 0.06466293
#
# Stress axis : x y z
#
# Youngs Moduli (GPa) = 62.14627 37.21639 76.52843
#
# Poissons Ratio (x) = 0.11869 -0.27735
# Poissons Ratio (y) = 0.19819 -0.29712
# Poissons Ratio (z) = -0.22523 -0.14449
#
# Static dielectric constant tensor:
#      x y z
#    x 1.887510 0.049830 0.003060 
#    y 0.049830 1.995030 -0.027320 
#    z 0.003060 -0.027320 1.916190 
# 
# From -- ./inp_files/184480.got.cif
#   From: 2010.05.17/outbox.cif.g08.bks.cpg/sg2_93_cif.got.tgz:184480.got - 2010.06.03 11:33:40.
