data_PCOD9030659
_publ_section_title
;
Structure prediction by ZEFSAII (Michael W. Deem and Ramdas Pophale) SiO2 
 PCOD9030659
Probable space group: P -1
;
_chemical_formula_sum "Si O2"
_cell_formula_units_Z 13
_cell_length_a 22.952551
_cell_length_b 23.033482
_cell_length_c 5.318612
_cell_angle_alpha 113.488008
_cell_angle_beta 66.869728
_cell_angle_gamma 167.700826
_cell_volume 549.253341
_symmetry_space_group_name_H-M "P -1"
_symmetry_group_IT_number 2
_symmetry_cell_setting 'triclinic'
loop_
_space_group_symop_operation_xyz
x,y,z
-x,-y,-z
loop_
_atom_site_type_symbol
_atom_site_label
_atom_site_fract_x
_atom_site_fract_y
_atom_site_fract_z
Si Si1 0.724612 0.271948 0.556145
Si Si2 0.578028 0.781423 0.033380
Si Si3 0.000000 0.000000 0.000000
Si Si4 0.692287 0.323327 0.199963
Si Si5 0.831606 0.116376 0.533349
Si Si6 0.433117 0.527101 0.198260
Si Si7 0.090837 0.265724 0.685517
O O1 0.673365 0.255303 0.345312
O O2 0.000000 0.500000 0.500000
O O3 0.500000 0.000000 0.500000
O O4 0.732442 0.328523 0.873709
O O5 0.474004 0.633331 0.172496
O O6 0.697464 0.964151 0.237141
O O7 0.302667 0.520496 0.890337
O O8 0.833565 0.997481 0.829744
O O9 0.799946 0.745340 0.989834
O O10 0.731563 0.785698 0.133492
O O11 0.933298 0.603909 0.366484
O O12 0.418095 0.097983 0.258574
O O13 0.950254 0.166096 0.524333
O O14 0.291588 0.404714 0.496398
#
# Coordination Sequence:
#
# PCOD9030659 Si02
#       7
#     2   2   1   2   2   2   2
#     4  12  26  50  74 106 148 200 248 303 368 437
#     4  12  25  44  72  99 146 186 238 290 383 449
#     4  10  22  42  72  86 150 170 248 304 356 416
#     4  12  27  45  77 108 149 191 254 311 364 441
#     4  12  27  45  68 111 143 184 233 303 368 439
#     4  11  23  46  63 104 129 196 227 307 358 441
#     4  12  25  44  72  99 146 186 238 290 383 449
#
# _framework density 23.668495
#
# number of rings (size 3 to 8) (size 9 to 14) (size 15 to 20)
#    0.000    0.308    0.000   10.154    6.462    0.000 
#    0.000   15.385    0.000    0.000    0.000    0.000 
#    0.000    0.000    0.000    0.000    0.000    0.000 
#
# Total GULP energy -72449.309797 kJ/mol
# GULP energy per Si atom -5573.023831 kJ/mol
# Density = 2.361462 g / cm^3
# Si number density = 23.668495 Si / 1000 Ang^3
#
#
#
# Elastic Constant Matrix: (Units=GPa)
#
#
# Indices 1 2 3 4 5 6 
#
# 1 24.8351 40.6574 59.0128 11.2051 -16.0809 -4.8149
# 2 40.6574 202.1130 -0.5091 -22.5062 0.0502 7.5499
# 3 59.0128 -0.5091 -7.6517 -46.7054 18.6006 24.2641
# 4 11.2051 -22.5062 -46.7054 46.9323 20.5907 -12.1243
# 5 -16.0809 0.0502 18.6006 20.5907 38.4614 -9.3278
# 6 -4.8149 7.5499 24.2641 -12.1243 -9.3278 51.5232
#
#
#
# Elastic Compliance Matrix: (Units=1/GPa)
#
#
# Indices 1 2 3 4 5 6 
#
# 1 0.010731 -0.001094 0.009884 0.008497 -0.005442 -0.002477
# 2 -0.001094 0.005109 -0.002661 -0.000283 0.001105 0.000536
# 3 0.009884 -0.002661 0.000761 -0.005749 0.007059 0.000881
# 4 0.008497 -0.000283 -0.005749 0.015325 -0.000144 0.007123
# 5 -0.005442 0.001105 0.007059 -0.000144 0.020300 -0.000354
# 6 -0.002477 0.000536 0.000881 0.007123 -0.000354 0.020296
#
#
# Mechanical properties :
#
#
# Convention : Reuss Voigt Hill
#
# Bulk Modulus (GPa) = 34.64998 46.40208 40.52603
# Shear Modulus (GPa) = 71.54694 35.39239 53.46966
#
# Velocity S-wave (km/s) = 5.50403 3.87115 4.75816
# Velocity P-wave (km/s) = 7.42051 6.29513 6.88087
#
# Compressibility (1/GPa) = 0.02886005
#
# Stress axis : x y z
#
# Youngs Moduli (GPa) = 93.18467 195.72541 1314.43622
#
# Poissons Ratio (x) = 0.21407 -12.99225
# Poissons Ratio (y) = 0.10192 3.49799
# Poissons Ratio (z) = -0.92106 0.52087
#
# Static dielectric constant tensor:
#      x y z
#    x 1.845960 0.013900 0.001920 
#    y 0.013900 1.814890 0.013280 
#    z 0.001920 0.013280 1.985210 
# 
# From -- ./inp_files/125142.got.cif
#   From: 2010.05.17/outbox.cif.g08.bks.cpg/sg2_63_cif.got.tgz:125142.got - 2010.06.03 11:33:40.
