data_PCOD9030567
_publ_section_title
;
Structure prediction by ZEFSAII (Michael W. Deem and Ramdas Pophale) SiO2 
 PCOD9030567
Probable space group: P -1
;
_chemical_formula_sum "Si O2"
_cell_formula_units_Z 13
_cell_length_a 6.526042
_cell_length_b 8.551906
_cell_length_c 12.555147
_cell_angle_alpha 85.160152
_cell_angle_beta 61.778282
_cell_angle_gamma 95.565096
_cell_volume 607.684002
_symmetry_space_group_name_H-M "P -1"
_symmetry_group_IT_number 2
_symmetry_cell_setting 'triclinic'
loop_
_space_group_symop_operation_xyz
x,y,z
-x,-y,-z
loop_
_atom_site_type_symbol
_atom_site_label
_atom_site_fract_x
_atom_site_fract_y
_atom_site_fract_z
Si Si1 0.913448 0.843588 0.600129
Si Si2 0.166029 0.689582 0.239173
Si Si3 0.000000 0.500000 0.500000
Si Si4 0.390660 0.843946 0.799395
Si Si5 0.592911 0.798282 0.982730
Si Si6 0.034838 0.004395 0.781027
Si Si7 0.035057 0.429164 0.109919
O O1 0.969109 0.676178 0.552800
O O2 0.633618 0.836094 0.681753
O O3 0.000000 0.000000 0.500000
O O4 0.014849 0.886412 0.691105
O O5 0.058828 0.561151 0.185828
O O6 0.150389 0.598239 0.359436
O O7 0.006367 0.828531 0.266113
O O8 0.422876 0.767400 0.127503
O O9 0.441968 0.823725 0.912984
O O10 0.193514 0.702673 0.816736
O O11 0.274345 0.997236 0.785929
O O12 0.727274 0.648086 0.943137
O O13 0.813695 0.941509 0.916722
O O14 0.000000 0.500000 0.000000
#
# Coordination Sequence:
#
# PCOD9030567 Si02
#       7
#     2   2   1   2   2   2   2
#     4  11  24  50  72  98 142 190 236 296 347 420
#     4  12  23  43  69 104 144 187 238 285 355 425
#     4  12  26  44  74 100 138 192 238 274 360 428
#     4  10  22  44  71  98 140 180 230 300 355 410
#     4  10  22  42  71  99 138 188 231 297 359 408
#     4  10  23  45  69 107 138 181 239 299 354 417
#     4  11  23  42  68 106 140 178 236 301 351 421
#
# _framework density 21.392697999999999
#
# number of rings (size 3 to 8) (size 9 to 14) (size 15 to 20)
#    0.000    1.231    3.077    3.692    2.154    1.231 
#    8.308    1.538    0.000    0.000    0.000    0.000 
#    0.000    0.000    0.000    0.000    0.000    0.000 
#
# Total GULP energy -72371.858806 kJ/mol
# GULP energy per Si atom -5567.066062 kJ/mol
# Density = 2.134401 g / cm^3
# Si number density = 21.392698 Si / 1000 Ang^3
#
#
#
# Elastic Constant Matrix: (Units=GPa)
#
#
# Indices 1 2 3 4 5 6 
#
# 1 113.4625 41.4884 54.5199 8.2980 4.8298 -14.3367
# 2 41.4884 130.9867 57.8116 6.9994 -6.2084 -36.2389
# 3 54.5199 57.8116 168.3650 -13.8308 -8.4912 -13.0051
# 4 8.2980 6.9994 -13.8308 44.4592 -4.6679 3.2058
# 5 4.8298 -6.2084 -8.4912 -4.6679 10.1741 -5.0666
# 6 -14.3367 -36.2389 -13.0051 3.2058 -5.0666 18.7680
#
#
#
# Elastic Compliance Matrix: (Units=1/GPa)
#
#
# Indices 1 2 3 4 5 6 
#
# 1 0.012789 -0.003847 -0.004343 -0.004530 -0.016255 -0.004283
# 2 -0.003847 0.034802 -0.002001 -0.004953 0.058750 0.079579
# 3 -0.004343 -0.002001 0.009135 0.005073 0.011481 0.001382
# 4 -0.004530 -0.004953 0.005073 0.027606 0.010333 -0.011435
# 5 -0.016255 0.058750 0.011481 0.010333 0.242119 0.172576
# 6 -0.004283 0.079579 0.001382 -0.011435 0.172576 0.253168
#
#
# Mechanical properties :
#
#
# Convention : Reuss Voigt Hill
#
# Bulk Modulus (GPa) = 27.51524 80.05043 53.78283
# Shear Modulus (GPa) = 8.16838 31.94656 20.05747
#
# Velocity S-wave (km/s) = 1.95617 3.86857 3.06532
# Velocity P-wave (km/s) = 4.24170 7.57992 6.14195
#
# Compressibility (1/GPa) = 0.03634350
#
# Stress axis : x y z
#
# Youngs Moduli (GPa) = 78.19054 28.73422 109.46326
#
# Poissons Ratio (x) = 0.11055 0.47542
# Poissons Ratio (y) = 0.30082 0.21904
# Poissons Ratio (z) = 0.33959 0.05750
#
# Static dielectric constant tensor:
#      x y z
#    x 1.773780 -0.034310 0.014010 
#    y -0.034310 1.829860 -0.007460 
#    z 0.014010 -0.007460 1.778160 
# 
# From -- ./inp_files/31710.got.cif
#   From: 2010.05.17/outbox.cif.g08.bks.cpg/sg2_16_cif.got.tgz:31710.got - 2010.06.03 11:33:40.
