data_PCOD9030690
_publ_section_title
;
Structure prediction by ZEFSAII (Michael W. Deem and Ramdas Pophale) SiO2 
 PCOD9030690
Probable space group: P -1
;
_chemical_formula_sum "Si O2"
_cell_formula_units_Z 13
_cell_length_a 8.852226
_cell_length_b 12.895975
_cell_length_c 14.226663
_cell_angle_alpha 148.763100
_cell_angle_beta 33.152097
_cell_angle_gamma 132.658869
_cell_volume 456.375695
_symmetry_space_group_name_H-M "P -1"
_symmetry_group_IT_number 2
_symmetry_cell_setting 'triclinic'
loop_
_space_group_symop_operation_xyz
x,y,z
-x,-y,-z
loop_
_atom_site_type_symbol
_atom_site_label
_atom_site_fract_x
_atom_site_fract_y
_atom_site_fract_z
Si Si1 0.860342 0.294113 0.415308
Si Si2 0.685156 0.498795 0.495143
Si Si3 0.245434 0.287719 0.777507
Si Si4 0.626755 0.008078 0.667622
Si Si5 0.318382 0.864999 0.050272
Si Si6 0.204185 0.605018 0.198396
Si Si7 0.000000 0.000000 0.000000
O O1 0.791782 0.285026 0.326468
O O2 0.586093 0.274355 0.602317
O O3 0.000000 0.500000 0.500000
O O4 0.063569 0.090415 0.146478
O O5 0.500000 0.500000 0.500000
O O6 0.962252 0.582971 0.381976
O O7 0.496576 0.638989 0.776025
O O8 0.992678 0.165530 0.845938
O O9 0.264814 0.214316 0.601482
O O10 0.156048 0.495211 0.039490
O O11 0.684632 0.048119 0.776084
O O12 0.773240 0.166137 0.655037
O O13 0.302743 0.065900 0.856531
O O14 0.500000 0.000000 0.000000
O O15 0.500000 0.500000 0.000000
#
# Coordination Sequence:
#
# PCOD9030690 Si02
#       7
#     2   2   2   2   2   2   1
#     4  11  24  46  72 105 142 193 248 298 370 443
#     4  12  26  43  71 108 149 186 241 309 371 436
#     4  11  25  44  75 102 145 191 238 303 364 434
#     4  11  26  45  72 104 142 190 248 295 364 440
#     4  12  27  46  71 105 148 193 246 302 370 442
#     4  12  26  47  74 108 146 192 246 300 369 447
#     4  10  22  42  72  98 138 186 232 300 352 430
#
# _framework density 28.485303999999999
#
# number of rings (size 3 to 8) (size 9 to 14) (size 15 to 20)
#    0.000    0.615    1.538    6.000    6.462    4.308 
#    0.000    0.000    0.000    0.000    0.000    0.000 
#    0.000    0.000    0.000    0.000    0.000    0.000 
#
# Total GULP energy -72477.337192 kJ/mol
# GULP energy per Si atom -5575.179784 kJ/mol
# Density = 2.842047 g / cm^3
# Si number density = 28.485304 Si / 1000 Ang^3
#
#
#
# Elastic Constant Matrix: (Units=GPa)
#
#
# Indices 1 2 3 4 5 6 
#
# 1 121.5364 43.0604 44.7306 5.7906 -9.1128 10.2622
# 2 43.0604 189.4606 56.9787 -40.7955 -17.8824 32.4155
# 3 44.7306 56.9787 176.3902 -4.2587 21.0556 12.3813
# 4 5.7906 -40.7955 -4.2587 67.2799 20.9545 6.6794
# 5 -9.1128 -17.8824 21.0556 20.9545 45.8749 0.2663
# 6 10.2622 32.4155 12.3813 6.6794 0.2663 51.6386
#
#
#
# Elastic Compliance Matrix: (Units=1/GPa)
#
#
# Indices 1 2 3 4 5 6 
#
# 1 0.010335 -0.002005 -0.002564 -0.003562 0.004074 0.000259
# 2 -0.002005 0.008445 -0.001900 0.005247 0.001399 -0.005133
# 3 -0.002564 -0.001900 0.007614 0.001228 -0.005304 -0.000255
# 4 -0.003562 0.005247 0.001228 0.021848 -0.009172 -0.005659
# 5 0.004074 0.001399 -0.005304 -0.009172 0.029773 0.000617
# 6 0.000259 -0.005133 -0.000255 -0.005659 0.000617 0.023326
#
#
# Mechanical properties :
#
#
# Convention : Reuss Voigt Hill
#
# Bulk Modulus (GPa) = 74.30588 86.32518 80.31553
# Shear Modulus (GPa) = 42.10054 55.79985 48.95019
#
# Velocity S-wave (km/s) = 3.84861 4.43075 4.14990
# Velocity P-wave (km/s) = 6.77432 7.51973 7.15674
#
# Compressibility (1/GPa) = 0.01345788
#
# Stress axis : x y z
#
# Youngs Moduli (GPa) = 96.75764 118.41061 131.34302
#
# Poissons Ratio (x) = 0.23737 0.33673
# Poissons Ratio (y) = 0.19397 0.24950
# Poissons Ratio (z) = 0.24806 0.22493
#
# Static dielectric constant tensor:
#      x y z
#    x 2.505710 0.224780 0.204330 
#    y 0.224780 1.804130 -0.935340 
#    z 0.204330 -0.935340 0.206590 
# 
# From -- ./inp_files/505655.got.cif
#   From: 2010.05.17/outbox.cif.g08.bks.cpg/sg2_253_cif.got.tgz:505655.got - 2010.06.03 11:33:40.
