data_PCOD9030260
_publ_section_title
;
Structure prediction by ZEFSAII (Michael W. Deem and Ramdas Pophale) SiO2 
 PCOD9030260
Probable space group: P -1
;
_chemical_formula_sum "Si O2"
_cell_formula_units_Z 13
_cell_length_a 8.413434
_cell_length_b 12.090815
_cell_length_c 9.645973
_cell_angle_alpha 46.653854
_cell_angle_beta 56.829227
_cell_angle_gamma 60.982957
_cell_volume 587.549110
_symmetry_space_group_name_H-M "P -1"
_symmetry_group_IT_number 2
_symmetry_cell_setting 'triclinic'
loop_
_space_group_symop_operation_xyz
x,y,z
-x,-y,-z
loop_
_atom_site_type_symbol
_atom_site_label
_atom_site_fract_x
_atom_site_fract_y
_atom_site_fract_z
Si Si1 0.000000 0.500000 0.000000
Si Si2 0.553457 0.746834 0.483345
Si Si3 0.449729 0.418398 0.814657
Si Si4 0.208412 0.040926 0.887399
Si Si5 0.479131 0.191757 0.234708
Si Si6 0.953116 0.838860 0.601076
Si Si7 0.305003 0.845149 0.262343
O O1 0.220895 0.459789 0.867951
O O2 0.995830 0.689639 0.809188
O O3 0.540104 0.570048 0.619817
O O4 0.493168 0.788407 0.633383
O O5 0.409667 0.848343 0.356290
O O6 0.761370 0.788482 0.313082
O O7 0.558201 0.284806 0.779206
O O8 0.477910 0.351244 0.015110
O O9 0.354956 0.931907 0.808675
O O10 0.270122 0.997851 0.053498
O O11 0.000000 0.000000 0.000000
O O12 0.268904 0.148433 0.348019
O O13 0.096764 0.804119 0.431208
O O14 0.000000 0.000000 0.500000
#
# Coordination Sequence:
#
# PCOD9030260 Si02
#       7
#     1   2   2   2   2   2   2
#     4  10  22  42  70 104 140 180 244 282 348 432
#     4  12  22  42  70  99 134 185 226 289 358 410
#     4  10  23  45  69 100 139 185 232 291 352 421
#     4  11  25  45  64  98 137 182 230 293 346 425
#     4  10  24  44  67 100 142 176 235 292 349 429
#     4  11  23  44  73 104 142 190 236 292 360 422
#     4  11  24  44  70 102 141 178 237 291 351 427
#
# _framework density 22.125809
#
# number of rings (size 3 to 8) (size 9 to 14) (size 15 to 20)
#    0.000    1.231    1.538    3.692    0.000    3.692 
#    2.769    6.923    0.000    0.000    0.000    0.000 
#    0.000    0.000    0.000    0.000    0.000    0.000 
#
# Total GULP energy -72443.052138 kJ/mol
# GULP energy per Si atom -5572.542472 kJ/mol
# Density = 2.207545 g / cm^3
# Si number density = 22.125809 Si / 1000 Ang^3
#
#
#
# Elastic Constant Matrix: (Units=GPa)
#
#
# Indices 1 2 3 4 5 6 
#
# 1 81.3124 37.7539 53.9682 20.8208 -7.8262 -5.9593
# 2 37.7539 89.9263 50.1398 1.1081 -14.2066 -11.0021
# 3 53.9682 50.1398 158.5084 -9.0670 -16.1810 5.6451
# 4 20.8208 1.1081 -9.0670 41.5016 3.2034 -9.0823
# 5 -7.8262 -14.2066 -16.1810 3.2034 61.0144 15.6802
# 6 -5.9593 -11.0021 5.6451 -9.0823 15.6802 28.6984
#
#
#
# Elastic Compliance Matrix: (Units=1/GPa)
#
#
# Indices 1 2 3 4 5 6 
#
# 1 0.022538 -0.005630 -0.006533 -0.012768 0.000672 -0.000601
# 2 -0.005630 0.016056 -0.003176 0.003069 0.000374 0.006378
# 3 -0.006533 -0.003176 0.010146 0.004505 0.001960 -0.004215
# 4 -0.012768 0.003069 0.004505 0.034091 -0.004286 0.010770
# 5 0.000672 0.000374 0.001960 -0.004286 0.020571 -0.012698
# 6 -0.000601 0.006378 -0.004215 0.010770 -0.012698 0.048341
#
#
# Mechanical properties :
#
#
# Convention : Reuss Voigt Hill
#
# Bulk Modulus (GPa) = 55.36172 68.16341 61.76256
# Shear Modulus (GPa) = 26.53364 38.76855 32.65110
#
# Velocity S-wave (km/s) = 3.46673 4.19045 3.84565
# Velocity P-wave (km/s) = 6.41092 7.36799 6.90606
#
# Compressibility (1/GPa) = 0.01806302
#
# Stress axis : x y z
#
# Youngs Moduli (GPa) = 44.36911 62.28272 98.56492
#
# Poissons Ratio (x) = 0.35062 0.64395
# Poissons Ratio (y) = 0.24978 0.31300
# Poissons Ratio (z) = 0.28987 0.19778
#
# Static dielectric constant tensor:
#      x y z
#    x 1.856270 0.008760 0.011110 
#    y 0.008760 1.819100 -0.021740 
#    z 0.011110 -0.021740 1.850990 
# 
# From -- ./inp_files/173931.got.cif
#   From: 2010.05.17/outbox.cif.g08.bks.cpg/sg2_87_cif.got.tgz:173931.got - 2010.06.03 11:33:40.
