data_PCOD9030326
_publ_section_title
;
Structure prediction by ZEFSAII (Michael W. Deem and Ramdas Pophale) SiO2 
 PCOD9030326
Probable space group: P -1
;
_chemical_formula_sum "Si O2"
_cell_formula_units_Z 14
_cell_length_a 15.534331
_cell_length_b 9.667846
_cell_length_c 11.516298
_cell_angle_alpha 55.440201
_cell_angle_beta 25.783889
_cell_angle_gamma 48.461921
_cell_volume 560.753860
_symmetry_space_group_name_H-M "P -1"
_symmetry_group_IT_number 2
_symmetry_cell_setting 'triclinic'
loop_
_space_group_symop_operation_xyz
x,y,z
-x,-y,-z
loop_
_atom_site_type_symbol
_atom_site_label
_atom_site_fract_x
_atom_site_fract_y
_atom_site_fract_z
Si Si1 0.164230 0.573259 0.556935
Si Si2 0.624395 0.165590 0.794261
Si Si3 0.790534 0.657875 0.613632
Si Si4 0.697626 0.823539 0.992929
Si Si5 0.531546 0.749641 0.535872
Si Si6 0.163915 0.971625 0.704477
Si Si7 0.223551 0.024129 0.939927
O O1 0.204696 0.755603 0.415771
O O2 0.244484 0.446544 0.406420
O O3 0.311353 0.462997 0.538976
O O4 0.906518 0.632287 0.851501
O O5 0.729141 0.945021 0.792122
O O6 0.416243 0.269141 0.083667
O O7 0.513923 0.198866 0.785049
O O8 0.000000 0.500000 0.500000
O O9 0.823819 0.837429 0.440448
O O10 0.698190 0.947789 0.042858
O O11 0.388972 0.822103 0.558790
O O12 0.698225 0.847108 0.295334
O O13 0.361598 0.821730 0.814791
O O14 0.030964 0.921274 0.789855
O O15 0.000000 0.000000 0.000000
#
# Coordination Sequence:
#
# PCOD9030326 Si02
#       7
#     2   2   2   2   2   2   2
#     4  12  25  42  69  99 136 176 229 283 338 402
#     4  11  26  45  65  93 143 179 220 282 345 403
#     4  12  25  43  71 107 132 172 236 283 331 408
#     4  11  25  43  63  97 136 183 226 272 347 411
#     4  10  22  43  69 101 127 179 238 273 330 412
#     4  10  23  42  71  99 135 175 221 282 341 395
#     4  10  22  42  70  92 135 178 221 278 341 394
#
# _framework density 24.966391000000002
#
# number of rings (size 3 to 8) (size 9 to 14) (size 15 to 20)
#    0.000    1.143    1.429    5.143    6.000    5.143 
#    0.000    1.429    0.000    0.000    0.000    0.000 
#    0.000    0.000    0.000    0.000    0.000    0.000 
#
# Total GULP energy -78262.059203 kJ/mol
# GULP energy per Si atom -5590.147086 kJ/mol
# Density = 2.490957 g / cm^3
# Si number density = 24.966391 Si / 1000 Ang^3
#
#
#
# Elastic Constant Matrix: (Units=GPa)
#
#
# Indices 1 2 3 4 5 6 
#
# 1 181.5030 28.3500 50.7419 15.3913 -20.7571 -0.4370
# 2 28.3500 58.1802 11.5684 15.3116 -15.4334 -16.1100
# 3 50.7419 11.5684 79.3121 5.7486 -29.7824 -8.1296
# 4 15.3913 15.3116 5.7486 30.9077 -0.3156 -17.3787
# 5 -20.7571 -15.4334 -29.7824 -0.3156 56.0034 7.8442
# 6 -0.4370 -16.1100 -8.1296 -17.3787 7.8442 48.6120
#
#
#
# Elastic Compliance Matrix: (Units=1/GPa)
#
#
# Indices 1 2 3 4 5 6 
#
# 1 0.007407 -0.002660 -0.004390 -0.003039 0.000031 -0.002640
# 2 -0.002660 0.022861 0.001403 -0.007912 0.005445 0.004080
# 3 -0.004390 0.001403 0.018616 -0.000823 0.008390 0.001891
# 4 -0.003039 -0.007912 -0.000823 0.046081 -0.005527 0.014579
# 5 0.000031 0.005445 0.008390 -0.005527 0.024172 -0.002669
# 6 -0.002640 0.004080 0.001891 0.014579 -0.002669 0.027858
#
#
# Mechanical properties :
#
#
# Convention : Reuss Voigt Hill
#
# Bulk Modulus (GPa) = 26.60134 55.59065 41.09599
# Shear Modulus (GPa) = 29.27070 42.32697 35.79883
#
# Velocity S-wave (km/s) = 3.42775 4.12194 3.79077
# Velocity P-wave (km/s) = 5.13264 6.70585 5.97128
#
# Compressibility (1/GPa) = 0.03759209
#
# Stress axis : x y z
#
# Youngs Moduli (GPa) = 135.00687 43.74210 53.71641
#
# Poissons Ratio (x) = 0.11634 0.23580
# Poissons Ratio (y) = 0.35908 -0.07538
# Poissons Ratio (z) = 0.59265 -0.06138
#
# Static dielectric constant tensor:
#      x y z
#    x 2.024200 -0.031460 0.061720 
#    y -0.031460 2.014530 0.029760 
#    z 0.061720 0.029760 2.059440 
# 
# From -- ./inp_files/446890.got.cif
#   From: 2010.05.17/outbox.cif.g08.bks.cpg/sg2_224_cif.got.tgz:446890.got - 2010.06.03 11:33:40.
