data_PCOD9030417
_publ_section_title
;
Structure prediction by ZEFSAII (Michael W. Deem and Ramdas Pophale) SiO2 
 PCOD9030417
Probable space group: P -1
;
_chemical_formula_sum "Si O2"
_cell_formula_units_Z 16
_cell_length_a 17.246656
_cell_length_b 12.284264
_cell_length_c 9.452666
_cell_angle_alpha 39.390092
_cell_angle_beta 36.708094
_cell_angle_gamma 40.860500
_cell_volume 708.594664
_symmetry_space_group_name_H-M "P -1"
_symmetry_group_IT_number 2
_symmetry_cell_setting 'triclinic'
loop_
_space_group_symop_operation_xyz
x,y,z
-x,-y,-z
loop_
_atom_site_type_symbol
_atom_site_label
_atom_site_fract_x
_atom_site_fract_y
_atom_site_fract_z
Si Si1 0.713657 0.905412 0.970895
Si Si2 0.188041 0.816978 0.628541
Si Si3 0.520511 0.760988 0.990619
Si Si4 0.153339 0.855118 0.952602
Si Si5 0.870325 0.859388 0.081322
Si Si6 0.365592 0.399306 0.716798
Si Si7 0.788519 0.546698 0.621645
Si Si8 0.601344 0.475412 0.743774
O O1 0.777779 0.031100 0.662619
O O2 0.547825 0.021206 0.112225
O O3 0.784771 0.864306 0.060087
O O4 0.727901 0.723677 0.046744
O O5 0.268061 0.609893 0.669432
O O6 0.230104 0.830805 0.715788
O O7 0.023861 0.853896 0.826185
O O8 0.546279 0.673203 0.197612
O O9 0.400778 0.712587 0.130774
O O10 0.659605 0.668932 0.787677
O O11 0.149259 0.656873 0.199222
O O12 0.204212 0.957269 0.899388
O O13 0.000000 0.000000 0.000000
O O14 0.878583 0.674120 0.338586
O O15 0.443808 0.392922 0.459102
O O16 0.732467 0.504449 0.593859
O O17 0.500000 0.500000 0.000000
#
# Coordination Sequence:
#
# PCOD9030417 Si02
#       8
#     2   2   2   2   2   2   2   2
#     4  12  26  44  69 106 140 182 242 279 350 420
#     4  11  26  45  71 100 139 190 230 295 346 407
#     4  11  24  44  71 100 142 185 227 292 343 417
#     4  10  24  44  71 100 133 184 233 288 340 408
#     4  11  26  47  71 102 142 184 238 289 344 415
#     4  12  24  46  68 104 142 185 233 285 354 413
#     4  11  23  47  70 104 141 182 233 288 353 411
#     4  10  22  42  70  98 138 186 224 279 351 410
#
# _framework density 22.579906000000001
#
# number of rings (size 3 to 8) (size 9 to 14) (size 15 to 20)
#    0.000    1.000    3.750    1.875    1.750    5.000 
#    4.500    0.000    0.000    0.000    0.000    0.000 
#    0.000    0.000    0.000    0.000    0.000    0.000 
#
# Total GULP energy -89365.687368 kJ/mol
# GULP energy per Si atom -5585.355461 kJ/mol
# Density = 2.252851 g / cm^3
# Si number density = 22.579906 Si / 1000 Ang^3
#
#
#
# Elastic Constant Matrix: (Units=GPa)
#
#
# Indices 1 2 3 4 5 6 
#
# 1 85.3312 28.0652 36.6297 1.6547 23.8729 12.6099
# 2 28.0652 101.8055 53.6684 -12.6206 0.6405 16.4865
# 3 36.6297 53.6684 115.8489 -17.2027 6.4904 20.3539
# 4 1.6547 -12.6206 -17.2027 31.8651 6.6476 -3.4475
# 5 23.8729 0.6405 6.4904 6.6476 38.4754 -1.0196
# 6 12.6099 16.4865 20.3539 -3.4475 -1.0196 34.9426
#
#
#
# Elastic Compliance Matrix: (Units=1/GPa)
#
#
# Indices 1 2 3 4 5 6 
#
# 1 0.017379 -0.002613 -0.003420 -0.002103 -0.009893 -0.003543
# 2 -0.002613 0.013792 -0.004887 0.002332 0.001748 -0.002437
# 3 -0.003420 -0.004887 0.013506 0.005349 -0.001101 -0.003832
# 4 -0.002103 0.002332 0.005349 0.036541 -0.005950 -0.000025
# 5 -0.009893 0.001748 -0.001101 -0.005950 0.033414 0.003774
# 6 -0.003543 -0.002437 -0.003832 -0.000025 0.003774 0.033386
#
#
# Mechanical properties :
#
#
# Convention : Reuss Voigt Hill
#
# Bulk Modulus (GPa) = 43.78730 59.96800 51.87765
# Shear Modulus (GPa) = 28.17399 33.36477 30.76938
#
# Velocity S-wave (km/s) = 3.53618 3.84817 3.69547
# Velocity P-wave (km/s) = 6.00891 6.80884 6.42134
#
# Compressibility (1/GPa) = 0.02283767
#
# Stress axis : x y z
#
# Youngs Moduli (GPa) = 57.54235 72.50774 74.03972
#
# Poissons Ratio (x) = 0.18943 0.25322
# Poissons Ratio (y) = 0.15033 0.36181
# Poissons Ratio (z) = 0.19680 0.35432
#
# Static dielectric constant tensor:
#      x y z
#    x 1.893600 0.006920 -0.007490 
#    y 0.006920 1.855990 0.013080 
#    z -0.007490 0.013080 1.857740 
# 
# From -- ./inp_files/332689.got.cif
#   From: 2010.05.17/outbox.cif.g08.bks.cpg/sg2_167_cif.got.tgz:332689.got - 2010.06.03 11:33:40.
