data_PCOD9030777
_publ_section_title
;
Structure prediction by ZEFSAII (Michael W. Deem and Ramdas Pophale) SiO2 
 PCOD9030777
Probable space group: P -1
;
_chemical_formula_sum "Si O2"
_cell_formula_units_Z 15
_cell_length_a 11.631902
_cell_length_b 5.284237
_cell_length_c 15.358565
_cell_angle_alpha 94.809813
_cell_angle_beta 133.542784
_cell_angle_gamma 109.085805
_cell_volume 577.090835
_symmetry_space_group_name_H-M "P -1"
_symmetry_group_IT_number 2
_symmetry_cell_setting 'triclinic'
loop_
_space_group_symop_operation_xyz
x,y,z
-x,-y,-z
loop_
_atom_site_type_symbol
_atom_site_label
_atom_site_fract_x
_atom_site_fract_y
_atom_site_fract_z
Si Si1 0.136597 0.631626 0.970120
Si Si2 0.453971 0.805213 0.261591
Si Si3 0.222833 0.002105 0.260689
Si Si4 0.290027 0.922840 0.883152
Si Si5 0.147779 0.282357 0.712884
Si Si6 0.000000 0.000000 0.000000
Si Si7 0.793317 0.421575 0.414115
Si Si8 0.266115 0.247389 0.479379
O O1 0.220916 0.875358 0.944770
O O2 0.972384 0.320602 0.835917
O O3 0.293819 0.594504 0.100835
O O4 0.078055 0.784042 0.015823
O O5 0.620580 0.084768 0.302119
O O6 0.554770 0.682454 0.369385
O O7 0.368851 0.937562 0.289365
O O8 0.288468 0.184092 0.389945
O O9 0.153148 0.162214 0.164503
O O10 0.184804 0.596498 0.775309
O O11 0.249836 0.150670 0.818711
O O12 0.500000 0.000000 0.000000
O O13 0.224322 0.358828 0.656504
O O14 0.926777 0.044709 0.596214
O O15 0.775002 0.498551 0.506492
O O16 0.000000 0.500000 0.500000
#
# Coordination Sequence:
#
# PCOD9030777 Si02
#       8
#     2   2   2   2   2   1   2   2
#     4  11  25  47  77 108 157 195 266 322 403 462
#     4  11  26  45  75 113 151 203 256 330 388 483
#     4  11  25  50  75 112 149 198 261 324 395 474
#     4  12  27  48  79 118 157 206 269 330 398 476
#     4  12  26  48  79 115 159 210 264 329 401 470
#     4  10  22  42  74 102 146 194 246 310 392 450
#     4  12  27  47  73 112 158 206 263 323 399 476
#     4  12  26  46  78 106 156 205 258 322 398 468
#
# _framework density 25.992443000000002
#
# number of rings (size 3 to 8) (size 9 to 14) (size 15 to 20)
#    0.000    0.533    2.667    5.200    3.733    5.867 
#    0.000    0.000    0.000    0.000    0.000    0.000 
#    0.000    0.000    0.000    0.000    0.000    0.000 
#
# Total GULP energy -83825.468362 kJ/mol
# GULP energy per Si atom -5588.364557 kJ/mol
# Density = 2.593328 g / cm^3
# Si number density = 25.992443 Si / 1000 Ang^3
#
#
#
# Elastic Constant Matrix: (Units=GPa)
#
#
# Indices 1 2 3 4 5 6 
#
# 1 107.9292 26.1373 45.7779 -15.3412 2.8434 -0.9475
# 2 26.1373 80.1883 39.0314 -25.6691 3.4055 5.2811
# 3 45.7779 39.0314 140.9359 -18.6864 13.7923 2.2737
# 4 -15.3412 -25.6691 -18.6864 55.4672 2.8703 7.4875
# 5 2.8434 3.4055 13.7923 2.8703 50.7360 2.2045
# 6 -0.9475 5.2811 2.2737 7.4875 2.2045 43.1401
#
#
#
# Elastic Compliance Matrix: (Units=1/GPa)
#
#
# Indices 1 2 3 4 5 6 
#
# 1 0.011139 -0.001847 -0.002983 0.001153 0.000227 0.000416
# 2 -0.001847 0.016966 -0.003113 0.006733 -0.000435 -0.003100
# 3 -0.002983 -0.003113 0.009278 0.001005 -0.002193 -0.000236
# 4 0.001153 0.006733 0.001005 0.022528 -0.001862 -0.004667
# 5 0.000227 -0.000435 -0.002193 -0.001862 0.020452 -0.000548
# 6 0.000416 -0.003100 -0.000236 -0.004667 -0.000548 0.024419
#
#
# Mechanical properties :
#
#
# Convention : Reuss Voigt Hill
#
# Bulk Modulus (GPa) = 46.51736 61.21628 53.86682
# Shear Modulus (GPa) = 39.11303 44.40910 41.76107
#
# Velocity S-wave (km/s) = 3.88336 4.13793 4.01267
# Velocity P-wave (km/s) = 6.16788 6.81415 6.49905
#
# Compressibility (1/GPa) = 0.02149735
#
# Stress axis : x y z
#
# Youngs Moduli (GPa) = 89.77197 58.94165 107.77965
#
# Poissons Ratio (x) = 0.10885 0.32148
# Poissons Ratio (y) = 0.16579 0.33557
# Poissons Ratio (z) = 0.26777 0.18351
#
# Static dielectric constant tensor:
#      x y z
#    x 2.059350 0.117660 -0.062190 
#    y 0.117660 2.152180 -0.051450 
#    z -0.062190 -0.051450 2.220560 
# 
# From -- ./inp_files/571538.got.cif
#   From: 2010.05.17/outbox.cif.g08.bks.cpg/sg2_286_cif.got.tgz:571538.got - 2010.06.03 11:33:40.
