data_PCOD9030283
_publ_section_title
;
Structure prediction by ZEFSAII (Michael W. Deem and Ramdas Pophale) SiO2 
 PCOD9030283
Probable space group: P -1
;
_chemical_formula_sum "Si O2"
_cell_formula_units_Z 16
_cell_length_a 16.774608
_cell_length_b 9.094270
_cell_length_c 10.417092
_cell_angle_alpha 126.521634
_cell_angle_beta 45.672496
_cell_angle_gamma 89.862146
_cell_volume 626.768833
_symmetry_space_group_name_H-M "P -1"
_symmetry_group_IT_number 2
_symmetry_cell_setting 'triclinic'
loop_
_space_group_symop_operation_xyz
x,y,z
-x,-y,-z
loop_
_atom_site_type_symbol
_atom_site_label
_atom_site_fract_x
_atom_site_fract_y
_atom_site_fract_z
Si Si1 0.217842 0.396433 0.355906
Si Si2 0.510539 0.162819 0.167216
Si Si3 0.939399 0.852370 0.725138
Si Si4 0.298778 0.978745 0.705610
Si Si5 0.171686 0.643040 0.932792
Si Si6 0.689177 0.322857 0.676883
Si Si7 0.027267 0.546374 0.216381
Si Si8 0.353799 0.599687 0.949139
O O1 0.292024 0.509710 0.333980
O O2 0.087190 0.572648 0.481801
O O3 0.104558 0.459744 0.632917
O O4 0.358444 0.081893 0.010231
O O5 0.333532 0.403940 0.548926
O O6 0.577887 0.277816 0.099678
O O7 0.500000 0.000000 0.000000
O O8 0.950968 0.777561 0.526351
O O9 0.781638 0.987286 0.054014
O O10 0.935348 0.073735 0.865228
O O11 0.244672 0.910725 0.613313
O O12 0.491141 0.721125 0.370883
O O13 0.206053 0.274047 0.924453
O O14 0.243004 0.651819 0.987994
O O15 0.061294 0.605237 0.076667
O O16 0.500000 0.500000 0.000000
O O17 0.737684 0.281365 0.749939
#
# Coordination Sequence:
#
# PCOD9030283 Si02
#       8
#     2   2   2   2   2   2   2   2
#     4  11  25  45  74 101 144 189 233 297 362 424
#     4  12  27  47  76 110 145 186 248 308 351 429
#     4  11  24  46  70 102 147 191 235 295 364 432
#     4  10  22  42  70 106 142 190 242 298 357 430
#     4  12  27  46  76 107 147 192 244 298 364 431
#     4  10  23  44  71 107 144 187 241 302 359 431
#     4  11  26  42  71 107 149 184 244 297 357 434
#     4  11  24  43  75 107 147 190 243 300 371 414
#
# _framework density 25.527753000000001
#
# number of rings (size 3 to 8) (size 9 to 14) (size 15 to 20)
#    0.000    1.000    1.250    5.250    8.750    3.500 
#    0.000    0.625    0.000    0.000    0.000    0.000 
#    0.000    0.000    0.000    0.000    0.000    0.000 
#
# Total GULP energy -89527.906424 kJ/mol
# GULP energy per Si atom -5595.494152 kJ/mol
# Density = 2.546965 g / cm^3
# Si number density = 25.527753 Si / 1000 Ang^3
#
#
#
# Elastic Constant Matrix: (Units=GPa)
#
#
# Indices 1 2 3 4 5 6 
#
# 1 83.7808 8.7723 38.3831 -14.8527 16.0537 11.3893
# 2 8.7723 153.5277 58.2303 -17.6324 8.7857 17.5156
# 3 38.3831 58.2303 171.9046 9.1223 12.1798 -1.3838
# 4 -14.8527 -17.6324 9.1223 46.0910 -2.3935 -6.6613
# 5 16.0537 8.7857 12.1798 -2.3935 42.6304 -3.0674
# 6 11.3893 17.5156 -1.3838 -6.6613 -3.0674 30.0321
#
#
#
# Elastic Compliance Matrix: (Units=1/GPa)
#
#
# Indices 1 2 3 4 5 6 
#
# 1 0.016999 0.002682 -0.004673 0.006046 -0.005818 -0.007479
# 2 0.002682 0.009041 -0.003787 0.004139 -0.001972 -0.005748
# 3 -0.004673 -0.003787 0.008377 -0.004102 0.000166 0.003474
# 4 0.006046 0.004139 -0.004102 0.026142 -0.000428 0.000859
# 5 -0.005818 -0.001972 0.000166 -0.000428 0.026413 0.005967
# 6 -0.007479 -0.005748 0.003474 0.000859 0.005967 0.040446
#
#
# Mechanical properties :
#
#
# Convention : Reuss Voigt Hill
#
# Bulk Modulus (GPa) = 43.74440 68.88717 56.31579
# Shear Modulus (GPa) = 34.10763 44.00587 39.05675
#
# Velocity S-wave (km/s) = 3.65924 4.15642 3.91573
# Velocity P-wave (km/s) = 5.91832 7.07660 6.52322
#
# Compressibility (1/GPa) = 0.02286007
#
# Stress axis : x y z
#
# Youngs Moduli (GPa) = 58.82624 110.61085 119.37044
#
# Poissons Ratio (x) = -0.29661 0.55779
# Poissons Ratio (y) = -0.15774 0.45210
# Poissons Ratio (z) = 0.27488 0.41892
#
# Static dielectric constant tensor:
#      x y z
#    x 2.184230 0.010440 -0.068450 
#    y 0.010440 2.011710 0.007350 
#    z -0.068450 0.007350 1.936860 
# 
# From -- ./inp_files/462430.got.cif
#   From: 2010.05.17/outbox.cif.g08.bks.cpg/sg2_232_cif.got.tgz:462430.got - 2010.06.03 11:33:40.
