data_PCOD9030019
_publ_section_title
;
Structure prediction by ZEFSAII (Michael W. Deem and Ramdas Pophale) SiO2 
 PCOD9030019
Probable space group: P -1
;
_chemical_formula_sum "Si O2"
_cell_formula_units_Z 16
_cell_length_a 13.140725
_cell_length_b 10.045711
_cell_length_c 8.525627
_cell_angle_alpha 59.187963
_cell_angle_beta 116.495897
_cell_angle_gamma 136.675510
_cell_volume 658.030391
_symmetry_space_group_name_H-M "P -1"
_symmetry_group_IT_number 2
_symmetry_cell_setting 'triclinic'
loop_
_space_group_symop_operation_xyz
x,y,z
-x,-y,-z
loop_
_atom_site_type_symbol
_atom_site_label
_atom_site_fract_x
_atom_site_fract_y
_atom_site_fract_z
Si Si1 0.572844 0.665459 0.085850
Si Si2 0.840769 0.282704 0.052124
Si Si3 0.083849 0.416472 0.575831
Si Si4 0.436449 0.886266 0.857609
Si Si5 0.115295 0.965321 0.565610
Si Si6 0.336637 0.390632 0.316428
Si Si7 0.334550 0.702936 0.333185
Si Si8 0.157757 0.221034 0.967429
O O1 0.506476 0.537374 0.279291
O O2 0.744093 0.787733 0.087680
O O3 0.500000 0.500000 0.000000
O O4 0.506097 0.778359 0.949657
O O5 0.673132 0.458224 0.683237
O O6 0.755512 0.243571 0.855960
O O7 0.739667 0.264120 0.135785
O O8 0.000000 0.500000 0.000000
O O9 0.239979 0.582946 0.493266
O O10 0.126058 0.360549 0.792186
O O11 0.000000 0.500000 0.500000
O O12 0.970089 0.213903 0.514173
O O13 0.501938 0.074277 0.671116
O O14 0.500000 0.000000 0.000000
O O15 0.141927 0.878583 0.785024
O O16 0.267943 0.182235 0.483660
O O17 0.000000 0.000000 0.500000
O O18 0.236589 0.305428 0.139774
O O19 0.000000 0.000000 0.000000
#
# Coordination Sequence:
#
# PCOD9030019 Si02
#       8
#     2   2   2   2   2   2   2   2
#     4  10  23  43  72 101 141 183 231 287 357 422
#     4  11  22  42  75 105 136 184 232 287 351 403
#     4  12  28  43  66 109 146 175 234 300 348 411
#     4  10  22  42  69 109 135 182 238 287 344 421
#     4  12  25  42  67 108 140 181 239 293 344 415
#     4  11  22  47  73  99 142 186 235 290 348 425
#     4  11  24  47  72 101 144 184 236 291 346 424
#     4  11  26  46  72 101 142 187 228 288 366 407
#
# _framework density 24.314986999999999
#
# number of rings (size 3 to 8) (size 9 to 14) (size 15 to 20)
#    0.000    1.000    6.250    0.000    3.500    4.000 
#    2.250    1.250    0.000    4.500    0.000    0.000 
#    0.000    0.000    0.000    0.000    0.000    0.000 
#
# Total GULP energy -89551.798726 kJ/mol
# GULP energy per Si atom -5596.987420 kJ/mol
# Density = 2.425965 g / cm^3
# Si number density = 24.314987 Si / 1000 Ang^3
#
#
#
# Elastic Constant Matrix: (Units=GPa)
#
#
# Indices 1 2 3 4 5 6 
#
# 1 174.0831 74.6842 36.3702 -33.2344 20.9695 4.3268
# 2 74.6842 142.8834 53.1036 -41.1455 -9.0123 15.1793
# 3 36.3702 53.1036 153.5073 -35.5359 12.5309 9.2494
# 4 -33.2344 -41.1455 -35.5359 58.3006 12.0700 -12.3271
# 5 20.9695 -9.0123 12.5309 12.0700 39.8716 -15.3753
# 6 4.3268 15.1793 9.2494 -12.3271 -15.3753 59.7559
#
#
#
# Elastic Compliance Matrix: (Units=1/GPa)
#
#
# Indices 1 2 3 4 5 6 
#
# 1 0.009140 -0.004339 0.000973 0.004154 -0.007670 -0.000827
# 2 -0.004339 0.011416 -0.002590 0.002965 0.004631 -0.000381
# 3 0.000973 -0.002590 0.008930 0.005133 -0.005945 -0.001266
# 4 0.004154 0.002965 0.005133 0.027219 -0.011007 0.000934
# 5 -0.007670 0.004631 -0.005945 -0.011007 0.038413 0.007912
# 6 -0.000827 -0.000381 -0.001266 0.000934 0.007912 0.019316
#
#
# Mechanical properties :
#
#
# Convention : Reuss Voigt Hill
#
# Bulk Modulus (GPa) = 56.90103 88.75442 72.82772
# Shear Modulus (GPa) = 37.82105 52.00667 44.91386
#
# Velocity S-wave (km/s) = 3.94821 4.62981 4.30253
# Velocity P-wave (km/s) = 6.65109 8.07226 7.39589
#
# Compressibility (1/GPa) = 0.01757438
#
# Stress axis : x y z
#
# Youngs Moduli (GPa) = 109.40889 87.60013 111.98758
#
# Poissons Ratio (x) = 0.38007 -0.10897
# Poissons Ratio (y) = 0.47469 0.29002
# Poissons Ratio (z) = -0.10646 0.22686
#
# Static dielectric constant tensor:
#      x y z
#    x 1.959850 0.079900 -0.029550 
#    y 0.079900 2.087540 -0.027970 
#    z -0.029550 -0.027970 1.948970 
# 
# From -- ./inp_files/427650.got.cif
#   From: 2010.05.17/outbox.cif.g08.bks.cpg/sg2_214_cif.got.tgz:427650.got - 2010.06.03 11:33:40.
