data_PCOD9030356
_publ_section_title
;
Structure prediction by ZEFSAII (Michael W. Deem and Ramdas Pophale) SiO2 
 PCOD9030356
Probable space group: P -1
;
_chemical_formula_sum "Si O2"
_cell_formula_units_Z 14
_cell_length_a 11.608439
_cell_length_b 19.655332
_cell_length_c 12.889098
_cell_angle_alpha 23.688284
_cell_angle_beta 142.752026
_cell_angle_gamma 153.821327
_cell_volume 515.710869
_symmetry_space_group_name_H-M "P -1"
_symmetry_group_IT_number 2
_symmetry_cell_setting 'triclinic'
loop_
_space_group_symop_operation_xyz
x,y,z
-x,-y,-z
loop_
_atom_site_type_symbol
_atom_site_label
_atom_site_fract_x
_atom_site_fract_y
_atom_site_fract_z
Si Si1 0.235780 0.978035 0.124155
Si Si2 0.774823 0.650282 0.383715
Si Si3 0.736524 0.583208 0.980412
Si Si4 0.928308 0.708042 0.619349
Si Si5 0.671695 0.773177 0.476027
Si Si6 0.202823 0.738031 0.243302
Si Si7 0.310368 0.700340 0.832705
O O1 0.308719 0.938795 0.123097
O O2 0.003894 0.729456 0.361019
O O3 0.454918 0.138767 0.142975
O O4 0.137671 0.109274 0.853247
O O5 0.730187 0.535046 0.623211
O O6 0.522283 0.481421 0.365986
O O7 0.648603 0.361270 0.162694
O O8 0.011852 0.705515 0.064787
O O9 0.500000 0.500000 0.000000
O O10 0.755672 0.747353 0.681613
O O11 0.912042 0.884233 0.412857
O O12 0.188505 0.812963 0.596490
O O13 0.898643 0.561209 0.899595
O O14 0.463822 0.798778 0.304950
O O15 0.000000 0.500000 0.500000
#
# Coordination Sequence:
#
# PCOD9030356 Si02
#       7
#     2   2   2   2   2   2   2
#     4  11  24  41  65 106 131 163 235 286 322 391
#     4  11  21  40  69  97 134 172 224 281 334 390
#     4  11  21  39  67  96 133 172 218 276 331 398
#     4  10  22  42  70  95 133 183 223 267 343 405
#     4  11  22  43  69  95 129 184 227 261 337 417
#     4  12  24  43  65  99 140 179 216 277 352 397
#     4  10  23  43  69 102 130 172 236 277 324 406
#
# _framework density 27.146996000000001
#
# number of rings (size 3 to 8) (size 9 to 14) (size 15 to 20)
#    0.000    1.143    5.714    1.286    2.000    0.571 
#    2.571    1.429    0.000    0.000    0.000    0.000 
#    0.000    0.000    0.000    0.000    0.000    0.000 
#
# Total GULP energy -78162.183240 kJ/mol
# GULP energy per Si atom -5583.013089 kJ/mol
# Density = 2.708521 g / cm^3
# Si number density = 27.146996 Si / 1000 Ang^3
#
#
#
# Elastic Constant Matrix: (Units=GPa)
#
#
# Indices 1 2 3 4 5 6 
#
# 1 265.1324 67.8294 60.6310 21.2786 47.1740 -37.4467
# 2 67.8294 130.7009 37.9433 25.0369 18.4559 -29.3819
# 3 60.6310 37.9433 100.2313 24.8132 16.8864 -7.1975
# 4 21.2786 25.0369 24.8132 53.6454 0.6754 2.7130
# 5 47.1740 18.4559 16.8864 0.6754 57.9673 3.6128
# 6 -37.4467 -29.3819 -7.1975 2.7130 3.6128 43.1117
#
#
#
# Elastic Compliance Matrix: (Units=1/GPa)
#
#
# Indices 1 2 3 4 5 6 
#
# 1 0.005944 -0.000516 -0.001957 -0.001406 -0.004394 0.004941
# 2 -0.000516 0.011500 -0.001807 -0.004674 -0.003137 0.007645
# 3 -0.001957 -0.001807 0.013193 -0.004447 -0.001604 -0.000314
# 4 -0.001406 -0.004674 -0.004447 0.023739 0.004087 -0.006986
# 5 -0.004394 -0.003137 -0.001604 0.004087 0.022769 -0.008388
# 6 0.004941 0.007645 -0.000314 -0.006986 -0.008388 0.033788
#
#
# Mechanical properties :
#
#
# Convention : Reuss Voigt Hill
#
# Bulk Modulus (GPa) = 45.29340 92.09691 68.69516
# Shear Modulus (GPa) = 39.41618 52.92227 46.16923
#
# Velocity S-wave (km/s) = 3.81458 4.42007 4.12844
# Velocity P-wave (km/s) = 6.01017 7.74908 6.93435
#
# Compressibility (1/GPa) = 0.02207827
#
# Stress axis : x y z
#
# Youngs Moduli (GPa) = 168.24231 86.95398 75.79669
#
# Poissons Ratio (x) = 0.04485 0.14833
# Poissons Ratio (y) = 0.08678 0.13695
# Poissons Ratio (z) = 0.32923 0.15711
#
# Static dielectric constant tensor:
#      x y z
#    x 2.246750 0.121430 0.045600 
#    y 0.121430 2.215190 0.095220 
#    z 0.045600 0.095220 2.332690 
# 
# From -- ./inp_files/280158.got.cif
#   From: 2010.05.17/outbox.cif.g08.bks.cpg/sg2_141_cif.got.tgz:280158.got - 2010.06.03 11:33:40.
