data_PCOD9030972
_publ_section_title
;
Structure prediction by ZEFSAII (Michael W. Deem and Ramdas Pophale) SiO2 
 PCOD9030972
Probable space group: P -1
;
_chemical_formula_sum "Si O2"
_cell_formula_units_Z 16
_cell_length_a 26.940321
_cell_length_b 9.433839
_cell_length_c 9.848697
_cell_angle_alpha 122.906814
_cell_angle_beta 153.252507
_cell_angle_gamma 44.260593
_cell_volume 748.390484
_symmetry_space_group_name_H-M "P -1"
_symmetry_group_IT_number 2
_symmetry_cell_setting 'triclinic'
loop_
_space_group_symop_operation_xyz
x,y,z
-x,-y,-z
loop_
_atom_site_type_symbol
_atom_site_label
_atom_site_fract_x
_atom_site_fract_y
_atom_site_fract_z
Si Si1 0.979870 0.059359 0.712998
Si Si2 0.638604 0.319988 0.668387
Si Si3 0.328158 0.628161 0.764240
Si Si4 0.545181 0.142217 0.136579
Si Si5 0.226054 0.659438 0.239256
Si Si6 0.407196 0.929286 0.085102
Si Si7 0.278149 0.246456 0.173450
Si Si8 0.879122 0.916461 0.173039
O O1 0.967900 0.901364 0.508493
O O2 0.830269 0.236074 0.501553
O O3 0.032942 0.152882 0.786831
O O4 0.096779 0.905501 0.029334
O O5 0.500000 0.500000 0.500000
O O6 0.623119 0.164189 0.460406
O O7 0.685225 0.412456 0.719784
O O8 0.759850 0.170634 0.993372
O O9 0.318396 0.624347 0.575320
O O10 0.419759 0.390130 0.923111
O O11 0.389136 0.756824 0.010463
O O12 0.627553 0.043565 0.145078
O O13 0.500000 0.000000 0.000000
O O14 0.188492 0.500190 0.084595
O O15 0.566344 0.848519 0.443513
O O16 0.308573 0.139172 0.044095
O O17 0.199512 0.181640 0.037109
#
# Coordination Sequence:
#
# PCOD9030972 Si02
#       8
#     2   2   2   2   2   2   2   2
#     4  10  23  44  68  91 127 186 220 260 319 391
#     4  11  24  38  65  96 129 175 212 263 337 396
#     4  12  22  46  67  96 131 178 214 267 329 396
#     4  12  25  40  63  99 136 164 212 273 333 388
#     4  11  24  41  68  96 131 172 226 268 316 390
#     4  11  23  41  68  97 135 171 207 271 342 391
#     4  11  23  40  68 100 129 168 213 276 331 381
#     4  10  22  43  63  91 136 165 221 266 317 380
#
# _framework density 21.379211999999999
#
# number of rings (size 3 to 8) (size 9 to 14) (size 15 to 20)
#    0.000    1.000    3.750    3.000    5.250    0.500 
#    0.000    0.625    0.000    0.000    0.000    0.000 
#    0.000    0.000    0.000    0.000    0.000    0.000 
#
# Total GULP energy -89451.948786 kJ/mol
# GULP energy per Si atom -5590.746799 kJ/mol
# Density = 2.133055 g / cm^3
# Si number density = 21.379212 Si / 1000 Ang^3
#
#
#
# Elastic Constant Matrix: (Units=GPa)
#
#
# Indices 1 2 3 4 5 6 
#
# 1 91.9382 16.1363 11.2050 9.4335 28.9834 8.5091
# 2 16.1363 47.7564 11.9623 21.7454 5.8640 12.8161
# 3 11.2050 11.9623 61.6368 5.8754 6.6911 6.9739
# 4 9.4335 21.7454 5.8754 31.9207 1.4623 5.5538
# 5 28.9834 5.8640 6.6911 1.4623 46.0415 5.1640
# 6 8.5091 12.8161 6.9739 5.5538 5.1640 41.0164
#
#
#
# Elastic Compliance Matrix: (Units=1/GPa)
#
#
# Indices 1 2 3 4 5 6 
#
# 1 0.014352 -0.002562 -0.000943 -0.001813 -0.008434 -0.000709
# 2 -0.002562 0.033843 -0.003312 -0.020502 -0.000825 -0.006600
# 3 -0.000943 -0.003312 0.017386 -0.000341 -0.001331 -0.001512
# 4 -0.001813 -0.020502 -0.000341 0.045725 0.002310 0.000358
# 5 -0.008434 -0.000825 -0.001331 0.002310 0.027426 -0.001532
# 6 -0.000709 -0.006600 -0.001512 0.000358 -0.001532 0.026991
#
#
# Mechanical properties :
#
#
# Convention : Reuss Voigt Hill
#
# Bulk Modulus (GPa) = 19.25018 31.10430 25.17724
# Shear Modulus (GPa) = 25.42307 34.59758 30.01032
#
# Velocity S-wave (km/s) = 3.45215 4.02715 3.75068
# Velocity P-wave (km/s) = 4.99134 6.01701 5.52801
#
# Compressibility (1/GPa) = 0.05194757
#
# Stress axis : x y z
#
# Youngs Moduli (GPa) = 69.67684 29.54864 57.51637
#
# Poissons Ratio (x) = 0.07569 0.05425
# Poissons Ratio (y) = 0.17848 0.19048
# Poissons Ratio (z) = 0.06572 0.09786
#
# Static dielectric constant tensor:
#      x y z
#    x 1.792460 -0.000170 -0.005040 
#    y -0.000170 1.744490 0.012230 
#    z -0.005040 0.012230 1.796570 
# 
# From -- ./inp_files/352351.got.cif
#   From: 2010.05.17/outbox.cif.g08.bks.cpg/sg2_177_cif.got.tgz:352351.got - 2010.06.03 11:33:40.
