data_PCOD9030687
_publ_section_title
;
Structure prediction by ZEFSAII (Michael W. Deem and Ramdas Pophale) SiO2 
 PCOD9030687
Probable space group: P -1
;
_chemical_formula_sum "Si O2"
_cell_formula_units_Z 16
_cell_length_a 9.655152
_cell_length_b 12.141636
_cell_length_c 9.186317
_cell_angle_alpha 100.082946
_cell_angle_beta 121.531179
_cell_angle_gamma 61.316557
_cell_volume 801.103224
_symmetry_space_group_name_H-M "P -1"
_symmetry_group_IT_number 2
_symmetry_cell_setting 'triclinic'
loop_
_space_group_symop_operation_xyz
x,y,z
-x,-y,-z
loop_
_atom_site_type_symbol
_atom_site_label
_atom_site_fract_x
_atom_site_fract_y
_atom_site_fract_z
Si Si1 0.253437 0.805708 0.223704
Si Si2 0.295017 0.545971 0.833038
Si Si3 0.347644 0.017258 0.304515
Si Si4 0.938926 0.162791 0.160834
Si Si5 0.525239 0.489160 0.683179
Si Si6 0.317932 0.120735 0.987442
Si Si7 0.199470 0.419574 0.007166
Si Si8 0.035426 0.047390 0.683404
O O1 0.360320 0.657627 0.247731
O O2 0.365635 0.878547 0.254623
O O3 0.088705 0.849432 0.028085
O O4 0.163727 0.857964 0.341163
O O5 0.171962 0.692820 0.828192
O O6 0.337672 0.531727 0.681096
O O7 0.204840 0.474390 0.860567
O O8 0.500000 0.500000 0.000000
O O9 0.331411 0.084913 0.157996
O O10 0.152945 0.101890 0.294122
O O11 0.500000 0.000000 0.500000
O O12 0.871804 0.077296 0.193241
O O13 0.500000 0.500000 0.500000
O O14 0.646552 0.556985 0.815851
O O15 0.271266 0.268853 0.997086
O O16 0.500000 0.000000 0.000000
O O17 0.159867 0.115404 0.797933
O O18 0.000000 0.500000 0.000000
O O19 0.000000 0.000000 0.500000
#
# Coordination Sequence:
#
# PCOD9030687 Si02
#       8
#     2   2   2   2   2   2   2   2
#     4  11  21  45  71  91 132 185 236 276 345 419
#     4  10  22  42  72  98 131 184 235 276 344 423
#     4  11  25  42  64  99 138 179 224 287 353 410
#     4  11  20  45  72  91 127 187 234 278 338 425
#     4  11  26  42  71 103 136 182 238 289 341 427
#     4  12  27  39  66 101 140 172 222 292 362 409
#     4  11  24  46  70  97 140 184 232 284 354 424
#     4  11  25  41  67  98 132 176 231 286 346 423
#
# _framework density 19.972459000000001
#
# number of rings (size 3 to 8) (size 9 to 14) (size 15 to 20)
#    0.000    1.000    5.000    2.250   12.250    0.000 
#    0.000    0.625    0.000    0.000    0.000    0.000 
#    0.000    0.000    0.000    0.000    0.000    0.000 
#
# Total GULP energy -89167.599693 kJ/mol
# GULP energy per Si atom -5572.974981 kJ/mol
# Density = 1.992700 g / cm^3
# Si number density = 19.972459 Si / 1000 Ang^3
#
#
#
# Elastic Constant Matrix: (Units=GPa)
#
#
# Indices 1 2 3 4 5 6 
#
# 1 104.2671 57.8669 41.7723 15.3657 -10.9102 5.4887
# 2 57.8669 183.4006 41.3901 25.9198 8.3906 20.8746
# 3 41.7723 41.3901 117.7732 16.6851 -4.0660 1.7671
# 4 15.3657 25.9198 16.6851 23.8906 -7.8315 0.0844
# 5 -10.9102 8.3906 -4.0660 -7.8315 34.6820 4.4672
# 6 5.4887 20.8746 1.7671 0.0844 4.4672 29.9585
#
#
#
# Elastic Compliance Matrix: (Units=1/GPa)
#
#
# Indices 1 2 3 4 5 6 
#
# 1 0.013507 -0.003525 -0.003229 -0.001119 0.004535 -0.000501
# 2 -0.003525 0.008587 -0.000720 -0.008000 -0.004484 -0.004604
# 3 -0.003229 -0.000720 0.010526 -0.004743 -0.000756 0.000598
# 4 -0.001119 -0.008000 -0.004743 0.059107 0.013882 0.003823
# 5 0.004535 -0.004484 -0.000756 0.013882 0.034763 -0.002884
# 6 -0.000501 -0.004604 0.000598 0.003823 -0.002884 0.037063
#
#
# Mechanical properties :
#
#
# Convention : Reuss Voigt Hill
#
# Bulk Modulus (GPa) = 56.58822 76.38883 66.48853
# Shear Modulus (GPa) = 27.11626 35.33365 31.22495
#
# Velocity S-wave (km/s) = 3.68867 4.21065 3.95828
# Velocity P-wave (km/s) = 6.82176 7.87208 7.36566
#
# Compressibility (1/GPa) = 0.01767152
#
# Stress axis : x y z
#
# Youngs Moduli (GPa) = 74.03755 116.45345 95.00170
#
# Poissons Ratio (x) = 0.41053 0.30677
# Poissons Ratio (y) = 0.26100 0.06839
# Poissons Ratio (z) = 0.23907 0.08383
#
# Static dielectric constant tensor:
#      x y z
#    x 1.895680 -0.020110 -0.011140 
#    y -0.020110 1.717140 0.031370 
#    z -0.011140 0.031370 1.751720 
# 
# From -- ./inp_files/189538.got.cif
#   From: 2010.05.17/outbox.cif.g08.bks.cpg/sg2_95_cif.got.tgz:189538.got - 2010.06.03 11:33:40.
