data_PCOD9030558
_publ_section_title
;
Structure prediction by ZEFSAII (Michael W. Deem and Ramdas Pophale) SiO2 
 PCOD9030558
Probable space group: P -1
;
_chemical_formula_sum "Si O2"
_cell_formula_units_Z 14
_cell_length_a 10.080907
_cell_length_b 17.432319
_cell_length_c 5.194819
_cell_angle_alpha 85.576715
_cell_angle_beta 62.368130
_cell_angle_gamma 60.565257
_cell_volume 690.799336
_symmetry_space_group_name_H-M "P -1"
_symmetry_group_IT_number 2
_symmetry_cell_setting 'triclinic'
loop_
_space_group_symop_operation_xyz
x,y,z
-x,-y,-z
loop_
_atom_site_type_symbol
_atom_site_label
_atom_site_fract_x
_atom_site_fract_y
_atom_site_fract_z
Si Si1 0.130154 0.153880 0.357741
Si Si2 0.253114 0.691972 0.452585
Si Si3 0.313935 0.085348 0.708537
Si Si4 0.973925 0.454390 0.783981
Si Si5 0.691182 0.483123 0.371020
Si Si6 0.517662 0.332152 0.244994
Si Si7 0.724042 0.745684 0.523924
O O1 0.175222 0.103177 0.602987
O O2 0.210819 0.218565 0.307984
O O3 0.926909 0.216292 0.463246
O O4 0.235878 0.085504 0.053272
O O5 0.208159 0.613388 0.557418
O O6 0.351115 0.696953 0.620267
O O7 0.381670 0.666003 0.099554
O O8 0.328130 0.174459 0.652128
O O9 0.500000 0.000000 0.500000
O O10 0.000000 0.500000 0.500000
O O11 0.109367 0.348491 0.686394
O O12 0.780318 0.474992 0.018407
O O13 0.000000 0.500000 0.000000
O O14 0.500000 0.500000 0.500000
O O15 0.647484 0.570443 0.551195
O O16 0.434565 0.270632 0.285555
#
# Coordination Sequence:
#
# PCOD9030558 Si02
#       7
#     2   2   2   2   2   2   2
#     4  10  23  39  69  93 124 160 217 261 331 383
#     4  11  24  41  62  90 131 176 219 260 320 383
#     4  10  22  42  71  99 122 158 215 274 327 392
#     4  12  27  39  61  91 134 171 218 272 314 372
#     4  10  24  40  60  85 131 180 229 258 314 374
#     4  11  24  39  61  90 131 173 220 270 316 374
#     4  10  26  38  68  92 131 164 221 263 335 363
#
# _framework density 20.266376999999999
#
# number of rings (size 3 to 8) (size 9 to 14) (size 15 to 20)
#    0.857    0.571    1.429    2.571   14.000    0.000 
#    0.000    0.000    0.000    5.143    0.000    0.000 
#    0.000    0.000    0.000    0.000    0.000    0.000 
#
# Total GULP energy -78108.138577 kJ/mol
# GULP energy per Si atom -5579.152755 kJ/mol
# Density = 2.022025 g / cm^3
# Si number density = 20.266377 Si / 1000 Ang^3
#
#
#
# Elastic Constant Matrix: (Units=GPa)
#
#
# Indices 1 2 3 4 5 6 
#
# 1 90.9688 11.4598 36.3788 1.3719 5.8770 -14.3384
# 2 11.4598 46.8555 15.6176 14.0438 2.8666 -11.5142
# 3 36.3788 15.6176 144.3318 1.3858 14.1560 2.1057
# 4 1.3719 14.0438 1.3858 35.0540 0.4198 -8.7358
# 5 5.8770 2.8666 14.1560 0.4198 32.9742 -1.4119
# 6 -14.3384 -11.5142 2.1057 -8.7358 -1.4119 20.7354
#
#
#
# Elastic Compliance Matrix: (Units=1/GPa)
#
#
# Indices 1 2 3 4 5 6 
#
# 1 0.014247 -0.000227 -0.003704 0.002452 -0.000485 0.011102
# 2 -0.000227 0.027817 -0.003009 -0.007969 -0.000462 0.012206
# 3 -0.003704 -0.003009 0.008563 -0.000307 -0.002983 -0.005434
# 4 0.002452 -0.007969 -0.000307 0.034599 0.000457 0.011909
# 5 -0.000485 -0.000462 -0.002983 0.000457 0.031817 0.002070
# 6 0.011102 0.012206 -0.005434 0.011909 0.002070 0.068392
#
#
# Mechanical properties :
#
#
# Convention : Reuss Voigt Hill
#
# Bulk Modulus (GPa) = 27.21385 45.45203 36.33294
# Shear Modulus (GPa) = 23.63358 32.33272 27.98315
#
# Velocity S-wave (km/s) = 3.41859 3.99856 3.71990
# Velocity P-wave (km/s) = 5.38884 6.61770 6.03463
#
# Compressibility (1/GPa) = 0.03674600
#
# Stress axis : x y z
#
# Youngs Moduli (GPa) = 70.19028 35.94910 116.78781
#
# Poissons Ratio (x) = 0.00816 0.43262
# Poissons Ratio (y) = 0.01593 0.35142
# Poissons Ratio (z) = 0.26001 0.10817
#
# Static dielectric constant tensor:
#      x y z
#    x 1.748660 -0.016720 0.024770 
#    y -0.016720 1.743800 -0.022170 
#    z 0.024770 -0.022170 1.707620 
# 
# From -- ./inp_files/79672.got.cif
#   From: 2010.05.17/outbox.cif.g08.bks.cpg/sg2_40_cif.got.tgz:79672.got - 2010.06.03 11:33:40.
