data_PCOD9030596
_publ_section_title
;
Structure prediction by ZEFSAII (Michael W. Deem and Ramdas Pophale) SiO2 
 PCOD9030596
Probable space group: P -1
;
_chemical_formula_sum "Si O2"
_cell_formula_units_Z 12
_cell_length_a 8.862748
_cell_length_b 8.953005
_cell_length_c 11.602089
_cell_angle_alpha 139.763547
_cell_angle_beta 82.491685
_cell_angle_gamma 104.675807
_cell_volume 572.351740
_symmetry_space_group_name_H-M "P -1"
_symmetry_group_IT_number 2
_symmetry_cell_setting 'triclinic'
loop_
_space_group_symop_operation_xyz
x,y,z
-x,-y,-z
loop_
_atom_site_type_symbol
_atom_site_label
_atom_site_fract_x
_atom_site_fract_y
_atom_site_fract_z
Si Si1 0.854836 0.272711 0.348373
Si Si2 0.674059 0.059290 0.458212
Si Si3 0.957145 0.133872 0.896327
Si Si4 0.112473 0.662887 0.203408
Si Si5 0.354415 0.469811 0.911545
Si Si6 0.667121 0.181372 0.077421
O O1 0.723988 0.218215 0.431747
O O2 0.757306 0.278179 0.243681
O O3 0.000000 0.500000 0.500000
O O4 0.935581 0.046855 0.193472
O O5 0.798940 0.185789 0.613730
O O6 0.500000 0.000000 0.500000
O O7 0.698852 0.805078 0.271734
O O8 0.958696 0.177194 0.783667
O O9 0.783117 0.052461 0.917913
O O10 0.008622 0.406014 0.101206
O O11 0.235151 0.577892 0.059529
O O12 0.371828 0.609002 0.872308
O O13 0.500000 0.500000 0.000000
O O14 0.500000 0.000000 0.000000
#
# Coordination Sequence:
#
# PCOD9030596 Si02
#       6
#     2   2   2   2   2   2
#     4  12  27  46  69 108 151 187 235 297 367 426
#     4  12  25  41  74 104 141 188 244 290 350 426
#     4  10  23  45  71  98 140 188 235 294 352 424
#     4  10  22  42  72 102 131 184 245 289 342 412
#     4  11  22  44  71 102 140 185 241 298 345 422
#     4  11  26  44  72 102 143 191 233 294 373 421
#
# _framework density 20.966127
#
# number of rings (size 3 to 8) (size 9 to 14) (size 15 to 20)
#    0.000    1.000    3.333    2.500    4.667    2.000 
#    0.000    1.667    0.000    0.000    0.000    0.000 
#    0.000    0.000    0.000    0.000    0.000    0.000 
#
# Total GULP energy -66946.306976 kJ/mol
# GULP energy per Si atom -5578.858915 kJ/mol
# Density = 2.091841 g / cm^3
# Si number density = 20.966127 Si / 1000 Ang^3
#
#
#
# Elastic Constant Matrix: (Units=GPa)
#
#
# Indices 1 2 3 4 5 6 
#
# 1 134.4787 73.9280 39.5682 -9.3805 21.6328 -0.0546
# 2 73.9280 144.6902 56.8041 -9.1421 24.5158 -0.3813
# 3 39.5682 56.8041 121.9169 -9.2372 34.6874 -12.7335
# 4 -9.3805 -9.1421 -9.2372 30.2164 -3.8621 3.8096
# 5 21.6328 24.5158 34.6874 -3.8621 34.1477 -6.5105
# 6 -0.0546 -0.3813 -12.7335 3.8096 -6.5105 47.4759
#
#
#
# Elastic Compliance Matrix: (Units=1/GPa)
#
#
# Indices 1 2 3 4 5 6 
#
# 1 0.010735 -0.004738 -0.000390 0.001484 -0.002960 -0.000655
# 2 -0.004738 0.010892 -0.003073 0.000787 -0.001808 -0.001053
# 3 -0.000390 -0.003073 0.012968 0.001365 -0.010194 0.001946
# 4 0.001484 0.000787 0.001365 0.034577 0.000576 -0.002321
# 5 -0.002960 -0.001808 -0.010194 0.000576 0.043481 0.003164
# 6 -0.000655 -0.001053 0.001946 -0.002321 0.003164 0.022196
#
#
# Mechanical properties :
#
#
# Convention : Reuss Voigt Hill
#
# Bulk Modulus (GPa) = 54.97006 82.40960 68.68983
# Shear Modulus (GPa) = 31.78308 37.75369 34.76838
#
# Velocity S-wave (km/s) = 3.89771 4.24807 4.07666
# Velocity P-wave (km/s) = 6.82141 7.96573 7.41568
#
# Compressibility (1/GPa) = 0.01819172
#
# Stress axis : x y z
#
# Youngs Moduli (GPa) = 93.15220 91.81032 77.11450
#
# Poissons Ratio (x) = 0.43502 0.03010
# Poissons Ratio (y) = 0.44138 0.23697
# Poissons Ratio (z) = 0.03636 0.28213
#
# Static dielectric constant tensor:
#      x y z
#    x 1.726580 0.079810 0.019750 
#    y 0.079810 1.833900 0.013100 
#    z 0.019750 0.013100 1.739500 
# 
# From -- ./inp_files/161645.got.cif
#   From: 2010.05.17/outbox.cif.g08.bks.cpg/sg2_81_cif.got.tgz:161645.got - 2010.06.03 11:33:40.
