data_PCOD9030594
_publ_section_title
;
Structure prediction by ZEFSAII (Michael W. Deem and Ramdas Pophale) SiO2 
 PCOD9030594
Probable space group: P -1
;
_chemical_formula_sum "Si O2"
_cell_formula_units_Z 15
_cell_length_a 21.766113
_cell_length_b 18.789946
_cell_length_c 17.878034
_cell_angle_alpha 152.876874
_cell_angle_beta 163.692164
_cell_angle_gamma 17.650558
_cell_volume 596.083099
_symmetry_space_group_name_H-M "P -1"
_symmetry_group_IT_number 2
_symmetry_cell_setting 'triclinic'
loop_
_space_group_symop_operation_xyz
x,y,z
-x,-y,-z
loop_
_atom_site_type_symbol
_atom_site_label
_atom_site_fract_x
_atom_site_fract_y
_atom_site_fract_z
Si Si1 0.147546 0.581339 0.308623
Si Si2 0.801391 0.024928 0.901559
Si Si3 0.434408 0.833384 0.093638
Si Si4 0.258853 0.914308 0.548506
Si Si5 0.679432 0.501663 0.935408
Si Si6 0.000000 0.000000 0.500000
Si Si7 0.142847 0.339892 0.812744
Si Si8 0.576930 0.104166 0.545149
O O1 0.998594 0.809451 0.304128
O O2 0.881709 0.642062 0.109575
O O3 0.390629 0.342261 0.318474
O O4 0.399114 0.526623 0.612415
O O5 0.967809 0.784787 0.913757
O O6 0.530601 0.235067 0.842528
O O7 0.665991 0.049663 0.686143
O O8 0.106878 0.978710 0.200920
O O9 0.641143 0.611629 0.071004
O O10 0.539939 0.955501 0.325005
O O11 0.043319 0.013975 0.780639
O O12 0.164208 0.943116 0.552031
O O13 0.222500 0.118667 0.678183
O O14 0.607772 0.668244 0.941564
O O15 0.775555 0.604575 0.601827
#
# Coordination Sequence:
#
# PCOD9030594 Si02
#       8
#     2   2   2   2   2   1   2   2
#     4  11  22  45  67  96 131 170 214 268 326 393
#     4  11  24  44  62  96 133 173 222 278 309 387
#     4  12  23  40  67  93 128 181 211 268 325 382
#     4  11  22  43  71  95 134 170 216 260 337 380
#     4  12  24  39  67  94 133 172 225 261 326 380
#     4  10  22  42  72 102 128 164 212 274 324 394
#     4  11  23  40  64  98 130 175 213 269 312 394
#     4  11  23  43  66  93 136 170 225 269 324 369
#
# _framework density 25.164276000000001
#
# number of rings (size 3 to 8) (size 9 to 14) (size 15 to 20)
#    0.000    0.800    6.667    0.800    3.733    0.533 
#    0.000    4.667    0.000    8.000    0.000    0.000 
#    0.000    0.000    0.000    0.000    0.000    0.000 
#
# Total GULP energy -83800.575316 kJ/mol
# GULP energy per Si atom -5586.705021 kJ/mol
# Density = 2.510700 g / cm^3
# Si number density = 25.164276 Si / 1000 Ang^3
#
#
#
# Elastic Constant Matrix: (Units=GPa)
#
#
# Indices 1 2 3 4 5 6 
#
# 1 139.8633 50.0081 39.7369 45.4696 13.5514 -5.9192
# 2 50.0081 105.4014 36.2776 33.0689 -6.6001 -16.5508
# 3 39.7369 36.2776 116.1210 36.2278 -5.3916 -11.3055
# 4 45.4696 33.0689 36.2278 29.1715 -6.8739 -4.8373
# 5 13.5514 -6.6001 -5.3916 -6.8739 38.9053 4.7042
# 6 -5.9192 -16.5508 -11.3055 -4.8373 4.7042 55.2610
#
#
#
# Elastic Compliance Matrix: (Units=1/GPa)
#
#
# Indices 1 2 3 4 5 6 
#
# 1 0.020887 0.001310 0.005715 -0.044302 -0.014225 0.001132
# 2 0.001310 0.015456 0.001681 -0.021516 -0.001812 0.003384
# 3 0.005715 0.001681 0.015905 -0.031474 -0.005312 0.002067
# 4 -0.044302 -0.021516 -0.031474 0.175076 0.039033 -0.005626
# 5 -0.014225 -0.001812 -0.005312 0.039033 0.036859 -0.002874
# 6 0.001132 0.003384 0.002067 -0.005626 -0.002874 0.019406
#
#
# Mechanical properties :
#
#
# Convention : Reuss Voigt Hill
#
# Bulk Modulus (GPa) = 14.35579 68.15901 41.25740
# Shear Modulus (GPa) = 17.27728 40.35844 28.81786
#
# Velocity S-wave (km/s) = 2.62311 4.00909 3.38774
# Velocity P-wave (km/s) = 3.85895 6.96956 5.63322
#
# Compressibility (1/GPa) = 0.06965828
#
# Stress axis : x y z
#
# Youngs Moduli (GPa) = 47.87693 64.70030 62.87358
#
# Poissons Ratio (x) = -0.08474 -0.35929
# Poissons Ratio (y) = -0.06270 -0.10570
# Poissons Ratio (z) = -0.27359 -0.10877
#
# Static dielectric constant tensor:
#      x y z
#    x 1.974070 0.002870 0.035920 
#    y 0.002870 1.857230 0.060860 
#    z 0.035920 0.060860 1.891070 
# 
# From -- ./inp_files/578382.got.cif
#   From: 2010.05.17/outbox.cif.g08.bks.cpg/sg2_290_cif.got.tgz:578382.got - 2010.06.03 11:33:40.
