data_PCOD9030814
_publ_section_title
;
Structure prediction by ZEFSAII (Michael W. Deem and Ramdas Pophale) SiO2 
 PCOD9030814
Probable space group: P -1
;
_chemical_formula_sum "Si O2"
_cell_formula_units_Z 15
_cell_length_a 5.244366
_cell_length_b 19.381259
_cell_length_c 6.678961
_cell_angle_alpha 63.587284
_cell_angle_beta 102.079644
_cell_angle_gamma 110.046872
_cell_volume 569.861275
_symmetry_space_group_name_H-M "P -1"
_symmetry_group_IT_number 2
_symmetry_cell_setting 'triclinic'
loop_
_space_group_symop_operation_xyz
x,y,z
-x,-y,-z
loop_
_atom_site_type_symbol
_atom_site_label
_atom_site_fract_x
_atom_site_fract_y
_atom_site_fract_z
Si Si1 0.500000 0.500000 0.500000
Si Si2 0.271076 0.372812 0.830165
Si Si3 0.840597 0.831607 0.390508
Si Si4 0.919140 0.299213 0.234448
Si Si5 0.158479 0.607756 0.529476
Si Si6 0.737778 0.925116 0.597913
Si Si7 0.451942 0.749044 0.115591
Si Si8 0.677200 0.018415 0.808200
O O1 0.557871 0.440206 0.775788
O O2 0.340667 0.551156 0.579731
O O3 0.312615 0.289221 0.870350
O O4 0.166367 0.419369 0.555872
O O5 0.132900 0.356467 0.043305
O O6 0.956586 0.755741 0.530240
O O7 0.039245 0.912733 0.223584
O O8 0.792151 0.851254 0.588310
O O9 0.575106 0.808882 0.238455
O O10 0.802731 0.353288 0.296162
O O11 0.701170 0.239067 0.127439
O O12 0.232262 0.679358 0.286213
O O13 0.486517 0.941020 0.422502
O O14 0.000000 0.000000 0.500000
O O15 0.694502 0.937093 0.807434
O O16 0.500000 0.000000 0.000000
#
# Coordination Sequence:
#
# PCOD9030814 Si02
#       8
#     1   2   2   2   2   2   2   2
#     4  10  22  42  74  98 140 192 224 286 342 402
#     4  10  22  44  66 102 140 177 233 281 337 411
#     4  11  24  46  72 100 142 180 223 290 349 401
#     4  11  25  43  70 105 138 177 230 289 341 410
#     4  10  22  44  68  98 146 174 235 290 329 414
#     4   9  22  46  67  97 136 176 224 280 338 411
#     4  10  24  44  66 103 139 179 226 288 345 407
#     4  10  23  48  69 100 135 178 232 279 337 417
#
# _framework density 26.322196999999999
#
# number of rings (size 3 to 8) (size 9 to 14) (size 15 to 20)
#    0.000    1.867    1.333    0.400    3.733    2.667 
#   19.200    6.667    0.000    0.000    0.000    0.000 
#    0.000    0.000    0.000    0.000    0.000    0.000 
#
# Total GULP energy -83639.775585 kJ/mol
# GULP energy per Si atom -5575.985039 kJ/mol
# Density = 2.626229 g / cm^3
# Si number density = 26.322197 Si / 1000 Ang^3
#
#
#
# Elastic Constant Matrix: (Units=GPa)
#
#
# Indices 1 2 3 4 5 6 
#
# 1 101.7943 37.0625 41.9790 24.4753 -20.0489 -19.3526
# 2 37.0625 99.4606 50.2634 21.3695 -13.2707 -9.8038
# 3 41.9790 50.2634 152.4124 12.6177 -19.6053 0.5560
# 4 24.4753 21.3695 12.6177 25.3946 -0.4992 -2.3595
# 5 -20.0489 -13.2707 -19.6053 -0.4992 60.2357 14.6557
# 6 -19.3526 -9.8038 0.5560 -2.3595 14.6557 48.1753
#
#
#
# Elastic Compliance Matrix: (Units=1/GPa)
#
#
# Indices 1 2 3 4 5 6 
#
# 1 0.015740 -0.001005 -0.002605 -0.012541 0.002937 0.004641
# 2 -0.001005 0.014596 -0.003618 -0.009327 0.001191 0.001789
# 3 -0.002605 -0.003618 0.008611 0.001092 0.001720 -0.002352
# 4 -0.012541 -0.009327 0.001092 0.058433 -0.004746 -0.002643
# 5 0.002937 0.001191 0.001720 -0.004746 0.019522 -0.004769
# 6 0.004641 0.001789 -0.002352 -0.002643 -0.004769 0.024335
#
#
# Mechanical properties :
#
#
# Convention : Reuss Voigt Hill
#
# Bulk Modulus (GPa) = 40.83013 68.03079 54.43046
# Shear Modulus (GPa) = 30.51450 41.71862 36.11656
#
# Velocity S-wave (km/s) = 3.40850 3.98543 3.70820
# Velocity P-wave (km/s) = 5.57098 6.86146 6.24962
#
# Compressibility (1/GPa) = 0.02449172
#
# Stress axis : x y z
#
# Youngs Moduli (GPa) = 63.53274 68.51035 116.12825
#
# Poissons Ratio (x) = 0.06886 0.30248
# Poissons Ratio (y) = 0.06386 0.42015
# Poissons Ratio (z) = 0.16549 0.24787
#
# Static dielectric constant tensor:
#      x y z
#    x 2.070560 0.061360 0.073130 
#    y 0.061360 2.139970 0.004200 
#    z 0.073130 0.004200 2.086250 
# 
# From -- ./inp_files/10448.got.cif
#   From: 2010.05.17/outbox.cif.g08.bks.cpg/sg2_6_cif.got.tgz:10448.got - 2010.06.03 11:33:40.
