data_PCOD9030391
_publ_section_title
;
Structure prediction by ZEFSAII (Michael W. Deem and Ramdas Pophale) SiO2 
 PCOD9030391
Probable space group: P -1
;
_chemical_formula_sum "Si O2"
_cell_formula_units_Z 12
_cell_length_a 16.212378
_cell_length_b 10.879016
_cell_length_c 10.612980
_cell_angle_alpha 143.696392
_cell_angle_beta 32.429966
_cell_angle_gamma 144.342965
_cell_volume 540.262849
_symmetry_space_group_name_H-M "P -1"
_symmetry_group_IT_number 2
_symmetry_cell_setting 'triclinic'
loop_
_space_group_symop_operation_xyz
x,y,z
-x,-y,-z
loop_
_atom_site_type_symbol
_atom_site_label
_atom_site_fract_x
_atom_site_fract_y
_atom_site_fract_z
Si Si1 0.906615 0.099554 0.106289
Si Si2 0.628838 0.646835 0.064377
Si Si3 0.904837 0.562539 0.494208
Si Si4 0.148624 0.065687 0.565204
Si Si5 0.524775 0.673923 0.498723
Si Si6 0.825867 0.515898 0.277861
O O1 0.936647 0.348179 0.317958
O O2 0.009963 0.125370 0.866695
O O3 0.711111 0.925698 0.191306
O O4 0.000000 0.000000 0.000000
O O5 0.794902 0.610987 0.782159
O O6 0.500000 0.500000 0.000000
O O7 0.563964 0.588110 0.242591
O O8 0.803031 0.484859 0.430715
O O9 0.060922 0.793766 0.439355
O O10 0.308723 0.116963 0.492928
O O11 0.182574 0.242340 0.550956
O O12 0.500000 0.500000 0.500000
O O13 0.342856 0.681654 0.727619
O O14 0.000000 0.500000 0.000000
#
# Coordination Sequence:
#
# PCOD9030391 Si02
#       6
#     2   2   2   2   2   2
#     4  11  23  43  66  99 142 177 224 285 337 407
#     4  11  23  43  68 103 131 176 229 281 340 401
#     4  11  24  41  72 101 133 184 227 283 337 406
#     4  10  22  42  70  97 136 182 226 274 342 406
#     4  10  22  44  69  97 142 174 223 290 333 405
#     4  11  21  42  72  98 140 181 225 281 344 398
#
# _framework density 22.211411999999999
#
# number of rings (size 3 to 8) (size 9 to 14) (size 15 to 20)
#    0.000    1.333    5.000    0.500    0.000    3.333 
#    0.000    0.833    3.667    0.000    0.000    0.000 
#    0.000    0.000    0.000    0.000    0.000    0.000 
#
# Total GULP energy -66868.219671 kJ/mol
# GULP energy per Si atom -5572.351639 kJ/mol
# Density = 2.216086 g / cm^3
# Si number density = 22.211412 Si / 1000 Ang^3
#
#
#
# Elastic Constant Matrix: (Units=GPa)
#
#
# Indices 1 2 3 4 5 6 
#
# 1 126.5586 41.1851 28.8303 -4.3802 -13.8062 13.5980
# 2 41.1851 99.3235 30.4086 9.9455 -24.3470 13.9019
# 3 28.8303 30.4086 65.5750 0.8560 -2.3616 -10.2408
# 4 -4.3802 9.9455 0.8560 45.2241 -8.6477 1.6751
# 5 -13.8062 -24.3470 -2.3616 -8.6477 20.2903 -8.3377
# 6 13.5980 13.9019 -10.2408 1.6751 -8.3377 50.3451
#
#
#
# Elastic Compliance Matrix: (Units=1/GPa)
#
#
# Indices 1 2 3 4 5 6 
#
# 1 0.010203 -0.001923 -0.003846 0.002379 0.004221 -0.002387
# 2 -0.001923 0.017965 -0.007288 -0.000447 0.018007 -0.002927
# 3 -0.003846 -0.007288 0.021069 -0.000666 -0.006621 0.006263
# 4 0.002379 -0.000447 -0.000666 0.024676 0.011712 0.000464
# 5 0.004221 0.018007 -0.006621 0.011712 0.080219 0.005436
# 6 -0.002387 -0.002927 0.006263 0.000464 0.005436 0.023475
#
#
# Mechanical properties :
#
#
# Convention : Reuss Voigt Hill
#
# Bulk Modulus (GPa) = 43.24761 54.70057 48.97409
# Shear Modulus (GPa) = 23.64885 35.90745 29.77815
#
# Velocity S-wave (km/s) = 3.26654 4.02509 3.66549
# Velocity P-wave (km/s) = 5.80863 6.80312 6.32545
#
# Compressibility (1/GPa) = 0.02312267
#
# Stress axis : x y z
#
# Youngs Moduli (GPa) = 98.01513 55.66298 47.46391
#
# Poissons Ratio (x) = 0.10702 0.18254
# Poissons Ratio (y) = 0.18845 0.34593
# Poissons Ratio (z) = 0.37696 0.40569
#
# Static dielectric constant tensor:
#      x y z
#    x 1.862850 0.035620 -0.008370 
#    y 0.035620 1.960590 -0.014490 
#    z -0.008370 -0.014490 1.822080 
# 
# From -- ./inp_files/118408.got.cif
#   From: 2010.05.17/outbox.cif.g08.bks.cpg/sg2_60_cif.got.tgz:118408.got - 2010.06.03 11:33:40.
