data_PCOD9030295
_publ_section_title
;
Structure prediction by ZEFSAII (Michael W. Deem and Ramdas Pophale) SiO2 
 PCOD9030295
Probable space group: P -1
;
_chemical_formula_sum "Si O2"
_cell_formula_units_Z 15
_cell_length_a 9.160970
_cell_length_b 16.939452
_cell_length_c 5.178038
_cell_angle_alpha 128.327660
_cell_angle_beta 92.664675
_cell_angle_gamma 78.286057
_cell_volume 613.920697
_symmetry_space_group_name_H-M "P -1"
_symmetry_group_IT_number 2
_symmetry_cell_setting 'triclinic'
loop_
_space_group_symop_operation_xyz
x,y,z
-x,-y,-z
loop_
_atom_site_type_symbol
_atom_site_label
_atom_site_fract_x
_atom_site_fract_y
_atom_site_fract_z
Si Si1 0.217045 0.784142 0.729494
Si Si2 0.277384 0.294758 0.025107
Si Si3 0.500000 0.500000 0.000000
Si Si4 0.014344 0.332175 0.712859
Si Si5 0.803875 0.526915 0.281206
Si Si6 0.694902 0.014931 0.782965
Si Si7 0.342963 0.107375 0.979811
Si Si8 0.598092 0.298381 0.923269
O O1 0.299389 0.764452 0.419147
O O2 0.067470 0.742492 0.602802
O O3 0.323243 0.717418 0.822012
O O4 0.200792 0.903201 0.039204
O O5 0.242776 0.416234 0.337177
O O6 0.145621 0.277030 0.798638
O O7 0.285902 0.226715 0.146801
O O8 0.442910 0.261064 0.853251
O O9 0.652993 0.544360 0.137255
O O10 0.438948 0.583745 0.932618
O O11 0.080433 0.408744 0.691538
O O12 0.888974 0.408061 0.032662
O O13 0.698574 0.957188 0.396110
O O14 0.524316 0.081034 0.947962
O O15 0.719402 0.934165 0.853816
#
# Coordination Sequence:
#
# PCOD9030295 Si02
#       8
#     2   2   1   2   2   2   2   2
#     4  12  26  49  72 108 147 193 239 300 363 437
#     4  12  26  45  74 105 147 193 245 295 368 434
#     4  12  24  46  72 112 140 186 254 298 344 420
#     4  11  27  47  70 103 151 194 239 291 373 433
#     4  11  26  46  70 106 144 196 237 306 350 435
#     4  10  22  42  70 108 141 181 238 310 359 419
#     4  10  23  40  74 104 142 180 243 303 363 420
#     4  12  27  44  75 106 146 188 250 294 353 427
#
# _framework density 24.433125
#
# number of rings (size 3 to 8) (size 9 to 14) (size 15 to 20)
#    0.000    0.800    4.000    2.000    7.467    4.267 
#    0.000    1.333    0.000    0.000    0.000    0.000 
#    0.000    0.000    0.000    0.000    0.000    0.000 
#
# Total GULP energy -83827.285076 kJ/mol
# GULP energy per Si atom -5588.485672 kJ/mol
# Density = 2.437751 g / cm^3
# Si number density = 24.433125 Si / 1000 Ang^3
#
#
#
# Elastic Constant Matrix: (Units=GPa)
#
#
# Indices 1 2 3 4 5 6 
#
# 1 121.0660 15.1828 47.6732 -14.0317 40.7034 5.1562
# 2 15.1828 106.6921 17.1922 -10.6065 20.1601 3.8861
# 3 47.6732 17.1922 97.1527 4.1990 21.8568 5.2027
# 4 -14.0317 -10.6065 4.1990 37.6057 -1.0484 9.7413
# 5 40.7034 20.1601 21.8568 -1.0484 44.3527 0.2780
# 6 5.1562 3.8861 5.2027 9.7413 0.2780 29.9709
#
#
#
# Elastic Compliance Matrix: (Units=1/GPa)
#
#
# Indices 1 2 3 4 5 6 
#
# 1 0.015145 0.001845 -0.005156 0.007523 -0.011992 -0.004284
# 2 0.001845 0.011021 -0.001595 0.004565 -0.005791 -0.002900
# 3 -0.005156 -0.001595 0.013572 -0.003934 -0.001324 0.000029
# 4 0.007523 0.004565 -0.003934 0.034123 -0.006157 -0.012237
# 5 -0.011992 -0.005791 -0.001324 -0.006157 0.036662 0.004705
# 6 -0.004284 -0.002900 0.000029 -0.012237 0.004705 0.038407
#
#
# Mechanical properties :
#
#
# Convention : Reuss Voigt Hill
#
# Bulk Modulus (GPa) = 33.41533 53.88969 43.65251
# Shear Modulus (GPa) = 29.63537 38.71005 34.17271
#
# Velocity S-wave (km/s) = 3.48648 3.98468 3.74387
# Velocity P-wave (km/s) = 5.46930 6.57830 6.04927
#
# Compressibility (1/GPa) = 0.02992639
#
# Stress axis : x y z
#
# Youngs Moduli (GPa) = 66.02803 90.73757 73.68164
#
# Poissons Ratio (x) = -0.16745 0.37991
# Poissons Ratio (y) = -0.12185 0.11752
# Poissons Ratio (z) = 0.34045 0.14473
#
# Static dielectric constant tensor:
#      x y z
#    x 1.973580 0.008510 -0.048210 
#    y 0.008510 1.917740 0.024640 
#    z -0.048210 0.024640 1.970670 
# 
# From -- ./inp_files/46034.got.cif
#   From: 2010.05.17/outbox.cif.g08.bks.cpg/sg2_24_cif.got.tgz:46034.got - 2010.06.03 11:33:40.
