data_PCOD9030149
_publ_section_title
;
Structure prediction by ZEFSAII (Michael W. Deem and Ramdas Pophale) SiO2 
 PCOD9030149
Probable space group: P -1
;
_chemical_formula_sum "Si O2"
_cell_formula_units_Z 16
_cell_length_a 11.375152
_cell_length_b 20.009946
_cell_length_c 19.331738
_cell_angle_alpha 20.840341
_cell_angle_beta 141.448160
_cell_angle_gamma 150.380585
_cell_volume 762.042013
_symmetry_space_group_name_H-M "P -1"
_symmetry_group_IT_number 2
_symmetry_cell_setting 'triclinic'
loop_
_space_group_symop_operation_xyz
x,y,z
-x,-y,-z
loop_
_atom_site_type_symbol
_atom_site_label
_atom_site_fract_x
_atom_site_fract_y
_atom_site_fract_z
Si Si1 0.005284 0.153936 0.535522
Si Si2 0.151418 0.539002 0.465094
Si Si3 0.268394 0.175306 0.883651
Si Si4 0.287551 0.189084 0.038947
Si Si5 0.556917 0.842810 0.262855
Si Si6 0.700535 0.331265 0.831338
Si Si7 0.533838 0.646107 0.804007
Si Si8 0.231572 0.817832 0.470714
O O1 0.264264 0.218244 0.586100
O O2 0.066192 0.402921 0.296692
O O3 0.911212 0.138933 0.583716
O O4 0.802710 0.883921 0.677527
O O5 0.238564 0.380855 0.668706
O O6 0.390174 0.788113 0.305131
O O7 0.000000 0.500000 0.500000
O O8 0.959176 0.419787 0.430683
O O9 0.472362 0.242369 0.859543
O O10 0.330280 0.168071 0.998517
O O11 0.999999 0.939617 0.967116
O O12 0.345094 0.038522 0.256118
O O13 0.428219 0.451531 0.882356
O O14 0.382826 0.688033 0.267658
O O15 0.724420 0.123207 0.049693
O O16 0.398288 0.763951 0.634635
O O17 0.500000 0.500000 0.000000
#
# Coordination Sequence:
#
# PCOD9030149 Si02
#       8
#     2   2   2   2   2   2   2   2
#     4  12  24  43  63  93 136 173 221 273 323 404
#     4  11  22  39  69 103 136 168 221 283 338 395
#     4  10  22  42  69  99 136 171 219 283 335 392
#     4  10  23  42  65 101 135 170 226 276 333 392
#     4  11  24  39  64 100 133 176 216 281 338 390
#     4  11  24  39  65  96 134 174 222 269 343 393
#     4  12  27  41  69  99 135 179 226 275 328 396
#     4  11  24  41  66  97 132 174 223 276 329 387
#
# _framework density 20.996219
#
# number of rings (size 3 to 8) (size 9 to 14) (size 15 to 20)
#    0.000    1.000    3.750    3.000    8.750    0.000 
#    0.000    0.625    0.000    1.500    0.000    0.000 
#    0.000    0.000    0.000    0.000    0.000    0.000 
#
# Total GULP energy -89293.146715 kJ/mol
# GULP energy per Si atom -5580.821670 kJ/mol
# Density = 2.094843 g / cm^3
# Si number density = 20.996219 Si / 1000 Ang^3
#
#
#
# Elastic Constant Matrix: (Units=GPa)
#
#
# Indices 1 2 3 4 5 6 
#
# 1 106.4269 30.5686 12.0695 0.8920 -11.2208 -2.3616
# 2 30.5686 61.1082 51.9164 -18.8481 -6.5482 -11.2567
# 3 12.0695 51.9164 117.9362 -24.8934 -2.9777 -1.0846
# 4 0.8920 -18.8481 -24.8934 42.3931 4.3142 5.0573
# 5 -11.2208 -6.5482 -2.9777 4.3142 30.0531 -3.1110
# 6 -2.3616 -11.2567 -1.0846 5.0573 -3.1110 18.8072
#
#
#
# Elastic Compliance Matrix: (Units=1/GPa)
#
#
# Indices 1 2 3 4 5 6 
#
# 1 0.011963 -0.008765 0.002063 -0.002957 0.002943 -0.002343
# 2 -0.008765 0.039838 -0.015045 0.006008 0.005241 0.021127
# 3 0.002063 -0.015045 0.015534 0.003745 -0.002466 -0.009265
# 4 -0.002957 0.006008 0.003745 0.029571 -0.004208 -0.005207
# 5 0.002943 0.005241 -0.002466 -0.004208 0.036974 0.010612
# 6 -0.002343 0.021127 -0.009265 -0.005207 0.010612 0.068143
#
#
# Mechanical properties :
#
#
# Convention : Reuss Voigt Hill
#
# Bulk Modulus (GPa) = 41.94675 52.73113 47.33894
# Shear Modulus (GPa) = 19.72664 30.97846 25.35255
#
# Velocity S-wave (km/s) = 3.06851 3.84530 3.47865
# Velocity P-wave (km/s) = 5.70753 6.69957 6.22335
#
# Compressibility (1/GPa) = 0.02383975
#
# Stress axis : x y z
#
# Youngs Moduli (GPa) = 83.59198 25.10184 64.37442
#
# Poissons Ratio (x) = 0.22002 -0.13279
# Poissons Ratio (y) = 0.73270 0.96852
# Poissons Ratio (z) = -0.17243 0.37766
#
# Static dielectric constant tensor:
#      x y z
#    x 1.737520 -0.000970 -0.019440 
#    y -0.000970 1.775810 -0.010620 
#    z -0.019440 -0.010620 1.841350 
# 
# From -- ./inp_files/596225.got.cif
#   From: 2010.05.17/outbox.cif.g08.bks.cpg/sg2_299_cif.got.tgz:596225.got - 2010.06.03 11:33:40.
