data_PCOD9030413
_publ_section_title
;
Structure prediction by ZEFSAII (Michael W. Deem and Ramdas Pophale) SiO2 
 PCOD9030413
Probable space group: P -1
;
_chemical_formula_sum "Si O2"
_cell_formula_units_Z 15
_cell_length_a 8.295469
_cell_length_b 13.556905
_cell_length_c 6.914129
_cell_angle_alpha 116.368776
_cell_angle_beta 102.984657
_cell_angle_gamma 103.308706
_cell_volume 628.491103
_symmetry_space_group_name_H-M "P -1"
_symmetry_group_IT_number 2
_symmetry_cell_setting 'triclinic'
loop_
_space_group_symop_operation_xyz
x,y,z
-x,-y,-z
loop_
_atom_site_type_symbol
_atom_site_label
_atom_site_fract_x
_atom_site_fract_y
_atom_site_fract_z
Si Si1 0.471085 0.896079 0.249194
Si Si2 0.402517 0.368211 0.598984
Si Si3 0.693595 0.266878 0.603604
Si Si4 0.098169 0.293431 0.146634
Si Si5 0.263921 0.429482 0.965848
Si Si6 0.000000 0.500000 0.000000
Si Si7 0.857491 0.932764 0.238190
Si Si8 0.208821 0.869145 0.822126
O O1 0.340931 0.781615 0.229937
O O2 0.658182 0.889614 0.234227
O O3 0.500000 0.000000 0.500000
O O4 0.372972 0.917479 0.054275
O O5 0.512347 0.285661 0.515128
O O6 0.273327 0.359659 0.379911
O O7 0.552968 0.496904 0.810415
O O8 0.288600 0.338176 0.742199
O O9 0.858543 0.389734 0.735076
O O10 0.731449 0.173198 0.395980
O O11 0.103608 0.380904 0.043451
O O12 0.936096 0.242415 0.204431
O O13 0.110421 0.178799 0.941798
O O14 0.177722 0.511591 0.910845
O O15 0.867479 0.030638 0.164021
O O16 0.000000 0.000000 0.500000
#
# Coordination Sequence:
#
# PCOD9030413 Si02
#       8
#     2   2   2   2   2   1   2   2
#     4  12  25  45  73  97 140 183 232 287 340 414
#     4  10  23  42  71 101 136 182 222 294 335 416
#     4  11  24  44  71 100 141 181 235 277 356 400
#     4  12  25  41  70  96 142 175 233 278 351 409
#     4  10  22  44  67 101 135 176 231 279 350 405
#     4  10  22  42  70  98 136 178 222 286 338 416
#     4  12  28  46  69 102 138 185 233 289 348 410
#     4  12  27  45  68 103 140 184 231 287 346 413
#
# _framework density 23.866686000000001
#
# number of rings (size 3 to 8) (size 9 to 14) (size 15 to 20)
#    0.000    0.800    1.333    5.200    7.467    0.000 
#    0.000   16.000    0.000    0.000    0.000    0.000 
#    0.000    0.000    0.000    0.000    0.000    0.000 
#
# Total GULP energy -83714.305142 kJ/mol
# GULP energy per Si atom -5580.953676 kJ/mol
# Density = 2.381236 g / cm^3
# Si number density = 23.866686 Si / 1000 Ang^3
#
#
#
# Elastic Constant Matrix: (Units=GPa)
#
#
# Indices 1 2 3 4 5 6 
#
# 1 95.9574 7.8494 42.3788 -9.6315 9.4805 9.3268
# 2 7.8494 93.3286 19.5264 -11.4638 -4.5945 16.6016
# 3 42.3788 19.5264 79.7887 -2.9217 12.8963 4.8526
# 4 -9.6315 -11.4638 -2.9217 38.4402 -2.2502 -7.3851
# 5 9.4805 -4.5945 12.8963 -2.2502 41.8433 -2.9540
# 6 9.3268 16.6016 4.8526 -7.3851 -2.9540 35.0136
#
#
#
# Elastic Compliance Matrix: (Units=1/GPa)
#
#
# Indices 1 2 3 4 5 6 
#
# 1 0.014246 0.001153 -0.007439 0.002760 -0.000858 -0.002801
# 2 0.001153 0.012745 -0.003650 0.002964 0.002066 -0.005045
# 3 -0.007439 -0.003650 0.017982 -0.001745 -0.004317 0.000488
# 4 0.002760 0.002964 -0.001745 0.028398 0.002066 0.004265
# 5 -0.000858 0.002066 -0.004317 0.002066 0.025936 0.002471
# 6 -0.002801 -0.005045 0.000488 0.004265 0.002471 0.032739
#
#
# Mechanical properties :
#
#
# Convention : Reuss Voigt Hill
#
# Bulk Modulus (GPa) = 39.83911 45.39822 42.61866
# Shear Modulus (GPa) = 31.19468 36.34742 33.77105
#
# Velocity S-wave (km/s) = 3.61922 3.90671 3.76571
# Velocity P-wave (km/s) = 5.84753 6.27796 6.06656
#
# Compressibility (1/GPa) = 0.02510096
#
# Stress axis : x y z
#
# Youngs Moduli (GPa) = 70.19365 78.46395 55.61226
#
# Poissons Ratio (x) = -0.09049 0.41370
# Poissons Ratio (y) = -0.08095 0.20299
# Poissons Ratio (z) = 0.52217 0.28640
#
# Static dielectric constant tensor:
#      x y z
#    x 2.236440 -0.473990 -0.200310 
#    y -0.473990 2.808920 0.275320 
#    z -0.200310 0.275320 1.902000 
# 
# From -- ./inp_files/27938.got.cif
#   From: 2010.05.17/outbox.cif.g08.bks.cpg/sg2_14_cif.got.tgz:27938.got - 2010.06.03 11:33:40.
