data_PCOD9030210
_publ_section_title
;
Structure prediction by ZEFSAII (Michael W. Deem and Ramdas Pophale) SiO2 
 PCOD9030210
Probable space group: P -1
;
_chemical_formula_sum "Si O2"
_cell_formula_units_Z 16
_cell_length_a 11.535558
_cell_length_b 10.533219
_cell_length_c 21.897117
_cell_angle_alpha 23.135217
_cell_angle_beta 140.858669
_cell_angle_gamma 138.533558
_cell_volume 652.838984
_symmetry_space_group_name_H-M "P -1"
_symmetry_group_IT_number 2
_symmetry_cell_setting 'triclinic'
loop_
_space_group_symop_operation_xyz
x,y,z
-x,-y,-z
loop_
_atom_site_type_symbol
_atom_site_label
_atom_site_fract_x
_atom_site_fract_y
_atom_site_fract_z
Si Si1 0.810288 0.295162 0.036261
Si Si2 0.262058 0.894227 0.769839
Si Si3 0.099505 0.330551 0.426364
Si Si4 0.497726 0.757244 0.548398
Si Si5 0.533992 0.364941 0.238594
Si Si6 0.184019 0.426201 0.641799
Si Si7 0.669758 0.304487 0.743287
Si Si8 0.213293 0.339554 0.892085
O O1 0.795357 0.241535 0.126851
O O2 0.818596 0.935536 0.173588
O O3 0.622266 0.447391 0.877195
O O4 0.000000 0.500000 0.000000
O O5 0.224244 0.582705 0.846722
O O6 0.146513 0.181787 0.575280
O O7 0.471090 0.074395 0.762981
O O8 0.271864 0.493163 0.383537
O O9 0.959117 0.590319 0.250268
O O10 0.000000 0.000000 0.500000
O O11 0.338772 0.477177 0.629488
O O12 0.663816 0.571573 0.676503
O O13 0.500000 0.000000 0.500000
O O14 0.450035 0.982353 0.372752
O O15 0.720756 0.359366 0.357960
O O16 0.603035 0.534972 0.128872
O O17 0.000000 0.500000 0.500000
O O18 0.801886 0.038291 0.930081
#
# Coordination Sequence:
#
# PCOD9030210 Si02
#       8
#     2   2   2   2   2   2   2   2
#     4  12  26  49  72 106 150 198 255 310 371 438
#     4  11  24  47  74 105 150 190 248 304 371 447
#     4  10  24  44  68 110 148 189 240 299 374 440
#     4  10  22  42  70 101 139 192 247 298 363 435
#     4  11  24  45  73 102 151 191 248 310 374 444
#     4  11  24  46  70 104 139 194 256 306 369 443
#     4  12  22  45  76 103 147 193 241 305 371 441
#     4  11  24  46  71 115 148 184 244 310 373 444
#
# _framework density 24.508341000000001
#
# number of rings (size 3 to 8) (size 9 to 14) (size 15 to 20)
#    0.000    1.000    2.500    3.750    1.750    1.000 
#   18.000    0.000    0.000    0.000    0.000    0.000 
#    0.000    0.000    0.000    0.000    0.000    0.000 
#
# Total GULP energy -89336.411529 kJ/mol
# GULP energy per Si atom -5583.525721 kJ/mol
# Density = 2.445256 g / cm^3
# Si number density = 24.508341 Si / 1000 Ang^3
#
#
#
# Elastic Constant Matrix: (Units=GPa)
#
#
# Indices 1 2 3 4 5 6 
#
# 1 118.1930 32.7020 30.8758 -5.5959 -12.7961 9.9504
# 2 32.7020 61.2708 34.6235 3.1411 -3.3687 3.5320
# 3 30.8758 34.6235 165.5195 -4.9706 5.9849 7.8698
# 4 -5.5959 3.1411 -4.9706 48.0531 9.5444 0.4062
# 5 -12.7961 -3.3687 5.9849 9.5444 54.3809 -8.3450
# 6 9.9504 3.5320 7.8698 0.4062 -8.3450 41.1447
#
#
#
# Elastic Compliance Matrix: (Units=1/GPa)
#
#
# Indices 1 2 3 4 5 6 
#
# 1 0.010437 -0.004945 -0.000870 0.001103 0.001810 -0.001577
# 2 -0.004945 0.021186 -0.003638 -0.002547 0.001044 0.000310
# 3 -0.000870 -0.003638 0.007115 0.001201 -0.001604 -0.001175
# 4 0.001103 -0.002547 0.001201 0.022056 -0.004105 -0.001328
# 5 0.001810 0.001044 -0.001604 -0.004105 0.020383 0.003954
# 6 -0.001577 0.000310 -0.001175 -0.001328 0.003954 0.025699
#
#
# Mechanical properties :
#
#
# Convention : Reuss Voigt Hill
#
# Bulk Modulus (GPa) = 50.42403 60.15398 55.28901
# Shear Modulus (GPa) = 37.76603 45.16787 41.46695
#
# Velocity S-wave (km/s) = 3.92975 4.29763 4.11780
# Velocity P-wave (km/s) = 6.41946 7.01596 6.72433
#
# Compressibility (1/GPa) = 0.01983181
#
# Stress axis : x y z
#
# Youngs Moduli (GPa) = 95.81186 47.20001 140.55083
#
# Poissons Ratio (x) = 0.23341 0.12226
# Poissons Ratio (y) = 0.47381 0.51137
# Poissons Ratio (z) = 0.08334 0.17173
#
# Static dielectric constant tensor:
#      x y z
#    x 2.000480 0.007240 -0.022020 
#    y 0.007240 2.054830 -0.010310 
#    z -0.022020 -0.010310 2.006300 
# 
# From -- ./inp_files/610330.got.cif
#   From: 2010.05.17/outbox.cif.g08.bks.cpg/sg2_306_cif.got.tgz:610330.got - 2010.06.03 11:33:40.
