data_PCOD9030794
_publ_section_title
;
Structure prediction by ZEFSAII (Michael W. Deem and Ramdas Pophale) SiO2 
 PCOD9030794
Probable space group: P -1
;
_chemical_formula_sum "Si O2"
_cell_formula_units_Z 14
_cell_length_a 7.733692
_cell_length_b 21.910045
_cell_length_c 4.868433
_cell_angle_alpha 96.615877
_cell_angle_beta 91.793121
_cell_angle_gamma 138.147484
_cell_volume 538.141031
_symmetry_space_group_name_H-M "P -1"
_symmetry_group_IT_number 2
_symmetry_cell_setting 'triclinic'
loop_
_space_group_symop_operation_xyz
x,y,z
-x,-y,-z
loop_
_atom_site_type_symbol
_atom_site_label
_atom_site_fract_x
_atom_site_fract_y
_atom_site_fract_z
Si Si1 0.258903 0.916273 0.648284
Si Si2 0.754999 0.950205 0.260238
Si Si3 0.524664 0.825161 0.644768
Si Si4 0.533891 0.718680 0.219564
Si Si5 0.052887 0.662394 0.880800
Si Si6 0.826806 0.477745 0.728326
Si Si7 0.996070 0.785508 0.060653
O O1 0.064161 0.831490 0.383706
O O2 0.500000 0.000000 0.500000
O O3 0.202544 0.969319 0.791782
O O4 0.223370 0.865113 0.894111
O O5 0.525715 0.877907 0.437599
O O6 0.000000 0.000000 0.500000
O O7 0.317211 0.109950 0.041591
O O8 0.643732 0.798916 0.476133
O O9 0.229193 0.727932 0.660879
O O10 0.276007 0.685453 0.076161
O O11 0.719756 0.747771 0.992219
O O12 0.443514 0.631883 0.318761
O O13 0.961541 0.703171 0.013807
O O14 0.826848 0.551603 0.762357
O O15 0.000000 0.500000 0.500000
O O16 0.000000 0.500000 0.000000
#
# Coordination Sequence:
#
# PCOD9030794 Si02
#       7
#     2   2   2   2   2   2   2
#     4  12  27  50  67 102 145 186 243 301 358 426
#     4  12  26  41  70 101 137 186 241 297 357 416
#     4  12  23  42  73 101 139 192 238 290 358 433
#     4  11  26  46  76 110 147 185 243 298 356 435
#     4  11  25  47  76 103 149 192 235 292 366 427
#     4  10  22  42  74 108 143 189 233 289 362 428
#     4  12  29  45  75 107 141 192 243 295 360 424
#
# _framework density 26.015483
#
# number of rings (size 3 to 8) (size 9 to 14) (size 15 to 20)
#    0.000    0.571    2.857    4.286    6.000    0.571 
#    0.000    0.000    0.000    5.143    0.000    0.000 
#    0.000    0.000    0.000    0.000    0.000    0.000 
#
# Total GULP energy -78250.916965 kJ/mol
# GULP energy per Si atom -5589.351212 kJ/mol
# Density = 2.595627 g / cm^3
# Si number density = 26.015483 Si / 1000 Ang^3
#
#
#
# Elastic Constant Matrix: (Units=GPa)
#
#
# Indices 1 2 3 4 5 6 
#
# 1 92.2887 42.1263 29.5465 9.8113 -28.9884 -29.0403
# 2 42.1263 196.3262 41.6644 12.3964 -12.6331 -55.7345
# 3 29.5465 41.6644 156.5253 -2.1904 -8.1983 -16.4485
# 4 9.8113 12.3964 -2.1904 40.2624 -3.8427 -10.2934
# 5 -28.9884 -12.6331 -8.1983 -3.8427 34.6209 0.0631
# 6 -29.0403 -55.7345 -16.4485 -10.2934 0.0631 48.7508
#
#
#
# Elastic Compliance Matrix: (Units=1/GPa)
#
#
# Indices 1 2 3 4 5 6 
#
# 1 0.020183 0.000532 -0.001844 -0.000567 0.016573 0.011868
# 2 0.000532 0.007989 -0.001114 -0.000040 0.003076 0.009062
# 3 -0.001844 -0.001114 0.007072 0.001234 -0.000140 0.000275
# 4 -0.000567 -0.000040 0.001234 0.026771 0.002764 0.005683
# 5 0.016573 0.003076 -0.000140 0.002764 0.044131 0.013868
# 6 0.011868 0.009062 0.000275 0.005683 0.013868 0.039217
#
#
# Mechanical properties :
#
#
# Convention : Reuss Voigt Hill
#
# Bulk Modulus (GPa) = 32.90391 74.64608 53.77499
# Shear Modulus (GPa) = 31.18235 46.84702 39.01468
#
# Velocity S-wave (km/s) = 3.46585 4.24811 3.87676
# Velocity P-wave (km/s) = 5.35644 7.26754 6.38391
#
# Compressibility (1/GPa) = 0.03039153
#
# Stress axis : x y z
#
# Youngs Moduli (GPa) = 49.54557 125.17474 141.39773
#
# Poissons Ratio (x) = -0.06658 0.26078
# Poissons Ratio (y) = -0.02635 0.15753
# Poissons Ratio (z) = 0.09138 0.13945
#
# Static dielectric constant tensor:
#      x y z
#    x 2.254510 0.085160 0.031090 
#    y 0.085160 2.129170 0.022330 
#    z 0.031090 0.022330 2.038080 
# 
# From -- ./inp_files/51661.got.cif
#   From: 2010.05.17/outbox.cif.g08.bks.cpg/sg2_26_cif.got.tgz:51661.got - 2010.06.03 11:33:40.
