data_PCOD9030805
_publ_section_title
;
Structure prediction by ZEFSAII (Michael W. Deem and Ramdas Pophale) SiO2 
 PCOD9030805
Probable space group: P -1
;
_chemical_formula_sum "Si O2"
_cell_formula_units_Z 16
_cell_length_a 8.705047
_cell_length_b 15.071379
_cell_length_c 9.986824
_cell_angle_alpha 131.556517
_cell_angle_beta 123.019021
_cell_angle_gamma 39.587166
_cell_volume 623.235315
_symmetry_space_group_name_H-M "P -1"
_symmetry_group_IT_number 2
_symmetry_cell_setting 'triclinic'
loop_
_space_group_symop_operation_xyz
x,y,z
-x,-y,-z
loop_
_atom_site_type_symbol
_atom_site_label
_atom_site_fract_x
_atom_site_fract_y
_atom_site_fract_z
Si Si1 0.614703 0.542050 0.247326
Si Si2 0.905051 0.204765 0.050950
Si Si3 0.398915 0.104642 0.188197
Si Si4 0.543316 0.654877 0.611407
Si Si5 0.049846 0.416342 0.704293
Si Si6 0.247105 0.142134 0.697040
Si Si7 0.919437 0.130601 0.702169
Si Si8 0.979370 0.189870 0.368908
O O1 0.643898 0.540661 0.419125
O O2 0.354811 0.712266 0.278884
O O3 0.660138 0.382816 0.085501
O O4 0.799910 0.543324 0.251595
O O5 0.114461 0.214860 0.151387
O O6 0.938790 0.148865 0.163401
O O7 0.959445 0.092742 0.842032
O O8 0.491828 0.198544 0.316701
O O9 0.500000 0.000000 0.000000
O O10 0.764172 0.566024 0.733940
O O11 0.287429 0.710270 0.590860
O O12 0.049147 0.299386 0.492931
O O13 0.184828 0.301588 0.781676
O O14 0.073127 0.178738 0.772847
O O15 0.176494 0.087751 0.481192
O O16 0.506995 0.002782 0.741932
O O17 0.000000 0.000000 0.500000
#
# Coordination Sequence:
#
# PCOD9030805 Si02
#       8
#     2   2   2   2   2   2   2   2
#     4  12  22  46  79 110 146 198 256 312 377 449
#     4  12  26  48  74 117 147 194 263 317 367 455
#     4  12  26  47  72 108 157 204 249 305 376 459
#     4  12  22  44  78 107 152 205 247 304 388 448
#     4  10  22  42  74 113 144 195 253 311 370 447
#     4  10  24  46  71 106 151 200 237 306 380 445
#     4  12  27  50  74 106 154 205 242 306 400 461
#     4  10  24  43  74 111 147 192 253 313 371 438
#
# _framework density 25.672487
#
# number of rings (size 3 to 8) (size 9 to 14) (size 15 to 20)
#    0.750    0.000    5.000    2.625    1.750    0.500 
#    4.500    2.500    0.000    0.000    0.000    0.000 
#    0.000    0.000    0.000    0.000    0.000    0.000 
#
# Total GULP energy -89318.256420 kJ/mol
# GULP energy per Si atom -5582.391026 kJ/mol
# Density = 2.561405 g / cm^3
# Si number density = 25.672487 Si / 1000 Ang^3
#
#
#
# Elastic Constant Matrix: (Units=GPa)
#
#
# Indices 1 2 3 4 5 6 
#
# 1 49.6895 10.7743 0.1688 2.7433 -10.0024 -0.8532
# 2 10.7743 171.1700 56.5936 -15.6678 -9.4861 -7.3998
# 3 0.1688 56.5936 120.0867 -24.6163 -0.1699 12.3598
# 4 2.7433 -15.6678 -24.6163 39.8423 -0.9316 -12.5393
# 5 -10.0024 -9.4861 -0.1699 -0.9316 23.4935 -3.7070
# 6 -0.8532 -7.3998 12.3598 -12.5393 -3.7070 42.5610
#
#
#
# Elastic Compliance Matrix: (Units=1/GPa)
#
#
# Indices 1 2 3 4 5 6 
#
# 1 0.022274 -0.001044 0.000110 -0.001478 0.009097 0.000590
# 2 -0.001044 0.007547 -0.003473 0.001959 0.003152 0.003152
# 3 0.000110 -0.003473 0.011190 0.004687 -0.001499 -0.002601
# 4 -0.001478 0.001959 0.004687 0.031609 0.002791 0.008506
# 5 0.009097 0.003152 -0.001499 0.002791 0.048795 0.006238
# 6 0.000590 0.003152 -0.002601 0.008506 0.006238 0.027860
#
#
# Mechanical properties :
#
#
# Convention : Reuss Voigt Hill
#
# Bulk Modulus (GPa) = 31.05985 52.89107 41.97546
# Shear Modulus (GPa) = 29.61707 39.40668 34.51187
#
# Velocity S-wave (km/s) = 3.40023 3.92213 3.67047
# Velocity P-wave (km/s) = 5.24787 6.41543 5.86080
#
# Compressibility (1/GPa) = 0.03219590
#
# Stress axis : x y z
#
# Youngs Moduli (GPa) = 44.89568 132.51155 89.36246
#
# Poissons Ratio (x) = 0.13834 -0.00982
# Poissons Ratio (y) = 0.04687 0.31038
# Poissons Ratio (z) = -0.00493 0.46025
#
# Static dielectric constant tensor:
#      x y z
#    x 2.717030 -0.325010 0.720140 
#    y -0.325010 2.282180 -0.277820 
#    z 0.720140 -0.277820 2.729520 
# 
# From -- ./inp_files/501955.got.cif
#   From: 2010.05.17/outbox.cif.g08.bks.cpg/sg2_251_cif.got.tgz:501955.got - 2010.06.03 11:33:40.
