data_PCOD9030740
_publ_section_title
;
Structure prediction by ZEFSAII (Michael W. Deem and Ramdas Pophale) SiO2 
 PCOD9030740
Probable space group: P -1
;
_chemical_formula_sum "Si O2"
_cell_formula_units_Z 14
_cell_length_a 7.250997
_cell_length_b 10.108952
_cell_length_c 7.533648
_cell_angle_alpha 87.273575
_cell_angle_beta 96.602289
_cell_angle_gamma 111.506513
_cell_volume 510.352705
_symmetry_space_group_name_H-M "P -1"
_symmetry_group_IT_number 2
_symmetry_cell_setting 'triclinic'
loop_
_space_group_symop_operation_xyz
x,y,z
-x,-y,-z
loop_
_atom_site_type_symbol
_atom_site_label
_atom_site_fract_x
_atom_site_fract_y
_atom_site_fract_z
Si Si1 0.412419 0.652516 0.728883
Si Si2 0.139799 0.098139 0.151146
Si Si3 0.807889 0.610863 0.862597
Si Si4 0.907941 0.134715 0.551841
Si Si5 0.975998 0.578441 0.266984
Si Si6 0.642611 0.862619 0.422265
Si Si7 0.477536 0.835858 0.026957
O O1 0.573874 0.579335 0.802657
O O2 0.215314 0.528874 0.645175
O O3 0.521971 0.772097 0.583720
O O4 0.328595 0.716288 0.888608
O O5 0.081010 0.226595 0.206907
O O6 0.165008 0.987270 0.297103
O O7 0.333086 0.174139 0.052922
O O8 0.000000 0.000000 0.000000
O O9 0.881475 0.501198 0.777051
O O10 0.878169 0.617097 0.074526
O O11 0.911943 0.281616 0.616752
O O12 0.143449 0.157952 0.562637
O O13 0.733180 0.038311 0.405628
O O14 0.504814 0.809437 0.237070
O O15 0.500000 0.000000 0.000000
#
# Coordination Sequence:
#
# PCOD9030740 Si02
#       7
#     2   2   2   2   2   2   2
#     4  11  25  48  74 109 153 201 245 317 382 451
#     4  11  19  42  75  99 142 195 251 296 374 441
#     4  10  22  42  73 109 149 207 247 309 379 458
#     4  11  22  44  75 111 141 201 253 311 369 457
#     4  11  24  42  77 113 152 196 260 308 383 452
#     4  11  24  45  78 107 152 196 254 309 381 446
#     4  11  25  43  75 112 145 195 250 314 370 448
#
# _framework density 27.432005
#
# number of rings (size 3 to 8) (size 9 to 14) (size 15 to 20)
#    0.000    1.143    5.714    1.286    2.000    1.143 
#    0.000    0.714    3.143    0.000    0.000    0.000 
#    0.000    0.000    0.000    0.000    0.000    0.000 
#
# Total GULP energy -78243.159967 kJ/mol
# GULP energy per Si atom -5588.797140 kJ/mol
# Density = 2.736957 g / cm^3
# Si number density = 27.432005 Si / 1000 Ang^3
#
#
#
# Elastic Constant Matrix: (Units=GPa)
#
#
# Indices 1 2 3 4 5 6 
#
# 1 126.2194 69.5571 26.9524 -5.7660 -7.4513 -5.2289
# 2 69.5571 195.7307 42.9388 9.1027 -2.5360 -5.5670
# 3 26.9524 42.9388 143.9492 -10.4449 -0.9201 1.8401
# 4 -5.7660 9.1027 -10.4449 43.3160 -2.7893 -2.0983
# 5 -7.4513 -2.5360 -0.9201 -2.7893 20.8027 -14.4421
# 6 -5.2289 -5.5670 1.8401 -2.0983 -14.4421 53.6773
#
#
#
# Elastic Compliance Matrix: (Units=1/GPa)
#
#
# Indices 1 2 3 4 5 6 
#
# 1 0.010551 -0.003574 -0.000729 0.002415 0.005133 0.002157
# 2 -0.003574 0.006819 -0.001540 -0.002322 -0.000745 0.000121
# 3 -0.000729 -0.001540 0.007696 0.002051 -0.000149 -0.000454
# 4 0.002415 -0.002322 0.002051 0.024874 0.005694 0.002428
# 5 0.005133 -0.000745 -0.000149 0.005694 0.062747 0.017533
# 6 0.002157 0.000121 -0.000454 0.002428 0.017533 0.023680
#
#
# Mechanical properties :
#
#
# Convention : Reuss Voigt Hill
#
# Bulk Modulus (GPa) = 74.73460 82.75512 78.74486
# Shear Modulus (GPa) = 32.78422 45.32259 39.05341
#
# Velocity S-wave (km/s) = 3.46078 4.06911 3.77721
# Velocity P-wave (km/s) = 6.57815 7.23255 6.91310
#
# Compressibility (1/GPa) = 0.01338068
#
# Stress axis : x y z
#
# Youngs Moduli (GPa) = 94.78166 146.65687 129.93297
#
# Poissons Ratio (x) = 0.52414 0.09471
# Poissons Ratio (y) = 0.33874 0.20004
# Poissons Ratio (z) = 0.06909 0.22579
#
# Static dielectric constant tensor:
#      x y z
#    x 2.110940 -0.167650 -0.108120 
#    y -0.167650 1.616050 -0.359420 
#    z -0.108120 -0.359420 1.975020 
# 
# From -- ./inp_files/154315.got.cif
#   From: 2010.05.17/outbox.cif.g08.bks.cpg/sg2_78_cif.got.tgz:154315.got - 2010.06.03 11:33:40.
