data_PCOD9030622
_publ_section_title
;
Structure prediction by ZEFSAII (Michael W. Deem and Ramdas Pophale) SiO2 
 PCOD9030622
Probable space group: P -1
;
_chemical_formula_sum "Si O2"
_cell_formula_units_Z 13
_cell_length_a 17.554481
_cell_length_b 8.920794
_cell_length_c 9.577522
_cell_angle_alpha 84.108602
_cell_angle_beta 142.798175
_cell_angle_gamma 124.492041
_cell_volume 534.382256
_symmetry_space_group_name_H-M "P -1"
_symmetry_group_IT_number 2
_symmetry_cell_setting 'triclinic'
loop_
_space_group_symop_operation_xyz
x,y,z
-x,-y,-z
loop_
_atom_site_type_symbol
_atom_site_label
_atom_site_fract_x
_atom_site_fract_y
_atom_site_fract_z
Si Si1 0.475292 0.716943 0.693880
Si Si2 0.729028 0.638805 0.323019
Si Si3 0.209142 0.749039 0.863458
Si Si4 0.091274 0.972187 0.254872
Si Si5 0.419412 0.641851 0.137070
Si Si6 0.137440 0.564110 0.070503
Si Si7 0.500000 0.500000 0.500000
O O1 0.306714 0.512385 0.587852
O O2 0.369813 0.748622 0.448721
O O3 0.513768 0.614706 0.656914
O O4 0.688243 0.990755 0.045442
O O5 0.903190 0.924594 0.604850
O O6 0.500000 0.500000 0.000000
O O7 0.738759 0.573061 0.192983
O O8 0.000000 0.500000 0.500000
O O9 0.376618 0.777509 0.072166
O O10 0.150379 0.686268 0.946668
O O11 0.334950 0.160907 0.559859
O O12 0.968468 0.697476 0.101239
O O13 0.000000 0.000000 0.000000
O O14 0.394708 0.539959 0.259807
O O15 0.000000 0.500000 0.000000
#
# Coordination Sequence:
#
# PCOD9030622 Si02
#       7
#     2   2   2   2   2   2   1
#     4  12  25  49  72 103 146 187 243 297 368 427
#     4  10  22  42  72 105 139 185 229 300 360 419
#     4  12  31  48  67 106 146 199 242 292 363 431
#     4  11  22  44  76 110 136 182 248 292 361 436
#     4  11  25  47  72 104 149 189 237 300 364 421
#     4  12  27  46  70 104 142 190 241 297 357 437
#     4  12  22  44  80 104 134 194 232 306 356 422
#
# _framework density 24.327155999999999
#
# number of rings (size 3 to 8) (size 9 to 14) (size 15 to 20)
#    0.000    0.615    6.154    1.385    8.615    0.615 
#    2.769    1.538    0.000    0.000    0.000    0.000 
#    0.000    0.000    0.000    0.000    0.000    0.000 
#
# Total GULP energy -72501.498753 kJ/mol
# GULP energy per Si atom -5577.038366 kJ/mol
# Density = 2.427179 g / cm^3
# Si number density = 24.327156 Si / 1000 Ang^3
#
#
#
# Elastic Constant Matrix: (Units=GPa)
#
#
# Indices 1 2 3 4 5 6 
#
# 1 114.6800 18.9446 25.2742 12.2984 -12.5142 -10.9750
# 2 18.9446 85.9464 23.6825 23.7514 -15.6850 -6.7884
# 3 25.2742 23.6825 95.4478 19.1676 -15.9427 -0.8753
# 4 12.2984 23.7514 19.1676 50.4199 -7.5560 -9.0896
# 5 -12.5142 -15.6850 -15.9427 -7.5560 49.0497 -4.0438
# 6 -10.9750 -6.7884 -0.8753 -9.0896 -4.0438 25.0396
#
#
#
# Elastic Compliance Matrix: (Units=1/GPa)
#
#
# Indices 1 2 3 4 5 6 
#
# 1 0.009953 -0.000900 -0.002016 -0.000175 0.001923 0.004295
# 2 -0.000900 0.014479 -0.001782 -0.005053 0.003221 0.002155
# 3 -0.002016 -0.001782 0.012505 -0.003399 0.002309 -0.001791
# 4 -0.000175 -0.005053 -0.003399 0.025235 0.001772 0.007881
# 5 0.001923 0.003221 0.002309 0.001772 0.023445 0.006226
# 6 0.004295 0.002155 -0.001791 0.007881 0.006226 0.046208
#
#
# Mechanical properties :
#
#
# Convention : Reuss Voigt Hill
#
# Bulk Modulus (GPa) = 36.31051 47.98631 42.14841
# Shear Modulus (GPa) = 33.24479 40.11335 36.67907
#
# Velocity S-wave (km/s) = 3.70073 4.06509 3.88718
# Velocity P-wave (km/s) = 5.76358 6.46540 6.12455
#
# Compressibility (1/GPa) = 0.02754023
#
# Stress axis : x y z
#
# Youngs Moduli (GPa) = 100.47629 69.06708 79.96863
#
# Poissons Ratio (x) = 0.06213 0.16125
# Poissons Ratio (y) = 0.09039 0.14250
# Poissons Ratio (z) = 0.20261 0.12307
#
# Static dielectric constant tensor:
#      x y z
#    x 2.019710 -0.008810 0.039700 
#    y -0.008810 1.960300 -0.029210 
#    z 0.039700 -0.029210 2.017270 
# 
# From -- ./inp_files/189277.got.cif
#   From: 2010.05.17/outbox.cif.g08.bks.cpg/sg2_95_cif.got.tgz:189277.got - 2010.06.03 11:33:40.
