data_PCOD9030271
_publ_section_title
;
Structure prediction by ZEFSAII (Michael W. Deem and Ramdas Pophale) SiO2 
 PCOD9030271
Probable space group: P -1
;
_chemical_formula_sum "Si O2"
_cell_formula_units_Z 14
_cell_length_a 18.732010
_cell_length_b 9.520563
_cell_length_c 11.606065
_cell_angle_alpha 48.816122
_cell_angle_beta 30.470438
_cell_angle_gamma 40.059324
_cell_volume 675.491939
_symmetry_space_group_name_H-M "P -1"
_symmetry_group_IT_number 2
_symmetry_cell_setting 'triclinic'
loop_
_space_group_symop_operation_xyz
x,y,z
-x,-y,-z
loop_
_atom_site_type_symbol
_atom_site_label
_atom_site_fract_x
_atom_site_fract_y
_atom_site_fract_z
Si Si1 0.035958 0.760755 0.611946
Si Si2 0.330290 0.735053 0.599117
Si Si3 0.865368 0.468037 0.640820
Si Si4 0.446908 0.052823 0.179330
Si Si5 0.700459 0.894401 0.123488
Si Si6 0.310755 0.750370 0.879551
Si Si7 0.316575 0.510233 0.537007
O O1 0.058921 0.632414 0.532738
O O2 0.201665 0.622672 0.528137
O O3 0.000000 0.000000 0.500000
O O4 0.886869 0.781146 0.882180
O O5 0.500000 0.500000 0.500000
O O6 0.261465 0.810969 0.781656
O O7 0.236833 0.677963 0.664582
O O8 0.371636 0.905439 0.397412
O O9 0.695606 0.697664 0.744334
O O10 0.000000 0.500000 0.500000
O O11 0.814521 0.310928 0.858800
O O12 0.587798 0.994192 0.111351
O O13 0.500000 0.000000 0.000000
O O14 0.666990 0.716283 0.323961
O O15 0.678289 0.072716 0.152436
O O16 0.499558 0.546389 0.719670
#
# Coordination Sequence:
#
# PCOD9030271 Si02
#       7
#     2   2   2   2   2   2   2
#     4  12  28  47  67 105 148 189 233 291 355 413
#     4  10  22  42  70 105 136 177 233 292 348 416
#     4  12  29  47  70 105 145 186 237 298 357 419
#     4  12  25  43  78 106 138 187 239 294 352 417
#     4  12  25  46  74 102 142 186 236 292 352 425
#     4  11  24  46  74 103 139 184 241 291 354 424
#     4  11  25  45  75 101 143 183 237 291 354 421
#
# _framework density 20.725636000000002
#
# number of rings (size 3 to 8) (size 9 to 14) (size 15 to 20)
#    0.000    0.571    4.286    4.286   10.000    1.143 
#    0.000    1.429    0.000    0.000    0.000    0.000 
#    0.000    0.000    0.000    0.000    0.000    0.000 
#
# Total GULP energy -78274.510474 kJ/mol
# GULP energy per Si atom -5591.036462 kJ/mol
# Density = 2.067846 g / cm^3
# Si number density = 20.725636 Si / 1000 Ang^3
#
#
#
# Elastic Constant Matrix: (Units=GPa)
#
#
# Indices 1 2 3 4 5 6 
#
# 1 179.8087 38.3460 25.4508 0.9266 10.4956 30.3903
# 2 38.3460 59.0891 3.5958 -6.3067 13.3903 24.9858
# 3 25.4508 3.5958 74.3855 -1.4957 5.2664 5.9387
# 4 0.9266 -6.3067 -1.4957 38.2789 5.5964 3.3128
# 5 10.4956 13.3903 5.2664 5.5964 38.5734 4.5277
# 6 30.3903 24.9858 5.9387 3.3128 4.5277 40.4213
#
#
#
# Elastic Compliance Matrix: (Units=1/GPa)
#
#
# Indices 1 2 3 4 5 6 
#
# 1 0.007044 -0.003235 -0.002022 -0.000513 -0.000097 -0.002946
# 2 -0.003235 0.027760 0.001666 0.007198 -0.008311 -0.014631
# 3 -0.002022 0.001666 0.014342 0.001306 -0.002000 -0.001500
# 4 -0.000513 0.007198 0.001306 0.028767 -0.006014 -0.005939
# 5 -0.000097 -0.008311 -0.002000 -0.006014 0.029668 0.002674
# 6 -0.002946 -0.014631 -0.001500 -0.005939 0.002674 0.036406
#
#
# Mechanical properties :
#
#
# Convention : Reuss Voigt Hill
#
# Bulk Modulus (GPa) = 23.82964 49.78538 36.80751
# Shear Modulus (GPa) = 30.27436 39.84742 35.06089
#
# Velocity S-wave (km/s) = 3.82608 4.38952 4.11745
# Velocity P-wave (km/s) = 5.57146 7.05435 6.35630
#
# Compressibility (1/GPa) = 0.04196454
#
# Stress axis : x y z
#
# Youngs Moduli (GPa) = 141.96857 36.02315 69.72376
#
# Poissons Ratio (x) = 0.11654 0.14097
# Poissons Ratio (y) = 0.45928 -0.11617
# Poissons Ratio (z) = 0.28704 -0.06002
#
# Static dielectric constant tensor:
#      x y z
#    x 1.796640 -0.009120 -0.002150 
#    y -0.009120 1.755950 -0.002860 
#    z -0.002150 -0.002860 1.712730 
# 
# From -- ./inp_files/154313.got.cif
#   From: 2010.05.17/outbox.cif.g08.bks.cpg/sg2_78_cif.got.tgz:154313.got - 2010.06.03 11:33:40.
