data_PCOD9030169
_publ_section_title
;
Structure prediction by ZEFSAII (Michael W. Deem and Ramdas Pophale) SiO2 
 PCOD9030169
Probable space group: P -1
;
_chemical_formula_sum "Si O2"
_cell_formula_units_Z 16
_cell_length_a 13.844018
_cell_length_b 22.824767
_cell_length_c 19.571182
_cell_angle_alpha 163.215787
_cell_angle_beta 157.639010
_cell_angle_gamma 30.382343
_cell_volume 664.682524
_symmetry_space_group_name_H-M "P -1"
_symmetry_group_IT_number 2
_symmetry_cell_setting 'triclinic'
loop_
_space_group_symop_operation_xyz
x,y,z
-x,-y,-z
loop_
_atom_site_type_symbol
_atom_site_label
_atom_site_fract_x
_atom_site_fract_y
_atom_site_fract_z
Si Si1 0.309212 0.379439 0.454110
Si Si2 0.760283 0.488439 0.045725
Si Si3 0.668162 0.729915 0.891260
Si Si4 0.762097 0.245156 0.262381
Si Si5 0.039092 0.869667 0.168940
Si Si6 0.018930 0.115360 0.070452
Si Si7 0.866875 0.384423 0.849727
Si Si8 0.483112 0.172242 0.737463
O O1 0.332122 0.613125 0.700749
O O2 0.213098 0.325698 0.408510
O O3 0.577765 0.300199 0.537799
O O4 0.091159 0.245366 0.112398
O O5 0.535821 0.602091 0.049691
O O6 0.017610 0.602333 0.380473
O O7 0.749618 0.252194 0.796768
O O8 0.800450 0.502199 0.005968
O O9 0.500000 0.500000 0.500000
O O10 0.469410 0.822471 0.910537
O O11 0.806056 0.850797 0.050206
O O12 0.913571 0.724325 0.095332
O O13 0.888655 0.059729 0.111611
O O14 0.213108 0.088364 0.506630
O O15 0.741057 0.174095 0.948595
O O16 0.000000 0.000000 0.000000
O O17 0.000000 0.500000 0.000000
O O18 0.500000 0.000000 0.500000
#
# Coordination Sequence:
#
# PCOD9030169 Si02
#       8
#     2   2   2   2   2   2   2   2
#     4  11  23  43  66  97 136 171 220 265 341 386
#     4  10  23  40  69  97 128 171 227 264 328 387
#     4  11  19  40  69 100 135 167 219 276 321 402
#     4  11  22  46  70  97 131 177 222 268 334 392
#     4  10  22  42  70 100 132 174 220 271 330 394
#     4  12  30  46  65  97 139 172 225 283 323 389
#     4  11  21  38  67 100 135 171 213 272 329 398
#     4  12  24  46  67  95 131 176 232 272 312 393
#
# _framework density 24.071643000000002
#
# number of rings (size 3 to 8) (size 9 to 14) (size 15 to 20)
#    0.000    1.000    7.500    0.000    5.250    2.000 
#    2.250    1.875    0.000    0.000    0.000    0.000 
#    0.000    0.000    0.000    0.000    0.000    0.000 
#
# Total GULP energy -89257.461711 kJ/mol
# GULP energy per Si atom -5578.591357 kJ/mol
# Density = 2.401685 g / cm^3
# Si number density = 24.071643 Si / 1000 Ang^3
#
#
#
# Elastic Constant Matrix: (Units=GPa)
#
#
# Indices 1 2 3 4 5 6 
#
# 1 105.8875 26.8392 20.8784 13.5058 15.9830 15.8236
# 2 26.8392 106.1548 32.0304 -11.4225 -5.5807 8.3267
# 3 20.8784 32.0304 61.1238 -10.0709 23.7711 -6.2703
# 4 13.5058 -11.4225 -10.0709 38.2454 -8.7484 1.6382
# 5 15.9830 -5.5807 23.7711 -8.7484 35.4295 5.3769
# 6 15.8236 8.3267 -6.2703 1.6382 5.3769 33.0279
#
#
#
# Elastic Compliance Matrix: (Units=1/GPa)
#
#
# Indices 1 2 3 4 5 6 
#
# 1 0.013340 -0.003673 -0.001745 -0.007601 -0.006644 -0.004338
# 2 -0.003673 0.016599 -0.013427 0.006754 0.016153 -0.007939
# 3 -0.001745 -0.013427 0.036536 -0.000967 -0.028484 0.015843
# 4 -0.007601 0.006754 -0.000967 0.033850 0.013831 -0.002175
# 5 -0.006644 0.016153 -0.028484 0.013831 0.058806 -0.016556
# 6 -0.004338 -0.007939 0.015843 -0.002175 -0.016556 0.040168
#
#
# Mechanical properties :
#
#
# Convention : Reuss Voigt Hill
#
# Bulk Modulus (GPa) = 34.74184 48.07354 41.40769
# Shear Modulus (GPa) = 20.27709 34.23511 27.25610
#
# Velocity S-wave (km/s) = 2.90550 3.77532 3.36860
# Velocity P-wave (km/s) = 5.07148 6.24647 5.68939
#
# Compressibility (1/GPa) = 0.02878373
#
# Stress axis : x y z
#
# Youngs Moduli (GPa) = 74.96404 60.24510 27.37042
#
# Poissons Ratio (x) = 0.22128 0.04777
# Poissons Ratio (y) = 0.27535 0.36750
# Poissons Ratio (z) = 0.13083 0.80891
#
# Static dielectric constant tensor:
#      x y z
#    x 1.971980 0.015730 -0.018230 
#    y 0.015730 2.007880 -0.025010 
#    z -0.018230 -0.025010 2.074050 
# 
# From -- ./inp_files/598542.got.cif
#   From: 2010.05.17/outbox.cif.g08.bks.cpg/sg2_300_cif.got.tgz:598542.got - 2010.06.03 11:33:40.
