data_PCOD9030359
_publ_section_title
;
Structure prediction by ZEFSAII (Michael W. Deem and Ramdas Pophale) SiO2 
 PCOD9030359
Probable space group: P -1
;
_chemical_formula_sum "Si O2"
_cell_formula_units_Z 14
_cell_length_a 10.633702
_cell_length_b 8.712261
_cell_length_c 12.099912
_cell_angle_alpha 52.166198
_cell_angle_beta 55.300281
_cell_angle_gamma 82.555934
_cell_volume 684.982866
_symmetry_space_group_name_H-M "P -1"
_symmetry_group_IT_number 2
_symmetry_cell_setting 'triclinic'
loop_
_space_group_symop_operation_xyz
x,y,z
-x,-y,-z
loop_
_atom_site_type_symbol
_atom_site_label
_atom_site_fract_x
_atom_site_fract_y
_atom_site_fract_z
Si Si1 0.387164 0.487895 0.167316
Si Si2 0.763625 0.343623 0.464938
Si Si3 0.079003 0.608910 0.297558
Si Si4 0.510367 0.205955 0.837100
Si Si5 0.247614 0.252063 0.788232
Si Si6 0.968908 0.993718 0.182982
Si Si7 0.144558 0.019683 0.508694
O O1 0.254213 0.604234 0.179169
O O2 0.498012 0.611780 0.157921
O O3 0.272453 0.251907 0.347029
O O4 0.500000 0.500000 0.000000
O O5 0.679606 0.286495 0.651164
O O6 0.690926 0.502737 0.372233
O O7 0.083472 0.188019 0.972462
O O8 0.759643 0.134550 0.502008
O O9 0.000000 0.500000 0.500000
O O10 0.951922 0.477296 0.328968
O O11 0.068703 0.835113 0.208146
O O12 0.376444 0.179021 0.821620
O O13 0.500000 0.000000 0.000000
O O14 0.189750 0.129137 0.756292
O O15 0.930408 0.036152 0.307541
O O16 0.000000 0.000000 0.500000
#
# Coordination Sequence:
#
# PCOD9030359 Si02
#       7
#     2   2   2   2   2   2   2
#     4  12  25  39  64 108 141 173 230 298 350 397
#     4  11  23  41  66  98 132 189 226 283 355 410
#     4  11  18  40  67  94 130 180 230 284 335 413
#     4  12  25  43  71  99 140 183 236 292 353 416
#     4  10  24  43  67  98 137 182 237 289 348 426
#     4  10  22  42  70  95 134 188 237 281 350 423
#     4  12  24  41  69 104 140 179 237 289 342 412
#
# _framework density 20.438469000000001
#
# number of rings (size 3 to 8) (size 9 to 14) (size 15 to 20)
#    0.000    0.857    4.286    3.000    4.000    0.571 
#    0.000    7.143    0.000    0.000    0.000    0.000 
#    0.000    0.000    0.000    0.000    0.000    0.000 
#
# Total GULP energy -78188.967026 kJ/mol
# GULP energy per Si atom -5584.926216 kJ/mol
# Density = 2.039195 g / cm^3
# Si number density = 20.438469 Si / 1000 Ang^3
#
#
#
# Elastic Constant Matrix: (Units=GPa)
#
#
# Indices 1 2 3 4 5 6 
#
# 1 91.5301 18.3991 24.4103 4.8883 17.2224 -7.5831
# 2 18.3991 112.3537 49.0125 7.9919 13.8450 7.8527
# 3 24.4103 49.0125 120.3983 -1.2638 16.0559 5.6920
# 4 4.8883 7.9919 -1.2638 51.1196 -0.9477 5.0543
# 5 17.2224 13.8450 16.0559 -0.9477 30.1398 1.8298
# 6 -7.5831 7.8527 5.6920 5.0543 1.8298 31.4842
#
#
#
# Elastic Compliance Matrix: (Units=1/GPa)
#
#
# Indices 1 2 3 4 5 6 
#
# 1 0.013237 -0.000790 -0.001704 -0.001738 -0.006612 0.004357
# 2 -0.000790 0.011362 -0.004054 -0.001663 -0.002546 -0.001876
# 3 -0.001704 -0.004054 0.010748 0.001146 -0.002770 -0.001365
# 4 -0.001738 -0.001663 0.001146 0.020410 0.002007 -0.003604
# 5 -0.006612 -0.002546 -0.002770 0.002007 0.039853 -0.003095
# 6 0.004357 -0.001876 -0.001365 -0.003604 -0.003095 0.034285
#
#
# Mechanical properties :
#
#
# Convention : Reuss Voigt Hill
#
# Bulk Modulus (GPa) = 44.94729 56.43619 50.69174
# Shear Modulus (GPa) = 33.24307 38.04607 35.64457
#
# Velocity S-wave (km/s) = 4.03736 4.31918 4.18065
# Velocity P-wave (km/s) = 6.61611 7.24889 6.93972
#
# Compressibility (1/GPa) = 0.02224828
#
# Stress axis : x y z
#
# Youngs Moduli (GPa) = 75.54810 88.01594 93.04283
#
# Poissons Ratio (x) = 0.06955 0.15859
# Poissons Ratio (y) = 0.05970 0.37721
# Poissons Ratio (z) = 0.12877 0.35683
#
# Static dielectric constant tensor:
#      x y z
#    x 1.836080 0.017460 -0.013800 
#    y 0.017460 1.717320 -0.023580 
#    z -0.013800 -0.023580 1.748180 
# 
# From -- ./inp_files/380944.got.cif
#   From: 2010.05.17/outbox.cif.g08.bks.cpg/sg2_191_cif.got.tgz:380944.got - 2010.06.03 11:33:40.
