data_PCOD9030195
_publ_section_title
;
Structure prediction by ZEFSAII (Michael W. Deem and Ramdas Pophale) SiO2 
 PCOD9030195
Probable space group: P -1
;
_chemical_formula_sum "Si O2"
_cell_formula_units_Z 14
_cell_length_a 13.255310
_cell_length_b 8.105924
_cell_length_c 9.525831
_cell_angle_alpha 83.546396
_cell_angle_beta 38.324989
_cell_angle_gamma 79.241410
_cell_volume 622.573930
_symmetry_space_group_name_H-M "P -1"
_symmetry_group_IT_number 2
_symmetry_cell_setting 'triclinic'
loop_
_space_group_symop_operation_xyz
x,y,z
-x,-y,-z
loop_
_atom_site_type_symbol
_atom_site_label
_atom_site_fract_x
_atom_site_fract_y
_atom_site_fract_z
Si Si1 0.444893 0.046736 0.210960
Si Si2 0.969898 0.706099 0.894312
Si Si3 0.081591 0.835451 0.019186
Si Si4 0.865342 0.086188 0.526767
Si Si5 0.346990 0.055448 0.761792
Si Si6 0.384552 0.650079 0.035599
Si Si7 0.932868 0.434040 0.729490
O O1 0.258376 0.016438 0.411728
O O2 0.566604 0.922267 0.187607
O O3 0.492074 0.229871 0.172602
O O4 0.500000 0.000000 0.000000
O O5 0.972735 0.555753 0.797417
O O6 0.087257 0.694445 0.903321
O O7 0.027804 0.843664 0.715250
O O8 0.785431 0.780093 0.142079
O O9 0.246391 0.899315 0.884195
O O10 0.012763 0.750812 0.240384
O O11 0.000000 0.000000 0.000000
O O12 0.743463 0.232088 0.731136
O O13 0.000000 0.000000 0.500000
O O14 0.500000 0.000000 0.500000
O O15 0.261844 0.566589 0.078548
O O16 0.500000 0.500000 0.000000
O O17 0.000000 0.500000 0.500000
#
# Coordination Sequence:
#
# PCOD9030195 Si02
#       7
#     2   2   2   2   2   2   2
#     4  10  22  42  70 100 145 189 250 305 373 434
#     4  11  24  43  72 106 149 192 249 305 376 448
#     4  10  24  47  72 105 147 197 256 300 364 454
#     4  11  24  42  73 107 144 198 254 305 372 451
#     4  11  23  46  69 103 144 196 247 310 367 446
#     4  11  25  44  66 111 153 189 242 314 378 441
#     4  12  25  47  74 110 157 193 244 306 385 450
#
# _framework density 22.487290000000002
#
# number of rings (size 3 to 8) (size 9 to 14) (size 15 to 20)
#    0.000    1.143    2.857    3.000    8.000    0.000 
#    5.143    0.714    0.000    0.000    0.000    0.000 
#    0.000    0.000    0.000    0.000    0.000    0.000 
#
# Total GULP energy -77982.946175 kJ/mol
# GULP energy per Si atom -5570.210441 kJ/mol
# Density = 2.243611 g / cm^3
# Si number density = 22.487290 Si / 1000 Ang^3
#
#
#
# Elastic Constant Matrix: (Units=GPa)
#
#
# Indices 1 2 3 4 5 6 
#
# 1 153.4799 35.9510 19.8640 -8.2186 -9.6068 8.7690
# 2 35.9510 84.7614 45.2092 -16.8111 -15.3064 -5.4203
# 3 19.8640 45.2092 86.0281 -9.5622 -4.6683 -2.7131
# 4 -8.2186 -16.8111 -9.5622 45.9413 0.3905 0.0353
# 5 -9.6068 -15.3064 -4.6683 0.3905 48.3453 -6.0117
# 6 8.7690 -5.4203 -2.7131 0.0353 -6.0117 47.1558
#
#
#
# Elastic Compliance Matrix: (Units=1/GPa)
#
#
# Indices 1 2 3 4 5 6 
#
# 1 0.007378 -0.003111 -0.000090 0.000162 0.000259 -0.001702
# 2 -0.003111 0.019917 -0.008834 0.004847 0.005170 0.003015
# 3 -0.000090 -0.008834 0.016226 0.000140 -0.001277 -0.000228
# 4 0.000162 0.004847 0.000140 0.023585 0.001477 0.000706
# 5 0.000259 0.005170 -0.001277 0.001477 0.022656 0.003360
# 6 -0.001702 0.003015 -0.000228 0.000706 0.003360 0.022284
#
#
# Mechanical properties :
#
#
# Convention : Reuss Voigt Hill
#
# Bulk Modulus (GPa) = 51.41214 58.47977 54.94595
# Shear Modulus (GPa) = 35.06305 43.17150 39.11727
#
# Velocity S-wave (km/s) = 3.95300 4.38633 4.17529
# Velocity P-wave (km/s) = 6.61418 7.19133 6.90879
#
# Compressibility (1/GPa) = 0.01945066
#
# Stress axis : x y z
#
# Youngs Moduli (GPa) = 135.53674 50.20871 61.62821
#
# Poissons Ratio (x) = 0.15620 0.00556
# Poissons Ratio (y) = 0.42167 0.54442
# Poissons Ratio (z) = 0.01224 0.44354
#
# Static dielectric constant tensor:
#      x y z
#    x 1.849510 0.034330 0.034920 
#    y 0.034330 2.003410 -0.012010 
#    z 0.034920 -0.012010 1.760830 
# 
# From -- ./inp_files/243264.got.cif
#   From: 2010.05.17/outbox.cif.g08.bks.cpg/sg2_122_cif.got.tgz:243264.got - 2010.06.03 11:33:40.
