data_PCOD9030482
_publ_section_title
;
Structure prediction by ZEFSAII (Michael W. Deem and Ramdas Pophale) SiO2 
 PCOD9030482
Probable space group: P -1
;
_chemical_formula_sum "Si O2"
_cell_formula_units_Z 12
_cell_length_a 16.064311
_cell_length_b 10.370822
_cell_length_c 7.870222
_cell_angle_alpha 96.828427
_cell_angle_beta 140.831700
_cell_angle_gamma 53.420454
_cell_volume 489.734571
_symmetry_space_group_name_H-M "P -1"
_symmetry_group_IT_number 2
_symmetry_cell_setting 'triclinic'
loop_
_space_group_symop_operation_xyz
x,y,z
-x,-y,-z
loop_
_atom_site_type_symbol
_atom_site_label
_atom_site_fract_x
_atom_site_fract_y
_atom_site_fract_z
Si Si1 0.217322 0.862504 0.709535
Si Si2 0.056343 0.544358 0.435957
Si Si3 0.501690 0.857334 0.062779
Si Si4 0.556711 0.311627 0.611909
Si Si5 0.999525 0.820495 0.178397
Si Si6 0.798290 0.559728 0.795854
O O1 0.193477 0.769763 0.517099
O O2 0.274358 0.956072 0.728332
O O3 0.401989 0.709084 0.122579
O O4 0.000000 0.000000 0.500000
O O5 0.952775 0.766427 0.263418
O O6 0.000000 0.500000 0.500000
O O7 0.317263 0.362245 0.797888
O O8 0.969948 0.523460 0.140887
O O9 0.619497 0.769849 0.420653
O O10 0.500000 0.000000 0.000000
O O11 0.500000 0.500000 0.500000
O O12 0.348389 0.382654 0.274573
O O13 0.774541 0.078402 0.833996
O O14 0.079059 0.658075 0.135117
#
# Coordination Sequence:
#
# PCOD9030482 Si02
#       6
#     2   2   2   2   2   2
#     4   9  21  41  70 100 140 179 231 285 348 419
#     4  11  26  43  69 102 139 190 235 290 364 416
#     4  10  22  42  71 104 136 184 233 289 348 419
#     4  10  23  40  69 103 134 182 235 284 357 420
#     4  10  22  45  68  95 144 185 226 297 349 418
#     4  10  24  47  64 100 148 179 237 296 349 426
#
# _framework density 24.503067999999999
#
# number of rings (size 3 to 8) (size 9 to 14) (size 15 to 20)
#    0.000    2.000    0.000    2.000    9.333    8.667 
#    3.000    0.000    0.000    0.000    0.000    0.000 
#    0.000    0.000    0.000    0.000    0.000    0.000 
#
# Total GULP energy -66989.442795 kJ/mol
# GULP energy per Si atom -5582.453566 kJ/mol
# Density = 2.444730 g / cm^3
# Si number density = 24.503068 Si / 1000 Ang^3
#
#
#
# Elastic Constant Matrix: (Units=GPa)
#
#
# Indices 1 2 3 4 5 6 
#
# 1 104.4541 35.2430 40.9028 6.6338 9.7968 32.7416
# 2 35.2430 134.1141 56.9801 3.1947 2.3965 24.0057
# 3 40.9028 56.9801 66.3031 11.2317 27.6281 9.7542
# 4 6.6338 3.1947 11.2317 49.2025 11.0400 1.0212
# 5 9.7968 2.3965 27.6281 11.0400 42.3985 3.9299
# 6 32.7416 24.0057 9.7542 1.0212 3.9299 54.4546
#
#
#
# Elastic Compliance Matrix: (Units=1/GPa)
#
#
# Indices 1 2 3 4 5 6 
#
# 1 0.016236 0.003129 -0.013806 -0.000402 0.006015 -0.009095
# 2 0.003129 0.015808 -0.019497 0.000546 0.011521 -0.006200
# 3 -0.013806 -0.019497 0.051662 -0.002204 -0.029710 0.009828
# 4 -0.000402 0.000546 -0.002204 0.021782 -0.004201 0.000290
# 5 0.006015 0.011521 -0.029710 -0.004201 0.042588 -0.006369
# 6 -0.009095 -0.006200 0.009828 0.000290 -0.006369 0.025260
#
#
# Mechanical properties :
#
#
# Convention : Reuss Voigt Hill
#
# Bulk Modulus (GPa) = 42.80974 63.45814 53.13394
# Shear Modulus (GPa) = 20.70639 40.66081 30.68360
#
# Velocity S-wave (km/s) = 2.91013 4.07801 3.54253
# Velocity P-wave (km/s) = 5.36665 6.93742 6.20197
#
# Compressibility (1/GPa) = 0.02335917
#
# Stress axis : x y z
#
# Youngs Moduli (GPa) = 61.59038 63.25713 19.35657
#
# Poissons Ratio (x) = -0.19794 0.26723
# Poissons Ratio (y) = -0.19272 0.37740
# Poissons Ratio (z) = 0.85031 1.23333
#
# Static dielectric constant tensor:
#      x y z
#    x 2.123930 -0.005290 0.043140 
#    y -0.005290 2.036820 0.031910 
#    z 0.043140 0.031910 2.050270 
# 
# From -- ./inp_files/329238.got.cif
#   From: 2010.05.17/outbox.cif.g08.bks.cpg/sg2_165_cif.got.tgz:329238.got - 2010.06.03 11:33:40.
