data_PCOD9030915
_publ_section_title
;
Structure prediction by ZEFSAII (Michael W. Deem and Ramdas Pophale) SiO2 
 PCOD9030915
Probable space group: P -1
;
_chemical_formula_sum "Si O2"
_cell_formula_units_Z 16
_cell_length_a 17.228847
_cell_length_b 7.511258
_cell_length_c 19.834129
_cell_angle_alpha 101.942192
_cell_angle_beta 159.192603
_cell_angle_gamma 86.893316
_cell_volume 817.327079
_symmetry_space_group_name_H-M "P -1"
_symmetry_group_IT_number 2
_symmetry_cell_setting 'triclinic'
loop_
_space_group_symop_operation_xyz
x,y,z
-x,-y,-z
loop_
_atom_site_type_symbol
_atom_site_label
_atom_site_fract_x
_atom_site_fract_y
_atom_site_fract_z
Si Si1 0.117571 0.926461 0.149758
Si Si2 0.412022 0.361347 0.655928
Si Si3 0.635939 0.459969 0.169895
Si Si4 0.467342 0.157574 0.561015
Si Si5 0.829503 0.861871 0.170704
Si Si6 0.728178 0.792419 0.937817
Si Si7 0.659530 0.071847 0.428145
Si Si8 0.991805 0.724431 0.583822
O O1 0.256755 0.796435 0.224664
O O2 0.323974 0.105425 0.371328
O O3 0.921306 0.828376 0.039667
O O4 0.000000 0.000000 0.000000
O O5 0.418267 0.319962 0.578046
O O6 0.630436 0.564605 0.864115
O O7 0.171867 0.368590 0.490659
O O8 0.418478 0.159329 0.676607
O O9 0.811722 0.360649 0.279107
O O10 0.802113 0.652939 0.362705
O O11 0.500000 0.500000 0.000000
O O12 0.424973 0.307709 0.032372
O O13 0.374666 0.965337 0.521645
O O14 0.065076 0.813667 0.359804
O O15 0.882503 0.043029 0.279585
O O16 0.824930 0.924200 0.093649
O O17 0.511644 0.835581 0.734195
#
# Coordination Sequence:
#
# PCOD9030915 Si02
#       8
#     2   2   2   2   2   2   2   2
#     4  11  19  35  63  87 122 168 207 256 319 368
#     4   9  20  41  60  90 124 159 208 264 297 379
#     4  11  25  40  64  98 121 164 207 254 321 378
#     4   9  20  39  56  84 130 156 203 265 303 362
#     4  11  23  42  64  91 127 168 208 258 316 375
#     4  12  21  38  68  90 121 172 212 253 321 371
#     4   9  21  39  60  91 120 164 207 256 311 367
#     4  10  22  43  62  88 134 153 207 266 300 381
#
# _framework density 19.576006
#
# number of rings (size 3 to 8) (size 9 to 14) (size 15 to 20)
#    0.750    1.000    3.750    0.375    1.750    3.000 
#    0.000    3.125    0.000    0.000    0.000    0.000 
#    0.000    0.000    0.000    0.000    0.000    0.000 
#
# Total GULP energy -89113.813943 kJ/mol
# GULP energy per Si atom -5569.613371 kJ/mol
# Density = 1.953145 g / cm^3
# Si number density = 19.576006 Si / 1000 Ang^3
#
#
#
# Elastic Constant Matrix: (Units=GPa)
#
#
# Indices 1 2 3 4 5 6 
#
# 1 126.5806 29.0023 51.9636 -12.8171 9.0439 -20.4737
# 2 29.0023 20.6420 28.6431 -4.1862 0.3743 -3.5782
# 3 51.9636 28.6431 112.2541 -19.3480 -0.4129 -7.0303
# 4 -12.8171 -4.1862 -19.3480 31.3818 -3.7360 2.3883
# 5 9.0439 0.3743 -0.4129 -3.7360 46.4890 -1.9417
# 6 -20.4737 -3.5782 -7.0303 2.3883 -1.9417 18.9581
#
#
#
# Elastic Compliance Matrix: (Units=1/GPa)
#
#
# Indices 1 2 3 4 5 6 
#
# 1 0.014285 -0.015347 -0.001707 0.001616 -0.002061 0.011483
# 2 -0.015347 0.092643 -0.017557 -0.004177 0.001543 -0.004915
# 3 -0.001707 -0.017557 0.015298 0.006541 0.001127 -0.000193
# 4 0.001616 -0.004177 0.006541 0.036389 0.002663 -0.000929
# 5 -0.002061 0.001543 0.001127 0.002663 0.022140 0.000415
# 6 0.011483 -0.004915 -0.000193 -0.000929 0.000415 0.064310
#
#
# Mechanical properties :
#
#
# Convention : Reuss Voigt Hill
#
# Bulk Modulus (GPa) = 18.86628 53.18831 36.02729
# Shear Modulus (GPa) = 15.06232 29.35694 22.20963
#
# Velocity S-wave (km/s) = 2.77687 3.87672 3.37194
# Velocity P-wave (km/s) = 4.46539 6.87515 5.79687
#
# Compressibility (1/GPa) = 0.05300461
#
# Stress axis : x y z
#
# Youngs Moduli (GPa) = 70.00195 10.79417 65.36896
#
# Poissons Ratio (x) = 0.16566 0.11157
# Poissons Ratio (y) = 1.07433 1.14766
# Poissons Ratio (z) = 0.11947 0.18951
#
# Static dielectric constant tensor:
#      x y z
#    x 1.742790 -0.015370 0.003390 
#    y -0.015370 1.685770 0.027310 
#    z 0.003390 0.027310 1.691180 
# 
# From -- ./inp_files/599248.got.cif
#   From: 2010.05.17/outbox.cif.g08.bks.cpg/sg2_300_cif.got.tgz:599248.got - 2010.06.03 11:33:40.
