data_PCOD9030399
_publ_section_title
;
Structure prediction by ZEFSAII (Michael W. Deem and Ramdas Pophale) SiO2 
 PCOD9030399
Probable space group: P -1
;
_chemical_formula_sum "Si O2"
_cell_formula_units_Z 16
_cell_length_a 10.475865
_cell_length_b 11.747689
_cell_length_c 7.449061
_cell_angle_alpha 71.068020
_cell_angle_beta 63.529019
_cell_angle_gamma 49.235088
_cell_volume 620.782831
_symmetry_space_group_name_H-M "P -1"
_symmetry_group_IT_number 2
_symmetry_cell_setting 'triclinic'
loop_
_space_group_symop_operation_xyz
x,y,z
-x,-y,-z
loop_
_atom_site_type_symbol
_atom_site_label
_atom_site_fract_x
_atom_site_fract_y
_atom_site_fract_z
Si Si1 0.276029 0.419493 0.069213
Si Si2 0.702474 0.855785 0.960311
Si Si3 0.906758 0.974411 0.726434
Si Si4 0.644436 0.318077 0.808146
Si Si5 0.911885 0.627182 0.336637
Si Si6 0.262938 0.798037 0.801264
Si Si7 0.365305 0.418927 0.428720
Si Si8 0.306450 0.062343 0.666957
O O1 0.273420 0.287060 0.061188
O O2 0.348872 0.383685 0.247796
O O3 0.073805 0.568992 0.127208
O O4 0.431995 0.410541 0.872022
O O5 0.827413 0.887631 0.766761
O O6 0.731775 0.863678 0.149229
O O7 0.500000 0.000000 0.000000
O O8 0.061463 0.878494 0.825375
O O9 0.742569 0.144040 0.792919
O O10 0.000000 0.000000 0.500000
O O11 0.700323 0.410269 0.622229
O O12 0.694276 0.302184 0.997140
O O13 0.753353 0.617629 0.373566
O O14 0.843015 0.779173 0.410349
O O15 0.422279 0.692588 0.612523
O O16 0.279650 0.934035 0.751623
O O17 0.000000 0.500000 0.500000
O O18 0.500000 0.000000 0.500000
#
# Coordination Sequence:
#
# PCOD9030399 Si02
#       8
#     2   2   2   2   2   2   2   2
#     4  10  22  42  70  97 143 185 230 290 361 412
#     4  12  26  47  72 103 152 187 242 300 365 428
#     4  12  29  43  71 109 143 192 235 302 370 419
#     4  11  23  47  74 102 143 192 238 293 357 430
#     4  10  24  40  69 109 137 185 241 293 352 421
#     4  11  23  45  71 104 140 184 249 290 350 430
#     4  10  22  43  74 107 139 188 239 294 355 427
#     4  12  26  45  78 106 144 193 246 297 352 432
#
# _framework density 25.773910000000001
#
# number of rings (size 3 to 8) (size 9 to 14) (size 15 to 20)
#    0.000    1.000    3.750    2.625    8.750    1.500 
#    0.000    0.625    0.000    0.000    0.000    0.000 
#    0.000    0.000    0.000    0.000    0.000    0.000 
#
# Total GULP energy -89551.650208 kJ/mol
# GULP energy per Si atom -5596.978138 kJ/mol
# Density = 2.571525 g / cm^3
# Si number density = 25.773910 Si / 1000 Ang^3
#
#
#
# Elastic Constant Matrix: (Units=GPa)
#
#
# Indices 1 2 3 4 5 6 
#
# 1 103.2508 52.5648 30.1042 1.7411 -28.9232 18.1223
# 2 52.5648 167.8568 21.7469 3.0116 -24.2274 5.6011
# 3 30.1042 21.7469 78.8909 0.6061 -32.0695 0.7864
# 4 1.7411 3.0116 0.6061 46.1167 2.5558 -16.1244
# 5 -28.9232 -24.2274 -32.0695 2.5558 46.2628 5.4824
# 6 18.1223 5.6011 0.7864 -16.1244 5.4824 37.9940
#
#
#
# Elastic Compliance Matrix: (Units=1/GPa)
#
#
# Indices 1 2 3 4 5 6 
#
# 1 0.016105 -0.003142 -0.001555 -0.004496 0.008822 -0.010368
# 2 -0.003142 0.007218 -0.000052 -0.000459 0.001807 -0.000020
# 3 -0.001555 -0.000052 0.018156 -0.001534 0.011907 -0.001995
# 4 -0.004496 -0.000459 -0.001534 0.027564 -0.007417 0.015012
# 5 0.008822 0.001807 0.011907 -0.007417 0.038329 -0.013399
# 6 -0.010368 -0.000020 -0.001995 0.015012 -0.013399 0.039614
#
#
# Mechanical properties :
#
#
# Convention : Reuss Voigt Hill
#
# Bulk Modulus (GPa) = 31.27031 62.09228 46.68130
# Shear Modulus (GPa) = 29.91424 42.44685 36.18055
#
# Velocity S-wave (km/s) = 3.41051 4.06259 3.75075
# Velocity P-wave (km/s) = 5.26001 6.79335 6.07525
#
# Compressibility (1/GPa) = 0.03197921
#
# Stress axis : x y z
#
# Youngs Moduli (GPa) = 62.09257 138.54526 55.07949
#
# Poissons Ratio (x) = 0.43529 0.08566
# Poissons Ratio (y) = 0.19509 0.00289
# Poissons Ratio (z) = 0.09657 0.00727
#
# Static dielectric constant tensor:
#      x y z
#    x 2.128990 -0.092550 0.105500 
#    y -0.092550 2.112500 -0.064980 
#    z 0.105500 -0.064980 2.223950 
# 
# From -- ./inp_files/186511.got.cif
#   From: 2010.05.17/outbox.cif.g08.bks.cpg/sg2_94_cif.got.tgz:186511.got - 2010.06.03 11:33:40.
