data_PCOD9030667
_publ_section_title
;
Structure prediction by ZEFSAII (Michael W. Deem and Ramdas Pophale) SiO2 
 PCOD9030667
Probable space group: P -1
;
_chemical_formula_sum "Si O2"
_cell_formula_units_Z 16
_cell_length_a 8.354939
_cell_length_b 8.042285
_cell_length_c 14.845647
_cell_angle_alpha 71.574909
_cell_angle_beta 97.010907
_cell_angle_gamma 57.881406
_cell_volume 747.479264
_symmetry_space_group_name_H-M "P -1"
_symmetry_group_IT_number 2
_symmetry_cell_setting 'triclinic'
loop_
_space_group_symop_operation_xyz
x,y,z
-x,-y,-z
loop_
_atom_site_type_symbol
_atom_site_label
_atom_site_fract_x
_atom_site_fract_y
_atom_site_fract_z
Si Si1 0.095687 0.484557 0.250940
Si Si2 0.496561 0.796710 0.113328
Si Si3 0.846223 0.927462 0.610161
Si Si4 0.763928 0.741330 0.313854
Si Si5 0.490406 0.338352 0.589263
Si Si6 0.836678 0.700662 0.023825
Si Si7 0.540991 0.505529 0.731401
Si Si8 0.829176 0.013612 0.390928
O O1 0.082021 0.283298 0.289881
O O2 0.314731 0.423477 0.269099
O O3 0.990789 0.605207 0.316487
O O4 0.971515 0.640791 0.131923
O O5 0.625503 0.792540 0.207524
O O6 0.638910 0.725218 0.046426
O O7 0.467569 0.609677 0.161759
O O8 0.282762 0.042760 0.056502
O O9 0.865443 0.896526 0.509158
O O10 0.612766 0.107505 0.586855
O O11 0.966733 0.027182 0.621775
O O12 0.717534 0.611668 0.400247
O O13 0.728095 0.946578 0.326373
O O14 0.500000 0.500000 0.500000
O O15 0.604437 0.326841 0.689175
O O16 0.000000 0.500000 0.000000
O O17 0.321782 0.722914 0.651563
#
# Coordination Sequence:
#
# PCOD9030667 Si02
#       8
#     2   2   2   2   2   2   2   2
#     4  11  25  42  65  92 127 165 212 258 320 377
#     4   9  22  45  67  94 134 161 208 273 321 375
#     4  11  24  39  61  91 125 172 210 262 307 373
#     4  10  23  41  63  91 129 166 207 264 312 377
#     4  11  22  38  61  87 126 168 211 259 309 362
#     4  10  22  42  72  95 122 169 212 263 328 385
#     4  11  23  41  63  93 128 167 207 261 312 380
#     4  11  23  39  63  92 127 166 218 251 313 374
#
# _framework density 21.405273999999999
#
# number of rings (size 3 to 8) (size 9 to 14) (size 15 to 20)
#    0.000    1.500    1.250    3.750    8.750    2.000 
#    2.250    0.625    0.000    0.000    0.000    0.000 
#    0.000    0.000    0.000    0.000    0.000    0.000 
#
# Total GULP energy -89173.964351 kJ/mol
# GULP energy per Si atom -5573.372772 kJ/mol
# Density = 2.135655 g / cm^3
# Si number density = 21.405274 Si / 1000 Ang^3
#
#
#
# Elastic Constant Matrix: (Units=GPa)
#
#
# Indices 1 2 3 4 5 6 
#
# 1 89.1622 31.3098 30.2611 7.3932 -17.3898 -5.4380
# 2 31.3098 86.1400 15.7832 0.4262 -7.9908 -15.7995
# 3 30.2611 15.7832 60.5077 -12.3278 -21.7015 -4.3067
# 4 7.3932 0.4262 -12.3278 29.5612 -2.9548 0.8033
# 5 -17.3898 -7.9908 -21.7015 -2.9548 20.0115 -1.6495
# 6 -5.4380 -15.7995 -4.3067 0.8033 -1.6495 34.7018
#
#
#
# Elastic Compliance Matrix: (Units=1/GPa)
#
#
# Indices 1 2 3 4 5 6 
#
# 1 0.016418 -0.004262 -0.006978 -0.006554 0.004039 0.000110
# 2 -0.004262 0.014522 -0.000104 0.000910 0.002614 0.006034
# 3 -0.006978 -0.000104 0.039317 0.022022 0.040208 0.005140
# 4 -0.006554 0.000910 0.022022 0.047146 0.025697 0.002251
# 5 0.004039 0.002614 0.040208 0.025697 0.102838 0.011107
# 6 0.000110 0.006034 0.005140 0.002251 0.011107 0.032695
#
#
# Mechanical properties :
#
#
# Convention : Reuss Voigt Hill
#
# Bulk Modulus (GPa) = 21.02174 43.39089 32.20632
# Shear Modulus (GPa) = 17.15378 27.41864 22.28621
#
# Velocity S-wave (km/s) = 2.83394 3.58289 3.23019
# Velocity P-wave (km/s) = 4.53326 6.11811 5.38431
#
# Compressibility (1/GPa) = 0.04756980
#
# Stress axis : x y z
#
# Youngs Moduli (GPa) = 60.90723 68.86170 25.43413
#
# Poissons Ratio (x) = 0.29347 0.17749
# Poissons Ratio (y) = 0.25957 0.00264
# Poissons Ratio (z) = 0.42502 0.00716
#
# Static dielectric constant tensor:
#      x y z
#    x 1.780220 -0.019030 -0.029870 
#    y -0.019030 1.858750 -0.000500 
#    z -0.029870 -0.000500 1.789670 
# 
# From -- ./inp_files/492519.got.cif
#   From: 2010.05.17/outbox.cif.g08.bks.cpg/sg2_247_cif.got.tgz:492519.got - 2010.06.03 11:33:40.
