data_PCOD9030861
_publ_section_title
;
Structure prediction by ZEFSAII (Michael W. Deem and Ramdas Pophale) SiO2 
 PCOD9030861
Probable space group: P -1
;
_chemical_formula_sum "Si O2"
_cell_formula_units_Z 15
_cell_length_a 5.286783
_cell_length_b 10.582851
_cell_length_c 11.087440
_cell_angle_alpha 67.185471
_cell_angle_beta 96.103011
_cell_angle_gamma 93.221667
_cell_volume 568.485239
_symmetry_space_group_name_H-M "P -1"
_symmetry_group_IT_number 2
_symmetry_cell_setting 'triclinic'
loop_
_space_group_symop_operation_xyz
x,y,z
-x,-y,-z
loop_
_atom_site_type_symbol
_atom_site_label
_atom_site_fract_x
_atom_site_fract_y
_atom_site_fract_z
Si Si1 0.539772 0.365446 0.469794
Si Si2 0.237495 0.714428 0.149559
Si Si3 0.966882 0.989703 0.643598
Si Si4 0.000000 0.000000 0.000000
Si Si5 0.606090 0.900002 0.832499
Si Si6 0.025061 0.435166 0.307339
Si Si7 0.643244 0.835779 0.268723
Si Si8 0.792570 0.292777 0.132631
O O1 0.500000 0.500000 0.500000
O O2 0.805002 0.384801 0.406320
O O3 0.516627 0.237178 0.605316
O O4 0.292673 0.360476 0.371546
O O5 0.538454 0.738515 0.190339
O O6 0.119895 0.860882 0.117296
O O7 0.102165 0.594946 0.262696
O O8 0.193666 0.684147 0.017803
O O9 0.091283 0.847294 0.750776
O O10 0.681601 0.968442 0.684649
O O11 0.096893 0.122340 0.664820
O O12 0.000000 0.000000 0.500000
O O13 0.836825 0.905443 0.932567
O O14 0.504981 0.749022 0.857233
O O15 0.408976 0.008357 0.842364
O O16 0.906700 0.408567 0.179672
#
# Coordination Sequence:
#
# PCOD9030861 Si02
#       8
#     2   2   2   1   2   2   2   2
#     4  12  27  51  75 113 150 201 255 314 372 448
#     4  11  24  49  71 112 143 202 251 316 377 453
#     4  11  24  42  69 102 146 191 246 307 380 448
#     4  10  22  42  76  98 150 178 254 308 376 434
#     4  10  24  41  69 109 140 195 247 310 378 446
#     4  12  29  49  80 107 159 199 257 308 382 454
#     4  10  25  41  73 102 148 190 257 307 378 436
#     4  11  26  45  70 108 152 196 250 312 381 453
#
# _framework density 26.385908000000001
#
# number of rings (size 3 to 8) (size 9 to 14) (size 15 to 20)
#    0.000    1.067    2.667    1.600    9.333    4.800 
#    0.000    2.000    0.000    0.000    0.000    0.000 
#    0.000    0.000    0.000    0.000    0.000    0.000 
#
# Total GULP energy -83552.919804 kJ/mol
# GULP energy per Si atom -5570.194654 kJ/mol
# Density = 2.632585 g / cm^3
# Si number density = 26.385908 Si / 1000 Ang^3
#
#
#
# Elastic Constant Matrix: (Units=GPa)
#
#
# Indices 1 2 3 4 5 6 
#
# 1 53.2937 39.3164 32.6163 -0.4028 -0.9395 23.3413
# 2 39.3164 126.5783 30.3536 10.7571 -5.0366 44.0742
# 3 32.6163 30.3536 135.6704 5.6469 -12.4651 16.1251
# 4 -0.4028 10.7571 5.6469 62.9292 12.1367 6.2875
# 5 -0.9395 -5.0366 -12.4651 12.1367 37.6196 -3.1107
# 6 23.3413 44.0742 16.1251 6.2875 -3.1107 37.5841
#
#
#
# Elastic Compliance Matrix: (Units=1/GPa)
#
#
# Indices 1 2 3 4 5 6 
#
# 1 0.030723 -0.004296 -0.005413 0.003396 -0.003739 -0.012598
# 2 -0.004296 0.014172 -0.000395 -0.001249 0.000946 -0.013494
# 3 -0.005413 -0.000395 0.009074 -0.001469 0.003330 0.000453
# 4 0.003396 -0.001249 -0.001469 0.017893 -0.006636 -0.003557
# 5 -0.003739 0.000946 0.003330 -0.006636 0.030140 0.003388
# 6 -0.012598 -0.013494 0.000453 -0.003557 0.003388 0.050937
#
#
# Mechanical properties :
#
#
# Convention : Reuss Voigt Hill
#
# Bulk Modulus (GPa) = 29.61921 57.79054 43.70487
# Shear Modulus (GPa) = 27.11515 41.84364 34.47939
#
# Velocity S-wave (km/s) = 3.20916 3.98657 3.61880
# Velocity P-wave (km/s) = 4.99813 6.56810 5.83615
#
# Compressibility (1/GPa) = 0.03376188
#
# Stress axis : x y z
#
# Youngs Moduli (GPa) = 32.54884 70.56272 110.20939
#
# Poissons Ratio (x) = 0.30311 0.59651
# Poissons Ratio (y) = 0.13982 0.04355
# Poissons Ratio (z) = 0.17617 0.02788
#
# Static dielectric constant tensor:
#      x y z
#    x 2.330350 0.018160 -0.013090 
#    y 0.018160 1.891660 -0.116710 
#    z -0.013090 -0.116710 1.976580 
# 
# From -- ./inp_files/362724.got.cif
#   From: 2010.05.17/outbox.cif.g08.bks.cpg/sg2_182_cif.got.tgz:362724.got - 2010.06.03 11:33:40.
