data_PCOD9031819
_publ_section_title
;
Structure prediction by ZEFSAII (Michael W. Deem and Ramdas Pophale) SiO2 
 PCOD9031819
Probable space group: P -1
;
_chemical_formula_sum "Si O2"
_cell_formula_units_Z 16
_cell_length_a 8.235165
_cell_length_b 7.714695
_cell_length_c 20.084385
_cell_angle_alpha 94.773121
_cell_angle_beta 58.867800
_cell_angle_gamma 51.212050
_cell_volume 674.524637
_symmetry_space_group_name_H-M "P -1"
_symmetry_group_IT_number 2
_symmetry_cell_setting 'triclinic'
loop_
_space_group_symop_operation_xyz
x,y,z
-x,-y,-z
loop_
_atom_site_type_symbol
_atom_site_label
_atom_site_fract_x
_atom_site_fract_y
_atom_site_fract_z
Si Si1 0.267420 0.736152 0.612100
Si Si2 0.454835 0.411935 0.927933
Si Si3 0.392996 0.892062 0.241373
Si Si4 0.753988 0.725013 0.269478
Si Si5 0.264018 0.012343 0.883255
Si Si6 0.160867 0.207060 0.605598
Si Si7 0.391612 0.320971 0.067426
Si Si8 0.482328 0.298603 0.309258
O O1 0.500000 0.500000 0.500000
O O2 0.414079 0.647963 0.651833
O O3 0.154352 0.010253 0.623115
O O4 0.969080 0.830805 0.676757
O O5 0.520443 0.317124 0.836052
O O6 0.649023 0.441625 0.905639
O O7 0.521744 0.212907 0.961851
O O8 0.096815 0.706454 0.023480
O O9 0.506723 0.778300 0.288950
O O10 0.570343 0.932695 0.176538
O O11 0.864336 0.652284 0.319436
O O12 0.059778 0.480277 0.153303
O O13 0.593772 0.029593 0.303809
O O14 0.390322 0.886222 0.925610
O O15 0.352679 0.806510 0.801494
O O16 0.879834 0.439507 0.622011
O O17 0.500000 0.000000 0.500000
#
# Coordination Sequence:
#
# PCOD9031819 Si02
#       8
#     2   2   2   2   2   2   2   2
#     4  11  28  47  67  99 139 171 218 280 340 384
#     4  11  23  42  64  98 140 173 223 272 330 385
#     4  11  25  45  64  96 145 173 214 284 332 386
#     4  10  22  43  68  94 135 175 218 273 335 387
#     4  11  23  42  68  98 131 178 226 263 331 398
#     4  11  25  44  75  96 124 176 232 270 329 404
#     4  11  22  40  67  94 132 178 226 263 320 403
#     4  10  22  44  69  94 130 174 219 265 328 395
#
# _framework density 23.720409
#
# number of rings (size 3 to 8) (size 9 to 14) (size 15 to 20)
#    0.000    1.250    3.750    2.250    7.000    2.000 
#    2.250    0.000    0.000    0.000    0.000    0.000 
#    0.000    0.000    0.000    0.000    0.000    0.000 
#
# Total GULP energy -89457.583907 kJ/mol
# GULP energy per Si atom -5591.098994 kJ/mol
# Density = 2.366642 g / cm^3
# Si number density = 23.720409 Si / 1000 Ang^3
#
#
#
# Elastic Constant Matrix: (Units=GPa)
#
#
# Indices 1 2 3 4 5 6 
#
# 1 121.1513 27.6545 39.9444 8.8204 4.1104 -45.8616
# 2 27.6545 100.2125 6.3061 8.3744 -11.6215 -27.9337
# 3 39.9444 6.3061 100.9378 16.8767 -13.0627 -8.8070
# 4 8.8204 8.3744 16.8767 20.5790 -7.7977 -9.4510
# 5 4.1104 -11.6215 -13.0627 -7.7977 40.6684 7.3858
# 6 -45.8616 -27.9337 -8.8070 -9.4510 7.3858 42.1223
#
#
#
# Elastic Compliance Matrix: (Units=1/GPa)
#
#
# Indices 1 2 3 4 5 6 
#
# 1 0.018408 -0.000043 -0.007199 0.004945 -0.007023 0.020850
# 2 -0.000043 0.012436 0.000349 -0.001012 0.002081 0.007681
# 3 -0.007199 0.000349 0.014463 -0.010676 0.004848 -0.007828
# 4 0.004945 -0.001012 -0.010676 0.065075 0.005327 0.016148
# 5 -0.007023 0.002081 0.004848 0.005327 0.030170 -0.009348
# 6 0.020850 0.007681 -0.007828 0.016148 -0.009348 0.055161
#
#
# Mechanical properties :
#
#
# Convention : Reuss Voigt Hill
#
# Bulk Modulus (GPa) = 31.72399 52.23463 41.97931
# Shear Modulus (GPa) = 22.72669 37.23369 29.98019
#
# Velocity S-wave (km/s) = 3.09869 3.96623 3.55899
# Velocity P-wave (km/s) = 5.11915 6.56075 5.88426
#
# Compressibility (1/GPa) = 0.03152188
#
# Stress axis : x y z
#
# Youngs Moduli (GPa) = 54.32315 80.41401 69.13995
#
# Poissons Ratio (x) = 0.00345 0.49772
# Poissons Ratio (y) = 0.00233 -0.02411
# Poissons Ratio (z) = 0.39105 -0.02805
#
# Static dielectric constant tensor:
#      x y z
#    x 1.942420 0.012940 0.041920 
#    y 0.012940 1.988510 -0.033400 
#    z 0.041920 -0.033400 1.881130 
# 
# From -- ./inp_files/606412.got.cif
#   From: 2010.05.17/outbox.cif.g08.bks.cpg/sg2_304_cif.got.tgz:606412.got - 2010.06.03 11:33:40.
