data_PCOD9031432
_publ_section_title
;
Structure prediction by ZEFSAII (Michael W. Deem and Ramdas Pophale) SiO2 
 PCOD9031432
Probable space group: P -1
;
_chemical_formula_sum "Si O2"
_cell_formula_units_Z 14
_cell_length_a 9.681448
_cell_length_b 7.167694
_cell_length_c 20.755067
_cell_angle_alpha 44.949099
_cell_angle_beta 141.104131
_cell_angle_gamma 107.977754
_cell_volume 535.298299
_symmetry_space_group_name_H-M "P -1"
_symmetry_group_IT_number 2
_symmetry_cell_setting 'triclinic'
loop_
_space_group_symop_operation_xyz
x,y,z
-x,-y,-z
loop_
_atom_site_type_symbol
_atom_site_label
_atom_site_fract_x
_atom_site_fract_y
_atom_site_fract_z
Si Si1 0.388548 0.361408 0.348764
Si Si2 0.254213 0.395916 0.424986
Si Si3 0.907379 0.329847 0.557016
Si Si4 0.813502 0.819262 0.792309
Si Si5 0.556625 0.043777 0.114783
Si Si6 0.262978 0.531345 0.773578
Si Si7 0.659626 0.684070 0.899865
O O1 0.220246 0.556617 0.303152
O O2 0.643387 0.369393 0.425965
O O3 0.231242 0.405766 0.215639
O O4 0.500000 0.000000 0.500000
O O5 0.173913 0.547453 0.429209
O O6 0.049687 0.282478 0.375313
O O7 0.567441 0.159022 0.601514
O O8 0.000000 0.500000 0.500000
O O9 0.176936 0.996138 0.750653
O O10 0.769235 0.794654 0.856849
O O11 0.115887 0.690515 0.921827
O O12 0.383565 0.138966 0.092640
O O13 0.645185 0.715100 0.192415
O O14 0.401231 0.312003 0.939975
O O15 0.390953 0.733364 0.763888
#
# Coordination Sequence:
#
# PCOD9031432 Si02
#       7
#     2   2   2   2   2   2   2
#     4  10  23  40  65  95 134 177 217 275 330 407
#     4  10  22  43  66  97 131 175 225 275 332 403
#     4  11  24  41  69 102 135 173 225 281 338 391
#     4  10  24  41  62  96 131 173 227 267 343 397
#     4  10  23  41  64  96 129 168 226 275 329 402
#     4  10  23  40  69  94 128 176 226 274 333 400
#     4  11  23  42  65  92 135 178 216 283 336 395
#
# _framework density 26.153642999999999
#
# number of rings (size 3 to 8) (size 9 to 14) (size 15 to 20)
#    0.000    1.714    0.000    2.571   12.000    0.571 
#    5.143    1.429    0.000    0.000    0.000    0.000 
#    0.000    0.000    0.000    0.000    0.000    0.000 
#
# Total GULP energy -78176.360306 kJ/mol
# GULP energy per Si atom -5584.025736 kJ/mol
# Density = 2.609412 g / cm^3
# Si number density = 26.153643 Si / 1000 Ang^3
#
#
#
# Elastic Constant Matrix: (Units=GPa)
#
#
# Indices 1 2 3 4 5 6 
#
# 1 196.3240 60.6966 39.2610 10.7585 4.4859 -27.4941
# 2 60.6966 71.3142 13.3800 9.2029 11.7259 -21.8530
# 3 39.2610 13.3800 96.2222 17.7359 10.6107 -0.2820
# 4 10.7585 9.2029 17.7359 37.9940 5.0783 5.5810
# 5 4.4859 11.7259 10.6107 5.0783 43.0898 14.7367
# 6 -27.4941 -21.8530 -0.2820 5.5810 14.7367 51.3035
#
#
#
# Elastic Compliance Matrix: (Units=1/GPa)
#
#
# Indices 1 2 3 4 5 6 
#
# 1 0.007483 -0.005673 -0.002367 0.000047 0.000891 0.001320
# 2 -0.005673 0.023979 0.000925 -0.004933 -0.009115 0.010334
# 3 -0.002367 0.000925 0.012462 -0.005092 -0.002648 0.000508
# 4 0.000047 -0.004933 -0.005092 0.030591 0.000936 -0.005701
# 5 0.000891 -0.009115 -0.002648 0.000936 0.030320 -0.012231
# 6 0.001320 0.010334 0.000508 -0.005701 -0.012231 0.028737
#
#
# Mechanical properties :
#
#
# Convention : Reuss Voigt Hill
#
# Bulk Modulus (GPa) = 33.67717 65.61507 49.64612
# Shear Modulus (GPa) = 31.70584 43.17897 37.44241
#
# Velocity S-wave (km/s) = 3.48557 4.06763 3.78780
# Velocity P-wave (km/s) = 5.39477 6.87048 6.17686
#
# Compressibility (1/GPa) = 0.02969371
#
# Stress axis : x y z
#
# Youngs Moduli (GPa) = 133.64129 41.70292 80.24423
#
# Poissons Ratio (x) = 0.23657 0.18997
# Poissons Ratio (y) = 0.75810 -0.07423
# Poissons Ratio (z) = 0.31639 -0.03858
#
# Static dielectric constant tensor:
#      x y z
#    x 2.028250 -0.028310 0.001030 
#    y -0.028310 2.323390 -0.112540 
#    z 0.001030 -0.112540 2.121690 
# 
# From -- ./inp_files/159513.got.cif
#   From: 2010.05.17/outbox.cif.g08.bks.cpg/sg2_80_cif.got.tgz:159513.got - 2010.06.03 11:33:40.
