data_PCOD9031688
_publ_section_title
;
Structure prediction by ZEFSAII (Michael W. Deem and Ramdas Pophale) SiO2 
 PCOD9031688
Probable space group: P -1
;
_chemical_formula_sum "Si O2"
_cell_formula_units_Z 16
_cell_length_a 5.373065
_cell_length_b 20.686614
_cell_length_c 8.668215
_cell_angle_alpha 122.215617
_cell_angle_beta 59.296933
_cell_angle_gamma 110.422656
_cell_volume 696.972829
_symmetry_space_group_name_H-M "P -1"
_symmetry_group_IT_number 2
_symmetry_cell_setting 'triclinic'
loop_
_space_group_symop_operation_xyz
x,y,z
-x,-y,-z
loop_
_atom_site_type_symbol
_atom_site_label
_atom_site_fract_x
_atom_site_fract_y
_atom_site_fract_z
Si Si1 0.657632 0.567194 0.251901
Si Si2 0.924690 0.510232 0.777697
Si Si3 0.695444 0.706478 0.602917
Si Si4 0.996642 0.331023 0.220859
Si Si5 0.559311 0.039538 0.867180
Si Si6 0.474648 0.073360 0.494241
Si Si7 0.034455 0.173976 0.909564
Si Si8 0.044199 0.131159 0.196043
O O1 0.312355 0.552167 0.307080
O O2 0.777684 0.654428 0.367529
O O3 0.774040 0.520234 0.300898
O O4 0.794288 0.537445 0.015194
O O5 0.944198 0.583809 0.755701
O O6 0.349845 0.688613 0.691705
O O7 0.839458 0.678730 0.680670
O O8 0.775393 0.797766 0.684012
O O9 0.086640 0.265319 0.989990
O O10 0.765968 0.116820 0.857713
O O11 0.695481 0.970462 0.648960
O O12 0.239614 0.067857 0.986303
O O13 0.500000 0.000000 0.000000
O O14 0.316120 0.136871 0.712058
O O15 0.779349 0.102257 0.353347
O O16 0.500000 0.000000 0.500000
O O17 0.952941 0.165838 0.106824
#
# Coordination Sequence:
#
# PCOD9031688 Si02
#       8
#     2   2   2   2   2   2   2   2
#     4  10  22  43  67  99 137 180 223 275 342 407
#     4  10  22  43  67  99 139 175 224 284 332 399
#     4  11  24  44  69  98 139 183 225 276 355 410
#     4  11  24  44  68 100 140 179 226 288 338 410
#     4  12  22  43  70  90 134 176 221 292 344 406
#     4  12  24  43  70  98 126 184 235 281 349 418
#     4  11  24  45  64 100 138 176 230 287 350 414
#     4  11  24  46  63  97 144 174 220 299 348 404
#
# _framework density 22.956420000000001
#
# number of rings (size 3 to 8) (size 9 to 14) (size 15 to 20)
#    0.000    1.000    3.750    3.000    0.000    3.000 
#   20.250    0.000    0.000    0.000    0.000    0.000 
#    0.000    0.000    0.000    0.000    0.000    0.000 
#
# Total GULP energy -89188.686062 kJ/mol
# GULP energy per Si atom -5574.292879 kJ/mol
# Density = 2.290417 g / cm^3
# Si number density = 22.956420 Si / 1000 Ang^3
#
#
#
# Elastic Constant Matrix: (Units=GPa)
#
#
# Indices 1 2 3 4 5 6 
#
# 1 103.7787 2.5212 32.8273 -5.1787 1.0998 8.5716
# 2 2.5212 34.7461 34.0169 -7.3072 3.2173 17.8661
# 3 32.8273 34.0169 115.2274 6.5113 7.5789 14.8004
# 4 -5.1787 -7.3072 6.5113 35.4686 11.7099 7.2281
# 5 1.0998 3.2173 7.5789 11.7099 29.8648 3.3921
# 6 8.5716 17.8661 14.8004 7.2281 3.3921 37.7678
#
#
#
# Elastic Compliance Matrix: (Units=1/GPa)
#
#
# Indices 1 2 3 4 5 6 
#
# 1 0.012041 0.009303 -0.005651 0.006564 -0.001903 -0.006004
# 2 0.009303 0.073493 -0.021047 0.030904 -0.011227 -0.033535
# 3 -0.005651 -0.021047 0.016104 -0.009994 0.001546 0.006702
# 4 0.006564 0.030904 -0.009994 0.047054 -0.017253 -0.019648
# 5 -0.001903 -0.011227 0.001546 -0.017253 0.040592 0.004793
# 6 -0.006004 -0.033535 0.006702 -0.019648 0.004793 0.044408
#
#
# Mechanical properties :
#
#
# Convention : Reuss Voigt Hill
#
# Bulk Modulus (GPa) = 14.95940 43.60922 29.28431
# Shear Modulus (GPa) = 17.19605 32.91270 25.05438
#
# Velocity S-wave (km/s) = 2.73989 3.79054 3.30720
# Velocity P-wave (km/s) = 4.06693 6.18024 5.23141
#
# Compressibility (1/GPa) = 0.06684758
#
# Stress axis : x y z
#
# Youngs Moduli (GPa) = 83.04837 13.60678 62.09580
#
# Poissons Ratio (x) = -0.12659 0.35093
# Poissons Ratio (y) = -0.77261 1.30693
# Poissons Ratio (z) = 0.46934 0.28638
#
# Static dielectric constant tensor:
#      x y z
#    x 1.972550 -0.041180 0.069100 
#    y -0.041180 1.948370 0.098870 
#    z 0.069100 0.098870 1.754300 
# 
# From -- ./inp_files/141569.got.cif
#   From: 2010.05.17/outbox.cif.g08.bks.cpg/sg2_71_cif.got.tgz:141569.got - 2010.06.03 11:33:40.
