data_PCOD9031539
_publ_section_title
;
Structure prediction by ZEFSAII (Michael W. Deem and Ramdas Pophale) SiO2 
 PCOD9031539
Probable space group: P -1
;
_chemical_formula_sum "Si O2"
_cell_formula_units_Z 13
_cell_length_a 9.704863
_cell_length_b 12.556681
_cell_length_c 10.886767
_cell_angle_alpha 143.616812
_cell_angle_beta 102.192706
_cell_angle_gamma 102.144805
_cell_volume 580.493782
_symmetry_space_group_name_H-M "P -1"
_symmetry_group_IT_number 2
_symmetry_cell_setting 'triclinic'
loop_
_space_group_symop_operation_xyz
x,y,z
-x,-y,-z
loop_
_atom_site_type_symbol
_atom_site_label
_atom_site_fract_x
_atom_site_fract_y
_atom_site_fract_z
Si Si1 0.093832 0.217031 0.361823
Si Si2 0.491879 0.697674 0.229301
Si Si3 0.620954 0.272949 0.021453
Si Si4 0.000000 0.500000 0.500000
Si Si5 0.823558 0.085096 0.835236
Si Si6 0.864442 0.474912 0.851130
Si Si7 0.247386 0.898756 0.721693
O O1 0.074927 0.350581 0.377376
O O2 0.156704 0.067842 0.213227
O O3 0.898173 0.058974 0.252253
O O4 0.250676 0.444609 0.686184
O O5 0.469369 0.801742 0.200110
O O6 0.668255 0.902275 0.534929
O O7 0.500000 0.500000 0.000000
O O8 0.308277 0.574087 0.161900
O O9 0.761276 0.220122 0.013358
O O10 0.460141 0.134802 0.964579
O O11 0.179011 0.714593 0.647646
O O12 0.012458 0.289444 0.989621
O O13 0.795636 0.255578 0.549264
O O14 0.000000 0.500000 0.000000
#
# Coordination Sequence:
#
# PCOD9031539 Si02
#       7
#     2   2   2   1   2   2   2
#     4  10  23  43  64  94 122 169 220 260 326 375
#     4  12  25  38  59 100 132 169 213 251 319 392
#     4  12  22  42  63  94 133 167 209 271 314 384
#     4   8  22  46  64  92 128 162 220 276 316 378
#     4  12  23  39  66  93 133 172 213 259 319 386
#     4  12  23  41  65  95 136 175 204 264 323 380
#     4  10  22  43  67  88 129 170 209 267 325 373
#
# _framework density 22.394727
#
# number of rings (size 3 to 8) (size 9 to 14) (size 15 to 20)
#    0.923    0.000    6.154    1.385    2.154    1.231 
#    0.000    3.846    0.000    0.000    0.000    0.000 
#    0.000    0.000    0.000    0.000    0.000    0.000 
#
# Total GULP energy -72411.480429 kJ/mol
# GULP energy per Si atom -5570.113879 kJ/mol
# Density = 2.234376 g / cm^3
# Si number density = 22.394727 Si / 1000 Ang^3
#
#
#
# Elastic Constant Matrix: (Units=GPa)
#
#
# Indices 1 2 3 4 5 6 
#
# 1 101.5046 24.3349 33.4295 24.8865 1.0848 4.3973
# 2 24.3349 78.7802 5.5441 18.7812 2.8343 -6.5432
# 3 33.4295 5.5441 65.1301 8.5401 4.4680 4.1031
# 4 24.8865 18.7812 8.5401 40.0310 10.1490 -2.1358
# 5 1.0848 2.8343 4.4680 10.1490 49.5928 18.7875
# 6 4.3973 -6.5432 4.1031 -2.1358 18.7875 47.5467
#
#
#
# Elastic Compliance Matrix: (Units=1/GPa)
#
#
# Indices 1 2 3 4 5 6 
#
# 1 0.014395 -0.002595 -0.006248 -0.007267 0.002872 -0.002611
# 2 -0.002595 0.014908 0.000652 -0.005239 -0.000634 0.002251
# 3 -0.006248 0.000652 0.018634 -0.000056 -0.001424 -0.000381
# 4 -0.007267 -0.005239 -0.000056 0.034352 -0.008391 0.004814
# 5 0.002872 -0.000634 -0.001424 -0.008391 0.026123 -0.010929
# 6 -0.002611 0.002251 -0.000381 0.004814 -0.010929 0.026151
#
#
# Mechanical properties :
#
#
# Convention : Reuss Voigt Hill
#
# Bulk Modulus (GPa) = 31.68989 41.33689 36.51339
# Shear Modulus (GPa) = 30.96645 39.57452 35.27049
#
# Velocity S-wave (km/s) = 3.72258 4.20829 3.97286
# Velocity P-wave (km/s) = 5.71473 6.48933 6.11430
#
# Compressibility (1/GPa) = 0.03155580
#
# Stress axis : x y z
#
# Youngs Moduli (GPa) = 69.46619 67.07798 53.66467
#
# Poissons Ratio (x) = 0.17406 0.33528
# Poissons Ratio (y) = 0.18025 -0.03496
# Poissons Ratio (z) = 0.43400 -0.04370
#
# Static dielectric constant tensor:
#      x y z
#    x 1.701850 0.241230 -0.205950 
#    y 0.241230 0.999960 0.656130 
#    z -0.205950 0.656130 1.223830 
# 
# From -- ./inp_files/502354.got.cif
#   From: 2010.05.17/outbox.cif.g08.bks.cpg/sg2_252_cif.got.tgz:502354.got - 2010.06.03 11:33:40.
