data_PCOD9031567
_publ_section_title
;
Structure prediction by ZEFSAII (Michael W. Deem and Ramdas Pophale) SiO2 
 PCOD9031567
Probable space group: P -1
;
_chemical_formula_sum "Si O2"
_cell_formula_units_Z 16
_cell_length_a 8.918315
_cell_length_b 15.126330
_cell_length_c 9.588657
_cell_angle_alpha 65.790511
_cell_angle_beta 134.974990
_cell_angle_gamma 88.219581
_cell_volume 724.026681
_symmetry_space_group_name_H-M "P -1"
_symmetry_group_IT_number 2
_symmetry_cell_setting 'triclinic'
loop_
_space_group_symop_operation_xyz
x,y,z
-x,-y,-z
loop_
_atom_site_type_symbol
_atom_site_label
_atom_site_fract_x
_atom_site_fract_y
_atom_site_fract_z
Si Si1 0.924979 0.108585 0.282298
Si Si2 0.685444 0.725098 0.898716
Si Si3 0.705238 0.997234 0.030589
Si Si4 0.606509 0.491349 0.368423
Si Si5 0.586359 0.906469 0.502350
Si Si6 0.010714 0.260446 0.664208
Si Si7 0.859076 0.480135 0.793826
Si Si8 0.322253 0.671464 0.836616
O O1 0.765914 0.221296 0.190613
O O2 0.149215 0.119274 0.361577
O O3 0.000000 0.000000 0.500000
O O4 0.790714 0.080918 0.090744
O O5 0.570649 0.813051 0.641976
O O6 0.505807 0.678222 0.842832
O O7 0.757937 0.756762 0.076774
O O8 0.939046 0.638707 0.052100
O O9 0.585272 0.045976 0.773057
O O10 0.921165 0.868352 0.234195
O O11 0.500000 0.000000 0.000000
O O12 0.786015 0.360362 0.537504
O O13 0.748904 0.537529 0.531561
O O14 0.373863 0.510192 0.289407
O O15 0.489525 0.561484 0.106630
O O16 0.500000 0.000000 0.500000
O O17 0.918919 0.312862 0.413552
O O18 0.000000 0.500000 0.000000
#
# Coordination Sequence:
#
# PCOD9031567 Si02
#       8
#     2   2   2   2   2   2   2   2
#     4  12  24  42  68  97 135 176 220 276 338 400
#     4  11  25  42  66  98 132 175 223 280 332 405
#     4  12  24  43  70 100 136 179 224 278 341 404
#     4  10  24  42  66 101 129 176 222 277 332 407
#     4  12  25  43  67  99 135 174 228 278 338 400
#     4  11  23  41  66  95 134 172 223 273 335 394
#     4  10  22  43  67  93 136 169 222 274 342 393
#     4  12  24  43  69  97 138 175 226 275 338 401
#
# _framework density 22.098633
#
# number of rings (size 3 to 8) (size 9 to 14) (size 15 to 20)
#    0.000    0.750    3.750    3.375    0.000    5.500 
#    0.000    0.000    0.000    0.000    0.000    0.000 
#    0.000    0.000    0.000    0.000    0.000    0.000 
#
# Total GULP energy -89110.725216 kJ/mol
# GULP energy per Si atom -5569.420326 kJ/mol
# Density = 2.204834 g / cm^3
# Si number density = 22.098633 Si / 1000 Ang^3
#
#
#
# Elastic Constant Matrix: (Units=GPa)
#
#
# Indices 1 2 3 4 5 6 
#
# 1 77.7975 16.6756 39.7325 -19.8320 -15.0894 -10.3734
# 2 16.6756 97.6051 43.6745 22.3965 2.9055 -26.9236
# 3 39.7325 43.6745 167.2276 30.9448 -30.5439 -6.8197
# 4 -19.8320 22.3965 30.9448 57.0734 -13.6318 2.2834
# 5 -15.0894 2.9055 -30.5439 -13.6318 35.0182 -2.4721
# 6 -10.3734 -26.9236 -6.8197 2.2834 -2.4721 28.2211
#
#
#
# Elastic Compliance Matrix: (Units=1/GPa)
#
#
# Indices 1 2 3 4 5 6 
#
# 1 0.022918 -0.005130 -0.004580 0.015340 0.012438 0.002272
# 2 -0.005130 0.019709 -0.003007 -0.010812 -0.009531 0.016231
# 3 -0.004580 -0.003007 0.009461 -0.004352 0.004728 -0.001499
# 4 0.015340 -0.010812 -0.004352 0.033630 0.016307 -0.007021
# 5 0.012438 -0.009531 0.004728 0.016307 0.045127 -0.000745
# 6 0.002272 0.016231 -0.001499 -0.007021 -0.000745 0.051895
#
#
# Mechanical properties :
#
#
# Convention : Reuss Voigt Hill
#
# Bulk Modulus (GPa) = 37.51503 60.31061 48.91282
# Shear Modulus (GPa) = 23.03547 40.23238 31.63392
#
# Velocity S-wave (km/s) = 3.23211 4.27146 3.78761
# Velocity P-wave (km/s) = 5.56253 7.18874 6.42727
#
# Compressibility (1/GPa) = 0.02665598
#
# Stress axis : x y z
#
# Youngs Moduli (GPa) = 43.63364 50.73820 105.69717
#
# Poissons Ratio (x) = 0.26027 0.48404
# Poissons Ratio (y) = 0.22383 0.31781
# Poissons Ratio (z) = 0.19982 0.15256
#
# Static dielectric constant tensor:
#      x y z
#    x 1.693040 -0.091450 0.036820 
#    y -0.091450 1.768070 0.079980 
#    z 0.036820 0.079980 1.854520 
# 
# From -- ./inp_files/206546.got.cif
#   From: 2010.05.17/outbox.cif.g08.bks.cpg/sg2_104_cif.got.tgz:206546.got - 2010.06.03 11:33:40.
