data_PCOD9031038
_publ_section_title
;
Structure prediction by ZEFSAII (Michael W. Deem and Ramdas Pophale) SiO2 
 PCOD9031038
Probable space group: P -1
;
_chemical_formula_sum "Si O2"
_cell_formula_units_Z 14
_cell_length_a 12.527213
_cell_length_b 12.752850
_cell_length_c 5.057846
_cell_angle_alpha 109.010938
_cell_angle_beta 130.819193
_cell_angle_gamma 67.490880
_cell_volume 561.608878
_symmetry_space_group_name_H-M "P -1"
_symmetry_group_IT_number 2
_symmetry_cell_setting 'triclinic'
loop_
_space_group_symop_operation_xyz
x,y,z
-x,-y,-z
loop_
_atom_site_type_symbol
_atom_site_label
_atom_site_fract_x
_atom_site_fract_y
_atom_site_fract_z
Si Si1 0.675195 0.613404 0.972191
Si Si2 0.105656 0.254953 0.824679
Si Si3 0.860537 0.977061 0.546375
Si Si4 0.501192 0.309551 0.727624
Si Si5 0.561998 0.054018 0.398028
Si Si6 0.931060 0.187010 0.878065
Si Si7 0.211319 0.638107 0.850926
O O1 0.787148 0.675056 0.059026
O O2 0.592446 0.681271 0.147714
O O3 0.570952 0.601537 0.546996
O O4 0.758658 0.492613 0.127410
O O5 0.177206 0.121113 0.775987
O O6 0.058734 0.246456 0.045393
O O7 0.944861 0.313474 0.497047
O O8 0.733955 0.018318 0.589254
O O9 0.884970 0.091921 0.540733
O O10 0.002026 0.897890 0.847728
O O11 0.520467 0.188521 0.509651
O O12 0.654559 0.336209 0.069228
O O13 0.500000 0.000000 0.500000
O O14 0.500000 0.000000 0.000000
O O15 0.799298 0.284690 0.839851
#
# Coordination Sequence:
#
# PCOD9031038 Si02
#       7
#     2   2   2   2   2   2   2
#     4  12  29  48  75 107 150 193 247 307 361 424
#     4  11  25  43  75 105 143 190 246 304 367 426
#     4  10  22  43  64 105 137 181 235 294 363 428
#     4  12  27  50  72 109 147 198 243 296 371 437
#     4  12  26  43  72 105 145 187 234 295 365 438
#     4  10  23  42  72  99 139 183 240 296 361 432
#     4  11  26  47  73 106 141 197 250 299 358 437
#
# _framework density 24.928383
#
# number of rings (size 3 to 8) (size 9 to 14) (size 15 to 20)
#    0.000    0.857    1.429    4.286   12.000    1.714 
#    0.000    0.000    0.000    0.000    0.000    0.000 
#    0.000    0.000    0.000    0.000    0.000    0.000 
#
# Total GULP energy -78213.558429 kJ/mol
# GULP energy per Si atom -5586.682745 kJ/mol
# Density = 2.487164 g / cm^3
# Si number density = 24.928383 Si / 1000 Ang^3
#
#
#
# Elastic Constant Matrix: (Units=GPa)
#
#
# Indices 1 2 3 4 5 6 
#
# 1 181.7416 57.0323 45.8898 3.5206 14.6919 11.9994
# 2 57.0323 110.4134 9.1564 16.9557 10.2642 -3.0168
# 3 45.8898 9.1564 71.2190 -10.3374 5.7744 -0.8698
# 4 3.5206 16.9557 -10.3374 27.8904 4.6648 8.3195
# 5 14.6919 10.2642 5.7744 4.6648 45.7041 0.1369
# 6 11.9994 -3.0168 -0.8698 8.3195 0.1369 37.7513
#
#
#
# Elastic Compliance Matrix: (Units=1/GPa)
#
#
# Indices 1 2 3 4 5 6 
#
# 1 0.008199 -0.003954 -0.004592 0.000831 -0.001243 -0.003206
# 2 -0.003954 0.012565 -0.000167 -0.008305 -0.000694 0.004090
# 3 -0.004592 -0.000167 0.018263 0.007659 -0.001576 0.000185
# 4 0.000831 -0.008305 0.007659 0.047696 -0.004204 -0.011247
# 5 -0.001243 -0.000694 -0.001576 -0.004204 0.023060 0.001146
# 6 -0.003206 0.004090 0.000185 -0.011247 0.001146 0.030314
#
#
# Mechanical properties :
#
#
# Convention : Reuss Voigt Hill
#
# Bulk Modulus (GPa) = 46.29510 65.28121 55.78815
# Shear Modulus (GPa) = 30.35409 39.02221 34.68815
#
# Velocity S-wave (km/s) = 3.49327 3.96077 3.73434
# Velocity P-wave (km/s) = 5.90611 6.86741 6.40482
#
# Compressibility (1/GPa) = 0.02160056
#
# Stress axis : x y z
#
# Youngs Moduli (GPa) = 121.97149 79.58836 54.75427
#
# Poissons Ratio (x) = 0.31467 0.25145
# Poissons Ratio (y) = 0.48224 0.00915
# Poissons Ratio (z) = 0.56013 0.01330
#
# Static dielectric constant tensor:
#      x y z
#    x 2.008160 0.018810 -0.008070 
#    y 0.018810 1.960810 0.094290 
#    z -0.008070 0.094290 2.246530 
# 
# From -- ./inp_files/72070.got.cif
#   From: 2010.05.17/outbox.cif.g08.bks.cpg/sg2_37_cif.got.tgz:72070.got - 2010.06.03 11:33:40.
