data_PCOD9031735
_publ_section_title
;
Structure prediction by ZEFSAII (Michael W. Deem and Ramdas Pophale) SiO2 
 PCOD9031735
Probable space group: P -1
;
_chemical_formula_sum "Si O2"
_cell_formula_units_Z 15
_cell_length_a 12.432292
_cell_length_b 11.750953
_cell_length_c 4.779405
_cell_angle_alpha 67.633997
_cell_angle_beta 75.149119
_cell_angle_gamma 108.270262
_cell_volume 554.236931
_symmetry_space_group_name_H-M "P -1"
_symmetry_group_IT_number 2
_symmetry_cell_setting 'triclinic'
loop_
_space_group_symop_operation_xyz
x,y,z
-x,-y,-z
loop_
_atom_site_type_symbol
_atom_site_label
_atom_site_fract_x
_atom_site_fract_y
_atom_site_fract_z
Si Si1 0.000000 0.500000 0.500000
Si Si2 0.634745 0.231613 0.160176
Si Si3 0.525948 0.795083 0.209084
Si Si4 0.841967 0.850852 0.513605
Si Si5 0.744943 0.054145 0.512093
Si Si6 0.036003 0.748814 0.428998
Si Si7 0.293512 0.318164 0.736117
Si Si8 0.816213 0.491418 0.155094
O O1 0.951085 0.330746 0.774996
O O2 0.114978 0.546144 0.610308
O O3 0.596057 0.242332 0.862072
O O4 0.681767 0.118910 0.288354
O O5 0.733207 0.372479 0.107219
O O6 0.508966 0.189078 0.467690
O O7 0.635708 0.935125 0.879608
O O8 0.577663 0.682261 0.268727
O O9 0.968703 0.846390 0.351617
O O10 0.735547 0.724894 0.526092
O O11 0.819455 0.983321 0.368904
O O12 0.814456 0.808602 0.896769
O O13 0.842202 0.167501 0.550170
O O14 0.926543 0.604194 0.776624
O O15 0.268207 0.444422 0.716097
#
# Coordination Sequence:
#
# PCOD9031735 Si02
#       8
#     1   2   2   2   2   2   2   2
#     4  12  22  44  70 104 146 170 228 278 352 422
#     4  12  27  44  72 100 140 183 234 284 338 399
#     4  11  26  47  67 101 137 186 236 282 332 403
#     4  10  22  43  68 102 137 179 222 279 343 415
#     4  11  24  45  70 101 141 182 228 285 343 407
#     4  11  24  45  70 105 139 178 223 285 350 417
#     4  10  22  45  70  95 139 179 230 281 338 402
#     4  11  26  43  71 105 138 179 225 285 349 413
#
# _framework density 27.064240000000002
#
# number of rings (size 3 to 8) (size 9 to 14) (size 15 to 20)
#    0.000    1.067    2.667    3.200    1.867    3.200 
#    7.200    4.000    0.000    0.000    0.000    0.000 
#    0.000    0.000    0.000    0.000    0.000    0.000 
#
# Total GULP energy -83992.418083 kJ/mol
# GULP energy per Si atom -5599.494539 kJ/mol
# Density = 2.700264 g / cm^3
# Si number density = 27.064240 Si / 1000 Ang^3
#
#
#
# Elastic Constant Matrix: (Units=GPa)
#
#
# Indices 1 2 3 4 5 6 
#
# 1 153.1031 46.0721 14.9517 -15.2379 4.0792 -22.5037
# 2 46.0721 142.8390 2.6888 -21.1285 -7.6850 2.4849
# 3 14.9517 2.6888 88.7273 -0.0314 -13.3420 3.9851
# 4 -15.2379 -21.1285 -0.0314 22.4280 3.7884 10.1828
# 5 4.0792 -7.6850 -13.3420 3.7884 36.8080 -0.2357
# 6 -22.5037 2.4849 3.9851 10.1828 -0.2357 60.1195
#
#
#
# Elastic Compliance Matrix: (Units=1/GPa)
#
#
# Indices 1 2 3 4 5 6 
#
# 1 0.008146 -0.002421 -0.001769 0.002336 -0.002271 0.002862
# 2 -0.002421 0.009058 0.000482 0.007829 0.001511 -0.002633
# 3 -0.001769 0.000482 0.012344 -0.000952 0.004860 -0.001320
# 4 0.002336 0.007829 -0.000952 0.058644 -0.005065 -0.009339
# 5 -0.002271 0.001511 0.004860 -0.005065 0.030017 -0.000259
# 6 0.002862 -0.002633 -0.001320 -0.009339 -0.000259 0.019482
#
#
# Mechanical properties :
#
#
# Convention : Reuss Voigt Hill
#
# Bulk Modulus (GPa) = 45.18244 56.89940 51.04092
# Shear Modulus (GPa) = 32.79048 45.26823 39.02935
#
# Velocity S-wave (km/s) = 3.48455 4.09421 3.80162
# Velocity P-wave (km/s) = 5.73761 6.58935 6.17818
#
# Compressibility (1/GPa) = 0.02213249
#
# Stress axis : x y z
#
# Youngs Moduli (GPa) = 122.75319 110.40246 81.01262
#
# Poissons Ratio (x) = 0.26726 0.14329
# Poissons Ratio (y) = 0.29716 -0.03903
# Poissons Ratio (z) = 0.21711 -0.05318
#
# Static dielectric constant tensor:
#      x y z
#    x 1.917560 0.171640 0.128320 
#    y 0.171640 1.785550 -0.335580 
#    z 0.128320 -0.335580 1.849570 
# 
# From -- ./inp_files/65892.got.cif
#   From: 2010.05.17/outbox.cif.g08.bks.cpg/sg2_33_cif.got.tgz:65892.got - 2010.06.03 11:33:40.
