data_PCOD9031696
_publ_section_title
;
Structure prediction by ZEFSAII (Michael W. Deem and Ramdas Pophale) SiO2 
 PCOD9031696
Probable space group: P -1
;
_chemical_formula_sum "Si O2"
_cell_formula_units_Z 14
_cell_length_a 8.681994
_cell_length_b 12.938903
_cell_length_c 19.144536
_cell_angle_alpha 30.958107
_cell_angle_beta 131.460071
_cell_angle_gamma 145.268011
_cell_volume 623.589736
_symmetry_space_group_name_H-M "P -1"
_symmetry_group_IT_number 2
_symmetry_cell_setting 'triclinic'
loop_
_space_group_symop_operation_xyz
x,y,z
-x,-y,-z
loop_
_atom_site_type_symbol
_atom_site_label
_atom_site_fract_x
_atom_site_fract_y
_atom_site_fract_z
Si Si1 0.388168 0.753954 0.414194
Si Si2 0.222809 0.314241 0.400844
Si Si3 0.058767 0.675051 0.564511
Si Si4 0.759214 0.232436 0.897223
Si Si5 0.630693 0.076680 0.162739
Si Si6 0.139696 0.344406 0.060682
Si Si7 0.451731 0.158736 0.305693
O O1 0.487849 0.609546 0.561285
O O2 0.087172 0.536005 0.419238
O O3 0.581337 0.922415 0.307880
O O4 0.427637 0.961355 0.358319
O O5 0.202365 0.501664 0.239942
O O6 0.162365 0.356859 0.435473
O O7 0.000000 0.000000 0.500000
O O8 0.242934 0.651065 0.682468
O O9 0.256770 0.971253 0.420280
O O10 0.650092 0.109923 0.858238
O O11 0.017662 0.293910 0.975420
O O12 0.500000 0.000000 0.000000
O O13 0.877343 0.150923 0.145943
O O14 0.713204 0.355535 0.046179
O O15 0.342250 0.290201 0.162687
#
# Coordination Sequence:
#
# PCOD9031696 Si02
#       7
#     2   2   2   2   2   2   2
#     4  12  24  42  71  99 130 174 226 278 332 390
#     4  12  23  43  74 102 132 172 231 284 327 394
#     4  11  25  45  64  97 134 171 225 273 336 395
#     4  10  23  41  66 102 131 170 225 275 330 396
#     4  10  22  43  68 100 125 175 228 273 328 395
#     4  10  23  44  68  93 138 174 218 271 340 400
#     4  11  26  45  64  98 137 177 214 280 342 401
#
# _framework density 22.450658000000001
#
# number of rings (size 3 to 8) (size 9 to 14) (size 15 to 20)
#    0.000    1.143    2.857    2.571    4.000    4.000 
#    0.000    1.429    0.000    0.000    0.000    0.000 
#    0.000    0.000    0.000    0.000    0.000    0.000 
#
# Total GULP energy -78328.024540 kJ/mol
# GULP energy per Si atom -5594.858896 kJ/mol
# Density = 2.239956 g / cm^3
# Si number density = 22.450658 Si / 1000 Ang^3
#
#
#
# Elastic Constant Matrix: (Units=GPa)
#
#
# Indices 1 2 3 4 5 6 
#
# 1 55.8497 19.6270 20.2780 8.7018 19.3731 5.1177
# 2 19.6270 155.8212 29.0397 14.3489 32.2344 17.3681
# 3 20.2780 29.0397 109.5498 17.5266 21.0133 18.8742
# 4 8.7018 14.3489 17.5266 38.1277 19.4013 -1.1532
# 5 19.3731 32.2344 21.0133 19.4013 37.2192 13.3283
# 6 5.1177 17.3681 18.8742 -1.1532 13.3283 23.3959
#
#
#
# Elastic Compliance Matrix: (Units=1/GPa)
#
#
# Indices 1 2 3 4 5 6 
#
# 1 0.022830 -0.000446 -0.003032 0.003467 -0.013643 0.005726
# 2 -0.000446 0.007979 -0.000618 0.000225 -0.005707 -0.002065
# 3 -0.003032 -0.000618 0.012175 -0.005991 0.001990 -0.010129
# 4 0.003467 0.000225 -0.005991 0.043957 -0.029781 0.023040
# 5 -0.013643 -0.005707 0.001990 -0.029781 0.065110 -0.032944
# 6 0.005726 -0.002065 -0.010129 0.023040 -0.032944 0.071098
#
#
# Mechanical properties :
#
#
# Convention : Reuss Voigt Hill
#
# Bulk Modulus (GPa) = 28.74130 51.01225 39.87677
# Shear Modulus (GPa) = 20.58134 36.56694 28.57414
#
# Velocity S-wave (km/s) = 3.03105 4.04018 3.57144
# Velocity P-wave (km/s) = 5.00794 6.67348 5.89978
#
# Compressibility (1/GPa) = 0.03479314
#
# Stress axis : x y z
#
# Youngs Moduli (GPa) = 43.80114 125.32856 82.13371
#
# Poissons Ratio (x) = 0.05586 0.24903
# Poissons Ratio (y) = 0.01952 0.05076
# Poissons Ratio (z) = 0.13280 0.07746
#
# Static dielectric constant tensor:
#      x y z
#    x 1.832930 0.027160 -0.047180 
#    y 0.027160 1.859010 0.035730 
#    z -0.047180 0.035730 1.878380 
# 
# From -- ./inp_files/559607.got.cif
#   From: 2010.05.17/outbox.cif.g08.bks.cpg/sg2_280_cif.got.tgz:559607.got - 2010.06.03 11:33:40.
