data_PCOD9031129
_publ_section_title
;
Structure prediction by ZEFSAII (Michael W. Deem and Ramdas Pophale) SiO2 
 PCOD9031129
Probable space group: P -1
;
_chemical_formula_sum "Si O2"
_cell_formula_units_Z 16
_cell_length_a 16.563016
_cell_length_b 9.816250
_cell_length_c 21.031885
_cell_angle_alpha 59.354147
_cell_angle_beta 18.352487
_cell_angle_gamma 50.425263
_cell_volume 763.742711
_symmetry_space_group_name_H-M "P -1"
_symmetry_group_IT_number 2
_symmetry_cell_setting 'triclinic'
loop_
_space_group_symop_operation_xyz
x,y,z
-x,-y,-z
loop_
_atom_site_type_symbol
_atom_site_label
_atom_site_fract_x
_atom_site_fract_y
_atom_site_fract_z
Si Si1 0.842095 0.583235 0.666840
Si Si2 0.139716 0.496598 0.068076
Si Si3 0.663654 0.183411 0.330952
Si Si4 0.565065 0.802256 0.360824
Si Si5 0.346976 0.218476 0.427371
Si Si6 0.733907 0.235865 0.025325
Si Si7 0.165541 0.774755 0.439468
Si Si8 0.311360 0.609659 0.510771
O O1 0.480344 0.706051 0.890463
O O2 0.000000 0.500000 0.500000
O O3 0.988734 0.393508 0.645729
O O4 0.960899 0.707743 0.576014
O O5 0.933932 0.644017 0.129435
O O6 0.952134 0.409476 0.255076
O O7 0.147401 0.627664 0.085992
O O8 0.489222 0.340125 0.821846
O O9 0.540321 0.164915 0.494823
O O10 0.467632 0.195808 0.413768
O O11 0.605635 0.391269 0.329810
O O12 0.000450 0.989115 0.118827
O O13 0.411774 0.714036 0.457703
O O14 0.442841 0.013466 0.378202
O O15 0.535734 0.274338 0.228585
O O16 0.199308 0.717836 0.501832
O O17 0.000000 0.000000 0.500000
#
# Coordination Sequence:
#
# PCOD9031129 Si02
#       8
#     2   2   2   2   2   2   2   2
#     4  10  22  43  65 101 139 175 232 287 337 410
#     4  11  23  46  69 102 140 178 233 290 343 406
#     4  11  21  42  68  99 136 179 231 284 345 403
#     4  11  26  41  68 103 141 178 227 295 343 410
#     4  11  21  40  70  99 136 177 235 286 343 404
#     4  11  23  38  74 105 135 180 234 290 343 410
#     4  12  27  46  73  98 140 192 229 281 351 421
#     4  11  27  46  68 102 145 182 229 290 346 412
#
# _framework density 20.949463999999999
#
# number of rings (size 3 to 8) (size 9 to 14) (size 15 to 20)
#    0.000    1.000    5.000    2.250    7.000    3.000 
#    0.000    2.500    0.000    0.000    0.000    0.000 
#    0.000    0.000    0.000    0.000    0.000    0.000 
#
# Total GULP energy -89402.890189 kJ/mol
# GULP energy per Si atom -5587.680637 kJ/mol
# Density = 2.090178 g / cm^3
# Si number density = 20.949464 Si / 1000 Ang^3
#
#
#
# Elastic Constant Matrix: (Units=GPa)
#
#
# Indices 1 2 3 4 5 6 
#
# 1 -66.8136 -153.8472 361.8789 235.8295 -46.9975 6.7541
# 2 -153.8472 -64.7626 405.2776 279.5851 -46.2075 7.7799
# 3 361.8789 405.2776 -382.2754 -367.9182 -7.2106 9.3145
# 4 235.8295 279.5851 -367.9182 -260.6111 12.2498 -8.4640
# 5 -46.9975 -46.2075 -7.2106 12.2498 41.0703 -1.4098
# 6 6.7541 7.7799 9.3145 -8.4640 -1.4098 37.1124
#
#
#
# Elastic Compliance Matrix: (Units=1/GPa)
#
#
# Indices 1 2 3 4 5 6 
#
# 1 0.011055 -0.003773 -0.001155 0.007829 0.005905 0.001079
# 2 -0.003773 0.006090 0.000712 0.002214 0.001993 -0.000188
# 3 -0.001155 0.000712 0.009088 -0.012729 0.004702 -0.004944
# 4 0.007829 0.002214 -0.012729 0.023488 0.002441 0.006755
# 5 0.005905 0.001993 0.004702 0.002441 0.033416 -0.000847
# 6 0.001079 -0.000188 -0.004944 0.006755 -0.000847 0.029538
#
#
# Mechanical properties :
#
#
# Convention : Reuss Voigt Hill
#
# Bulk Modulus (GPa) = 56.17375 79.19631 67.68503
# Shear Modulus (GPa) = 39.35808 -111.62973 -36.13583
#
# Velocity S-wave (km/s) = 4.33912 -7.30759 -4.15770
# Velocity P-wave (km/s) = 7.20944 5.77197 3.05454
#
# Compressibility (1/GPa) = 0.01780191
#
# Stress axis : x y z
#
# Youngs Moduli (GPa) = 90.45904 164.20970 110.03628
#
# Poissons Ratio (x) = 0.61950 0.12706
# Poissons Ratio (y) = 0.34127 -0.07835
# Poissons Ratio (z) = 0.10445 -0.11693
#
# Static dielectric constant tensor:
#      x y z
#    x 1.736360 -0.028530 -0.005700 
#    y -0.028530 1.774110 0.015460 
#    z -0.005700 0.015460 1.820650 
# 
# From -- ./inp_files/597360.got.cif
#   From: 2010.05.17/outbox.cif.g08.bks.cpg/sg2_299_cif.got.tgz:597360.got - 2010.06.03 11:33:40.
