data_PCOD9031123
_publ_section_title
;
Structure prediction by ZEFSAII (Michael W. Deem and Ramdas Pophale) SiO2 
 PCOD9031123
Probable space group: P -1
;
_chemical_formula_sum "Si O2"
_cell_formula_units_Z 16
_cell_length_a 5.320937
_cell_length_b 13.112112
_cell_length_c 18.404059
_cell_angle_alpha 146.816916
_cell_angle_beta 60.734886
_cell_angle_gamma 110.379475
_cell_volume 608.065783
_symmetry_space_group_name_H-M "P -1"
_symmetry_group_IT_number 2
_symmetry_cell_setting 'triclinic'
loop_
_space_group_symop_operation_xyz
x,y,z
-x,-y,-z
loop_
_atom_site_type_symbol
_atom_site_label
_atom_site_fract_x
_atom_site_fract_y
_atom_site_fract_z
Si Si1 0.395305 0.275562 0.160020
Si Si2 0.255161 0.682920 0.359047
Si Si3 0.260275 0.558394 0.130917
Si Si4 0.729716 0.659864 0.630089
Si Si5 0.652415 0.641463 0.470598
Si Si6 0.345481 0.003723 0.730171
Si Si7 0.072240 0.188447 0.009688
Si Si8 0.987603 0.910674 0.311016
O O1 0.381248 0.504367 0.285421
O O2 0.268643 0.231766 0.230360
O O3 0.216218 0.199299 0.074480
O O4 0.729983 0.194017 0.063209
O O5 0.382090 0.647920 0.239826
O O6 0.917619 0.642692 0.380440
O O7 0.211310 0.904933 0.518201
O O8 0.147194 0.369864 0.062308
O O9 0.000950 0.713140 0.232555
O O10 0.500000 0.500000 0.000000
O O11 0.737042 0.729630 0.588703
O O12 0.435469 0.560512 0.620376
O O13 0.000000 0.500000 0.500000
O O14 0.382027 0.786599 0.571665
O O15 0.669844 0.061660 0.714129
O O16 0.119789 0.108797 0.767725
O O17 0.229231 0.023274 0.839597
#
# Coordination Sequence:
#
# PCOD9031123 Si02
#       8
#     2   2   2   2   2   2   2   2
#     4  11  23  42  66  98 130 176 216 274 334 397
#     4  10  22  43  65 100 135 174 222 274 337 383
#     4  11  23  42  68  99 136 179 227 273 325 394
#     4  11  21  39  69 101 127 163 224 278 332 395
#     4  10  23  41  67  99 133 171 216 279 332 392
#     4  11  24  44  67  94 135 180 219 266 336 392
#     4  11  25  43  66  93 139 178 221 263 334 403
#     4  11  24  42  67  96 134 175 229 279 324 382
#
# _framework density 26.312944999999999
#
# number of rings (size 3 to 8) (size 9 to 14) (size 15 to 20)
#    0.000    1.250    2.500    3.375    5.250    4.500 
#    0.000    5.000    0.000    0.000    0.000    0.000 
#    0.000    0.000    0.000    0.000    0.000    0.000 
#
# Total GULP energy -89583.637162 kJ/mol
# GULP energy per Si atom -5598.977323 kJ/mol
# Density = 2.625306 g / cm^3
# Si number density = 26.312945 Si / 1000 Ang^3
#
#
#
# Elastic Constant Matrix: (Units=GPa)
#
#
# Indices 1 2 3 4 5 6 
#
# 1 134.9958 29.7164 41.7762 -4.3013 6.9678 -6.0004
# 2 29.7164 78.5948 25.6365 -7.9317 8.7722 -10.2564
# 3 41.7762 25.6365 165.8306 -17.5679 4.7907 0.6288
# 4 -4.3013 -7.9317 -17.5679 43.1575 -13.5962 -2.4742
# 5 6.9678 8.7722 4.7907 -13.5962 33.1936 -8.6406
# 6 -6.0004 -10.2564 0.6288 -2.4742 -8.6406 33.6888
#
#
#
# Elastic Compliance Matrix: (Units=1/GPa)
#
#
# Indices 1 2 3 4 5 6 
#
# 1 0.008580 -0.002543 -0.001809 -0.000637 -0.001003 0.000484
# 2 -0.002543 0.015009 -0.001476 0.001641 -0.001540 0.003869
# 3 -0.001809 -0.001476 0.006969 0.002567 0.000675 -0.000540
# 4 -0.000637 0.001641 0.002567 0.028742 0.012580 0.005676
# 5 -0.001003 -0.001540 0.000675 0.012580 0.038434 0.010121
# 6 0.000484 0.003869 -0.000540 0.005676 0.010121 0.033971
#
#
# Mechanical properties :
#
#
# Convention : Reuss Voigt Hill
#
# Bulk Modulus (GPa) = 52.90510 63.74216 58.32363
# Shear Modulus (GPa) = 33.40880 40.82746 37.11813
#
# Velocity S-wave (km/s) = 3.56711 3.94332 3.75993
# Velocity P-wave (km/s) = 6.09225 6.70897 6.40803
#
# Compressibility (1/GPa) = 0.01890177
#
# Stress axis : x y z
#
# Youngs Moduli (GPa) = 116.54750 66.62668 143.50228
#
# Poissons Ratio (x) = 0.16946 0.25955
# Poissons Ratio (y) = 0.29643 0.21180
# Poissons Ratio (z) = 0.21079 0.09834
#
# Static dielectric constant tensor:
#      x y z
#    x 2.058340 0.000040 0.059400 
#    y 0.000040 2.109050 0.036940 
#    z 0.059400 0.036940 2.080660 
# 
# From -- ./inp_files/550082.got.cif
#   From: 2010.05.17/outbox.cif.g08.bks.cpg/sg2_276_cif.got.tgz:550082.got - 2010.06.03 11:33:40.
