data_PCOD9031120
_publ_section_title
;
Structure prediction by ZEFSAII (Michael W. Deem and Ramdas Pophale) SiO2 
 PCOD9031120
Probable space group: P -1
;
_chemical_formula_sum "Si O2"
_cell_formula_units_Z 16
_cell_length_a 21.936381
_cell_length_b 18.609215
_cell_length_c 5.390732
_cell_angle_alpha 67.934064
_cell_angle_beta 71.552335
_cell_angle_gamma 18.982013
_cell_volume 657.841617
_symmetry_space_group_name_H-M "P -1"
_symmetry_group_IT_number 2
_symmetry_cell_setting 'triclinic'
loop_
_space_group_symop_operation_xyz
x,y,z
-x,-y,-z
loop_
_atom_site_type_symbol
_atom_site_label
_atom_site_fract_x
_atom_site_fract_y
_atom_site_fract_z
Si Si1 0.057503 0.357133 0.973704
Si Si2 0.023267 0.127588 0.445006
Si Si3 0.681880 0.272731 0.738292
Si Si4 0.731575 0.364021 0.813974
Si Si5 0.478110 0.360500 0.784212
Si Si6 0.822870 0.911163 0.451388
Si Si7 0.577965 0.094873 0.175590
Si Si8 0.846264 0.461745 0.891713
O O1 0.110845 0.232429 0.268578
O O2 0.000000 0.500000 0.000000
O O3 0.889748 0.500956 0.867772
O O4 0.240130 0.160805 0.812596
O O5 0.188952 0.994250 0.514422
O O6 0.914398 0.203808 0.697229
O O7 0.122590 0.951238 0.372509
O O8 0.893878 0.339336 0.192235
O O9 0.500000 0.500000 0.500000
O O10 0.714834 0.289123 0.913414
O O11 0.636851 0.233245 0.879992
O O12 0.601770 0.526617 0.526494
O O13 0.680993 0.450403 0.040786
O O14 0.544856 0.197308 0.876446
O O15 0.996057 0.729290 0.273700
O O16 0.644934 0.074911 0.335128
O O17 0.372085 0.293555 0.226201
#
# Coordination Sequence:
#
# PCOD9031120 Si02
#       8
#     2   2   2   2   2   2   2   2
#     4  10  24  44  65 100 140 172 215 272 340 414
#     4  11  22  43  63  93 133 174 230 287 340 407
#     4  10  23  41  60  95 132 179 230 287 354 408
#     4  11  24  42  66  93 133 178 228 293 348 408
#     4  11  23  42  66  97 131 174 236 284 342 410
#     4  10  23  40  68  94 128 177 219 283 335 407
#     4  11  23  40  70  97 129 177 228 278 341 404
#     4  10  22  43  65 100 129 172 231 275 337 408
#
# _framework density 24.321966
#
# number of rings (size 3 to 8) (size 9 to 14) (size 15 to 20)
#    0.000    1.500    1.250    3.750    5.250    4.500 
#    4.500    4.375    0.000    0.000    0.000    0.000 
#    0.000    0.000    0.000    0.000    0.000    0.000 
#
# Total GULP energy -89319.869495 kJ/mol
# GULP energy per Si atom -5582.491843 kJ/mol
# Density = 2.426661 g / cm^3
# Si number density = 24.321966 Si / 1000 Ang^3
#
#
#
# Elastic Constant Matrix: (Units=GPa)
#
#
# Indices 1 2 3 4 5 6 
#
# 1 144.0328 79.5738 7.2845 1.0969 17.0966 -4.8934
# 2 79.5738 121.7708 17.7356 18.3366 10.7936 -20.9713
# 3 7.2845 17.7356 49.5133 16.9413 9.8250 -8.8173
# 4 1.0969 18.3366 16.9413 26.1525 -6.8755 8.6892
# 5 17.0966 10.7936 9.8250 -6.8755 31.9339 4.2637
# 6 -4.8934 -20.9713 -8.8173 8.6892 4.2637 54.1476
#
#
#
# Elastic Compliance Matrix: (Units=1/GPa)
#
#
# Indices 1 2 3 4 5 6 
#
# 1 0.012327 -0.010005 -0.002461 0.009740 0.000270 -0.004746
# 2 -0.010005 0.021222 0.008279 -0.027707 -0.012208 0.014071
# 3 -0.002461 0.008279 0.042579 -0.046978 -0.027313 0.019607
# 4 0.009740 -0.027707 -0.046978 0.113523 0.048323 -0.039523
# 5 0.000270 -0.012208 -0.027313 0.048323 0.056960 -0.021391
# 6 -0.004746 0.014071 0.019607 -0.039523 -0.021391 0.034708
#
#
# Mechanical properties :
#
#
# Convention : Reuss Voigt Hill
#
# Bulk Modulus (GPa) = 14.75955 58.27829 36.51892
# Shear Modulus (GPa) = 16.01131 36.49499 26.25315
#
# Velocity S-wave (km/s) = 2.56853 3.87782 3.28899
# Velocity P-wave (km/s) = 3.85721 6.63801 5.42869
#
# Compressibility (1/GPa) = 0.06775276
#
# Stress axis : x y z
#
# Youngs Moduli (GPa) = 81.11995 47.12086 23.48594
#
# Poissons Ratio (x) = 0.47145 0.05780
# Poissons Ratio (y) = 0.81162 -0.19443
# Poissons Ratio (z) = 0.19965 -0.39010
#
# Static dielectric constant tensor:
#      x y z
#    x 1.965480 -0.022040 -0.036040 
#    y -0.022040 2.035660 -0.016040 
#    z -0.036040 -0.016040 2.091700 
# 
# From -- ./inp_files/56451.got.cif
#   From: 2010.05.17/outbox.cif.g08.bks.cpg/sg2_29_cif.got.tgz:56451.got - 2010.06.03 11:33:40.
