data_PCOD9031433
_publ_section_title
;
Structure prediction by ZEFSAII (Michael W. Deem and Ramdas Pophale) SiO2 
 PCOD9031433
Probable space group: P -1
;
_chemical_formula_sum "Si O2"
_cell_formula_units_Z 14
_cell_length_a 12.646023
_cell_length_b 14.892457
_cell_length_c 19.421878
_cell_angle_alpha 19.849482
_cell_angle_beta 149.397047
_cell_angle_gamma 149.918607
_cell_volume 598.508152
_symmetry_space_group_name_H-M "P -1"
_symmetry_group_IT_number 2
_symmetry_cell_setting 'triclinic'
loop_
_space_group_symop_operation_xyz
x,y,z
-x,-y,-z
loop_
_atom_site_type_symbol
_atom_site_label
_atom_site_fract_x
_atom_site_fract_y
_atom_site_fract_z
Si Si1 0.272444 0.992185 0.910156
Si Si2 0.982920 0.618447 0.546445
Si Si3 0.679460 0.162094 0.539178
Si Si4 0.328618 0.979919 0.214651
Si Si5 0.049680 0.622642 0.845321
Si Si6 0.180189 0.964146 0.535818
Si Si7 0.441485 0.300534 0.913849
O O1 0.088877 0.699725 0.004399
O O2 0.307828 0.054815 0.965909
O O3 0.500000 0.000000 0.000000
O O4 0.206047 0.239901 0.659530
O O5 0.872049 0.287867 0.728014
O O6 0.099391 0.706915 0.474384
O O7 0.148733 0.778094 0.583771
O O8 0.703058 0.985037 0.746698
O O9 0.500000 0.000000 0.500000
O O10 0.601744 0.418234 0.335941
O O11 0.563199 0.924006 0.381909
O O12 0.362291 0.231234 0.998423
O O13 0.057481 0.756876 0.677243
O O14 0.302062 0.665276 0.973910
O O15 0.929488 0.791317 0.703912
#
# Coordination Sequence:
#
# PCOD9031433 Si02
#       7
#     2   2   2   2   2   2   2
#     4  12  25  41  69 102 132 174 222 269 330 395
#     4  12  24  42  68  96 135 175 216 275 330 381
#     4  12  25  46  68  97 135 173 223 272 327 394
#     4  11  24  45  68  96 135 173 220 273 326 392
#     4  10  23  42  67  97 134 172 220 271 330 390
#     4  10  22  43  66  97 132 174 219 273 328 389
#     4  11  26  46  67 100 133 175 222 269 329 393
#
# _framework density 23.391493000000001
#
# number of rings (size 3 to 8) (size 9 to 14) (size 15 to 20)
#    0.000    0.857    2.857    3.857    0.000    2.286 
#    2.571    5.714    0.000    0.000    0.000    0.000 
#    0.000    0.000    0.000    0.000    0.000    0.000 
#
# Total GULP energy -78402.914653 kJ/mol
# GULP energy per Si atom -5600.208190 kJ/mol
# Density = 2.333825 g / cm^3
# Si number density = 23.391493 Si / 1000 Ang^3
#
#
#
# Elastic Constant Matrix: (Units=GPa)
#
#
# Indices 1 2 3 4 5 6 
#
# 1 94.1587 7.4601 -1.0329 -8.2389 -25.5681 -10.7725
# 2 7.4601 115.6484 5.5143 -14.2142 -4.3629 -11.2835
# 3 -1.0329 5.5143 31.6368 3.5771 -7.9594 -1.6828
# 4 -8.2389 -14.2142 3.5771 31.8617 7.6850 4.4980
# 5 -25.5681 -4.3629 -7.9594 7.6850 39.1659 2.8862
# 6 -10.7725 -11.2835 -1.6828 4.4980 2.8862 42.9578
#
#
#
# Elastic Compliance Matrix: (Units=1/GPa)
#
#
# Indices 1 2 3 4 5 6 
#
# 1 0.013494 -0.000343 0.002879 0.000438 0.009068 0.002752
# 2 -0.000343 0.009460 -0.002187 0.004250 -0.000589 0.001907
# 3 0.002879 -0.002187 0.035480 -0.006868 0.010077 0.001579
# 4 0.000438 0.004250 -0.006868 0.036327 -0.007593 -0.002337
# 5 0.009068 -0.000589 0.010077 -0.007593 0.034853 0.000967
# 6 0.002752 0.001907 0.001579 -0.002337 0.000967 0.024711
#
#
# Mechanical properties :
#
#
# Convention : Reuss Voigt Hill
#
# Bulk Modulus (GPa) = 16.91200 29.48076 23.19638
# Shear Modulus (GPa) = 28.84519 38.09723 33.47121
#
# Velocity S-wave (km/s) = 3.51543 4.04007 3.78685
# Velocity P-wave (km/s) = 4.87066 5.86459 5.39058
#
# Compressibility (1/GPa) = 0.05912962
#
# Stress axis : x y z
#
# Youngs Moduli (GPa) = 74.10446 105.71317 28.18492
#
# Poissons Ratio (x) = 0.03631 -0.08113
# Poissons Ratio (y) = 0.02545 0.06165
# Poissons Ratio (z) = -0.21332 0.23123
#
# Static dielectric constant tensor:
#      x y z
#    x 1.916660 -0.037030 0.008160 
#    y -0.037030 1.854490 0.018260 
#    z 0.008160 0.018260 1.838790 
# 
# From -- ./inp_files/314705.got.cif
#   From: 2010.05.17/outbox.cif.g08.bks.cpg/sg2_158_cif.got.tgz:314705.got - 2010.06.03 11:33:40.
