data_PCOD9031299
_publ_section_title
;
Structure prediction by ZEFSAII (Michael W. Deem and Ramdas Pophale) SiO2 
 PCOD9031299
Probable space group: P -1
;
_chemical_formula_sum "Si O2"
_cell_formula_units_Z 14
_cell_length_a 11.940534
_cell_length_b 11.812977
_cell_length_c 6.528379
_cell_angle_alpha 59.681768
_cell_angle_beta 99.940282
_cell_angle_gamma 134.247221
_cell_volume 544.873444
_symmetry_space_group_name_H-M "P -1"
_symmetry_group_IT_number 2
_symmetry_cell_setting 'triclinic'
loop_
_space_group_symop_operation_xyz
x,y,z
-x,-y,-z
loop_
_atom_site_type_symbol
_atom_site_label
_atom_site_fract_x
_atom_site_fract_y
_atom_site_fract_z
Si Si1 0.542988 0.850872 0.766035
Si Si2 0.432044 0.840809 0.335417
Si Si3 0.020131 0.065050 0.181342
Si Si4 0.900463 0.519764 0.587598
Si Si5 0.423250 0.260845 0.716203
Si Si6 0.101805 0.864065 0.603658
Si Si7 0.262454 0.357991 0.737133
O O1 0.409858 0.753988 0.631973
O O2 0.538846 0.985935 0.758774
O O3 0.721039 0.993478 0.580503
O O4 0.525704 0.722308 0.045971
O O5 0.280192 0.692877 0.270404
O O6 0.584543 0.891113 0.238707
O O7 0.924610 0.114139 0.189197
O O8 0.020675 0.929742 0.427717
O O9 0.211691 0.272792 0.026184
O O10 0.000000 0.000000 0.000000
O O11 0.860160 0.625970 0.371519
O O12 0.000000 0.500000 0.500000
O O13 0.001691 0.651759 0.697362
O O14 0.275416 0.239650 0.700868
O O15 0.559551 0.437507 0.450839
#
# Coordination Sequence:
#
# PCOD9031299 Si02
#       7
#     2   2   2   2   2   2   2
#     4  11  22  43  70 107 136 187 241 290 351 426
#     4  10  24  42  70 104 144 185 238 287 356 427
#     4  11  23  43  69 103 139 179 239 300 347 420
#     4  11  22  46  67 100 149 185 231 293 355 424
#     4  10  22  43  68  97 143 187 230 294 352 416
#     4  11  24  40  74 102 136 187 234 290 364 412
#     4  10  22  43  66 101 138 185 238 288 351 420
#
# _framework density 25.694040000000001
#
# number of rings (size 3 to 8) (size 9 to 14) (size 15 to 20)
#    0.000    1.429    4.286    0.429    2.000    0.000 
#   10.286    7.143    0.000    0.000    0.000    0.000 
#    0.000    0.000    0.000    0.000    0.000    0.000 
#
# Total GULP energy -77968.983634 kJ/mol
# GULP energy per Si atom -5569.213117 kJ/mol
# Density = 2.563556 g / cm^3
# Si number density = 25.694040 Si / 1000 Ang^3
#
#
#
# Elastic Constant Matrix: (Units=GPa)
#
#
# Indices 1 2 3 4 5 6 
#
# 1 203.2534 38.1667 13.7921 0.8067 -54.8452 -31.1576
# 2 38.1667 119.3389 28.5524 13.3253 -30.6903 -24.2167
# 3 13.7921 28.5524 57.1364 -8.2719 -15.3902 -7.3270
# 4 0.8067 13.3253 -8.2719 19.0561 -0.9668 -10.9149
# 5 -54.8452 -30.6903 -15.3902 -0.9668 49.6533 7.6734
# 6 -31.1576 -24.2167 -7.3270 -10.9149 7.6734 47.7956
#
#
#
# Elastic Compliance Matrix: (Units=1/GPa)
#
#
# Indices 1 2 3 4 5 6 
#
# 1 0.007808 -0.000171 0.001577 0.003606 0.008347 0.004728
# 2 -0.000171 0.012851 -0.006105 -0.010031 0.005308 0.002321
# 3 0.001577 -0.006105 0.024861 0.018153 0.005248 0.005049
# 4 0.003606 -0.010031 0.018153 0.077261 0.002234 0.017336
# 5 0.008347 0.005308 0.005248 0.002234 0.033686 0.004037
# 6 0.004728 0.002321 0.005049 0.017336 0.004037 0.029266
#
#
# Mechanical properties :
#
#
# Convention : Reuss Voigt Hill
#
# Bulk Modulus (GPa) = 27.68398 60.08348 43.88373
# Shear Modulus (GPa) = 24.13461 43.24884 33.69172
#
# Velocity S-wave (km/s) = 3.06814 4.10716 3.62507
# Velocity P-wave (km/s) = 4.83210 6.77692 5.88540
#
# Compressibility (1/GPa) = 0.03612197
#
# Stress axis : x y z
#
# Youngs Moduli (GPa) = 128.07557 77.81535 40.22316
#
# Poissons Ratio (x) = 0.01331 -0.06345
# Poissons Ratio (y) = 0.02190 0.24558
# Poissons Ratio (z) = -0.20203 0.47510
#
# Static dielectric constant tensor:
#      x y z
#    x 2.043580 0.068050 -0.036320 
#    y 0.068050 2.278470 -0.045450 
#    z -0.036320 -0.045450 2.252000 
# 
# From -- ./inp_files/69950.got.cif
#   From: 2010.05.17/outbox.cif.g08.bks.cpg/sg2_35_cif.got.tgz:69950.got - 2010.06.03 11:33:40.
