data_PCOD9031357
_publ_section_title
;
Structure prediction by ZEFSAII (Michael W. Deem and Ramdas Pophale) SiO2 
 PCOD9031357
Probable space group: P -1
;
_chemical_formula_sum "Si O2"
_cell_formula_units_Z 14
_cell_length_a 12.119085
_cell_length_b 5.958787
_cell_length_c 20.007629
_cell_angle_alpha 136.771354
_cell_angle_beta 146.225328
_cell_angle_gamma 51.948547
_cell_volume 549.926350
_symmetry_space_group_name_H-M "P -1"
_symmetry_group_IT_number 2
_symmetry_cell_setting 'triclinic'
loop_
_space_group_symop_operation_xyz
x,y,z
-x,-y,-z
loop_
_atom_site_type_symbol
_atom_site_label
_atom_site_fract_x
_atom_site_fract_y
_atom_site_fract_z
Si Si1 0.857317 0.445549 0.479261
Si Si2 0.209782 0.159172 0.061984
Si Si3 0.115757 0.478291 0.848073
Si Si4 0.783283 0.676757 0.278823
Si Si5 0.681222 0.743718 0.648609
Si Si6 0.922116 0.204008 0.801183
Si Si7 0.484050 0.367633 0.737962
O O1 0.668496 0.663799 0.408510
O O2 0.000000 0.500000 0.500000
O O3 0.001223 0.465865 0.619529
O O4 0.790413 0.070747 0.367651
O O5 0.157853 0.420020 0.150036
O O6 0.391583 0.315822 0.148904
O O7 0.036033 0.155459 0.918122
O O8 0.215233 0.780187 0.001901
O O9 0.884232 0.544306 0.724962
O O10 0.083840 0.184217 0.819839
O O11 0.239518 0.423945 0.831228
O O12 0.629714 0.586830 0.239687
O O13 0.500000 0.500000 0.500000
O O14 0.742011 0.957346 0.660071
O O15 0.615913 0.033795 0.730001
#
# Coordination Sequence:
#
# PCOD9031357 Si02
#       7
#     2   2   2   2   2   2   2
#     4   9  21  40  63  84 126 179 207 249 319 377
#     4   9  20  40  64  92 124 168 216 257 311 382
#     4  11  23  40  65  98 129 166 206 268 322 376
#     4  10  23  41  63  94 131 168 213 257 318 389
#     4  10  24  41  62  98 127 160 218 268 306 376
#     4   9  20  41  63  89 131 171 203 258 331 372
#     4  10  22  43  66  92 127 174 214 261 317 374
#
# _framework density 25.457955999999999
#
# number of rings (size 3 to 8) (size 9 to 14) (size 15 to 20)
#    0.000    2.286    0.000    1.286    6.000    9.143 
#    0.000    1.429    0.000    0.000    0.000    0.000 
#    0.000    0.000    0.000    0.000    0.000    0.000 
#
# Total GULP energy -78212.415055 kJ/mol
# GULP energy per Si atom -5586.601075 kJ/mol
# Density = 2.540001 g / cm^3
# Si number density = 25.457956 Si / 1000 Ang^3
#
#
#
# Elastic Constant Matrix: (Units=GPa)
#
#
# Indices 1 2 3 4 5 6 
#
# 1 163.6966 17.6328 51.0974 14.0172 11.2621 24.1363
# 2 17.6328 60.6618 23.2582 1.9341 -1.2625 3.7377
# 3 51.0974 23.2582 104.5907 28.9498 28.9744 16.3293
# 4 14.0172 1.9341 28.9498 47.5702 10.3722 13.0855
# 5 11.2621 -1.2625 28.9744 10.3722 35.3755 2.7121
# 6 24.1363 3.7377 16.3293 13.0855 2.7121 41.2862
#
#
#
# Elastic Compliance Matrix: (Units=1/GPa)
#
#
# Indices 1 2 3 4 5 6 
#
# 1 0.007635 -0.000760 -0.003309 0.000635 0.000320 -0.003308
# 2 -0.000760 0.018966 -0.005785 0.001831 0.005112 0.000099
# 3 -0.003309 -0.005785 0.017788 -0.006601 -0.011655 -0.001720
# 4 0.000635 0.001831 -0.006601 0.026991 -0.002158 -0.006339
# 5 0.000320 0.005112 -0.011655 -0.002158 0.038365 0.002124
# 6 -0.003308 0.000099 -0.001720 -0.006339 0.002124 0.028696
#
#
# Mechanical properties :
#
#
# Convention : Reuss Voigt Hill
#
# Bulk Modulus (GPa) = 40.51641 56.99177 48.75409
# Shear Modulus (GPa) = 30.05235 40.64377 35.34806
#
# Velocity S-wave (km/s) = 3.43952 3.99996 3.73028
# Velocity P-wave (km/s) = 5.63235 6.61575 6.14376
#
# Compressibility (1/GPa) = 0.02468136
#
# Stress axis : x y z
#
# Youngs Moduli (GPa) = 130.97537 52.72702 56.21671
#
# Poissons Ratio (x) = 0.04010 0.18601
# Poissons Ratio (y) = 0.09960 0.32519
# Poissons Ratio (z) = 0.43337 0.30500
#
# Static dielectric constant tensor:
#      x y z
#    x 2.078990 0.026480 -0.044610 
#    y 0.026480 2.137300 -0.046060 
#    z -0.044610 -0.046060 2.037880 
# 
# From -- ./inp_files/367436.got.cif
#   From: 2010.05.17/outbox.cif.g08.bks.cpg/sg2_184_cif.got.tgz:367436.got - 2010.06.03 11:33:40.
