data_PCOD9031330
_publ_section_title
;
Structure prediction by ZEFSAII (Michael W. Deem and Ramdas Pophale) SiO2 
 PCOD9031330
Probable space group: P -1
;
_chemical_formula_sum "Si O2"
_cell_formula_units_Z 16
_cell_length_a 9.444730
_cell_length_b 4.970466
_cell_length_c 15.778972
_cell_angle_alpha 67.440786
_cell_angle_beta 93.790996
_cell_angle_gamma 74.870987
_cell_volume 648.767772
_symmetry_space_group_name_H-M "P -1"
_symmetry_group_IT_number 2
_symmetry_cell_setting 'triclinic'
loop_
_space_group_symop_operation_xyz
x,y,z
-x,-y,-z
loop_
_atom_site_type_symbol
_atom_site_label
_atom_site_fract_x
_atom_site_fract_y
_atom_site_fract_z
Si Si1 0.688071 0.699681 0.867673
Si Si2 0.404204 0.024621 0.908944
Si Si3 0.720962 0.574749 0.289150
Si Si4 0.831712 0.019811 0.971337
Si Si5 0.334431 0.478903 0.404528
Si Si6 0.814753 0.915734 0.456659
Si Si7 0.982681 0.472893 0.638337
Si Si8 0.459341 0.988369 0.335504
O O1 0.520136 0.764894 0.889450
O O2 0.753884 0.350079 0.887632
O O3 0.792560 0.782309 0.933582
O O4 0.660122 0.908714 0.758600
O O5 0.363272 0.338013 0.814328
O O6 0.252874 0.981162 0.942572
O O7 0.500000 0.000000 0.000000
O O8 0.617713 0.842034 0.313214
O O9 0.891481 0.572498 0.281054
O O10 0.749283 0.260234 0.380474
O O11 0.000000 0.000000 0.000000
O O12 0.166225 0.616738 0.343887
O O13 0.402043 0.733218 0.410023
O O14 0.690658 0.752591 0.497172
O O15 0.435955 0.281093 0.358367
O O16 0.914655 0.823804 0.558147
O O17 0.920771 0.725528 0.410129
#
# Coordination Sequence:
#
# PCOD9031330 Si02
#       8
#     2   2   2   2   2   2   2   2
#     4  10  22  43  66  87 139 171 213 266 338 397
#     4   9  22  44  65  95 129 175 217 273 334 395
#     4  11  23  40  69  95 130 178 230 268 327 409
#     4  11  22  42  67  99 124 169 216 282 330 390
#     4  10  24  42  66  93 141 177 216 274 337 381
#     4   9  22  41  67  91 138 175 223 273 332 386
#     4   9  22  42  64  94 129 183 217 275 327 397
#     4  11  25  41  63 102 131 178 219 275 329 392
#
# _framework density 24.662137999999999
#
# number of rings (size 3 to 8) (size 9 to 14) (size 15 to 20)
#    0.750    1.250    0.000    1.875    5.250    3.000 
#    9.000    0.000    0.000    0.000    0.000    0.000 
#    0.000    0.000    0.000    0.000    0.000    0.000 
#
# Total GULP energy -89333.458236 kJ/mol
# GULP energy per Si atom -5583.341140 kJ/mol
# Density = 2.460601 g / cm^3
# Si number density = 24.662138 Si / 1000 Ang^3
#
#
#
# Elastic Constant Matrix: (Units=GPa)
#
#
# Indices 1 2 3 4 5 6 
#
# 1 127.9773 20.3079 21.7188 -4.8374 12.7697 -15.5519
# 2 20.3079 68.8732 13.2358 -6.9911 6.8071 -3.9718
# 3 21.7188 13.2358 134.4453 -10.4754 19.6016 -10.4404
# 4 -4.8374 -6.9911 -10.4754 29.1958 0.7488 5.4993
# 5 12.7697 6.8071 19.6016 0.7488 28.5556 -0.7907
# 6 -15.5519 -3.9718 -10.4404 5.4993 -0.7907 31.3841
#
#
#
# Elastic Compliance Matrix: (Units=1/GPa)
#
#
# Indices 1 2 3 4 5 6 
#
# 1 0.009011 -0.002011 -0.000484 0.000175 -0.003114 0.003941
# 2 -0.002011 0.015820 -0.000593 0.003276 -0.002546 0.000170
# 3 -0.000484 -0.000593 0.008766 0.002695 -0.005675 0.001986
# 4 0.000175 0.003276 0.002695 0.037109 -0.003826 -0.005201
# 5 -0.003114 -0.002546 -0.005675 -0.003826 0.040958 -0.002051
# 6 0.003941 0.000170 0.001986 -0.005201 -0.002051 0.035358
#
#
# Mechanical properties :
#
#
# Convention : Reuss Voigt Hill
#
# Bulk Modulus (GPa) = 36.46810 49.09120 42.77965
# Shear Modulus (GPa) = 30.79950 36.22932 33.51441
#
# Velocity S-wave (km/s) = 3.53775 3.83695 3.69038
# Velocity P-wave (km/s) = 5.61309 6.29112 5.96175
#
# Compressibility (1/GPa) = 0.02742123
#
# Stress axis : x y z
#
# Youngs Moduli (GPa) = 110.97088 63.20967 114.07514
#
# Poissons Ratio (x) = 0.12713 0.05523
# Poissons Ratio (y) = 0.22319 0.06764
# Poissons Ratio (z) = 0.05372 0.03748
#
# Static dielectric constant tensor:
#      x y z
#    x 2.040030 0.030390 0.040840 
#    y 0.030390 1.922520 0.018220 
#    z 0.040840 0.018220 2.008790 
# 
# From -- ./inp_files/51280.got.cif
#   From: 2010.05.17/outbox.cif.g08.bks.cpg/sg2_26_cif.got.tgz:51280.got - 2010.06.03 11:33:40.
