data_PCOD9031233
_publ_section_title
;
Structure prediction by ZEFSAII (Michael W. Deem and Ramdas Pophale) SiO2 
 PCOD9031233
Probable space group: P -1
;
_chemical_formula_sum "Si O2"
_cell_formula_units_Z 16
_cell_length_a 13.708706
_cell_length_b 17.787427
_cell_length_c 8.118476
_cell_angle_alpha 68.615515
_cell_angle_beta 60.587053
_cell_angle_gamma 22.533805
_cell_volume 636.953815
_symmetry_space_group_name_H-M "P -1"
_symmetry_group_IT_number 2
_symmetry_cell_setting 'triclinic'
loop_
_space_group_symop_operation_xyz
x,y,z
-x,-y,-z
loop_
_atom_site_type_symbol
_atom_site_label
_atom_site_fract_x
_atom_site_fract_y
_atom_site_fract_z
Si Si1 0.049579 0.567699 0.737540
Si Si2 0.275307 0.000148 0.840337
Si Si3 0.624341 0.259100 0.453215
Si Si4 0.225625 0.193574 0.893642
Si Si5 0.822780 0.219538 0.625269
Si Si6 0.771166 0.223278 0.028762
Si Si7 0.208046 0.114863 0.445156
Si Si8 0.860881 0.544831 0.732496
O O1 0.384111 0.354281 0.621347
O O2 0.928955 0.705987 0.584333
O O3 0.941931 0.549373 0.814475
O O4 0.931647 0.687589 0.901886
O O5 0.316920 0.041510 0.907812
O O6 0.295802 0.026968 0.622765
O O7 0.523539 0.769466 0.823598
O O8 0.967147 0.166510 0.975718
O O9 0.645469 0.311267 0.539224
O O10 0.569542 0.332846 0.258854
O O11 0.919755 0.015846 0.394113
O O12 0.007541 0.363953 0.795397
O O13 0.501944 0.066405 0.750722
O O14 0.980785 0.200973 0.497585
O O15 0.671077 0.311243 0.856604
O O16 0.000000 0.000000 0.000000
O O17 0.000000 0.500000 0.500000
#
# Coordination Sequence:
#
# PCOD9031233 Si02
#       8
#     2   2   2   2   2   2   2   2
#     4  12  27  42  65 104 139 182 226 286 347 416
#     4  11  24  46  70 103 135 184 230 281 353 407
#     4  10  22  43  65  95 136 176 237 282 344 402
#     4  12  25  44  67 103 142 176 230 281 347 420
#     4   9  21  41  68  94 129 184 226 291 342 404
#     4   9  21  41  70  97 132 183 231 284 344 410
#     4  11  22  44  67  93 142 175 224 285 343 409
#     4  12  25  43  74 100 136 182 225 284 346 415
#
# _framework density 25.119561000000001
#
# number of rings (size 3 to 8) (size 9 to 14) (size 15 to 20)
#    0.000    1.250    2.500    2.625    5.250    3.500 
#    2.250    1.250    0.000    0.000    0.000    0.000 
#    0.000    0.000    0.000    0.000    0.000    0.000 
#
# Total GULP energy -89626.862121 kJ/mol
# GULP energy per Si atom -5601.678883 kJ/mol
# Density = 2.506239 g / cm^3
# Si number density = 25.119561 Si / 1000 Ang^3
#
#
#
# Elastic Constant Matrix: (Units=GPa)
#
#
# Indices 1 2 3 4 5 6 
#
# 1 93.6414 -1.8441 30.2245 -4.1595 6.0302 -9.0266
# 2 -1.8441 80.1939 3.8649 0.3312 9.4934 6.9996
# 3 30.2245 3.8649 105.2524 8.9203 9.0112 -18.1658
# 4 -4.1595 0.3312 8.9203 25.0410 -0.5744 -4.6212
# 5 6.0302 9.4934 9.0112 -0.5744 24.6993 -11.6328
# 6 -9.0266 6.9996 -18.1658 -4.6212 -11.6328 26.4462
#
#
#
# Elastic Compliance Matrix: (Units=1/GPa)
#
#
# Indices 1 2 3 4 5 6 
#
# 1 0.012189 0.000359 -0.003402 0.003577 -0.000859 0.001976
# 2 0.000359 0.014449 -0.001243 -0.001565 -0.009458 -0.008989
# 3 -0.003402 -0.001243 0.011996 -0.003564 0.000056 0.006810
# 4 0.003577 -0.001565 -0.003564 0.043772 0.006642 0.009757
# 5 -0.000859 -0.009458 0.000056 0.006642 0.058110 0.028970
# 6 0.001976 -0.008989 0.006810 0.009757 0.028970 0.059992
#
#
# Mechanical properties :
#
#
# Convention : Reuss Voigt Hill
#
# Bulk Modulus (GPa) = 33.26498 38.17536 35.72017
# Shear Modulus (GPa) = 22.82073 31.69347 27.25710
#
# Velocity S-wave (km/s) = 3.01738 3.55590 3.29765
# Velocity P-wave (km/s) = 5.04092 5.66478 5.36193
#
# Compressibility (1/GPa) = 0.03006164
#
# Stress axis : x y z
#
# Youngs Moduli (GPa) = 82.04275 69.21105 83.36061
#
# Poissons Ratio (x) = -0.02482 0.28359
# Poissons Ratio (y) = -0.02943 0.10359
# Poissons Ratio (z) = 0.27910 0.08600
#
# Static dielectric constant tensor:
#      x y z
#    x 1.973060 -0.004070 0.018300 
#    y -0.004070 2.015350 -0.038770 
#    z 0.018300 -0.038770 1.976400 
# 
# From -- ./inp_files/319326.got.cif
#   From: 2010.05.17/outbox.cif.g08.bks.cpg/sg2_160_cif.got.tgz:319326.got - 2010.06.03 11:33:40.
