data_PCOD9031494
_publ_section_title
;
Structure prediction by ZEFSAII (Michael W. Deem and Ramdas Pophale) SiO2 
 PCOD9031494
Probable space group: P -1
;
_chemical_formula_sum "Si O2"
_cell_formula_units_Z 14
_cell_length_a 5.240727
_cell_length_b 9.212058
_cell_length_c 20.532023
_cell_angle_alpha 36.426994
_cell_angle_beta 104.105746
_cell_angle_gamma 109.363644
_cell_volume 554.831840
_symmetry_space_group_name_H-M "P -1"
_symmetry_group_IT_number 2
_symmetry_cell_setting 'triclinic'
loop_
_space_group_symop_operation_xyz
x,y,z
-x,-y,-z
loop_
_atom_site_type_symbol
_atom_site_label
_atom_site_fract_x
_atom_site_fract_y
_atom_site_fract_z
Si Si1 0.222912 0.689073 0.485993
Si Si2 0.924460 0.382975 0.848124
Si Si3 0.189103 0.542770 0.676373
Si Si4 0.842339 0.021247 0.147897
Si Si5 0.683248 0.850072 0.975857
Si Si6 0.239648 0.026934 0.558847
Si Si7 0.062749 0.129791 0.267187
O O1 0.094056 0.625628 0.571905
O O2 0.000000 0.500000 0.500000
O O3 0.535923 0.711691 0.516244
O O4 0.258624 0.943210 0.354303
O O5 0.963420 0.476551 0.742671
O O6 0.822735 0.577204 0.817066
O O7 0.218410 0.364137 0.900685
O O8 0.752866 0.098713 0.936340
O O9 0.378751 0.801198 0.622723
O O10 0.272424 0.279152 0.764307
O O11 0.618281 0.170874 0.059810
O O12 0.917789 0.075479 0.208435
O O13 0.109327 0.099657 0.090999
O O14 0.124327 0.959550 0.648389
O O15 0.000000 0.000000 0.500000
#
# Coordination Sequence:
#
# PCOD9031494 Si02
#       7
#     2   2   2   2   2   2   2
#     4  12  25  43  68 102 149 187 236 294 361 428
#     4   9  23  44  72 100 134 183 237 299 354 427
#     4  10  22  43  67 101 135 187 235 291 351 431
#     4  11  25  44  71 103 141 185 235 295 364 429
#     4  10  24  48  70 103 138 182 239 302 359 422
#     4  11  25  43  67 101 142 190 242 293 345 424
#     4  11  25  44  67 104 139 188 232 291 360 435
#
# _framework density 25.232872
#
# number of rings (size 3 to 8) (size 9 to 14) (size 15 to 20)
#    0.000    1.429    2.857    0.429    4.000    9.143 
#    2.571    0.000    0.000    0.000    0.000    0.000 
#    0.000    0.000    0.000    0.000    0.000    0.000 
#
# Total GULP energy -78111.315519 kJ/mol
# GULP energy per Si atom -5579.379680 kJ/mol
# Density = 2.517544 g / cm^3
# Si number density = 25.232872 Si / 1000 Ang^3
#
#
#
# Elastic Constant Matrix: (Units=GPa)
#
#
# Indices 1 2 3 4 5 6 
#
# 1 118.3970 50.9433 40.9220 22.3839 0.5318 14.3704
# 2 50.9433 128.2396 25.3836 41.9325 -12.0016 7.0419
# 3 40.9220 25.3836 106.3280 28.4078 -0.0010 5.2632
# 4 22.3839 41.9325 28.4078 43.0180 -1.3930 0.5887
# 5 0.5318 -12.0016 -0.0010 -1.3930 34.5103 6.9933
# 6 14.3704 7.0419 5.2632 0.5887 6.9933 25.8919
#
#
#
# Elastic Compliance Matrix: (Units=1/GPa)
#
#
# Indices 1 2 3 4 5 6 
#
# 1 0.011844 -0.003754 -0.003366 -0.000234 -0.000542 -0.004717
# 2 -0.003754 0.013555 0.001592 -0.012112 0.004885 -0.002971
# 3 -0.003366 0.001592 0.012520 -0.008038 0.000496 -0.001061
# 4 -0.000234 -0.012112 -0.008038 0.040294 -0.003620 0.005119
# 5 -0.000542 0.004885 0.000496 -0.003620 0.032531 -0.009833
# 6 -0.004717 -0.002971 -0.001061 0.005119 -0.009833 0.044803
#
#
# Mechanical properties :
#
#
# Convention : Reuss Voigt Hill
#
# Bulk Modulus (GPa) = 37.22700 65.27359 51.25030
# Shear Modulus (GPa) = 28.48064 36.39842 32.43953
#
# Velocity S-wave (km/s) = 3.36328 3.80215 3.58942
# Velocity P-wave (km/s) = 5.46512 6.72307 6.12647
#
# Compressibility (1/GPa) = 0.02686222
#
# Stress axis : x y z
#
# Youngs Moduli (GPa) = 84.43076 73.77474 79.87007
#
# Poissons Ratio (x) = 0.27696 0.26887
# Poissons Ratio (y) = 0.31696 -0.12715
# Poissons Ratio (z) = 0.28422 -0.11744
#
# Static dielectric constant tensor:
#      x y z
#    x 2.442530 0.008780 0.199120 
#    y 0.008780 2.025680 -0.104500 
#    z 0.199120 -0.104500 2.146420 
# 
# From -- ./inp_files/582217.got.cif
#   From: 2010.05.17/outbox.cif.g08.bks.cpg/sg2_292_cif.got.tgz:582217.got - 2010.06.03 11:33:40.
