data_PCOD9031517
_publ_section_title
;
Structure prediction by ZEFSAII (Michael W. Deem and Ramdas Pophale) SiO2 
 PCOD9031517
Probable space group: P -1
;
_chemical_formula_sum "Si O2"
_cell_formula_units_Z 14
_cell_length_a 8.727992
_cell_length_b 12.490583
_cell_length_c 4.985960
_cell_angle_alpha 79.374547
_cell_angle_beta 82.308829
_cell_angle_gamma 83.645121
_cell_volume 527.363562
_symmetry_space_group_name_H-M "P -1"
_symmetry_group_IT_number 2
_symmetry_cell_setting 'triclinic'
loop_
_space_group_symop_operation_xyz
x,y,z
-x,-y,-z
loop_
_atom_site_type_symbol
_atom_site_label
_atom_site_fract_x
_atom_site_fract_y
_atom_site_fract_z
Si Si1 0.802059 0.388037 0.554450
Si Si2 0.558898 0.311210 0.952713
Si Si3 0.197573 0.802283 0.707991
Si Si4 0.760077 0.714502 0.668212
Si Si5 0.103680 0.076597 0.266627
Si Si6 0.635912 0.070161 0.023127
Si Si7 0.106170 0.400871 0.815602
O O1 0.842527 0.259275 0.524457
O O2 0.823913 0.483817 0.294778
O O3 0.933600 0.408218 0.734132
O O4 0.623194 0.396563 0.695172
O O5 0.700081 0.297283 0.135280
O O6 0.401882 0.316868 0.153750
O O7 0.577580 0.190483 0.867751
O O8 0.312992 0.898118 0.697973
O O9 0.035377 0.843308 0.866131
O O10 0.788960 0.841491 0.645257
O O11 0.789327 0.680868 0.370660
O O12 0.880003 0.643877 0.866926
O O13 0.000000 0.000000 0.500000
O O14 0.210895 0.996106 0.095911
O O15 0.500000 0.000000 0.000000
#
# Coordination Sequence:
#
# PCOD9031517 Si02
#       7
#     2   2   2   2   2   2   2
#     4  11  24  48  74 109 141 199 242 310 372 435
#     4  10  25  44  73 100 154 186 246 300 369 439
#     4  10  23  42  73 102 143 186 250 295 362 441
#     4  12  27  49  71 115 146 195 247 310 362 445
#     4  12  23  44  71 105 144 194 246 301 363 439
#     4  10  22  43  67 103 143 196 232 304 364 438
#     4  11  29  47  80 105 152 191 253 306 370 438
#
# _framework density 26.547150999999999
#
# number of rings (size 3 to 8) (size 9 to 14) (size 15 to 20)
#    0.857    0.286    2.857    2.143    4.000    3.429 
#    0.000    2.143    0.000    0.000    0.000    0.000 
#    0.000    0.000    0.000    0.000    0.000    0.000 
#
# Total GULP energy -78161.203914 kJ/mol
# GULP energy per Si atom -5582.943137 kJ/mol
# Density = 2.648673 g / cm^3
# Si number density = 26.547151 Si / 1000 Ang^3
#
#
#
# Elastic Constant Matrix: (Units=GPa)
#
#
# Indices 1 2 3 4 5 6 
#
# 1 110.0276 39.7666 21.0250 6.4415 -27.7063 28.6771
# 2 39.7666 135.3983 29.6477 21.1193 -11.4731 33.9553
# 3 21.0250 29.6477 69.4764 6.6615 -13.8094 7.8097
# 4 6.4415 21.1193 6.6615 49.1537 0.1701 -5.5992
# 5 -27.7063 -11.4731 -13.8094 0.1701 39.9062 -7.6247
# 6 28.6771 33.9553 7.8097 -5.5992 -7.6247 50.3370
#
#
#
# Elastic Compliance Matrix: (Units=1/GPa)
#
#
# Indices 1 2 3 4 5 6 
#
# 1 0.013168 -0.001363 -0.001180 -0.001629 0.007303 -0.005474
# 2 -0.001363 0.010857 -0.003036 -0.004830 -0.000122 -0.006632
# 3 -0.001180 -0.003036 0.016897 -0.000770 0.004285 0.000662
# 4 -0.001629 -0.004830 -0.000770 0.023503 -0.001611 0.006676
# 5 0.007303 -0.000122 0.004285 -0.001611 0.031556 -0.000142
# 6 -0.005474 -0.006632 0.000662 0.006676 -0.000142 0.028076
#
#
# Mechanical properties :
#
#
# Convention : Reuss Voigt Hill
#
# Bulk Modulus (GPa) = 33.59898 55.08674 44.34286
# Shear Modulus (GPa) = 34.44990 42.84357 38.64674
#
# Velocity S-wave (km/s) = 3.60625 4.02165 3.81960
# Velocity P-wave (km/s) = 5.47940 6.50850 6.01600
#
# Compressibility (1/GPa) = 0.02976281
#
# Stress axis : x y z
#
# Youngs Moduli (GPa) = 75.94201 92.10734 59.18138
#
# Poissons Ratio (x) = 0.12558 0.06984
# Poissons Ratio (y) = 0.10354 0.17969
# Poissons Ratio (z) = 0.08961 0.27966
#
# Static dielectric constant tensor:
#      x y z
#    x 2.115280 -0.039470 0.018250 
#    y -0.039470 2.222440 0.076820 
#    z 0.018250 0.076820 2.296950 
# 
# From -- ./inp_files/26814.got.cif
#   From: 2010.05.17/outbox.cif.g08.bks.cpg/sg2_14_cif.got.tgz:26814.got - 2010.06.03 11:33:40.
