data_PCOD9031421
_publ_section_title
;
Structure prediction by ZEFSAII (Michael W. Deem and Ramdas Pophale) SiO2 
 PCOD9031421
Probable space group: P -1
;
_chemical_formula_sum "Si O2"
_cell_formula_units_Z 12
_cell_length_a 5.760102
_cell_length_b 7.950589
_cell_length_c 14.952101
_cell_angle_alpha 117.120496
_cell_angle_beta 103.623043
_cell_angle_gamma 58.333146
_cell_volume 518.714991
_symmetry_space_group_name_H-M "P -1"
_symmetry_group_IT_number 2
_symmetry_cell_setting 'triclinic'
loop_
_space_group_symop_operation_xyz
x,y,z
-x,-y,-z
loop_
_atom_site_type_symbol
_atom_site_label
_atom_site_fract_x
_atom_site_fract_y
_atom_site_fract_z
Si Si1 0.496252 0.956573 0.749313
Si Si2 0.816802 0.376202 0.471955
Si Si3 0.730977 0.860691 0.414396
Si Si4 0.359062 0.754546 0.055166
Si Si5 0.102997 0.626022 0.713950
Si Si6 0.249467 0.918781 0.903502
O O1 0.334267 0.016207 0.655855
O O2 0.572811 0.145639 0.827487
O O3 0.362985 0.943687 0.826073
O O4 0.775807 0.731942 0.709870
O O5 0.500000 0.500000 0.500000
O O6 0.829702 0.291079 0.352319
O O7 0.000000 0.500000 0.500000
O O8 0.983753 0.213028 0.526631
O O9 0.743229 0.631665 0.337680
O O10 0.500000 0.000000 0.500000
O O11 0.500000 0.500000 0.000000
O O12 0.427085 0.842048 0.990746
O O13 0.031427 0.864836 0.051159
O O14 0.177123 0.726308 0.828875
#
# Coordination Sequence:
#
# PCOD9031421 Si02
#       6
#     2   2   2   2   2   2
#     4  11  23  42  67 101 132 180 234 280 355 419
#     4  10  23  44  68  97 141 192 234 290 356 415
#     4  11  23  43  68 100 139 185 236 288 348 419
#     4  10  22  43  66  96 134 170 226 285 354 419
#     4  10  23  41  65  93 142 176 232 287 348 413
#     4  10  23  40  66  96 131 179 221 287 349 423
#
# _framework density 23.134088999999999
#
# number of rings (size 3 to 8) (size 9 to 14) (size 15 to 20)
#    0.000    1.667    1.667    1.500    4.667    2.000 
#   12.000    4.167    0.000    0.000    0.000    0.000 
#    0.000    0.000    0.000    0.000    0.000    0.000 
#
# Total GULP energy -67006.301619 kJ/mol
# GULP energy per Si atom -5583.858468 kJ/mol
# Density = 2.308143 g / cm^3
# Si number density = 23.134089 Si / 1000 Ang^3
#
#
#
# Elastic Constant Matrix: (Units=GPa)
#
#
# Indices 1 2 3 4 5 6 
#
# 1 81.8941 55.2726 45.4706 -5.2476 -26.5936 -10.3883
# 2 55.2726 157.1909 76.2714 1.8809 -17.3138 -4.1951
# 3 45.4706 76.2714 165.5794 -9.9493 -15.4454 -12.7263
# 4 -5.2476 1.8809 -9.9493 68.1083 1.8122 -0.3937
# 5 -26.5936 -17.3138 -15.4454 1.8122 54.3382 -2.8103
# 6 -10.3883 -4.1951 -12.7263 -0.3937 -2.8103 36.0444
#
#
#
# Elastic Compliance Matrix: (Units=1/GPa)
#
#
# Indices 1 2 3 4 5 6 
#
# 1 0.020009 -0.005107 -0.001945 0.001220 0.007836 0.005110
# 2 -0.005107 0.009678 -0.003279 -0.001138 -0.000390 -0.001546
# 3 -0.001945 -0.003279 0.008353 0.001161 0.000445 0.002054
# 4 0.001220 -0.001138 0.001161 0.014979 0.000106 0.000801
# 5 0.007836 -0.000390 0.000445 0.000106 0.022450 0.004122
# 6 0.005110 -0.001546 0.002054 0.000801 0.004122 0.030092
#
#
# Mechanical properties :
#
#
# Convention : Reuss Voigt Hill
#
# Bulk Modulus (GPa) = 57.54668 84.29928 70.92298
# Shear Modulus (GPa) = 37.87418 46.87481 42.37450
#
# Velocity S-wave (km/s) = 4.05057 4.50624 4.28447
# Velocity P-wave (km/s) = 6.84145 7.97455 7.42963
#
# Compressibility (1/GPa) = 0.01737720
#
# Stress axis : x y z
#
# Youngs Moduli (GPa) = 49.97843 103.32814 119.71351
#
# Poissons Ratio (x) = 0.52768 0.23289
# Poissons Ratio (y) = 0.25523 0.39256
# Poissons Ratio (z) = 0.09723 0.33883
#
# Static dielectric constant tensor:
#      x y z
#    x 2.018520 0.067600 0.075820 
#    y 0.067600 1.860540 -0.016820 
#    z 0.075820 -0.016820 1.905990 
# 
# From -- ./inp_files/7262.got.cif
#   From: 2010.05.17/outbox.cif.g08.bks.cpg/sg2_4_cif.got.tgz:7262.got - 2010.06.03 11:33:40.
