data_PCOD9031220
_publ_section_title
;
Structure prediction by ZEFSAII (Michael W. Deem and Ramdas Pophale) SiO2 
 PCOD9031220
Probable space group: P -1
;
_chemical_formula_sum "Si O2"
_cell_formula_units_Z 16
_cell_length_a 8.963928
_cell_length_b 12.244115
_cell_length_c 18.753156
_cell_angle_alpha 135.132055
_cell_angle_beta 128.197870
_cell_angle_gamma 30.023963
_cell_volume 726.485699
_symmetry_space_group_name_H-M "P -1"
_symmetry_group_IT_number 2
_symmetry_cell_setting 'triclinic'
loop_
_space_group_symop_operation_xyz
x,y,z
-x,-y,-z
loop_
_atom_site_type_symbol
_atom_site_label
_atom_site_fract_x
_atom_site_fract_y
_atom_site_fract_z
Si Si1 0.245778 0.763033 0.880672
Si Si2 0.332876 0.314453 0.545066
Si Si3 0.160704 0.687989 0.962554
Si Si4 0.252365 0.137713 0.738241
Si Si5 0.777807 0.597742 0.041842
Si Si6 0.544763 0.517644 0.704217
Si Si7 0.733062 0.771857 0.365745
Si Si8 0.440045 0.372140 0.387833
O O1 0.134383 0.700047 0.873941
O O2 0.358218 0.655595 0.785212
O O3 0.524184 0.658764 0.957337
O O4 0.008585 0.050594 0.942203
O O5 0.476557 0.385796 0.598042
O O6 0.329510 0.311980 0.629575
O O7 0.000000 0.500000 0.500000
O O8 0.543400 0.041518 0.457460
O O9 0.064541 0.599879 0.939617
O O10 0.500000 0.500000 0.000000
O O11 0.351046 0.166602 0.851051
O O12 0.331326 0.201333 0.724770
O O13 0.898010 0.326851 0.729376
O O14 0.407118 0.875734 0.649746
O O15 0.000000 0.500000 0.000000
O O16 0.451646 0.685594 0.688986
O O17 0.085577 0.577821 0.382339
O O18 0.500000 0.500000 0.500000
#
# Coordination Sequence:
#
# PCOD9031220 Si02
#       8
#     2   2   2   2   2   2   2   2
#     4  10  22  43  65  95 126 171 214 260 322 380
#     4  11  23  43  65  95 128 166 208 274 320 379
#     4   9  22  43  63  88 131 171 209 262 319 369
#     4  11  24  42  64  98 126 173 211 260 329 377
#     4  11  23  41  66  94 135 163 212 269 313 382
#     4  11  24  39  67  93 123 167 218 258 321 393
#     4  10  23  42  64  93 127 163 213 257 327 384
#     4  11  23  42  66  93 129 166 212 270 320 384
#
# _framework density 22.023833
#
# number of rings (size 3 to 8) (size 9 to 14) (size 15 to 20)
#    0.000    1.500    1.250    3.000    3.500    5.500 
#   11.250    0.000    0.000    0.000    0.000    0.000 
#    0.000    0.000    0.000    0.000    0.000    0.000 
#
# Total GULP energy -89344.717822 kJ/mol
# GULP energy per Si atom -5584.044864 kJ/mol
# Density = 2.197371 g / cm^3
# Si number density = 22.023833 Si / 1000 Ang^3
#
#
#
# Elastic Constant Matrix: (Units=GPa)
#
#
# Indices 1 2 3 4 5 6 
#
# 1 121.3693 30.7457 22.3235 2.5438 -27.4961 26.7976
# 2 30.7457 70.2635 12.5122 18.0968 -21.5744 23.5779
# 3 22.3235 12.5122 85.5462 5.6599 -32.3076 13.9383
# 4 2.5438 18.0968 5.6599 25.5597 -3.1473 0.0915
# 5 -27.4961 -21.5744 -32.3076 -3.1473 40.9736 0.5319
# 6 26.7976 23.5779 13.9383 0.0915 0.5319 29.9310
#
#
#
# Elastic Compliance Matrix: (Units=1/GPa)
#
#
# Indices 1 2 3 4 5 6 
#
# 1 0.014043 0.005928 0.005320 -0.004652 0.016642 -0.020002
# 2 0.005928 0.045536 0.016880 -0.031528 0.039487 -0.049644
# 3 0.005320 0.016880 0.025932 -0.014147 0.032217 -0.030666
# 4 -0.004652 -0.031528 -0.014147 0.061637 -0.026608 0.035873
# 5 0.016642 0.039487 0.032217 -0.026608 0.080535 -0.062359
# 6 -0.020002 -0.049644 -0.030666 0.035873 -0.062359 0.105703
#
#
# Mechanical properties :
#
#
# Convention : Reuss Voigt Hill
#
# Bulk Modulus (GPa) = 7.05379 45.37130 26.21255
# Shear Modulus (GPa) = 15.41373 33.39937 24.40655
#
# Velocity S-wave (km/s) = 2.64837 3.89846 3.33256
# Velocity P-wave (km/s) = 3.54423 6.39607 5.17065
#
# Compressibility (1/GPa) = 0.14176770
#
# Stress axis : x y z
#
# Youngs Moduli (GPa) = 71.20874 21.96071 38.56227
#
# Poissons Ratio (x) = -0.13017 -0.20516
# Poissons Ratio (y) = -0.42209 -0.65095
# Poissons Ratio (z) = -0.37885 -0.37071
#
# Static dielectric constant tensor:
#      x y z
#    x 1.859440 0.053270 -0.029920 
#    y 0.053270 1.793120 -0.027400 
#    z -0.029920 -0.027400 1.811850 
# 
# From -- ./inp_files/46690.got.cif
#   From: 2010.05.17/outbox.cif.g08.bks.cpg/sg2_24_cif.got.tgz:46690.got - 2010.06.03 11:33:40.
