data_PCOD9031136
_publ_section_title
;
Structure prediction by ZEFSAII (Michael W. Deem and Ramdas Pophale) SiO2 
 PCOD9031136
Probable space group: P -1
;
_chemical_formula_sum "Si O2"
_cell_formula_units_Z 14
_cell_length_a 11.379359
_cell_length_b 5.980201
_cell_length_c 8.873063
_cell_angle_alpha 100.106366
_cell_angle_beta 110.181956
_cell_angle_gamma 90.281762
_cell_volume 556.550544
_symmetry_space_group_name_H-M "P -1"
_symmetry_group_IT_number 2
_symmetry_cell_setting 'triclinic'
loop_
_space_group_symop_operation_xyz
x,y,z
-x,-y,-z
loop_
_atom_site_type_symbol
_atom_site_label
_atom_site_fract_x
_atom_site_fract_y
_atom_site_fract_z
Si Si1 0.551384 0.718078 0.339280
Si Si2 0.556537 0.122030 0.192218
Si Si3 0.277541 0.514537 0.830212
Si Si4 0.355333 0.408222 0.303894
Si Si5 0.064111 0.257748 0.534543
Si Si6 0.883755 0.863162 0.774433
Si Si7 0.108113 0.684575 0.014130
O O1 0.600727 0.607552 0.190353
O O2 0.405450 0.662335 0.310171
O O3 0.614694 0.631690 0.510024
O O4 0.577740 0.974897 0.332861
O O5 0.689177 0.253725 0.222104
O O6 0.448341 0.274715 0.223721
O O7 0.500000 0.000000 0.000000
O O8 0.161775 0.337503 0.715590
O O9 0.231081 0.599067 0.979773
O O10 0.215959 0.302738 0.199240
O O11 0.139070 0.213331 0.412906
O O12 0.000000 0.500000 0.500000
O O13 0.000000 0.000000 0.500000
O O14 0.028042 0.820477 0.870924
O O15 0.862613 0.124868 0.824540
O O16 0.000000 0.500000 0.000000
#
# Coordination Sequence:
#
# PCOD9031136 Si02
#       7
#     2   2   2   2   2   2   2
#     4  10  23  43  69  98 138 179 240 302 356 443
#     4  11  25  43  68 102 143 189 238 300 378 443
#     4  11  24  43  71 102 140 187 241 299 364 440
#     4  10  22  43  65 102 132 184 239 292 368 420
#     4  12  26  46  72 108 144 192 247 301 365 438
#     4  11  24  42  69  97 141 182 237 296 363 436
#     4  11  25  44  64 102 140 187 234 296 367 442
#
# _framework density 25.154945000000001
#
# number of rings (size 3 to 8) (size 9 to 14) (size 15 to 20)
#    0.000    1.143    2.857    2.143    2.000    8.000 
#    0.000    0.000    0.000    0.000    0.000    0.000 
#    0.000    0.000    0.000    0.000    0.000    0.000 
#
# Total GULP energy -77970.022158 kJ/mol
# GULP energy per Si atom -5569.287297 kJ/mol
# Density = 2.509769 g / cm^3
# Si number density = 25.154945 Si / 1000 Ang^3
#
#
#
# Elastic Constant Matrix: (Units=GPa)
#
#
# Indices 1 2 3 4 5 6 
#
# 1 125.5223 49.6059 34.1322 -1.0017 -17.7973 26.5812
# 2 49.6059 131.3403 27.8985 1.7424 -8.5178 49.5605
# 3 34.1322 27.8985 106.6381 23.6598 -17.3596 -6.9764
# 4 -1.0017 1.7424 23.6598 39.9094 0.1025 -4.1434
# 5 -17.7973 -8.5178 -17.3596 0.1025 47.4322 1.1244
# 6 26.5812 49.5605 -6.9764 -4.1434 1.1244 41.1045
#
#
#
# Elastic Compliance Matrix: (Units=1/GPa)
#
#
# Indices 1 2 3 4 5 6 
#
# 1 0.011145 -0.000575 -0.003822 0.001831 0.002843 -0.007056
# 2 -0.000575 0.017062 -0.005516 0.000312 0.001330 -0.021142
# 3 -0.003822 -0.005516 0.014882 -0.007563 0.002782 0.010809
# 4 0.001831 0.000312 -0.007563 0.029598 -0.002093 0.000197
# 5 0.002843 0.001330 0.002782 -0.002093 0.023502 -0.003824
# 6 -0.007056 -0.021142 0.010809 0.000197 -0.003824 0.056341
#
#
# Mechanical properties :
#
#
# Convention : Reuss Voigt Hill
#
# Bulk Modulus (GPa) = 42.98431 65.19708 54.09070
# Shear Modulus (GPa) = 27.76088 42.48016 35.12052
#
# Velocity S-wave (km/s) = 3.32564 4.11389 3.74059
# Velocity P-wave (km/s) = 5.64548 6.96706 6.34079
#
# Compressibility (1/GPa) = 0.02326430
#
# Stress axis : x y z
#
# Youngs Moduli (GPa) = 89.72580 58.60853 67.19666
#
# Poissons Ratio (x) = 0.03370 0.25681
# Poissons Ratio (y) = 0.05160 0.37063
# Poissons Ratio (z) = 0.34291 0.32326
#
# Static dielectric constant tensor:
#      x y z
#    x 1.994440 -0.001640 0.037360 
#    y -0.001640 2.217260 0.082750 
#    z 0.037360 0.082750 1.894440 
# 
# From -- ./inp_files/28461.got.cif
#   From: 2010.05.17/outbox.cif.g08.bks.cpg/sg2_15_cif.got.tgz:28461.got - 2010.06.03 11:33:40.
