data_PCOD9031943
_publ_section_title
;
Structure prediction by ZEFSAII (Michael W. Deem and Ramdas Pophale) SiO2 
 PCOD9031943
Probable space group: P -1
;
_chemical_formula_sum "Si O2"
_cell_formula_units_Z 16
_cell_length_a 12.361537
_cell_length_b 18.183096
_cell_length_c 8.448865
_cell_angle_alpha 143.080880
_cell_angle_beta 140.599250
_cell_angle_gamma 41.262973
_cell_volume 677.949057
_symmetry_space_group_name_H-M "P -1"
_symmetry_group_IT_number 2
_symmetry_cell_setting 'triclinic'
loop_
_space_group_symop_operation_xyz
x,y,z
-x,-y,-z
loop_
_atom_site_type_symbol
_atom_site_label
_atom_site_fract_x
_atom_site_fract_y
_atom_site_fract_z
Si Si1 0.602903 0.061467 0.387704
Si Si2 0.864336 0.596274 0.886579
Si Si3 0.804672 0.020760 0.235068
Si Si4 0.035549 0.896128 0.000448
Si Si5 0.762963 0.380452 0.220845
Si Si6 0.523494 0.823758 0.036326
Si Si7 0.117833 0.553613 0.842414
Si Si8 0.566723 0.704597 0.217940
O O1 0.673600 0.000754 0.189766
O O2 0.779097 0.096995 0.701548
O O3 0.440561 0.200346 0.477225
O O4 0.566181 0.954931 0.274000
O O5 0.779614 0.509058 0.535033
O O6 0.697615 0.709452 0.968465
O O7 0.992549 0.640699 0.987345
O O8 0.000000 0.500000 0.000000
O O9 0.666724 0.156444 0.236667
O O10 0.000000 0.000000 0.500000
O O11 0.871113 0.932272 0.001855
O O12 0.082457 0.746352 0.747858
O O13 0.000000 0.000000 0.000000
O O14 0.789621 0.376115 0.053548
O O15 0.574118 0.367275 0.027027
O O16 0.506344 0.795207 0.151400
O O17 0.253422 0.416702 0.827210
O O18 0.000000 0.500000 0.500000
#
# Coordination Sequence:
#
# PCOD9031943 Si02
#       8
#     2   2   2   2   2   2   2   2
#     4  10  24  40  68  99 134 174 224 282 338 404
#     4  11  25  46  65 103 135 180 228 275 342 404
#     4  10  23  44  66 101 134 176 225 284 339 399
#     4  10  22  43  69 100 134 177 225 276 344 404
#     4  10  24  43  70  95 135 180 227 279 335 408
#     4  12  25  43  69  99 142 177 226 284 341 406
#     4  10  23  42  68  96 134 179 225 280 333 406
#     4  11  23  46  67 101 133 182 230 277 344 401
#
# _framework density 23.600594000000001
#
# number of rings (size 3 to 8) (size 9 to 14) (size 15 to 20)
#    0.000    1.500    1.250    2.625    7.000    2.500 
#    2.250    0.000    0.000    0.000    0.000    0.000 
#    0.000    0.000    0.000    0.000    0.000    0.000 
#
# Total GULP energy -89324.311304 kJ/mol
# GULP energy per Si atom -5582.769457 kJ/mol
# Density = 2.354688 g / cm^3
# Si number density = 23.600594 Si / 1000 Ang^3
#
#
#
# Elastic Constant Matrix: (Units=GPa)
#
#
# Indices 1 2 3 4 5 6 
#
# 1 147.6079 20.9798 32.4637 -2.6387 9.1164 -5.7967
# 2 20.9798 109.3942 14.7655 -6.5738 2.0258 -16.6850
# 3 32.4637 14.7655 41.3251 6.7368 6.4538 -5.1593
# 4 -2.6387 -6.5738 6.7368 34.9096 -1.4954 -1.6181
# 5 9.1164 2.0258 6.4538 -1.4954 26.9157 6.2300
# 6 -5.7967 -16.6850 -5.1593 -1.6181 6.2300 49.9865
#
#
#
# Elastic Compliance Matrix: (Units=1/GPa)
#
#
# Indices 1 2 3 4 5 6 
#
# 1 0.008391 -0.000563 -0.006439 0.001733 -0.001236 0.000331
# 2 -0.000563 0.010338 -0.003223 0.002657 -0.000405 0.003189
# 3 -0.006439 -0.003223 0.032913 -0.007620 -0.006383 0.002123
# 4 0.001733 0.002657 -0.007620 0.030901 0.002529 0.000986
# 5 -0.001236 -0.000405 -0.006383 0.002529 0.040644 -0.005921
# 6 0.000331 0.003189 0.002123 0.000986 -0.005921 0.022097
#
#
# Mechanical properties :
#
#
# Convention : Reuss Voigt Hill
#
# Bulk Modulus (GPa) = 32.06008 48.30503 40.18255
# Shear Modulus (GPa) = 28.38798 37.70359 33.04578
#
# Velocity S-wave (km/s) = 3.47198 4.00130 3.74600
# Velocity P-wave (km/s) = 5.44855 6.46988 5.98106
#
# Compressibility (1/GPa) = 0.03119144
#
# Stress axis : x y z
#
# Youngs Moduli (GPa) = 119.17340 96.73231 30.38358
#
# Poissons Ratio (x) = 0.05443 0.19564
# Poissons Ratio (y) = 0.06705 0.09794
# Poissons Ratio (z) = 0.76736 0.31180
#
# Static dielectric constant tensor:
#      x y z
#    x 1.916620 -0.082770 -0.017540 
#    y -0.082770 1.764430 -0.059720 
#    z -0.017540 -0.059720 1.930010 
# 
# From -- ./inp_files/280190.got.cif
#   From: 2010.05.17/outbox.cif.g08.bks.cpg/sg2_141_cif.got.tgz:280190.got - 2010.06.03 11:33:40.
