data_PCOD9031857
_publ_section_title
;
Structure prediction by ZEFSAII (Michael W. Deem and Ramdas Pophale) SiO2 
 PCOD9031857
Probable space group: P -1
;
_chemical_formula_sum "Si O2"
_cell_formula_units_Z 14
_cell_length_a 8.409327
_cell_length_b 7.245006
_cell_length_c 12.040466
_cell_angle_alpha 82.817424
_cell_angle_beta 82.173940
_cell_angle_gamma 48.635671
_cell_volume 544.828890
_symmetry_space_group_name_H-M "P -1"
_symmetry_group_IT_number 2
_symmetry_cell_setting 'triclinic'
loop_
_space_group_symop_operation_xyz
x,y,z
-x,-y,-z
loop_
_atom_site_type_symbol
_atom_site_label
_atom_site_fract_x
_atom_site_fract_y
_atom_site_fract_z
Si Si1 0.114666 0.010014 0.883663
Si Si2 0.052094 0.598919 0.782149
Si Si3 0.294682 0.043713 0.042725
Si Si4 0.180676 0.290581 0.587138
Si Si5 0.438825 0.461572 0.843627
Si Si6 0.973933 0.990832 0.350239
Si Si7 0.563790 0.287300 0.590647
O O1 0.982959 0.099725 0.776778
O O2 0.342686 0.740351 0.850388
O O3 0.161264 0.161979 0.932762
O O4 0.000000 0.000000 0.000000
O O5 0.084279 0.409170 0.708536
O O6 0.222355 0.506659 0.868820
O O7 0.827259 0.794280 0.848581
O O8 0.096939 0.743517 0.684831
O O9 0.387321 0.764309 0.078065
O O10 0.500000 0.000000 0.000000
O O11 0.412262 0.222628 0.573893
O O12 0.000000 0.500000 0.500000
O O13 0.178463 0.066156 0.594697
O O14 0.513407 0.365445 0.718746
O O15 0.180356 0.870544 0.413839
O O16 0.500000 0.500000 0.500000
#
# Coordination Sequence:
#
# PCOD9031857 Si02
#       7
#     2   2   2   2   2   2   2
#     4  11  22  43  67  96 133 188 233 274 359 414
#     4  10  24  46  70 101 150 181 235 304 348 415
#     4  12  25  41  68 105 138 185 237 287 357 424
#     4  11  25  45  74 105 138 192 236 289 367 420
#     4  10  22  43  68  96 138 186 231 290 347 424
#     4  11  23  45  72 100 145 182 237 296 345 428
#     4  11  22  44  72 101 144 178 235 299 354 417
#
# _framework density 25.696141999999998
#
# number of rings (size 3 to 8) (size 9 to 14) (size 15 to 20)
#    0.000    1.143    5.714    0.429    4.000    3.429 
#    2.571    3.571    0.000    0.000    0.000    0.000 
#    0.000    0.000    0.000    0.000    0.000    0.000 
#
# Total GULP energy -77945.295908 kJ/mol
# GULP energy per Si atom -5567.521136 kJ/mol
# Density = 2.563766 g / cm^3
# Si number density = 25.696142 Si / 1000 Ang^3
#
#
#
# Elastic Constant Matrix: (Units=GPa)
#
#
# Indices 1 2 3 4 5 6 
#
# 1 180.2047 43.6365 54.4977 3.1456 -0.1635 -7.5895
# 2 43.6365 67.0338 16.3905 0.4653 3.0427 -7.0339
# 3 54.4977 16.3905 118.0738 -6.1826 33.4344 -4.0738
# 4 3.1456 0.4653 -6.1826 49.9987 -5.3994 7.7531
# 5 -0.1635 3.0427 33.4344 -5.3994 50.1798 -3.1284
# 6 -7.5895 -7.0339 -4.0738 7.7531 -3.1284 50.6358
#
#
#
# Elastic Compliance Matrix: (Units=1/GPa)
#
#
# Indices 1 2 3 4 5 6 
#
# 1 0.007747 -0.004177 -0.003797 -0.000705 0.002767 0.000554
# 2 -0.004177 0.017938 -0.000279 -0.000314 -0.000835 0.001840
# 3 -0.003797 -0.000279 0.012665 0.000945 -0.008348 -0.000249
# 4 -0.000705 -0.000314 0.000945 0.020811 0.001429 -0.003171
# 5 0.002767 -0.000835 -0.008348 0.001429 0.025766 0.001000
# 6 0.000554 0.001840 -0.000249 -0.003171 0.001000 0.020615
#
#
# Mechanical properties :
#
#
# Convention : Reuss Voigt Hill
#
# Bulk Modulus (GPa) = 45.77813 66.04019 55.90916
# Shear Modulus (GPa) = 38.66036 46.88204 42.77120
#
# Velocity S-wave (km/s) = 3.88302 4.27602 4.08425
# Velocity P-wave (km/s) = 6.16098 7.08064 6.63676
#
# Compressibility (1/GPa) = 0.02184449
#
# Stress axis : x y z
#
# Youngs Moduli (GPa) = 129.07637 55.74647 78.95469
#
# Poissons Ratio (x) = 0.23287 0.29982
# Poissons Ratio (y) = 0.53919 0.02200
# Poissons Ratio (z) = 0.49015 0.01554
#
# Static dielectric constant tensor:
#      x y z
#    x 2.269370 0.057590 -0.019350 
#    y 0.057590 2.188790 -0.045460 
#    z -0.019350 -0.045460 2.058700 
# 
# From -- ./inp_files/382302.got.cif
#   From: 2010.05.17/outbox.cif.g08.bks.cpg/sg2_192_cif.got.tgz:382302.got - 2010.06.03 11:33:40.
