data_PCOD9031142
_publ_section_title
;
Structure prediction by ZEFSAII (Michael W. Deem and Ramdas Pophale) SiO2 
 PCOD9031142
Probable space group: P -1
;
_chemical_formula_sum "Si O2"
_cell_formula_units_Z 13
_cell_length_a 10.444572
_cell_length_b 13.116194
_cell_length_c 4.827540
_cell_angle_alpha 93.269404
_cell_angle_beta 105.295312
_cell_angle_gamma 45.207070
_cell_volume 444.611483
_symmetry_space_group_name_H-M "P -1"
_symmetry_group_IT_number 2
_symmetry_cell_setting 'triclinic'
loop_
_space_group_symop_operation_xyz
x,y,z
-x,-y,-z
loop_
_atom_site_type_symbol
_atom_site_label
_atom_site_fract_x
_atom_site_fract_y
_atom_site_fract_z
Si Si1 0.703152 0.726032 0.222155
Si Si2 0.282323 0.599387 0.587584
Si Si3 0.887442 0.859825 0.720595
Si Si4 0.491119 0.664534 0.896710
Si Si5 0.500000 0.000000 0.500000
Si Si6 0.850188 0.015491 0.243987
Si Si7 0.095008 0.530003 0.257222
O O1 0.789856 0.595984 0.467275
O O2 0.892349 0.686715 0.270584
O O3 0.538284 0.888634 0.269216
O O4 0.624525 0.691416 0.931803
O O5 0.391348 0.645530 0.610178
O O6 0.220067 0.562728 0.286071
O O7 0.088680 0.726340 0.670320
O O8 0.412264 0.460055 0.841175
O O9 0.728104 0.863756 0.703719
O O10 0.767026 0.987566 0.433126
O O11 0.928326 0.906037 0.019969
O O12 0.307246 0.822946 0.941703
O O13 0.000000 0.000000 0.500000
O O14 0.000000 0.500000 0.000000
#
# Coordination Sequence:
#
# PCOD9031142 Si02
#       7
#     2   2   2   2   1   2   2
#     4  10  22  43  65 102 140 189 242 306 366 446
#     4  10  22  46  75 106 147 196 251 309 379 451
#     4  12  27  48  76 111 152 199 255 313 378 455
#     4  10  22  46  71 107 147 191 253 306 379 446
#     4  12  24  46  74 106 150 198 256 302 378 456
#     4  12  26  48  76 108 155 199 247 317 383 448
#     4  10  22  43  69  97 143 190 243 304 374 441
#
# _framework density 29.239008999999999
#
# number of rings (size 3 to 8) (size 9 to 14) (size 15 to 20)
#    0.000    1.231    4.615    0.462    0.000    3.077 
#    0.000    1.538    0.000    0.000    0.000    0.000 
#    0.000    0.000    0.000    0.000    0.000    0.000 
#
# Total GULP energy -72509.959229 kJ/mol
# GULP energy per Si atom -5577.689171 kJ/mol
# Density = 2.917246 g / cm^3
# Si number density = 29.239009 Si / 1000 Ang^3
#
#
#
# Elastic Constant Matrix: (Units=GPa)
#
#
# Indices 1 2 3 4 5 6 
#
# 1 123.3380 20.7000 67.2922 4.8191 60.5539 -6.9774
# 2 20.7000 126.0528 46.1696 -17.2112 9.5219 3.9446
# 3 67.2922 46.1696 171.2946 31.7725 39.1286 4.9301
# 4 4.8191 -17.2112 31.7725 58.0891 22.4946 15.8476
# 5 60.5539 9.5219 39.1286 22.4946 81.4713 -0.2005
# 6 -6.9774 3.9446 4.9301 15.8476 -0.2005 41.9640
#
#
#
# Elastic Compliance Matrix: (Units=1/GPa)
#
#
# Indices 1 2 3 4 5 6 
#
# 1 0.016053 0.000819 -0.005068 0.005749 -0.011178 0.000963
# 2 0.000819 0.010323 -0.003829 0.006564 -0.001796 -0.002872
# 3 -0.005068 -0.003829 0.009785 -0.006880 0.001417 0.000973
# 4 0.005749 0.006564 -0.006880 0.028893 -0.009737 -0.009811
# 5 -0.011178 -0.001796 0.001417 -0.009737 0.022805 0.001930
# 6 0.000963 -0.002872 0.000973 -0.009811 0.001930 0.027860
#
#
# Mechanical properties :
#
#
# Convention : Reuss Voigt Hill
#
# Bulk Modulus (GPa) = 49.98352 76.55657 63.27004
# Shear Modulus (GPa) = 36.08980 55.40643 45.74812
#
# Velocity S-wave (km/s) = 3.51708 4.35782 3.95983
# Velocity P-wave (km/s) = 5.79871 7.18058 6.52632
#
# Compressibility (1/GPa) = 0.02000659
#
# Stress axis : x y z
#
# Youngs Moduli (GPa) = 62.29263 96.87385 102.19413
#
# Poissons Ratio (x) = -0.07936 0.51790
# Poissons Ratio (y) = -0.05103 0.39127
# Poissons Ratio (z) = 0.31569 0.37090
#
# Static dielectric constant tensor:
#      x y z
#    x 3.271700 -0.263210 -0.379460 
#    y -0.263210 2.435690 0.237730 
#    z -0.379460 0.237730 2.444530 
# 
# From -- ./inp_files/35171.got.cif
#   From: 2010.05.17/outbox.cif.g08.bks.cpg/sg2_18_cif.got.tgz:35171.got - 2010.06.03 11:33:40.
