data_PCOD9031246
_publ_section_title
;
Structure prediction by ZEFSAII (Michael W. Deem and Ramdas Pophale) SiO2 
 PCOD9031246
Probable space group: P -1
;
_chemical_formula_sum "Si O2"
_cell_formula_units_Z 11
_cell_length_a 14.640518
_cell_length_b 9.007755
_cell_length_c 11.028915
_cell_angle_alpha 130.015325
_cell_angle_beta 28.032464
_cell_angle_gamma 140.666352
_cell_volume 429.393770
_symmetry_space_group_name_H-M "P -1"
_symmetry_group_IT_number 2
_symmetry_cell_setting 'triclinic'
loop_
_space_group_symop_operation_xyz
x,y,z
-x,-y,-z
loop_
_atom_site_type_symbol
_atom_site_label
_atom_site_fract_x
_atom_site_fract_y
_atom_site_fract_z
Si Si1 0.354580 0.815934 0.966535
Si Si2 0.482585 0.834408 0.256325
Si Si3 0.500000 0.500000 0.500000
Si Si4 0.735137 0.912636 0.244285
Si Si5 0.891403 0.673108 0.542881
Si Si6 0.787095 0.800678 0.477137
O O1 0.092018 0.647707 0.235856
O O2 0.518036 0.719699 0.701150
O O3 0.500000 0.000000 0.000000
O O4 0.372193 0.975616 0.919373
O O5 0.652766 0.855691 0.172375
O O6 0.306932 0.561509 0.278584
O O7 0.316959 0.902342 0.546980
O O8 0.569133 0.680889 0.396189
O O9 0.801773 0.659014 0.277749
O O10 0.000000 0.000000 0.000000
O O11 0.785559 0.722499 0.574532
O O12 0.038017 0.916214 0.575514
#
# Coordination Sequence:
#
# PCOD9031246 Si02
#       6
#     2   2   1   2   2   2
#     4  10  23  42  65  98 131 176 218 268 339 385
#     4  11  24  43  67 104 130 169 238 269 321 411
#     4  12  22  46  68  94 138 172 224 274 328 406
#     4  11  27  43  68  99 136 181 216 276 340 390
#     4  10  23  43  68  94 135 176 218 279 332 380
#     4  10  22  43  65  96 131 178 218 267 334 393
#
# _framework density 25.617509999999999
#
# number of rings (size 3 to 8) (size 9 to 14) (size 15 to 20)
#    0.000    1.455    3.636    0.000    5.091    2.909 
#    0.000   12.727    0.000    0.000    0.000    0.000 
#    0.000    0.000    0.000    0.000    0.000    0.000 
#
# Total GULP energy -61421.610837 kJ/mol
# GULP energy per Si atom -5583.782803 kJ/mol
# Density = 2.555920 g / cm^3
# Si number density = 25.617510 Si / 1000 Ang^3
#
#
#
# Elastic Constant Matrix: (Units=GPa)
#
#
# Indices 1 2 3 4 5 6 
#
# 1 145.9546 41.4068 26.0489 -8.1080 -18.3620 8.7881
# 2 41.4068 136.9597 26.9279 -25.5002 -13.1092 18.3770
# 3 26.0489 26.9279 104.2456 7.7942 -17.2979 -7.7849
# 4 -8.1080 -25.5002 7.7942 44.5590 -0.4618 0.7351
# 5 -18.3620 -13.1092 -17.2979 -0.4618 32.1171 -2.2374
# 6 8.7881 18.3770 -7.7849 0.7351 -2.2374 49.3861
#
#
#
# Elastic Compliance Matrix: (Units=1/GPa)
#
#
# Indices 1 2 3 4 5 6 
#
# 1 0.008025 -0.001622 -0.001172 0.000785 0.003245 -0.000874
# 2 -0.001622 0.010125 -0.002695 0.006052 0.001567 -0.003923
# 3 -0.001172 -0.002695 0.011922 -0.003847 0.004830 0.003367
# 4 0.000785 0.006052 -0.003847 0.026787 0.000999 -0.003351
# 5 0.003245 0.001567 0.004830 0.000999 0.036333 0.001232
# 6 -0.000874 -0.003923 0.003367 -0.003351 0.001232 0.022500
#
#
# Mechanical properties :
#
#
# Convention : Reuss Voigt Hill
#
# Bulk Modulus (GPa) = 52.37161 63.99189 58.18175
# Shear Modulus (GPa) = 37.58400 44.73086 41.15743
#
# Velocity S-wave (km/s) = 3.83446 4.18318 4.01261
# Velocity P-wave (km/s) = 6.33184 6.95456 6.65049
#
# Compressibility (1/GPa) = 0.01909431
#
# Stress axis : x y z
#
# Youngs Moduli (GPa) = 124.60719 98.76739 83.87587
#
# Poissons Ratio (x) = 0.16017 0.09829
# Poissons Ratio (y) = 0.20208 0.22608
# Poissons Ratio (z) = 0.14602 0.26622
#
# Static dielectric constant tensor:
#      x y z
#    x 1.997210 0.035540 -0.078170 
#    y 0.035540 2.218390 0.035380 
#    z -0.078170 0.035380 2.153920 
# 
# From -- ./inp_files/162781.got.cif
#   From: 2010.05.17/outbox.cif.g08.bks.cpg/sg2_82_cif.got.tgz:162781.got - 2010.06.03 11:33:40.
