data_PCOD9031483
_publ_section_title
;
Structure prediction by ZEFSAII (Michael W. Deem and Ramdas Pophale) SiO2 
 PCOD9031483
Probable space group: P -1
;
_chemical_formula_sum "Si O2"
_cell_formula_units_Z 14
_cell_length_a 18.451922
_cell_length_b 12.985826
_cell_length_c 7.076817
_cell_angle_alpha 100.429497
_cell_angle_beta 97.915365
_cell_angle_gamma 19.042924
_cell_volume 541.169125
_symmetry_space_group_name_H-M "P -1"
_symmetry_group_IT_number 2
_symmetry_cell_setting 'triclinic'
loop_
_space_group_symop_operation_xyz
x,y,z
-x,-y,-z
loop_
_atom_site_type_symbol
_atom_site_label
_atom_site_fract_x
_atom_site_fract_y
_atom_site_fract_z
Si Si1 0.969949 0.939858 0.750929
Si Si2 0.255219 0.875878 0.585361
Si Si3 0.724253 0.287286 0.135489
Si Si4 0.803772 0.819996 0.917017
Si Si5 0.473682 0.169865 0.209344
Si Si6 0.166123 0.498046 0.912787
Si Si7 0.380183 0.899970 0.422736
O O1 0.068366 0.921951 0.790041
O O2 0.144322 0.627546 0.813931
O O3 0.910669 0.973029 0.540951
O O4 0.751208 0.236713 0.905888
O O5 0.500000 0.500000 0.500000
O O6 0.248463 0.858499 0.796044
O O7 0.236195 0.019341 0.549077
O O8 0.515583 0.636243 0.249564
O O9 0.588966 0.088020 0.061635
O O10 0.000000 0.500000 0.000000
O O11 0.931079 0.756409 0.900484
O O12 0.748266 0.856131 0.696082
O O13 0.464922 0.245448 0.425726
O O14 0.643840 0.842445 0.191126
O O15 0.249961 0.424880 0.123408
#
# Coordination Sequence:
#
# PCOD9031483 Si02
#       7
#     2   2   2   2   2   2   2
#     4  11  22  44  66  92 139 174 225 280 333 407
#     4  10  23  39  62  97 130 175 223 270 332 400
#     4  10  25  41  67  97 129 180 225 276 338 398
#     4  10  22  43  67 100 134 180 226 273 343 406
#     4  10  24  44  68  99 140 175 226 283 338 407
#     4  10  22  44  69  98 133 183 225 273 346 402
#     4  11  23  43  68 100 137 175 225 282 339 404
#
# _framework density 25.869916
#
# number of rings (size 3 to 8) (size 9 to 14) (size 15 to 20)
#    0.000    1.714    1.429    1.286    2.000   12.571 
#    0.000   10.000    0.000    0.000    0.000    0.000 
#    0.000    0.000    0.000    0.000    0.000    0.000 
#
# Total GULP energy -78305.860017 kJ/mol
# GULP energy per Si atom -5593.275716 kJ/mol
# Density = 2.581104 g / cm^3
# Si number density = 25.869916 Si / 1000 Ang^3
#
#
#
# Elastic Constant Matrix: (Units=GPa)
#
#
# Indices 1 2 3 4 5 6 
#
# 1 40.4592 15.2341 30.6895 -3.6006 -17.1166 -5.8962
# 2 15.2341 77.1370 20.6578 -12.7750 4.9964 -0.1920
# 3 30.6895 20.6578 82.2262 -28.6690 1.3453 -5.5355
# 4 -3.6006 -12.7750 -28.6690 35.7930 -2.2540 6.1633
# 5 -17.1166 4.9964 1.3453 -2.2540 43.8962 -14.9084
# 6 -5.8962 -0.1920 -5.5355 6.1633 -14.9084 42.3912
#
#
#
# Elastic Compliance Matrix: (Units=1/GPa)
#
#
# Indices 1 2 3 4 5 6 
#
# 1 0.065604 -0.011027 -0.028376 -0.021445 0.033487 0.020264
# 2 -0.011027 0.016142 0.002228 0.006790 -0.007483 -0.004789
# 3 -0.028376 0.002228 0.029605 0.022188 -0.013862 -0.008172
# 4 -0.021445 0.006790 0.022188 0.047139 -0.011062 -0.010799
# 5 0.033487 -0.007483 -0.013862 -0.011062 0.043210 0.019619
# 6 0.020264 -0.004789 -0.008172 -0.010799 0.019619 0.033789
#
#
# Mechanical properties :
#
#
# Convention : Reuss Voigt Hill
#
# Bulk Modulus (GPa) = 27.02651 36.99837 32.01244
# Shear Modulus (GPa) = 15.51951 33.29881 24.40916
#
# Velocity S-wave (km/s) = 2.45195 3.59160 3.07503
# Velocity P-wave (km/s) = 4.29952 5.61535 5.00090
#
# Compressibility (1/GPa) = 0.03700071
#
# Stress axis : x y z
#
# Youngs Moduli (GPa) = 15.24296 61.94839 33.77770
#
# Poissons Ratio (x) = 0.68313 0.95847
# Poissons Ratio (y) = 0.16809 -0.07524
# Poissons Ratio (z) = 0.43253 -0.13800
#
# Static dielectric constant tensor:
#      x y z
#    x 2.138160 -0.023150 -0.109570 
#    y -0.023150 2.066600 0.062150 
#    z -0.109570 0.062150 2.034450 
# 
# From -- ./inp_files/27501.got.cif
#   From: 2010.05.17/outbox.cif.g08.bks.cpg/sg2_14_cif.got.tgz:27501.got - 2010.06.03 11:33:40.
