data_PCOD9031278
_publ_section_title
;
Structure prediction by ZEFSAII (Michael W. Deem and Ramdas Pophale) SiO2 
 PCOD9031278
Probable space group: P -1
;
_chemical_formula_sum "Si O2"
_cell_formula_units_Z 16
_cell_length_a 13.518183
_cell_length_b 12.823751
_cell_length_c 9.502116
_cell_angle_alpha 83.256658
_cell_angle_beta 124.055596
_cell_angle_gamma 48.266930
_cell_volume 620.653405
_symmetry_space_group_name_H-M "P -1"
_symmetry_group_IT_number 2
_symmetry_cell_setting 'triclinic'
loop_
_space_group_symop_operation_xyz
x,y,z
-x,-y,-z
loop_
_atom_site_type_symbol
_atom_site_label
_atom_site_fract_x
_atom_site_fract_y
_atom_site_fract_z
Si Si1 0.296610 0.026960 0.313022
Si Si2 0.213135 0.713794 0.802099
Si Si3 0.579151 0.279382 0.494596
Si Si4 0.271135 0.341025 0.695453
Si Si5 0.280143 0.210194 0.485670
Si Si6 0.728620 0.569403 0.031144
Si Si7 0.996172 0.079555 0.697558
Si Si8 0.883263 0.370538 0.715285
O O1 0.216502 0.968041 0.250144
O O2 0.578690 0.820321 0.500817
O O3 0.322114 0.063917 0.476318
O O4 0.086782 0.252804 0.013886
O O5 0.169758 0.629190 0.829838
O O6 0.032698 0.872262 0.497670
O O7 0.500000 0.500000 0.000000
O O8 0.170561 0.837318 0.866361
O O9 0.729723 0.251463 0.535921
O O10 0.369976 0.467244 0.419322
O O11 0.445507 0.315116 0.260004
O O12 0.402443 0.143583 0.744465
O O13 0.393526 0.295105 0.940363
O O14 0.212071 0.477436 0.509713
O O15 0.000000 0.500000 0.500000
O O16 0.968726 0.457831 0.206100
O O17 0.045530 0.150328 0.802540
#
# Coordination Sequence:
#
# PCOD9031278 Si02
#       8
#     2   2   2   2   2   2   2   2
#     4  11  25  42  69 104 138 188 235 286 348 424
#     4  11  23  46  72 102 142 183 231 291 357 416
#     4  12  25  45  72 104 144 189 233 290 353 412
#     4  10  23  43  71 100 135 183 233 293 347 411
#     4  10  22  43  65  99 137 180 234 285 348 410
#     4  11  22  44  73  98 140 184 228 295 353 409
#     4  11  26  42  72 108 136 187 236 286 350 426
#     4  12  25  47  71 103 146 187 232 296 346 414
#
# _framework density 25.779284000000001
#
# number of rings (size 3 to 8) (size 9 to 14) (size 15 to 20)
#    0.000    1.000    5.000    1.125    0.000    7.500 
#    0.000    3.125    0.000    0.000    0.000    0.000 
#    0.000    0.000    0.000    0.000    0.000    0.000 
#
# Total GULP energy -89337.171566 kJ/mol
# GULP energy per Si atom -5583.573223 kJ/mol
# Density = 2.572061 g / cm^3
# Si number density = 25.779284 Si / 1000 Ang^3
#
#
#
# Elastic Constant Matrix: (Units=GPa)
#
#
# Indices 1 2 3 4 5 6 
#
# 1 87.7078 11.5765 6.9524 -7.4406 1.8133 -13.3452
# 2 11.5765 193.2096 16.7976 29.4473 -3.9377 0.9298
# 3 6.9524 16.7976 40.2315 7.3498 -4.2224 -10.6626
# 4 -7.4406 29.4473 7.3498 24.8742 -6.3601 4.3497
# 5 1.8133 -3.9377 -4.2224 -6.3601 35.9975 -1.8717
# 6 -13.3452 0.9298 -10.6626 4.3497 -1.8717 31.0492
#
#
#
# Elastic Compliance Matrix: (Units=1/GPa)
#
#
# Indices 1 2 3 4 5 6 
#
# 1 0.012809 -0.001466 -0.001392 0.005267 0.000188 0.004345
# 2 -0.001466 0.006576 -0.001136 -0.008062 -0.000771 -0.000134
# 3 -0.001392 -0.001136 0.030585 -0.009478 0.002452 0.011414
# 4 0.005267 -0.008062 -0.009478 0.057491 0.007465 -0.008353
# 5 0.000188 -0.000771 0.002452 0.007465 0.029379 0.001671
# 6 0.004345 -0.000134 0.011414 -0.008353 0.001671 0.039269
#
#
# Mechanical properties :
#
#
# Convention : Reuss Voigt Hill
#
# Bulk Modulus (GPa) = 23.82037 43.53353 33.67695
# Shear Modulus (GPa) = 25.24062 37.43903 31.33982
#
# Velocity S-wave (km/s) = 3.13246 3.81503 3.49047
# Velocity P-wave (km/s) = 4.72686 6.02740 5.41631
#
# Compressibility (1/GPa) = 0.04198087
#
# Stress axis : x y z
#
# Youngs Moduli (GPa) = 78.06737 152.06932 32.69566
#
# Poissons Ratio (x) = 0.22298 0.04553
# Poissons Ratio (y) = 0.11447 0.03714
# Poissons Ratio (z) = 0.10870 0.17276
#
# Static dielectric constant tensor:
#      x y z
#    x 2.058480 0.015360 -0.059530 
#    y 0.015360 2.092910 -0.036520 
#    z -0.059530 -0.036520 2.050210 
# 
# From -- ./inp_files/313410.got.cif
#   From: 2010.05.17/outbox.cif.g08.bks.cpg/sg2_157_cif.got.tgz:313410.got - 2010.06.03 11:33:40.
