data_PCOD9031952
_publ_section_title
;
Structure prediction by ZEFSAII (Michael W. Deem and Ramdas Pophale) SiO2 
 PCOD9031952
Probable space group: P -1
;
_chemical_formula_sum "Si O2"
_cell_formula_units_Z 16
_cell_length_a 9.048344
_cell_length_b 8.856794
_cell_length_c 13.143701
_cell_angle_alpha 133.408802
_cell_angle_beta 104.908364
_cell_angle_gamma 85.206037
_cell_volume 732.902488
_symmetry_space_group_name_H-M "P -1"
_symmetry_group_IT_number 2
_symmetry_cell_setting 'triclinic'
loop_
_space_group_symop_operation_xyz
x,y,z
-x,-y,-z
loop_
_atom_site_type_symbol
_atom_site_label
_atom_site_fract_x
_atom_site_fract_y
_atom_site_fract_z
Si Si1 0.270702 0.513348 0.048446
Si Si2 0.048708 0.022140 0.403811
Si Si3 0.830847 0.504151 0.368488
Si Si4 0.946625 0.822270 0.819962
Si Si5 0.322338 0.521129 0.448719
Si Si6 0.344785 0.926413 0.498074
Si Si7 0.992701 0.782985 0.110991
Si Si8 0.612866 0.636179 0.215116
O O1 0.135307 0.654798 0.066726
O O2 0.426854 0.595672 0.173093
O O3 0.334707 0.460524 0.924754
O O4 0.167770 0.332308 0.013158
O O5 0.063638 0.269121 0.496747
O O6 0.216384 0.945267 0.398908
O O7 0.948500 0.832530 0.240689
O O8 0.000000 0.000000 0.500000
O O9 0.762388 0.446944 0.442510
O O10 0.695855 0.546158 0.285254
O O11 0.927763 0.335424 0.254835
O O12 0.780420 0.677603 0.717168
O O13 0.949305 0.982724 0.802322
O O14 0.000000 0.000000 0.000000
O O15 0.500000 0.500000 0.500000
O O16 0.326424 0.713934 0.460072
O O17 0.500000 0.000000 0.500000
O O18 0.338353 0.115362 0.663529
#
# Coordination Sequence:
#
# PCOD9031952 Si02
#       8
#     2   2   2   2   2   2   2   2
#     4  10  23  40  68  98 144 183 234 290 352 422
#     4  11  22  39  71  98 131 176 242 282 340 406
#     4  11  24  46  71 103 143 187 239 294 352 432
#     4  12  28  46  71 103 153 189 233 291 371 430
#     4  12  27  46  74 107 144 188 242 299 363 427
#     4  11  24  41  71  97 132 178 236 290 346 414
#     4  11  23  41  66 100 137 187 231 285 352 425
#     4  10  22  43  69 100 137 182 241 290 351 409
#
# _framework density 21.831008000000001
#
# number of rings (size 3 to 8) (size 9 to 14) (size 15 to 20)
#    0.000    1.000    1.250    5.625    5.250    5.000 
#    0.000    1.250    0.000    0.000    0.000    0.000 
#    0.000    0.000    0.000    0.000    0.000    0.000 
#
# Total GULP energy -89169.087534 kJ/mol
# GULP energy per Si atom -5573.067971 kJ/mol
# Density = 2.178132 g / cm^3
# Si number density = 21.831008 Si / 1000 Ang^3
#
#
#
# Elastic Constant Matrix: (Units=GPa)
#
#
# Indices 1 2 3 4 5 6 
#
# 1 146.9451 34.7522 61.4638 16.2971 18.9653 -9.5626
# 2 34.7522 83.9690 35.3935 32.3567 13.3448 -3.5194
# 3 61.4638 35.3935 139.8041 7.5559 11.7019 -8.0144
# 4 16.2971 32.3567 7.5559 37.7734 4.8861 3.6699
# 5 18.9653 13.3448 11.7019 4.8861 47.3847 -5.3407
# 6 -9.5626 -3.5194 -8.0144 3.6699 -5.3407 33.3579
#
#
#
# Elastic Compliance Matrix: (Units=1/GPa)
#
#
# Indices 1 2 3 4 5 6 
#
# 1 0.009074 -0.001117 -0.003323 -0.002178 -0.002093 0.001590
# 2 -0.001117 0.020694 -0.003507 -0.016450 -0.002546 0.002423
# 3 -0.003323 -0.003507 0.009418 0.002518 -0.000197 0.000632
# 4 -0.002178 -0.016450 0.002518 0.041634 -0.000127 -0.006356
# 5 -0.002093 -0.002546 -0.000197 -0.000127 0.023034 0.002786
# 6 0.001590 0.002423 0.000632 -0.006356 0.002786 0.031986
#
#
# Mechanical properties :
#
#
# Convention : Reuss Voigt Hill
#
# Bulk Modulus (GPa) = 42.92984 70.43746 56.68365
# Shear Modulus (GPa) = 31.34812 39.64377 35.49595
#
# Velocity S-wave (km/s) = 3.79350 4.26601 4.03667
# Velocity P-wave (km/s) = 6.23657 7.52330 6.90995
#
# Compressibility (1/GPa) = 0.02329382
#
# Stress axis : x y z
#
# Youngs Moduli (GPa) = 110.20183 48.32214 106.17778
#
# Poissons Ratio (x) = 0.05396 0.35280
# Poissons Ratio (y) = 0.12305 0.37238
# Poissons Ratio (z) = 0.36617 0.16947
#
# Static dielectric constant tensor:
#      x y z
#    x 2.021540 0.303780 -0.328100 
#    y 0.303780 2.018010 -0.182420 
#    z -0.328100 -0.182420 2.057220 
# 
# From -- ./inp_files/495929.got.cif
#   From: 2010.05.17/outbox.cif.g08.bks.cpg/sg2_248_cif.got.tgz:495929.got - 2010.06.03 11:33:40.
