data_PCOD9031000
_publ_section_title
;
Structure prediction by ZEFSAII (Michael W. Deem and Ramdas Pophale) SiO2 
 PCOD9031000
Probable space group: P -1
;
_chemical_formula_sum "Si O2"
_cell_formula_units_Z 14
_cell_length_a 21.550642
_cell_length_b 15.245975
_cell_length_c 12.102528
_cell_angle_alpha 40.979296
_cell_angle_beta 150.088179
_cell_angle_gamma 160.449370
_cell_volume 616.260773
_symmetry_space_group_name_H-M "P -1"
_symmetry_group_IT_number 2
_symmetry_cell_setting 'triclinic'
loop_
_space_group_symop_operation_xyz
x,y,z
-x,-y,-z
loop_
_atom_site_type_symbol
_atom_site_label
_atom_site_fract_x
_atom_site_fract_y
_atom_site_fract_z
Si Si1 0.287368 0.682853 0.979761
Si Si2 0.420624 0.425920 0.140046
Si Si3 0.412327 0.768532 0.617764
Si Si4 0.057674 0.638455 0.848303
Si Si5 0.181045 0.091314 0.874954
Si Si6 0.580170 0.466172 0.564369
Si Si7 0.623627 0.312903 0.115002
O O1 0.083884 0.551202 0.876282
O O2 0.419684 0.676846 0.241223
O O3 0.204660 0.571657 0.833282
O O4 0.500000 0.000000 0.000000
O O5 0.686774 0.698279 0.219363
O O6 0.421205 0.324608 0.339155
O O7 0.373761 0.525236 0.028486
O O8 0.214649 0.196388 0.944679
O O9 0.192108 0.513432 0.432928
O O10 0.500000 0.000000 0.500000
O O11 0.647262 0.882685 0.876049
O O12 0.298622 0.663248 0.666628
O O13 0.324695 0.975785 0.953702
O O14 0.000000 0.500000 0.000000
O O15 0.878443 0.775891 0.692023
O O16 0.500000 0.500000 0.500000
#
# Coordination Sequence:
#
# PCOD9031000 Si02
#       7
#     2   2   2   2   2   2   2
#     4  10  24  45  63 101 136 174 226 278 334 403
#     4  10  23  44  66  99 135 175 225 282 335 397
#     4  11  22  39  66  99 128 174 225 279 334 389
#     4  11  23  40  70  95 130 176 230 276 331 406
#     4  10  25  42  67 103 134 172 233 278 335 400
#     4  12  24  44  73  96 134 184 223 274 345 401
#     4  10  22  43  63  95 140 168 228 279 335 403
#
# _framework density 22.717654
#
# number of rings (size 3 to 8) (size 9 to 14) (size 15 to 20)
#    0.000    1.429    2.857    1.286    4.000    4.571 
#    0.000    0.000    0.000    0.000    0.000    0.000 
#    0.000    0.000    0.000    0.000    0.000    0.000 
#
# Total GULP energy -78282.835260 kJ/mol
# GULP energy per Si atom -5591.631090 kJ/mol
# Density = 2.266595 g / cm^3
# Si number density = 22.717654 Si / 1000 Ang^3
#
#
#
# Elastic Constant Matrix: (Units=GPa)
#
#
# Indices 1 2 3 4 5 6 
#
# 1 118.0355 -3.7400 16.2695 0.2810 -11.4445 -1.2808
# 2 -3.7400 44.2492 5.9258 -16.4216 -2.5520 -8.1206
# 3 16.2695 5.9258 68.6910 -10.7610 -11.8298 4.8466
# 4 0.2810 -16.4216 -10.7610 32.8467 -0.5556 -1.3089
# 5 -11.4445 -2.5520 -11.8298 -0.5556 42.7910 -7.7686
# 6 -1.2808 -8.1206 4.8466 -1.3089 -7.7686 32.3578
#
#
#
# Elastic Compliance Matrix: (Units=1/GPa)
#
#
# Indices 1 2 3 4 5 6 
#
# 1 0.009025 0.001490 -0.001971 0.000122 0.002244 0.001570
# 2 0.001490 0.030499 -0.000533 0.015501 0.003973 0.009374
# 3 -0.001971 -0.000533 0.016657 0.005210 0.003827 -0.001577
# 4 0.000122 0.015501 0.005210 0.040193 0.003952 0.005690
# 5 0.002244 0.003973 0.003827 0.003952 0.026597 0.007058
# 6 0.001570 0.009374 -0.001577 0.005690 0.007058 0.035480
#
#
# Mechanical properties :
#
#
# Convention : Reuss Voigt Hill
#
# Bulk Modulus (GPa) = 18.46615 29.76513 24.11564
# Shear Modulus (GPa) = 28.00626 35.76712 31.88669
#
# Velocity S-wave (km/s) = 3.51493 3.97220 3.75054
# Velocity P-wave (km/s) = 4.96177 5.84538 5.42161
#
# Compressibility (1/GPa) = 0.05415314
#
# Stress axis : x y z
#
# Youngs Moduli (GPa) = 110.79960 32.78826 60.03365
#
# Poissons Ratio (x) = -0.04885 0.11834
# Poissons Ratio (y) = -0.16507 0.03198
# Poissons Ratio (z) = 0.21842 0.01746
#
# Static dielectric constant tensor:
#      x y z
#    x 1.875220 0.014680 0.019000 
#    y 0.014680 1.829470 0.042290 
#    z 0.019000 0.042290 1.862060 
# 
# From -- ./inp_files/101113.got.cif
#   From: 2010.05.17/outbox.cif.g08.bks.cpg/sg2_51_cif.got.tgz:101113.got - 2010.06.03 11:33:40.
