data_PCOD9032925
_publ_section_title
;
Structure prediction by ZEFSAII (Michael W. Deem and Ramdas Pophale) SiO2 
 PCOD9032925
Probable space group: P -1
;
_chemical_formula_sum "Si O2"
_cell_formula_units_Z 16
_cell_length_a 15.362894
_cell_length_b 9.107477
_cell_length_c 9.200248
_cell_angle_alpha 83.498367
_cell_angle_beta 49.557842
_cell_angle_gamma 112.451045
_cell_volume 777.121518
_symmetry_space_group_name_H-M "P -1"
_symmetry_group_IT_number 2
_symmetry_cell_setting 'triclinic'
loop_
_space_group_symop_operation_xyz
x,y,z
-x,-y,-z
loop_
_atom_site_type_symbol
_atom_site_label
_atom_site_fract_x
_atom_site_fract_y
_atom_site_fract_z
Si Si1 0.665325 0.039029 0.739173
Si Si2 0.511981 0.195252 0.785471
Si Si3 0.767475 0.906553 0.408255
Si Si4 0.834860 0.406602 0.712343
Si Si5 0.201183 0.404574 0.507811
Si Si6 0.967210 0.267463 0.015612
Si Si7 0.489006 0.314461 0.508204
Si Si8 0.205252 0.593020 0.905400
O O1 0.563008 0.064202 0.749100
O O2 0.747645 0.217651 0.734709
O O3 0.763721 0.021410 0.529514
O O4 0.576102 0.863093 0.962713
O O5 0.653818 0.406627 0.612057
O O6 0.431459 0.186666 0.729931
O O7 0.790530 0.762411 0.461405
O O8 0.617672 0.793682 0.497505
O O9 0.890629 0.053120 0.147960
O O10 0.809499 0.545308 0.649554
O O11 0.000000 0.500000 0.500000
O O12 0.795591 0.377337 0.926025
O O13 0.066298 0.354692 0.755369
O O14 0.841448 0.291994 0.138008
O O15 0.076120 0.386034 0.016225
O O16 0.500000 0.500000 0.500000
O O17 0.643500 0.360654 0.305719
#
# Coordination Sequence:
#
# PCOD9032925 Si02
#       8
#     2   2   2   2   2   2   2   2
#     4  10  25  41  64  98 135 171 225 276 323 395
#     4  10  22  44  63  92 138 172 218 278 323 392
#     4  12  26  41  68 101 134 177 217 276 343 390
#     4  11  23  44  68  96 132 175 229 268 324 402
#     4  11  23  44  67  94 138 177 212 278 340 389
#     4  11  23  44  69  99 133 170 230 273 329 397
#     4  12  25  42  65 101 137 171 224 273 333 401
#     4  11  24  42  70  97 128 183 220 272 334 390
#
# _framework density 20.588801
#
# number of rings (size 3 to 8) (size 9 to 14) (size 15 to 20)
#    0.000    1.000    3.750    1.875   10.500    2.500 
#    0.000    2.500    0.000    0.000    0.000    0.000 
#    0.000    0.000    0.000    0.000    0.000    0.000 
#
# Total GULP energy -89415.109935 kJ/mol
# GULP energy per Si atom -5588.444371 kJ/mol
# Density = 2.054194 g / cm^3
# Si number density = 20.588801 Si / 1000 Ang^3
#
#
#
# Elastic Constant Matrix: (Units=GPa)
#
#
# Indices 1 2 3 4 5 6 
#
# 1 113.4234 43.9176 21.2351 -5.2390 9.5185 -5.5634
# 2 43.9176 69.3016 33.3435 -9.2886 8.0603 -1.3189
# 3 21.2351 33.3435 86.2010 -10.9729 7.1828 -5.4750
# 4 -5.2390 -9.2886 -10.9729 31.1893 0.7669 5.1105
# 5 9.5185 8.0603 7.1828 0.7669 30.7490 1.5992
# 6 -5.5634 -1.3189 -5.4750 5.1105 1.5992 24.5107
#
#
#
# Elastic Compliance Matrix: (Units=1/GPa)
#
#
# Indices 1 2 3 4 5 6 
#
# 1 0.011928 -0.007455 0.000202 -0.000522 -0.001907 0.002585
# 2 -0.007455 0.023023 -0.006573 0.003765 -0.002152 -0.002566
# 3 0.000202 -0.006573 0.014791 0.002917 -0.001998 0.002518
# 4 -0.000522 0.003765 0.002917 0.035234 -0.002048 -0.006477
# 5 -0.001907 -0.002152 -0.001998 -0.002048 0.034340 -0.002808
# 6 0.002585 -0.002566 0.002518 -0.006477 -0.002808 0.043343
#
#
# Mechanical properties :
#
#
# Convention : Reuss Voigt Hill
#
# Bulk Modulus (GPa) = 45.27114 51.76871 48.51992
# Shear Modulus (GPa) = 25.29401 28.65182 26.97291
#
# Velocity S-wave (km/s) = 3.50885 3.73449 3.62343
# Velocity P-wave (km/s) = 6.20096 6.61770 6.41272
#
# Compressibility (1/GPa) = 0.02208913
#
# Stress axis : x y z
#
# Youngs Moduli (GPa) = 83.83612 43.43494 67.60667
#
# Poissons Ratio (x) = 0.32382 -0.01365
# Poissons Ratio (y) = 0.62501 0.44440
# Poissons Ratio (z) = -0.01693 0.28551
#
# Static dielectric constant tensor:
#      x y z
#    x 1.745560 0.011410 0.006900 
#    y 0.011410 1.724180 -0.003350 
#    z 0.006900 -0.003350 1.747930 
# 
# From -- ./inp_files/298156.got.cif
#   From: 2010.05.17/outbox.cif.g08.bks.cpg/sg2_150_cif.got.tgz:298156.got - 2010.06.03 11:33:40.
