data_PCOD9032392
_publ_section_title
;
Structure prediction by ZEFSAII (Michael W. Deem and Ramdas Pophale) SiO2 
 PCOD9032392
Probable space group: P -1
;
_chemical_formula_sum "Si O2"
_cell_formula_units_Z 14
_cell_length_a 8.047879
_cell_length_b 15.457725
_cell_length_c 12.788628
_cell_angle_alpha 24.382421
_cell_angle_beta 60.887706
_cell_angle_gamma 72.646304
_cell_volume 525.487852
_symmetry_space_group_name_H-M "P -1"
_symmetry_group_IT_number 2
_symmetry_cell_setting 'triclinic'
loop_
_space_group_symop_operation_xyz
x,y,z
-x,-y,-z
loop_
_atom_site_type_symbol
_atom_site_label
_atom_site_fract_x
_atom_site_fract_y
_atom_site_fract_z
Si Si1 0.387039 0.086316 0.586492
Si Si2 0.773728 0.602170 0.090468
Si Si3 0.846521 0.724836 0.693012
Si Si4 0.668079 0.088683 0.666982
Si Si5 0.132905 0.253496 0.644016
Si Si6 0.883378 0.395713 0.880096
Si Si7 0.425107 0.621181 0.298516
O O1 0.606160 0.112396 0.538505
O O2 0.298341 0.214026 0.558783
O O3 0.320515 0.175042 0.402298
O O4 0.265490 0.812513 0.914546
O O5 0.685310 0.332769 0.436007
O O6 0.598159 0.685167 0.082965
O O7 0.961018 0.692016 0.014941
O O8 0.834504 0.664424 0.884579
O O9 0.092154 0.881613 0.425139
O O10 0.793206 0.495008 0.893424
O O11 0.476688 0.888169 0.006754
O O12 0.020156 0.381672 0.468560
O O13 0.227681 0.424048 0.524165
O O14 0.000000 0.000000 0.000000
O O15 0.500000 0.500000 0.500000
#
# Coordination Sequence:
#
# PCOD9032392 Si02
#       7
#     2   2   2   2   2   2   2
#     4  11  23  45  72 103 141 186 227 291 353 406
#     4  11  25  48  69 103 144 183 232 288 353 409
#     4  10  25  46  72 106 146 182 228 292 342 424
#     4  11  23  46  72 104 143 180 233 283 354 414
#     4  11  26  45  67 100 142 179 243 294 338 415
#     4  10  22  43  71 101 135 184 228 280 357 412
#     4  12  28  45  71 102 137 184 239 290 344 418
#
# _framework density 26.641908000000001
#
# number of rings (size 3 to 8) (size 9 to 14) (size 15 to 20)
#    0.000    1.143    2.857    2.571    8.000    6.286 
#    2.571    3.571    0.000    0.000    0.000    0.000 
#    0.000    0.000    0.000    0.000    0.000    0.000 
#
# Total GULP energy -78231.760497 kJ/mol
# GULP energy per Si atom -5587.982893 kJ/mol
# Density = 2.658127 g / cm^3
# Si number density = 26.641908 Si / 1000 Ang^3
#
#
#
# Elastic Constant Matrix: (Units=GPa)
#
#
# Indices 1 2 3 4 5 6 
#
# 1 138.7647 28.9530 48.6909 -1.1956 18.0150 40.1038
# 2 28.9530 76.9709 23.1615 -0.9913 1.0678 22.4865
# 3 48.6909 23.1615 118.7395 -5.0784 7.1138 23.7529
# 4 -1.1956 -0.9913 -5.0784 31.7129 12.9957 -2.2545
# 5 18.0150 1.0678 7.1138 12.9957 53.4470 -3.4061
# 6 40.1038 22.4865 23.7529 -2.2545 -3.4061 39.2398
#
#
#
# Elastic Compliance Matrix: (Units=1/GPa)
#
#
# Indices 1 2 3 4 5 6 
#
# 1 0.011837 -0.000552 -0.002266 0.001210 -0.004656 -0.010744
# 2 -0.000552 0.015869 -0.001289 -0.000109 -0.000430 -0.007793
# 3 -0.002266 -0.001289 0.010404 0.001820 -0.001245 -0.003247
# 4 0.001210 -0.000109 0.001820 0.035636 -0.009379 -0.001043
# 5 -0.004656 -0.000430 -0.001245 -0.009379 0.023195 0.007233
# 6 -0.010744 -0.007793 -0.003247 -0.001043 0.007233 0.043464
#
#
# Mechanical properties :
#
#
# Convention : Reuss Voigt Hill
#
# Bulk Modulus (GPa) = 33.44952 59.56509 46.50731
# Shear Modulus (GPa) = 31.52904 40.45793 35.99349
#
# Velocity S-wave (km/s) = 3.44385 3.90113 3.67960
# Velocity P-wave (km/s) = 5.32878 6.53436 5.96212
#
# Compressibility (1/GPa) = 0.02989579
#
# Stress axis : x y z
#
# Youngs Moduli (GPa) = 84.48292 63.01776 96.11297
#
# Poissons Ratio (x) = 0.03475 0.21782
# Poissons Ratio (y) = 0.04659 0.12391
# Poissons Ratio (z) = 0.19146 0.08124
#
# Static dielectric constant tensor:
#      x y z
#    x 2.108660 -0.063040 -0.012260 
#    y -0.063040 2.103600 -0.038760 
#    z -0.012260 -0.038760 2.216650 
# 
# From -- ./inp_files/112612.got.cif
#   From: 2010.05.17/outbox.cif.g08.bks.cpg/sg2_57_cif.got.tgz:112612.got - 2010.06.03 11:33:40.
