data_PCOD9032054
_publ_section_title
;
Structure prediction by ZEFSAII (Michael W. Deem and Ramdas Pophale) SiO2 
 PCOD9032054
Probable space group: P -1
;
_chemical_formula_sum "Si O2"
_cell_formula_units_Z 14
_cell_length_a 15.382915
_cell_length_b 8.314188
_cell_length_c 8.953643
_cell_angle_alpha 99.920127
_cell_angle_beta 120.781685
_cell_angle_gamma 43.609210
_cell_volume 639.459257
_symmetry_space_group_name_H-M "P -1"
_symmetry_group_IT_number 2
_symmetry_cell_setting 'triclinic'
loop_
_space_group_symop_operation_xyz
x,y,z
-x,-y,-z
loop_
_atom_site_type_symbol
_atom_site_label
_atom_site_fract_x
_atom_site_fract_y
_atom_site_fract_z
Si Si1 0.443387 0.115829 0.306098
Si Si2 0.322570 0.279614 0.788553
Si Si3 0.423102 0.428571 0.143731
Si Si4 0.918903 0.446041 0.995881
Si Si5 0.264749 0.974445 0.756193
Si Si6 0.016641 0.756868 0.652664
Si Si7 0.878997 0.028993 0.094112
O O1 0.471894 0.270335 0.309030
O O2 0.261753 0.317353 0.155295
O O3 0.500000 0.000000 0.500000
O O4 0.546550 0.884859 0.246427
O O5 0.306438 0.115219 0.809743
O O6 0.153686 0.535659 0.626696
O O7 0.363991 0.360232 0.965024
O O8 0.576581 0.313182 0.185243
O O9 0.276220 0.720166 0.083961
O O10 0.995998 0.198070 0.941766
O O11 0.000000 0.500000 0.000000
O O12 0.956549 0.377624 0.192830
O O13 0.144468 0.082929 0.537316
O O14 0.185410 0.018556 0.846868
O O15 0.045469 0.909735 0.744018
#
# Coordination Sequence:
#
# PCOD9032054 Si02
#       7
#     2   2   2   2   2   2   2
#     4  11  24  41  67  97 130 169 219 266 327 382
#     4  10  22  43  69  92 133 172 217 272 322 382
#     4  10  23  45  70  95 133 177 212 277 327 382
#     4  12  27  43  68  95 133 176 218 268 336 390
#     4  11  22  39  68 102 125 168 232 261 319 394
#     4  11  24  43  65  97 134 175 215 274 326 380
#     4  11  24  44  66  92 137 175 215 269 334 388
#
# _framework density 21.893498999999998
#
# number of rings (size 3 to 8) (size 9 to 14) (size 15 to 20)
#    0.000    1.143    2.857    4.286    8.000    0.000 
#    0.000    0.714    0.000    0.000    0.000    0.000 
#    0.000    0.000    0.000    0.000    0.000    0.000 
#
# Total GULP energy -78293.056145 kJ/mol
# GULP energy per Si atom -5592.361153 kJ/mol
# Density = 2.184367 g / cm^3
# Si number density = 21.893499 Si / 1000 Ang^3
#
#
#
# Elastic Constant Matrix: (Units=GPa)
#
#
# Indices 1 2 3 4 5 6 
#
# 1 76.3603 40.1534 37.1742 -9.6346 -5.3695 -28.2505
# 2 40.1534 142.6335 47.7392 -15.9842 2.8310 -25.5322
# 3 37.1742 47.7392 111.0736 -30.9836 -9.4359 -17.5922
# 4 -9.6346 -15.9842 -30.9836 22.4392 -9.8679 6.0142
# 5 -5.3695 2.8310 -9.4359 -9.8679 35.5943 -5.1710
# 6 -28.2505 -25.5322 -17.5922 6.0142 -5.1710 34.9469
#
#
#
# Elastic Compliance Matrix: (Units=1/GPa)
#
#
# Indices 1 2 3 4 5 6 
#
# 1 0.021970 -0.002406 -0.002869 0.002167 0.005525 0.015003
# 2 -0.002406 0.009217 -0.002569 0.000622 -0.001137 0.003220
# 3 -0.002869 -0.002569 0.022346 0.033676 0.015548 0.003558
# 4 0.002167 0.000622 0.033676 0.108382 0.040189 0.006454
# 5 0.005525 -0.001137 0.015548 0.040189 0.045930 0.011343
# 6 0.015003 0.003220 0.003558 0.006454 0.011343 0.045455
#
#
# Mechanical properties :
#
#
# Convention : Reuss Voigt Hill
#
# Bulk Modulus (GPa) = 26.42380 64.46677 45.44528
# Shear Modulus (GPa) = 17.75559 32.26278 25.00919
#
# Velocity S-wave (km/s) = 2.85089 3.84295 3.38348
# Velocity P-wave (km/s) = 4.78876 7.01431 6.00553
#
# Compressibility (1/GPa) = 0.03784468
#
# Stress axis : x y z
#
# Youngs Moduli (GPa) = 45.51649 108.49602 44.75141
#
# Poissons Ratio (x) = 0.26103 0.12838
# Poissons Ratio (y) = 0.10951 0.11498
# Poissons Ratio (z) = 0.13058 0.27875
#
# Static dielectric constant tensor:
#      x y z
#    x 1.830810 -0.000540 -0.007420 
#    y -0.000540 1.860050 -0.021690 
#    z -0.007420 -0.021690 1.779020 
# 
# From -- ./inp_files/298908.got.cif
#   From: 2010.05.17/outbox.cif.g08.bks.cpg/sg2_150_cif.got.tgz:298908.got - 2010.06.03 11:33:40.
