data_PCOD9032291
_publ_section_title
;
Structure prediction by ZEFSAII (Michael W. Deem and Ramdas Pophale) SiO2 
 PCOD9032291
Probable space group: P -1
;
_chemical_formula_sum "Si O2"
_cell_formula_units_Z 14
_cell_length_a 9.241920
_cell_length_b 11.151491
_cell_length_c 10.937495
_cell_angle_alpha 39.898399
_cell_angle_beta 126.384063
_cell_angle_gamma 116.336968
_cell_volume 581.945184
_symmetry_space_group_name_H-M "P -1"
_symmetry_group_IT_number 2
_symmetry_cell_setting 'triclinic'
loop_
_space_group_symop_operation_xyz
x,y,z
-x,-y,-z
loop_
_atom_site_type_symbol
_atom_site_label
_atom_site_fract_x
_atom_site_fract_y
_atom_site_fract_z
Si Si1 0.214920 0.164778 0.584691
Si Si2 0.624566 0.329597 0.154218
Si Si3 0.442349 0.052119 0.112647
Si Si4 0.279271 0.904798 0.392005
Si Si5 0.942218 0.804525 0.186253
Si Si6 0.943199 0.832242 0.768281
Si Si7 0.998475 0.516208 0.221355
O O1 0.159098 0.369532 0.445360
O O2 0.167959 0.187334 0.397476
O O3 0.417532 0.090243 0.769960
O O4 0.082477 0.999080 0.688194
O O5 0.557719 0.225141 0.082767
O O6 0.613212 0.185836 0.372924
O O7 0.827453 0.395327 0.191103
O O8 0.500000 0.500000 0.000000
O O9 0.380839 0.938448 0.291606
O O10 0.254094 0.142611 0.899918
O O11 0.108893 0.771829 0.385922
O O12 0.196167 0.096362 0.253936
O O13 0.946561 0.643365 0.213106
O O14 0.000000 0.000000 0.000000
O O15 0.036393 0.652291 0.018835
#
# Coordination Sequence:
#
# PCOD9032291 Si02
#       7
#     2   2   2   2   2   2   2
#     4  11  24  39  64 102 135 174 218 273 339 391
#     4  12  22  37  67 106 125 163 234 276 316 387
#     4  11  22  42  67 101 131 166 227 283 319 388
#     4  11  22  43  71  91 136 180 214 273 337 385
#     4  10  22  43  70  94 130 181 222 264 335 398
#     4  11  21  43  66  92 139 178 212 270 342 391
#     4  12  23  42  68  97 137 176 221 270 337 400
#
# _framework density 24.057248000000001
#
# number of rings (size 3 to 8) (size 9 to 14) (size 15 to 20)
#    0.000    0.857    7.143    1.714    2.000    0.571 
#    0.000    3.571    0.000    0.000    0.000    0.000 
#    0.000    0.000    0.000    0.000    0.000    0.000 
#
# Total GULP energy -78327.857658 kJ/mol
# GULP energy per Si atom -5594.846976 kJ/mol
# Density = 2.400249 g / cm^3
# Si number density = 24.057248 Si / 1000 Ang^3
#
#
#
# Elastic Constant Matrix: (Units=GPa)
#
#
# Indices 1 2 3 4 5 6 
#
# 1 115.7214 23.6114 36.3401 -13.1595 26.7372 -8.6919
# 2 23.6114 82.0715 21.7867 -2.4103 18.2203 5.3117
# 3 36.3401 21.7867 133.7910 -20.8170 23.4311 1.1778
# 4 -13.1595 -2.4103 -20.8170 42.0581 -1.2751 7.5680
# 5 26.7372 18.2203 23.4311 -1.2751 51.2399 -5.8301
# 6 -8.6919 5.3117 1.1778 7.5680 -5.8301 28.7523
#
#
#
# Elastic Compliance Matrix: (Units=1/GPa)
#
#
# Indices 1 2 3 4 5 6 
#
# 1 0.010857 -0.001913 -0.001681 0.001903 -0.003895 0.002414
# 2 -0.001913 0.014168 -0.000993 0.000330 -0.004039 -0.004061
# 3 -0.001681 -0.000993 0.009367 0.004410 -0.003231 -0.002524
# 4 0.001903 0.000330 0.004410 0.027853 -0.003306 -0.007668
# 5 -0.003895 -0.004039 -0.003231 -0.003306 0.025022 0.005645
# 6 0.002414 -0.004061 -0.002524 -0.007668 0.005645 0.039526
#
#
# Mechanical properties :
#
#
# Convention : Reuss Voigt Hill
#
# Bulk Modulus (GPa) = 39.65362 55.00669 47.33015
# Shear Modulus (GPa) = 34.63276 41.06644 37.84960
#
# Velocity S-wave (km/s) = 3.79832 4.13610 3.97080
# Velocity P-wave (km/s) = 5.97956 6.76198 6.38277
#
# Compressibility (1/GPa) = 0.02521838
#
# Stress axis : x y z
#
# Youngs Moduli (GPa) = 92.10591 70.58278 106.76225
#
# Poissons Ratio (x) = 0.13503 0.17942
# Poissons Ratio (y) = 0.17621 0.10600
# Poissons Ratio (z) = 0.15479 0.07008
#
# Static dielectric constant tensor:
#      x y z
#    x 1.962060 0.001850 0.000210 
#    y 0.001850 1.942930 0.032230 
#    z 0.000210 0.032230 1.966780 
# 
# From -- ./inp_files/383128.got.cif
#   From: 2010.05.17/outbox.cif.g08.bks.cpg/sg2_192_cif.got.tgz:383128.got - 2010.06.03 11:33:40.
