data_PCOD9032715
_publ_section_title
;
Structure prediction by ZEFSAII (Michael W. Deem and Ramdas Pophale) SiO2 
 PCOD9032715
Probable space group: P -1
;
_chemical_formula_sum "Si O2"
_cell_formula_units_Z 16
_cell_length_a 15.135346
_cell_length_b 5.289833
_cell_length_c 9.073761
_cell_angle_alpha 68.686940
_cell_angle_beta 67.853536
_cell_angle_gamma 85.213369
_cell_volume 625.650939
_symmetry_space_group_name_H-M "P -1"
_symmetry_group_IT_number 2
_symmetry_cell_setting 'triclinic'
loop_
_space_group_symop_operation_xyz
x,y,z
-x,-y,-z
loop_
_atom_site_type_symbol
_atom_site_label
_atom_site_fract_x
_atom_site_fract_y
_atom_site_fract_z
Si Si1 0.636891 0.197965 0.649051
Si Si2 0.427265 0.293849 0.004447
Si Si3 0.058524 0.736642 0.002572
Si Si4 0.843989 0.948338 0.546938
Si Si5 0.028564 0.775532 0.343896
Si Si6 0.268103 0.561018 0.191855
Si Si7 0.732544 0.050316 0.147222
Si Si8 0.626961 0.485331 0.298861
O O1 0.666487 0.411362 0.711632
O O2 0.594967 0.344885 0.502932
O O3 0.575587 0.975961 0.835069
O O4 0.741377 0.082013 0.557835
O O5 0.319391 0.381075 0.078446
O O6 0.500000 0.500000 0.000000
O O7 0.436561 0.349286 0.811457
O O8 0.060787 0.673658 0.187258
O O9 0.166764 0.831627 0.873278
O O10 0.000000 0.500000 0.000000
O O11 0.000000 0.000000 0.000000
O O12 0.817631 0.631614 0.654521
O O13 0.934248 0.958148 0.374064
O O14 0.889199 0.068292 0.644712
O O15 0.000000 0.500000 0.500000
O O16 0.265425 0.845241 0.046568
O O17 0.655966 0.219998 0.245334
O O18 0.708889 0.726360 0.237338
#
# Coordination Sequence:
#
# PCOD9032715 Si02
#       8
#     2   2   2   2   2   2   2   2
#     4  11  23  43  72 105 137 188 242 287 360 434
#     4  10  24  47  72 108 147 182 228 293 364 438
#     4  12  29  42  63  97 142 187 237 305 366 406
#     4  10  23  39  70  97 133 187 254 300 357 434
#     4  11  25  42  65  93 138 188 248 304 367 422
#     4  10  22  43  73  95 136 189 237 290 362 435
#     4  11  24  46  67  97 141 191 243 295 355 432
#     4  11  26  44  75 105 141 191 239 291 359 429
#
# _framework density 25.573367000000001
#
# number of rings (size 3 to 8) (size 9 to 14) (size 15 to 20)
#    0.000    1.250    1.250    3.000   14.000    3.000 
#    0.000    0.625    0.000    0.000    0.000    0.000 
#    0.000    0.000    0.000    0.000    0.000    0.000 
#
# Total GULP energy -89253.832582 kJ/mol
# GULP energy per Si atom -5578.364536 kJ/mol
# Density = 2.551516 g / cm^3
# Si number density = 25.573367 Si / 1000 Ang^3
#
#
#
# Elastic Constant Matrix: (Units=GPa)
#
#
# Indices 1 2 3 4 5 6 
#
# 1 94.0931 27.1559 51.8253 -8.3211 14.2007 2.8694
# 2 27.1559 132.3217 39.9099 -3.9357 2.7602 32.0525
# 3 51.8253 39.9099 170.2557 -6.9919 19.3128 14.5956
# 4 -8.3211 -3.9357 -6.9919 43.9067 -5.8809 -2.6048
# 5 14.2007 2.7602 19.3128 -5.8809 43.8224 0.9269
# 6 2.8694 32.0525 14.5956 -2.6048 0.9269 61.1444
#
#
#
# Elastic Compliance Matrix: (Units=1/GPa)
#
#
# Indices 1 2 3 4 5 6 
#
# 1 0.013572 -0.001971 -0.003425 0.001583 -0.002580 0.001321
# 2 -0.001971 0.009446 -0.001302 0.000093 0.000727 -0.004555
# 3 -0.003425 -0.001302 0.007542 0.000099 -0.002099 -0.000921
# 4 0.001583 0.000093 0.000099 0.023493 0.002573 0.000815
# 5 -0.002580 0.000727 -0.002099 0.002573 0.024881 -0.000026
# 6 0.001321 -0.004555 -0.000921 0.000815 -0.000026 0.018936
#
#
# Mechanical properties :
#
#
# Convention : Reuss Voigt Hill
#
# Bulk Modulus (GPa) = 58.26278 70.49475 64.37876
# Shear Modulus (GPa) = 42.73974 48.29333 45.51653
#
# Velocity S-wave (km/s) = 4.09254 4.35031 4.22339
# Velocity P-wave (km/s) = 6.72041 7.27043 7.00082
#
# Compressibility (1/GPa) = 0.01716362
#
# Stress axis : x y z
#
# Youngs Moduli (GPa) = 73.68038 105.86821 132.58335
#
# Poissons Ratio (x) = 0.20871 0.45406
# Poissons Ratio (y) = 0.14525 0.17265
# Poissons Ratio (z) = 0.25234 0.13786
#
# Static dielectric constant tensor:
#      x y z
#    x 2.218030 -0.127650 -0.031430 
#    y -0.127650 1.918590 -0.026280 
#    z -0.031430 -0.026280 2.090100 
# 
# From -- ./inp_files/288474.got.cif
#   From: 2010.05.17/outbox.cif.g08.bks.cpg/sg2_145_cif.got.tgz:288474.got - 2010.06.03 11:33:40.
