data_PCOD9032653
_publ_section_title
;
Structure prediction by ZEFSAII (Michael W. Deem and Ramdas Pophale) SiO2 
 PCOD9032653
Probable space group: P -1
;
_chemical_formula_sum "Si O2"
_cell_formula_units_Z 13
_cell_length_a 8.257819
_cell_length_b 9.047392
_cell_length_c 8.597610
_cell_angle_alpha 97.064714
_cell_angle_beta 56.451668
_cell_angle_gamma 108.243812
_cell_volume 507.414624
_symmetry_space_group_name_H-M "P -1"
_symmetry_group_IT_number 2
_symmetry_cell_setting 'triclinic'
loop_
_space_group_symop_operation_xyz
x,y,z
-x,-y,-z
loop_
_atom_site_type_symbol
_atom_site_label
_atom_site_fract_x
_atom_site_fract_y
_atom_site_fract_z
Si Si1 0.346973 0.606473 0.445991
Si Si2 0.283151 0.322764 0.224718
Si Si3 0.418926 0.786422 0.138708
Si Si4 0.986134 0.376416 0.129606
Si Si5 0.401972 0.122148 0.481974
Si Si6 0.716684 0.104006 0.068340
Si Si7 0.000000 0.000000 0.500000
O O1 0.340158 0.444956 0.351950
O O2 0.297152 0.703974 0.339857
O O3 0.185838 0.595371 0.663297
O O4 0.555409 0.720402 0.419951
O O5 0.139664 0.160037 0.348992
O O6 0.164925 0.380533 0.155129
O O7 0.490792 0.318294 0.031856
O O8 0.622758 0.919145 0.101592
O O9 0.280387 0.858904 0.112532
O O10 0.913717 0.205283 0.064854
O O11 0.000000 0.500000 0.000000
O O12 0.536512 0.155513 0.256937
O O13 0.171796 0.040211 0.551606
O O14 0.500000 0.000000 0.500000
#
# Coordination Sequence:
#
# PCOD9032653 Si02
#       7
#     2   2   2   2   2   2   1
#     4  11  25  46  76  99 150 202 236 309 389 445
#     4  12  27  45  73 111 151 187 258 311 366 454
#     4  11  23  44  71 103 143 201 246 299 375 458
#     4  11  26  48  73 108 146 192 253 315 379 450
#     4  11  22  47  75 105 147 201 252 306 378 447
#     4  10  22  43  72  99 148 197 245 302 384 442
#     4  12  26  46  74 114 144 196 262 312 366 454
#
# _framework density 25.620076000000001
#
# number of rings (size 3 to 8) (size 9 to 14) (size 15 to 20)
#    0.000    0.923    3.077    3.692    0.000    2.462 
#    2.769    0.000    0.000    0.000    0.000    0.000 
#    0.000    0.000    0.000    0.000    0.000    0.000 
#
# Total GULP energy -72524.502121 kJ/mol
# GULP energy per Si atom -5578.807855 kJ/mol
# Density = 2.556176 g / cm^3
# Si number density = 25.620076 Si / 1000 Ang^3
#
#
#
# Elastic Constant Matrix: (Units=GPa)
#
#
# Indices 1 2 3 4 5 6 
#
# 1 144.7605 66.3135 27.6052 -7.6600 18.7905 20.1394
# 2 66.3135 139.6600 61.4576 -1.1909 17.6355 32.2245
# 3 27.6052 61.4576 125.3206 -27.5734 42.7378 -9.2757
# 4 -7.6600 -1.1909 -27.5734 42.7661 -5.7959 14.0810
# 5 18.7905 17.6355 42.7378 -5.7959 37.9842 -6.9131
# 6 20.1394 32.2245 -9.2757 14.0810 -6.9131 46.5008
#
#
#
# Elastic Compliance Matrix: (Units=1/GPa)
#
#
# Indices 1 2 3 4 5 6 
#
# 1 0.009663 -0.004352 0.002366 0.003220 -0.005381 -0.002472
# 2 -0.004352 0.014496 -0.008295 -0.002499 0.002802 -0.008642
# 3 0.002366 -0.008295 0.019893 0.009583 -0.017663 0.003164
# 4 0.003220 -0.002499 0.009583 0.031815 -0.007919 -0.008562
# 5 -0.005381 0.002802 -0.017663 -0.007919 0.047504 0.006325
# 6 -0.002472 -0.008642 0.003164 -0.008562 0.006325 0.032729
#
#
# Mechanical properties :
#
#
# Convention : Reuss Voigt Hill
#
# Bulk Modulus (GPa) = 42.57267 80.05486 61.31376
# Shear Modulus (GPa) = 27.10146 42.40787 34.75466
#
# Velocity S-wave (km/s) = 3.25594 4.07290 3.68712
# Velocity P-wave (km/s) = 5.54868 7.30977 6.48925
#
# Compressibility (1/GPa) = 0.02348925
#
# Stress axis : x y z
#
# Youngs Moduli (GPa) = 103.48566 68.98455 50.26983
#
# Poissons Ratio (x) = 0.30024 -0.11895
# Poissons Ratio (y) = 0.45040 0.41700
# Poissons Ratio (z) = -0.24487 0.57224
#
# Static dielectric constant tensor:
#      x y z
#    x 2.031870 -0.061510 0.010420 
#    y -0.061510 2.130610 0.009390 
#    z 0.010420 0.009390 2.003440 
# 
# From -- ./inp_files/159050.got.cif
#   From: 2010.05.17/outbox.cif.g08.bks.cpg/sg2_80_cif.got.tgz:159050.got - 2010.06.03 11:33:40.
