data_PCOD9032338
_publ_section_title
;
Structure prediction by ZEFSAII (Michael W. Deem and Ramdas Pophale) SiO2 
 PCOD9032338
Probable space group: P -1
;
_chemical_formula_sum "Si O2"
_cell_formula_units_Z 16
_cell_length_a 14.478273
_cell_length_b 5.342911
_cell_length_c 9.839433
_cell_angle_alpha 87.241094
_cell_angle_beta 80.255931
_cell_angle_gamma 98.733692
_cell_volume 739.328902
_symmetry_space_group_name_H-M "P -1"
_symmetry_group_IT_number 2
_symmetry_cell_setting 'triclinic'
loop_
_space_group_symop_operation_xyz
x,y,z
-x,-y,-z
loop_
_atom_site_type_symbol
_atom_site_label
_atom_site_fract_x
_atom_site_fract_y
_atom_site_fract_z
Si Si1 0.713194 0.061551 0.853358
Si Si2 0.070602 0.228708 0.906262
Si Si3 0.884244 0.411369 0.875554
Si Si4 0.593473 0.578313 0.563885
Si Si5 0.117455 0.012156 0.633951
Si Si6 0.066717 0.333368 0.407749
Si Si7 0.594548 0.519652 0.886944
Si Si8 0.288563 0.872855 0.468714
O O1 0.811689 0.150761 0.905045
O O2 0.644960 0.270458 0.895692
O O3 0.732321 0.081687 0.686121
O O4 0.664693 0.776655 0.904158
O O5 0.994970 0.382089 0.848661
O O6 0.130130 0.122744 0.777528
O O7 0.126391 0.409347 0.999877
O O8 0.000000 0.000000 0.000000
O O9 0.868453 0.531147 0.730711
O O10 0.500000 0.500000 0.500000
O O11 0.572492 0.555668 0.731627
O O12 0.660800 0.370373 0.524588
O O13 0.644306 0.865004 0.511794
O O14 0.192505 0.834881 0.580932
O O15 0.008102 0.881234 0.644203
O O16 0.128510 0.222109 0.507622
O O17 0.000000 0.500000 0.500000
O O18 0.500000 0.500000 0.000000
#
# Coordination Sequence:
#
# PCOD9032338 Si02
#       8
#     2   2   2   2   2   2   2   2
#     4  10  23  40  69  99 128 166 221 272 321 389
#     4  11  24  43  58  86 139 183 215 274 336 390
#     4  11  24  40  64  89 130 181 224 269 335 387
#     4  10  22  44  68  95 131 167 205 264 347 399
#     4  11  24  38  62  95 127 171 230 275 325 384
#     4  11  22  37  64  90 125 171 224 277 320 380
#     4  10  22  43  70  98 129 164 209 270 331 399
#     4  10  23  39  68  99 129 165 218 280 317 391
#
# _framework density 21.641247
#
# number of rings (size 3 to 8) (size 9 to 14) (size 15 to 20)
#    0.000    1.500    2.500    1.500   10.500    0.000 
#    2.250    0.000    0.000    0.000    0.000    0.000 
#    0.000    0.000    0.000    0.000    0.000    0.000 
#
# Total GULP energy -89531.777302 kJ/mol
# GULP energy per Si atom -5595.736081 kJ/mol
# Density = 2.159199 g / cm^3
# Si number density = 21.641247 Si / 1000 Ang^3
#
#
#
# Elastic Constant Matrix: (Units=GPa)
#
#
# Indices 1 2 3 4 5 6 
#
# 1 73.2977 32.6927 40.1736 16.9008 -7.2837 17.0777
# 2 32.6927 121.8804 44.0996 22.2181 1.5261 19.8270
# 3 40.1736 44.0996 100.3543 20.6892 -17.3187 -1.5561
# 4 16.9008 22.2181 20.6892 33.6125 -7.2486 1.0214
# 5 -7.2837 1.5261 -17.3187 -7.2486 30.1697 10.1194
# 6 17.0777 19.8270 -1.5561 1.0214 10.1194 44.3070
#
#
#
# Elastic Compliance Matrix: (Units=1/GPa)
#
#
# Indices 1 2 3 4 5 6 
#
# 1 0.021147 -0.001035 -0.006594 -0.004980 0.003026 -0.008496
# 2 -0.001035 0.011671 -0.004263 -0.005119 -0.003128 -0.004141
# 3 -0.006594 -0.004263 0.016107 -0.002599 0.006003 0.003704
# 4 -0.004980 -0.005119 -0.002599 0.038523 0.006213 0.001812
# 5 0.003026 -0.003128 0.006003 0.006213 0.042097 -0.009313
# 6 -0.008496 -0.004141 0.003704 0.001812 -0.009313 0.029913
#
#
# Mechanical properties :
#
#
# Convention : Reuss Voigt Hill
#
# Bulk Modulus (GPa) = 39.77506 58.82935 49.30221
# Shear Modulus (GPa) = 26.09327 33.52227 29.80777
#
# Velocity S-wave (km/s) = 3.47611 3.94000 3.71531
# Velocity P-wave (km/s) = 5.87625 6.92395 6.42150
#
# Compressibility (1/GPa) = 0.02514138
#
# Stress axis : x y z
#
# Youngs Moduli (GPa) = 47.28879 85.68406 62.08537
#
# Poissons Ratio (x) = 0.08865 0.40937
# Poissons Ratio (y) = 0.04892 0.26468
# Poissons Ratio (z) = 0.31181 0.36529
#
# Static dielectric constant tensor:
#      x y z
#    x 1.797590 -0.013480 0.011000 
#    y -0.013480 1.863300 -0.022870 
#    z 0.011000 -0.022870 1.755630 
# 
# From -- ./inp_files/38050.got.cif
#   From: 2010.05.17/outbox.cif.g08.bks.cpg/sg2_20_cif.got.tgz:38050.got - 2010.06.03 11:33:40.
