data_PCOD9032016
_publ_section_title
;
Structure prediction by ZEFSAII (Michael W. Deem and Ramdas Pophale) SiO2 
 PCOD9032016
Probable space group: P -1
;
_chemical_formula_sum "Si O2"
_cell_formula_units_Z 14
_cell_length_a 11.740972
_cell_length_b 8.839162
_cell_length_c 7.613525
_cell_angle_alpha 134.052802
_cell_angle_beta 106.552745
_cell_angle_gamma 73.529402
_cell_volume 540.134003
_symmetry_space_group_name_H-M "P -1"
_symmetry_group_IT_number 2
_symmetry_cell_setting 'triclinic'
loop_
_space_group_symop_operation_xyz
x,y,z
-x,-y,-z
loop_
_atom_site_type_symbol
_atom_site_label
_atom_site_fract_x
_atom_site_fract_y
_atom_site_fract_z
Si Si1 0.403765 0.845813 0.901415
Si Si2 0.022587 0.752274 0.841375
Si Si3 0.743529 0.408530 0.600719
Si Si4 0.078094 0.816139 0.284684
Si Si5 0.204891 0.390989 0.544626
Si Si6 0.323117 0.973842 0.367250
Si Si7 0.542696 0.428238 0.770598
O O1 0.305056 0.800766 0.675596
O O2 0.460801 0.597429 0.751053
O O3 0.352165 0.924089 0.133047
O O4 0.500000 0.000000 0.000000
O O5 0.156424 0.631210 0.770795
O O6 0.922749 0.685324 0.611984
O O7 0.007254 0.726887 0.022292
O O8 0.000000 0.000000 0.000000
O O9 0.876509 0.345439 0.673005
O O10 0.735438 0.593487 0.605616
O O11 0.670039 0.479665 0.799147
O O12 0.197835 0.897473 0.317342
O O13 0.000000 0.000000 0.500000
O O14 0.292416 0.230563 0.570753
O O15 0.428608 0.830661 0.407952
O O16 0.500000 0.500000 0.000000
#
# Coordination Sequence:
#
# PCOD9032016 Si02
#       7
#     2   2   2   2   2   2   2
#     4  11  23  45  77 101 139 192 243 311 365 419
#     4  11  23  44  73  98 150 192 240 288 349 423
#     4  11  24  42  67 108 140 182 247 291 361 439
#     4  11  24  43  69 104 156 186 229 298 352 432
#     4  11  24  42  74 105 137 196 240 290 359 419
#     4  10  22  43  69 105 138 187 244 288 362 429
#     4   9  21  44  68  96 140 180 233 304 356 418
#
# _framework density 25.919492999999999
#
# number of rings (size 3 to 8) (size 9 to 14) (size 15 to 20)
#    0.000    1.429    1.429    3.000    4.000    0.571 
#    0.000   20.000    0.000    0.000    0.000    0.000 
#    0.000    0.000    0.000    0.000    0.000    0.000 
#
# Total GULP energy -78077.074983 kJ/mol
# GULP energy per Si atom -5576.933927 kJ/mol
# Density = 2.586050 g / cm^3
# Si number density = 25.919493 Si / 1000 Ang^3
#
#
#
# Elastic Constant Matrix: (Units=GPa)
#
#
# Indices 1 2 3 4 5 6 
#
# 1 112.3587 42.0533 40.7413 11.9524 -27.4250 1.7829
# 2 42.0533 177.1044 46.5177 32.4117 3.9102 -19.7829
# 3 40.7413 46.5177 59.9896 -5.4905 -12.2330 -8.3026
# 4 11.9524 32.4117 -5.4905 33.7933 -1.4282 -9.1278
# 5 -27.4250 3.9102 -12.2330 -1.4282 42.4618 -0.7202
# 6 1.7829 -19.7829 -8.3026 -9.1278 -0.7202 57.1800
#
#
#
# Elastic Compliance Matrix: (Units=1/GPa)
#
#
# Indices 1 2 3 4 5 6 
#
# 1 0.014908 -0.000114 -0.009789 -0.007290 0.006523 -0.003007
# 2 -0.000114 0.010637 -0.010116 -0.011921 -0.004364 0.000257
# 3 -0.009789 -0.010116 0.034862 0.020464 0.005429 0.005202
# 4 -0.007290 -0.011921 0.020464 0.048975 0.004050 0.006943
# 5 0.006523 -0.004364 0.005429 0.004050 0.029867 0.000098
# 6 -0.003007 0.000257 0.005202 0.006943 0.000098 0.019536
#
#
# Mechanical properties :
#
#
# Convention : Reuss Voigt Hill
#
# Bulk Modulus (GPa) = 49.09712 67.56415 58.33063
# Shear Modulus (GPa) = 24.31744 41.36304 32.84024
#
# Velocity S-wave (km/s) = 3.06631 3.99911 3.56337
# Velocity P-wave (km/s) = 5.61424 6.88821 6.28359
#
# Compressibility (1/GPa) = 0.02036779
#
# Stress axis : x y z
#
# Youngs Moduli (GPa) = 67.07944 94.00892 28.68452
#
# Poissons Ratio (x) = 0.01076 0.28079
# Poissons Ratio (y) = 0.00768 0.29018
# Poissons Ratio (z) = 0.65664 0.95101
#
# Static dielectric constant tensor:
#      x y z
#    x 2.093630 0.022530 0.040180 
#    y 0.022530 1.979330 0.018810 
#    z 0.040180 0.018810 2.129690 
# 
# From -- ./inp_files/241566.got.cif
#   From: 2010.05.17/outbox.cif.g08.bks.cpg/sg2_121_cif.got.tgz:241566.got - 2010.06.03 11:33:40.
