data_PCOD9032275
_publ_section_title
;
Structure prediction by ZEFSAII (Michael W. Deem and Ramdas Pophale) SiO2 
 PCOD9032275
Probable space group: P -1
;
_chemical_formula_sum "Si O2"
_cell_formula_units_Z 16
_cell_length_a 8.925855
_cell_length_b 12.258416
_cell_length_c 14.649738
_cell_angle_alpha 125.494591
_cell_angle_beta 118.339330
_cell_angle_gamma 33.291407
_cell_volume 716.138880
_symmetry_space_group_name_H-M "P -1"
_symmetry_group_IT_number 2
_symmetry_cell_setting 'triclinic'
loop_
_space_group_symop_operation_xyz
x,y,z
-x,-y,-z
loop_
_atom_site_type_symbol
_atom_site_label
_atom_site_fract_x
_atom_site_fract_y
_atom_site_fract_z
Si Si1 0.606325 0.321631 0.717332
Si Si2 0.505383 0.770836 0.790595
Si Si3 0.009879 0.771106 0.093823
Si Si4 0.344489 0.583250 0.591002
Si Si5 0.154707 0.653251 0.888506
Si Si6 0.398142 0.053363 0.223460
Si Si7 0.712395 0.944618 0.599172
Si Si8 0.078880 0.447683 0.883178
O O1 0.878466 0.230535 0.783585
O O2 0.512523 0.392330 0.620337
O O3 0.376909 0.535167 0.817775
O O4 0.647822 0.142172 0.668637
O O5 0.352778 0.727252 0.705885
O O6 0.784960 0.574478 0.829499
O O7 0.575844 0.810662 0.738837
O O8 0.301652 0.993498 0.894710
O O9 0.170317 0.719119 0.022657
O O10 0.046530 0.588474 0.015694
O O11 0.500000 0.500000 0.500000
O O12 0.031991 0.728659 0.561465
O O13 0.167697 0.489500 0.843140
O O14 0.854297 0.858157 0.860207
O O15 0.333650 0.079613 0.323653
O O16 0.678265 0.805781 0.160744
O O17 0.500000 0.000000 0.500000
#
# Coordination Sequence:
#
# PCOD9032275 Si02
#       8
#     2   2   2   2   2   2   2   2
#     4  12  24  49  71 103 149 181 239 301 355 428
#     4  11  25  45  69 106 152 182 243 291 353 432
#     4  10  22  43  70 107 149 191 231 282 356 436
#     4  12  31  50  73 106 141 191 244 308 367 413
#     4   9  21  41  69 105 143 183 235 281 345 435
#     4  11  23  44  72 106 144 189 241 292 349 432
#     4  12  28  48  77 103 134 191 250 303 369 420
#     4   9  22  39  67 105 144 188 230 273 354 421
#
# _framework density 22.342034000000002
#
# number of rings (size 3 to 8) (size 9 to 14) (size 15 to 20)
#    0.750    0.500    3.750    0.750    5.250    2.500 
#    0.000    1.875    0.000    0.000    0.000    0.000 
#    0.000    0.000    0.000    0.000    0.000    0.000 
#
# Total GULP energy -89414.701428 kJ/mol
# GULP energy per Si atom -5588.418839 kJ/mol
# Density = 2.229118 g / cm^3
# Si number density = 22.342034 Si / 1000 Ang^3
#
#
#
# Elastic Constant Matrix: (Units=GPa)
#
#
# Indices 1 2 3 4 5 6 
#
# 1 60.7850 21.3199 27.4306 -10.1125 -5.9831 -3.7556
# 2 21.3199 113.1536 16.2272 -21.8957 -0.0071 -10.1442
# 3 27.4306 16.2272 73.1456 -27.0771 -9.2569 -3.0562
# 4 -10.1125 -21.8957 -27.0771 35.3771 -2.5248 -1.2722
# 5 -5.9831 -0.0071 -9.2569 -2.5248 52.1512 -1.6551
# 6 -3.7556 -10.1442 -3.0562 -1.2722 -1.6551 42.8659
#
#
#
# Elastic Compliance Matrix: (Units=1/GPa)
#
#
# Indices 1 2 3 4 5 6 
#
# 1 0.020820 -0.003115 -0.007603 -0.001708 0.000973 0.000532
# 2 -0.003115 0.010812 0.001555 0.007111 0.000348 0.002621
# 3 -0.007603 0.001555 0.022972 0.016734 0.004079 0.001994
# 4 -0.001708 0.007111 0.016734 0.045507 0.005114 0.004274
# 5 0.000973 0.000348 0.004079 0.005114 0.020303 0.001394
# 6 0.000532 0.002621 0.001994 0.004274 0.001394 0.024318
#
#
# Mechanical properties :
#
#
# Convention : Reuss Voigt Hill
#
# Bulk Modulus (GPa) = 27.56499 41.89329 34.72914
# Shear Modulus (GPa) = 28.54685 38.21927 33.38306
#
# Velocity S-wave (km/s) = 3.57840 4.14048 3.86966
# Velocity P-wave (km/s) = 5.42566 6.45366 5.96186
#
# Compressibility (1/GPa) = 0.03627790
#
# Stress axis : x y z
#
# Youngs Moduli (GPa) = 48.03135 92.48579 43.53138
#
# Poissons Ratio (x) = 0.28810 0.33099
# Poissons Ratio (y) = 0.14962 -0.06771
# Poissons Ratio (z) = 0.36520 -0.14385
#
# Static dielectric constant tensor:
#      x y z
#    x 1.897400 0.011560 -0.059850 
#    y 0.011560 1.807480 -0.012440 
#    z -0.059850 -0.012440 1.841810 
# 
# From -- ./inp_files/500576.got.cif
#   From: 2010.05.17/outbox.cif.g08.bks.cpg/sg2_251_cif.got.tgz:500576.got - 2010.06.03 11:33:40.
