data_PCOD9032650
_publ_section_title
;
Structure prediction by ZEFSAII (Michael W. Deem and Ramdas Pophale) SiO2 
 PCOD9032650
Probable space group: P -1
;
_chemical_formula_sum "Si O2"
_cell_formula_units_Z 12
_cell_length_a 5.069850
_cell_length_b 13.231511
_cell_length_c 7.321181
_cell_angle_alpha 90.377980
_cell_angle_beta 108.950574
_cell_angle_gamma 90.073594
_cell_volume 464.485627
_symmetry_space_group_name_H-M "P -1"
_symmetry_group_IT_number 2
_symmetry_cell_setting 'triclinic'
loop_
_space_group_symop_operation_xyz
x,y,z
-x,-y,-z
loop_
_atom_site_type_symbol
_atom_site_label
_atom_site_fract_x
_atom_site_fract_y
_atom_site_fract_z
Si Si1 0.627511 0.609788 0.568407
Si Si2 0.651237 0.605785 0.998343
Si Si3 0.807391 0.903257 0.926555
Si Si4 0.941305 0.886990 0.557658
Si Si5 0.960128 0.306622 0.621197
Si Si6 0.309478 0.803199 0.948311
O O1 0.500000 0.500000 0.500000
O O2 0.704440 0.617333 0.796696
O O3 0.904110 0.632578 0.517942
O O4 0.918178 0.628440 0.182410
O O5 0.438664 0.695410 0.998619
O O6 0.500000 0.500000 0.000000
O O7 0.555567 0.886457 0.007080
O O8 0.737577 0.898280 0.691499
O O9 0.039787 0.817018 0.011275
O O10 0.000000 0.000000 0.000000
O O11 0.909446 0.805645 0.387030
O O12 0.189511 0.830512 0.722177
O O13 0.000000 0.000000 0.500000
O O14 0.625056 0.314032 0.540541
#
# Coordination Sequence:
#
# PCOD9032650 Si02
#       6
#     2   2   2   2   2   2
#     4  12  26  51  75 109 156 190 250 314 360 442
#     4  12  27  49  79 112 145 203 249 299 379 443
#     4  10  22  43  72  99 141 191 233 297 366 421
#     4  10  25  46  71 105 143 191 241 297 367 433
#     4  12  28  49  75 110 151 198 243 310 371 437
#     4  10  24  45  67 104 149 181 238 306 354 431
#
# _framework density 25.835028000000001
#
# number of rings (size 3 to 8) (size 9 to 14) (size 15 to 20)
#    1.000    0.000    3.333    2.000    2.333    4.000 
#    0.000    0.000    0.000    0.000    0.000    0.000 
#    0.000    0.000    0.000    0.000    0.000    0.000 
#
# Total GULP energy -67066.123487 kJ/mol
# GULP energy per Si atom -5588.843624 kJ/mol
# Density = 2.577623 g / cm^3
# Si number density = 25.835028 Si / 1000 Ang^3
#
#
#
# Elastic Constant Matrix: (Units=GPa)
#
#
# Indices 1 2 3 4 5 6 
#
# 1 67.2865 -7.4182 23.3098 -7.1635 -6.8661 16.7385
# 2 -7.4182 150.5949 3.6330 2.0969 4.4626 11.3263
# 3 23.3098 3.6330 144.0433 19.2773 6.8555 12.9271
# 4 -7.1635 2.0969 19.2773 43.4414 1.1079 1.8073
# 5 -6.8661 4.4626 6.8555 1.1079 28.3602 -3.3872
# 6 16.7385 11.3263 12.9271 1.8073 -3.3872 35.8693
#
#
#
# Elastic Compliance Matrix: (Units=1/GPa)
#
#
# Indices 1 2 3 4 5 6 
#
# 1 0.019051 0.001436 -0.003222 0.004734 0.004020 -0.008041
# 2 0.001436 0.006965 -0.000106 0.000097 -0.001077 -0.002938
# 3 -0.003222 -0.000106 0.008278 -0.004066 -0.002785 -0.001504
# 4 0.004734 0.000097 -0.004066 0.025660 0.000874 -0.001985
# 5 0.004020 -0.001077 -0.002785 0.000874 0.037396 0.002955
# 6 -0.008041 -0.002938 -0.001504 -0.001985 0.002955 0.033480
#
#
# Mechanical properties :
#
#
# Convention : Reuss Voigt Hill
#
# Bulk Modulus (GPa) = 32.77701 44.55264 38.66482
# Shear Modulus (GPa) = 34.53387 44.36086 39.44736
#
# Velocity S-wave (km/s) = 3.66007 4.14826 3.91179
# Velocity P-wave (km/s) = 5.52956 6.34245 5.94990
#
# Compressibility (1/GPa) = 0.03050919
#
# Stress axis : x y z
#
# Youngs Moduli (GPa) = 52.49063 143.57191 120.79864
#
# Poissons Ratio (x) = -0.20616 0.38926
# Poissons Ratio (y) = -0.07537 0.01282
# Poissons Ratio (z) = 0.16915 0.01524
#
# Static dielectric constant tensor:
#      x y z
#    x 2.041000 -0.052240 -0.000530 
#    y -0.052240 2.100530 0.068000 
#    z -0.000530 0.068000 2.153870 
# 
# From -- ./inp_files/3371.got.cif
#   From: 2010.05.17/outbox.cif.g08.bks.cpg/sg2_2_cif.got.tgz:3371.got - 2010.06.03 11:33:40.
