data_PCOD9032427
_publ_section_title
;
Structure prediction by ZEFSAII (Michael W. Deem and Ramdas Pophale) SiO2 
 PCOD9032427
Probable space group: P -1
;
_chemical_formula_sum "Si O2"
_cell_formula_units_Z 16
_cell_length_a 8.393857
_cell_length_b 16.182190
_cell_length_c 10.936313
_cell_angle_alpha 147.726534
_cell_angle_beta 61.178814
_cell_angle_gamma 117.794663
_cell_volume 689.446574
_symmetry_space_group_name_H-M "P -1"
_symmetry_group_IT_number 2
_symmetry_cell_setting 'triclinic'
loop_
_space_group_symop_operation_xyz
x,y,z
-x,-y,-z
loop_
_atom_site_type_symbol
_atom_site_label
_atom_site_fract_x
_atom_site_fract_y
_atom_site_fract_z
Si Si1 0.109743 0.102572 0.428167
Si Si2 0.544830 0.688023 0.503577
Si Si3 0.328610 0.786337 0.478361
Si Si4 0.517225 0.337727 0.971228
Si Si5 0.206914 0.626642 0.702870
Si Si6 0.968191 0.710609 0.661061
Si Si7 0.202649 0.096542 0.858139
Si Si8 0.185068 0.815835 0.184365
O O1 0.255796 0.216009 0.440127
O O2 0.981052 0.199353 0.677319
O O3 0.206038 0.993311 0.349976
O O4 0.974068 0.982203 0.248125
O O5 0.441971 0.774839 0.545087
O O6 0.418122 0.682625 0.663009
O O7 0.539922 0.511834 0.234293
O O8 0.404913 0.676767 0.212004
O O9 0.115524 0.738920 0.534178
O O10 0.333828 0.961669 0.647267
O O11 0.310216 0.250601 0.948689
O O12 0.639257 0.237065 0.882747
O O13 0.087031 0.671598 0.688021
O O14 0.173701 0.441615 0.499687
O O15 0.144511 0.706265 0.946031
O O16 0.862533 0.852187 0.920596
#
# Coordination Sequence:
#
# PCOD9032427 Si02
#       8
#     2   2   2   2   2   2   2   2
#     4  11  26  44  71 105 137 178 225 282 343 399
#     4  11  26  46  66 104 136 181 228 280 338 397
#     4  11  25  42  70 101 138 177 228 282 334 403
#     4  12  26  45  69 102 139 181 228 276 339 405
#     4  10  22  45  71  98 139 180 225 280 340 400
#     4  10  22  43  71 104 131 181 229 279 337 400
#     4  12  23  48  70 103 137 178 231 277 338 411
#     4  11  25  45  70 100 138 182 221 282 340 405
#
# _framework density 23.207018000000001
#
# number of rings (size 3 to 8) (size 9 to 14) (size 15 to 20)
#    0.000    1.000    3.750    1.875    5.250    2.500 
#    4.500    0.000    0.000    0.000    0.000    0.000 
#    0.000    0.000    0.000    0.000    0.000    0.000 
#
# Total GULP energy -89585.108657 kJ/mol
# GULP energy per Si atom -5599.069291 kJ/mol
# Density = 2.315420 g / cm^3
# Si number density = 23.207018 Si / 1000 Ang^3
#
#
#
# Elastic Constant Matrix: (Units=GPa)
#
#
# Indices 1 2 3 4 5 6 
#
# 1 66.4315 33.5884 5.7603 13.1750 -1.1597 21.0484
# 2 33.5884 82.7492 22.1360 -4.9074 13.8656 28.2866
# 3 5.7603 22.1360 103.6746 -9.2759 4.0324 20.4323
# 4 13.1750 -4.9074 -9.2759 21.9901 -4.7492 -2.1776
# 5 -1.1597 13.8656 4.0324 -4.7492 26.8475 2.9704
# 6 21.0484 28.2866 20.4323 -2.1776 2.9704 31.9668
#
#
#
# Elastic Compliance Matrix: (Units=1/GPa)
#
#
# Indices 1 2 3 4 5 6 
#
# 1 0.026866 -0.008678 0.001015 -0.018026 0.003654 -0.012227
# 2 -0.008678 0.021733 -0.000927 0.006560 -0.009012 -0.011641
# 3 0.001015 -0.000927 0.011452 0.003363 0.000167 -0.006955
# 4 -0.018026 0.006560 0.003363 0.061051 0.005289 0.007583
# 5 0.003654 -0.009012 0.000167 0.005289 0.042766 0.001848
# 6 -0.012227 -0.011641 -0.006955 0.007583 0.001848 0.054424
#
#
# Mechanical properties :
#
#
# Convention : Reuss Voigt Hill
#
# Bulk Modulus (GPa) = 23.32566 41.75828 32.54197
# Shear Modulus (GPa) = 20.01910 28.91891 24.46901
#
# Velocity S-wave (km/s) = 2.94025 3.53388 3.25064
# Velocity P-wave (km/s) = 4.64754 5.88931 5.30489
#
# Compressibility (1/GPa) = 0.04287123
#
# Stress axis : x y z
#
# Youngs Moduli (GPa) = 37.22220 46.01223 87.32052
#
# Poissons Ratio (x) = 0.39930 -0.08862
# Poissons Ratio (y) = 0.32302 0.08092
# Poissons Ratio (z) = -0.03778 0.04264
#
# Static dielectric constant tensor:
#      x y z
#    x 1.902630 -0.014950 -0.013320 
#    y -0.014950 1.892960 0.004420 
#    z -0.013320 0.004420 1.828850 
# 
# From -- ./inp_files/403490.got.cif
#   From: 2010.05.17/outbox.cif.g08.bks.cpg/sg2_202_cif.got.tgz:403490.got - 2010.06.03 11:33:40.
