data_PCOD9032774
_publ_section_title
;
Structure prediction by ZEFSAII (Michael W. Deem and Ramdas Pophale) SiO2 
 PCOD9032774
Probable space group: P -1
;
_chemical_formula_sum "Si O2"
_cell_formula_units_Z 14
_cell_length_a 9.367402
_cell_length_b 9.490641
_cell_length_c 9.327814
_cell_angle_alpha 113.551381
_cell_angle_beta 48.058624
_cell_angle_gamma 113.800520
_cell_volume 554.007813
_symmetry_space_group_name_H-M "P -1"
_symmetry_group_IT_number 2
_symmetry_cell_setting 'triclinic'
loop_
_space_group_symop_operation_xyz
x,y,z
-x,-y,-z
loop_
_atom_site_type_symbol
_atom_site_label
_atom_site_fract_x
_atom_site_fract_y
_atom_site_fract_z
Si Si1 0.255194 0.373338 0.988065
Si Si2 0.308984 0.866062 0.587080
Si Si3 0.919403 0.271602 0.934248
Si Si4 0.098004 0.076273 0.158670
Si Si5 0.143973 0.269808 0.484519
Si Si6 0.710727 0.429753 0.679956
Si Si7 0.563759 0.343679 0.334979
O O1 0.478418 0.416310 0.803197
O O2 0.260731 0.639598 0.890866
O O3 0.233967 0.215515 0.036575
O O4 0.236497 0.506166 0.170625
O O5 0.259244 0.744734 0.438802
O O6 0.351215 0.747857 0.632998
O O7 0.500000 0.000000 0.500000
O O8 0.120093 0.941362 0.767195
O O9 0.020250 0.277389 0.713897
O O10 0.086610 0.333505 0.965966
O O11 0.837233 0.088244 0.947083
O O12 0.078427 0.134767 0.357748
O O13 0.174993 0.437323 0.449035
O O14 0.639638 0.753356 0.625176
O O15 0.500000 0.500000 0.500000
#
# Coordination Sequence:
#
# PCOD9032774 Si02
#       7
#     2   2   2   2   2   2   2
#     4  10  22  43  74 111 147 201 259 315 376 457
#     4  12  25  46  78 109 151 197 258 323 379 453
#     4  12  26  47  81 108 154 206 257 313 391 458
#     4  11  25  48  75 114 151 202 260 317 384 455
#     4  11  26  50  73 111 162 198 254 317 388 463
#     4  10  23  45  71 109 154 194 255 320 380 448
#     4  12  27  49  73 115 151 199 255 315 388 457
#
# _framework density 25.270401
#
# number of rings (size 3 to 8) (size 9 to 14) (size 15 to 20)
#    0.000    0.857    2.857    3.429    2.000    4.571 
#   10.286    0.000    0.000    0.000    0.000    0.000 
#    0.000    0.000    0.000    0.000    0.000    0.000 
#
# Total GULP energy -78531.582481 kJ/mol
# GULP energy per Si atom -5609.398749 kJ/mol
# Density = 2.521288 g / cm^3
# Si number density = 25.270401 Si / 1000 Ang^3
#
#
#
# Elastic Constant Matrix: (Units=GPa)
#
#
# Indices 1 2 3 4 5 6 
#
# 1 110.4340 26.1137 52.5767 19.6879 -2.8336 -7.6857
# 2 26.1137 122.5163 50.8405 24.6733 -6.0187 13.9961
# 3 52.5767 50.8405 182.3272 8.1125 -1.4240 3.1529
# 4 19.6879 24.6733 8.1125 44.8113 1.2676 -4.6044
# 5 -2.8336 -6.0187 -1.4240 1.2676 46.3257 7.0015
# 6 -7.6857 13.9961 3.1529 -4.6044 7.0015 43.6500
#
#
#
# Elastic Compliance Matrix: (Units=1/GPa)
#
#
# Indices 1 2 3 4 5 6 
#
# 1 0.011479 -0.000611 -0.002994 -0.003973 0.000343 0.001959
# 2 -0.000611 0.011179 -0.002582 -0.005941 0.002176 -0.004481
# 3 -0.002994 -0.002582 0.006999 0.001481 -0.000345 0.000007
# 4 -0.003973 -0.005941 0.001481 0.027584 -0.002388 0.004391
# 5 0.000343 0.002176 -0.000345 -0.002388 0.022624 -0.004493
# 6 0.001959 -0.004481 0.000007 0.004391 -0.004493 0.025875
#
#
# Mechanical properties :
#
#
# Convention : Reuss Voigt Hill
#
# Bulk Modulus (GPa) = 57.86123 74.92659 66.39391
# Shear Modulus (GPa) = 40.36337 46.00716 43.18527
#
# Velocity S-wave (km/s) = 4.00091 4.27147 4.13840
# Velocity P-wave (km/s) = 6.65504 7.35130 7.01182
#
# Compressibility (1/GPa) = 0.01728273
#
# Stress axis : x y z
#
# Youngs Moduli (GPa) = 87.11888 89.45092 142.86981
#
# Poissons Ratio (x) = 0.05465 0.42776
# Poissons Ratio (y) = 0.05323 0.36892
# Poissons Ratio (z) = 0.26084 0.23098
#
# Static dielectric constant tensor:
#      x y z
#    x 2.017140 -0.021650 0.045840 
#    y -0.021650 2.000020 -0.027470 
#    z 0.045840 -0.027470 2.038690 
# 
# From -- ./inp_files/292470.got.cif
#   From: 2010.05.17/outbox.cif.g08.bks.cpg/sg2_147_cif.got.tgz:292470.got - 2010.06.03 11:33:40.
