data_PCOD9032096
_publ_section_title
;
Structure prediction by ZEFSAII (Michael W. Deem and Ramdas Pophale) SiO2 
 PCOD9032096
Probable space group: P -1
;
_chemical_formula_sum "Si O2"
_cell_formula_units_Z 16
_cell_length_a 7.988034
_cell_length_b 8.838992
_cell_length_c 21.955183
_cell_angle_alpha 144.191937
_cell_angle_beta 127.810740
_cell_angle_gamma 57.381636
_cell_volume 713.591081
_symmetry_space_group_name_H-M "P -1"
_symmetry_group_IT_number 2
_symmetry_cell_setting 'triclinic'
loop_
_space_group_symop_operation_xyz
x,y,z
-x,-y,-z
loop_
_atom_site_type_symbol
_atom_site_label
_atom_site_fract_x
_atom_site_fract_y
_atom_site_fract_z
Si Si1 0.409785 0.333359 0.773011
Si Si2 0.054666 0.488590 0.838082
Si Si3 0.216847 0.051458 0.822217
Si Si4 0.078508 0.362481 0.409803
Si Si5 0.451749 0.388303 0.229156
Si Si6 0.539959 0.751707 0.468571
Si Si7 0.208079 0.837686 0.516647
Si Si8 0.698894 0.424288 0.973353
O O1 0.205980 0.491584 0.813364
O O2 0.483559 0.490381 0.781662
O O3 0.599952 0.288287 0.850249
O O4 0.340691 0.053114 0.647376
O O5 0.800686 0.542225 0.792955
O O6 0.133363 0.198101 0.788512
O O7 0.123870 0.674351 0.969772
O O8 0.454061 0.909920 0.837794
O O9 0.063328 0.823489 0.719943
O O10 0.215247 0.309464 0.946892
O O11 0.285237 0.194096 0.425500
O O12 0.148207 0.604167 0.467599
O O13 0.000000 0.500000 0.500000
O O14 0.581274 0.522806 0.355197
O O15 0.332935 0.707488 0.445432
O O16 0.500000 0.000000 0.500000
O O17 0.000000 0.000000 0.500000
O O18 0.500000 0.500000 0.000000
#
# Coordination Sequence:
#
# PCOD9032096 Si02
#       8
#     2   2   2   2   2   2   2   2
#     4  11  22  43  70  94 135 181 222 276 342 398
#     4   9  22  45  66  96 134 174 224 278 332 404
#     4  10  22  43  69  96 133 173 220 282 337 393
#     4  12  23  41  65  96 134 174 218 280 338 401
#     4  12  23  41  70  98 134 179 224 277 340 400
#     4  12  24  42  60  98 136 177 229 272 335 415
#     4  12  25  41  66 100 135 178 220 278 344 402
#     4   8  20  42  70  90 132 177 222 282 334 397
#
# _framework density 22.421804999999999
#
# number of rings (size 3 to 8) (size 9 to 14) (size 15 to 20)
#    0.750    0.500    2.500    4.125    0.000    1.000 
#    0.000    3.750    0.000    0.000    0.000    0.000 
#    0.000    0.000    0.000    0.000    0.000    0.000 
#
# Total GULP energy -89121.497235 kJ/mol
# GULP energy per Si atom -5570.093577 kJ/mol
# Density = 2.237077 g / cm^3
# Si number density = 22.421805 Si / 1000 Ang^3
#
#
#
# Elastic Constant Matrix: (Units=GPa)
#
#
# Indices 1 2 3 4 5 6 
#
# 1 107.7445 38.8868 20.7854 -10.2131 6.2277 17.3915
# 2 38.8868 88.7364 27.4364 -8.2893 11.5882 3.4556
# 3 20.7854 27.4364 133.1127 -24.6697 11.4898 -0.3647
# 4 -10.2131 -8.2893 -24.6697 28.3932 -2.8247 2.6698
# 5 6.2277 11.5882 11.4898 -2.8247 26.3257 -9.6770
# 6 17.3915 3.4556 -0.3647 2.6698 -9.6770 31.3532
#
#
#
# Elastic Compliance Matrix: (Units=1/GPa)
#
#
# Indices 1 2 3 4 5 6 
#
# 1 0.012739 -0.004434 -0.000128 0.003573 -0.003556 -0.007981
# 2 -0.004434 0.014463 -0.001753 0.000697 -0.004725 -0.000673
# 3 -0.000128 -0.001753 0.009549 0.007553 -0.002993 -0.001192
# 4 0.003573 0.000697 0.007553 0.043658 -0.002093 -0.006335
# 5 -0.003556 -0.004725 -0.002993 -0.002093 0.048455 0.017592
# 6 -0.007981 -0.000673 -0.001192 -0.006335 0.017592 0.042351
#
#
# Mechanical properties :
#
#
# Convention : Reuss Voigt Hill
#
# Bulk Modulus (GPa) = 41.46016 55.97896 48.71956
# Shear Modulus (GPa) = 26.05728 33.38008 29.71868
#
# Velocity S-wave (km/s) = 3.41272 3.86260 3.64460
# Velocity P-wave (km/s) = 5.83609 6.70174 6.28384
#
# Compressibility (1/GPa) = 0.02411954
#
# Stress axis : x y z
#
# Youngs Moduli (GPa) = 78.50138 69.14273 104.72677
#
# Poissons Ratio (x) = 0.30657 0.01340
# Poissons Ratio (y) = 0.34807 0.18364
# Poissons Ratio (z) = 0.01004 0.12124
#
# Static dielectric constant tensor:
#      x y z
#    x 1.903780 -0.104500 0.014160 
#    y -0.104500 1.980500 0.085110 
#    z 0.014160 0.085110 1.935710 
# 
# From -- ./inp_files/606083.got.cif
#   From: 2010.05.17/outbox.cif.g08.bks.cpg/sg2_304_cif.got.tgz:606083.got - 2010.06.03 11:33:40.
