data_PCOD9032982
_publ_section_title
;
Structure prediction by ZEFSAII (Michael W. Deem and Ramdas Pophale) SiO2 
 PCOD9032982
Probable space group: P -1
;
_chemical_formula_sum "Si O2"
_cell_formula_units_Z 16
_cell_length_a 6.471911
_cell_length_b 18.748359
_cell_length_c 22.364663
_cell_angle_alpha 22.213914
_cell_angle_beta 48.281995
_cell_angle_gamma 59.685216
_cell_volume 703.693530
_symmetry_space_group_name_H-M "P -1"
_symmetry_group_IT_number 2
_symmetry_cell_setting 'triclinic'
loop_
_space_group_symop_operation_xyz
x,y,z
-x,-y,-z
loop_
_atom_site_type_symbol
_atom_site_label
_atom_site_fract_x
_atom_site_fract_y
_atom_site_fract_z
Si Si1 0.825730 0.374911 0.222194
Si Si2 0.389635 0.428104 0.643514
Si Si3 0.889741 0.289409 0.006748
Si Si4 0.204587 0.026327 0.622359
Si Si5 0.222456 0.790241 0.384930
Si Si6 0.771303 0.205249 0.763504
Si Si7 0.887359 0.049602 0.076583
Si Si8 0.251545 0.318046 0.098787
O O1 0.554618 0.155213 0.444830
O O2 0.138880 0.366772 0.146301
O O3 0.748283 0.509796 0.081991
O O4 0.871794 0.492041 0.185566
O O5 0.500000 0.500000 0.500000
O O6 0.263227 0.595535 0.557987
O O7 0.652745 0.384858 0.661883
O O8 0.109351 0.207297 0.864566
O O9 0.977821 0.182545 0.016948
O O10 0.573147 0.306658 0.043324
O O11 0.841055 0.137216 0.189751
O O12 0.053767 0.178103 0.556690
O O13 0.009019 0.896215 0.706109
O O14 0.194401 0.778905 0.327222
O O15 0.535897 0.984760 0.184164
O O16 0.051332 0.157877 0.769802
O O17 0.500000 0.000000 0.000000
#
# Coordination Sequence:
#
# PCOD9032982 Si02
#       8
#     2   2   2   2   2   2   2   2
#     4  10  24  41  66  92 129 164 211 264 306 373
#     4   9  22  39  61  91 119 158 211 250 308 376
#     4  11  23  39  63  95 127 168 210 255 318 373
#     4  11  23  39  63  96 128 166 213 258 311 375
#     4  11  22  39  62  90 126 163 206 255 312 373
#     4   9  20  41  60  87 122 155 205 251 311 372
#     4  11  22  40  65  87 129 167 199 261 316 366
#     4  10  22  44  64  93 126 168 210 257 320 372
#
# _framework density 22.737171
#
# number of rings (size 3 to 8) (size 9 to 14) (size 15 to 20)
#    0.000    1.750    2.500    0.750    1.750    7.500 
#    0.000    2.500    0.000    0.000    0.000    0.000 
#    0.000    0.000    0.000    0.000    0.000    0.000 
#
# Total GULP energy -89396.768192 kJ/mol
# GULP energy per Si atom -5587.298012 kJ/mol
# Density = 2.268542 g / cm^3
# Si number density = 22.737171 Si / 1000 Ang^3
#
#
#
# Elastic Constant Matrix: (Units=GPa)
#
#
# Indices 1 2 3 4 5 6 
#
# 1 54.6546 14.5899 4.9926 -0.6903 1.4176 -3.0158
# 2 14.5899 66.3843 -3.4054 -5.4167 24.0823 -6.3571
# 3 4.9926 -3.4054 73.9250 -5.5953 6.0160 6.0063
# 4 -0.6903 -5.4167 -5.5953 27.6960 -6.2732 -3.7552
# 5 1.4176 24.0823 6.0160 -6.2732 27.4070 -10.1628
# 6 -3.0158 -6.3571 6.0063 -3.7552 -10.1628 41.0376
#
#
#
# Elastic Compliance Matrix: (Units=1/GPa)
#
#
# Indices 1 2 3 4 5 6 
#
# 1 0.020237 -0.006558 -0.002334 0.000487 0.006229 0.002400
# 2 -0.006558 0.024939 0.003736 -0.000284 -0.023583 -0.003032
# 3 -0.002334 0.003736 0.014851 0.001542 -0.007346 -0.003445
# 4 0.000487 -0.000284 0.001542 0.039772 0.011289 0.006201
# 5 0.006229 -0.023583 -0.007346 0.011289 0.066817 0.015460
# 6 0.002400 -0.003032 -0.003445 0.006201 0.015460 0.028975
#
#
# Mechanical properties :
#
#
# Convention : Reuss Voigt Hill
#
# Bulk Modulus (GPa) = 20.11443 25.25758 22.68600
# Shear Modulus (GPa) = 22.47448 31.14723 26.81085
#
# Velocity S-wave (km/s) = 3.14737 3.70521 3.43762
# Velocity P-wave (km/s) = 4.69826 5.42562 5.07499
#
# Compressibility (1/GPa) = 0.04971556
#
# Stress axis : x y z
#
# Youngs Moduli (GPa) = 49.41324 40.09856 67.33397
#
# Poissons Ratio (x) = 0.26295 0.15715
# Poissons Ratio (y) = 0.32404 -0.25154
# Poissons Ratio (z) = 0.11533 -0.14980
#
# Static dielectric constant tensor:
#      x y z
#    x 1.846650 -0.012170 -0.023110 
#    y -0.012170 1.873990 -0.026720 
#    z -0.023110 -0.026720 1.845030 
# 
# From -- ./inp_files/120011.got.cif
#   From: 2010.05.17/outbox.cif.g08.bks.cpg/sg2_61_cif.got.tgz:120011.got - 2010.06.03 11:33:40.
