data_PCOD9032049
_publ_section_title
;
Structure prediction by ZEFSAII (Michael W. Deem and Ramdas Pophale) SiO2 
 PCOD9032049
Probable space group: P -1
;
_chemical_formula_sum "Si O2"
_cell_formula_units_Z 14
_cell_length_a 9.569236
_cell_length_b 7.079182
_cell_length_c 19.301223
_cell_angle_alpha 128.640052
_cell_angle_beta 146.827312
_cell_angle_gamma 67.250607
_cell_volume 529.775744
_symmetry_space_group_name_H-M "P -1"
_symmetry_group_IT_number 2
_symmetry_cell_setting 'triclinic'
loop_
_space_group_symop_operation_xyz
x,y,z
-x,-y,-z
loop_
_atom_site_type_symbol
_atom_site_label
_atom_site_fract_x
_atom_site_fract_y
_atom_site_fract_z
Si Si1 0.754546 0.037072 0.164873
Si Si2 0.845924 0.056540 0.786687
Si Si3 0.503989 0.290085 0.896015
Si Si4 0.085507 0.317461 0.165523
Si Si5 0.707862 0.204280 0.541361
Si Si6 0.461602 0.342917 0.655305
Si Si7 0.112601 0.387764 0.642461
O O1 0.914682 0.334550 0.296205
O O2 0.927991 0.880952 0.164059
O O3 0.658451 0.960607 0.185327
O O4 0.500000 0.000000 0.000000
O O5 0.951973 0.950014 0.873277
O O6 0.596820 0.811435 0.602744
O O7 0.698151 0.269587 0.779380
O O8 0.344438 0.345408 0.777842
O O9 0.500000 0.500000 0.000000
O O10 0.804267 0.291230 0.005849
O O11 0.126425 0.551661 0.291016
O O12 0.364188 0.418437 0.261984
O O13 0.843899 0.197592 0.521214
O O14 0.674599 0.931322 0.501578
O O15 0.225848 0.379936 0.611601
#
# Coordination Sequence:
#
# PCOD9032049 Si02
#       7
#     2   2   2   2   2   2   2
#     4  12  22  41  69  96 126 173 218 265 315 385
#     4  10  23  40  68  95 129 164 223 263 319 381
#     4  12  23  39  70  95 129 168 222 263 318 386
#     4  12  21  43  67  98 124 174 222 262 315 394
#     4  10  22  43  69  91 134 169 219 266 314 390
#     4  10  27  40  67  97 135 169 209 273 334 369
#     4  12  25  45  62 102 134 166 215 275 322 379
#
# _framework density 26.426276999999999
#
# number of rings (size 3 to 8) (size 9 to 14) (size 15 to 20)
#    0.857    0.000    5.714    2.143    0.000    1.714 
#    0.000    2.143    0.000    0.000    0.000    0.000 
#    0.000    0.000    0.000    0.000    0.000    0.000 
#
# Total GULP energy -78355.190022 kJ/mol
# GULP energy per Si atom -5596.799287 kJ/mol
# Density = 2.636613 g / cm^3
# Si number density = 26.426277 Si / 1000 Ang^3
#
#
#
# Elastic Constant Matrix: (Units=GPa)
#
#
# Indices 1 2 3 4 5 6 
#
# 1 169.0969 11.7808 20.3839 5.9047 26.4339 2.5575
# 2 11.7808 80.1777 0.7404 -7.4308 -3.5861 15.9143
# 3 20.3839 0.7404 37.7401 -9.3472 18.5169 -8.6158
# 4 5.9047 -7.4308 -9.3472 30.5377 1.7632 11.7597
# 5 26.4339 -3.5861 18.5169 1.7632 34.3773 1.8325
# 6 2.5575 15.9143 -8.6158 11.7597 1.8325 42.5730
#
#
#
# Elastic Compliance Matrix: (Units=1/GPa)
#
#
# Indices 1 2 3 4 5 6 
#
# 1 0.007025 -0.001536 -0.002077 -0.002334 -0.004353 0.000564
# 2 -0.001536 0.014976 -0.001439 0.006249 0.003607 -0.007679
# 3 -0.002077 -0.001439 0.043518 0.011941 -0.022988 0.007161
# 4 -0.002334 0.006249 0.011941 0.043103 -0.005587 -0.011445
# 5 -0.004353 0.003607 -0.022988 -0.005587 0.045810 -0.006168
# 6 0.000564 -0.007679 0.007161 -0.011445 -0.006168 0.031202
#
#
# Mechanical properties :
#
#
# Convention : Reuss Voigt Hill
#
# Bulk Modulus (GPa) = 18.04614 39.20275 28.62445
# Shear Modulus (GPa) = 23.34159 38.43824 30.88992
#
# Velocity S-wave (km/s) = 2.97521 3.81799 3.42264
# Velocity P-wave (km/s) = 4.31813 5.85688 5.14535
#
# Compressibility (1/GPa) = 0.05541350
#
# Stress axis : x y z
#
# Youngs Moduli (GPa) = 142.35592 66.77405 22.97882
#
# Poissons Ratio (x) = 0.10255 0.04774
# Poissons Ratio (y) = 0.21863 0.03308
# Poissons Ratio (z) = 0.29574 0.09612
#
# Static dielectric constant tensor:
#      x y z
#    x 2.077120 0.044680 -0.045770 
#    y 0.044680 2.154320 0.010930 
#    z -0.045770 0.010930 2.072300 
# 
# From -- ./inp_files/554644.got.cif
#   From: 2010.05.17/outbox.cif.g08.bks.cpg/sg2_278_cif.got.tgz:554644.got - 2010.06.03 11:33:40.
