data_PCOD9032974
_publ_section_title
;
Structure prediction by ZEFSAII (Michael W. Deem and Ramdas Pophale) SiO2 
 PCOD9032974
Probable space group: P -1
;
_chemical_formula_sum "Si O2"
_cell_formula_units_Z 12
_cell_length_a 11.885100
_cell_length_b 6.273355
_cell_length_c 10.634286
_cell_angle_alpha 116.963539
_cell_angle_beta 118.872189
_cell_angle_gamma 104.497221
_cell_volume 494.505780
_symmetry_space_group_name_H-M "P -1"
_symmetry_group_IT_number 2
_symmetry_cell_setting 'triclinic'
loop_
_space_group_symop_operation_xyz
x,y,z
-x,-y,-z
loop_
_atom_site_type_symbol
_atom_site_label
_atom_site_fract_x
_atom_site_fract_y
_atom_site_fract_z
Si Si1 0.035093 0.759472 0.180522
Si Si2 0.447485 0.720023 0.137823
Si Si3 0.814807 0.926040 0.057136
Si Si4 0.819846 0.450224 0.231049
Si Si5 0.705663 0.719540 0.393518
Si Si6 0.446921 0.234677 0.308066
O O1 0.839195 0.199914 0.219113
O O2 0.969209 0.932394 0.131384
O O3 0.215064 0.010333 0.391938
O O4 0.000000 0.500000 0.000000
O O5 0.318630 0.394137 0.038881
O O6 0.616117 0.772825 0.251318
O O7 0.458965 0.977204 0.292268
O O8 0.363988 0.715340 0.963238
O O9 0.732417 0.916627 0.880117
O O10 0.936278 0.607333 0.216307
O O11 0.837775 0.685540 0.401028
O O12 0.573495 0.409649 0.309076
O O13 0.500000 0.500000 0.500000
#
# Coordination Sequence:
#
# PCOD9032974 Si02
#       6
#     2   2   2   2   2   2
#     4  11  26  41  63  91 126 167 208 254 310 366
#     4   9  21  40  66  94 123 159 206 256 309 362
#     4   9  22  41  64  88 129 162 204 254 307 367
#     4  10  22  44  64  92 125 164 207 254 308 367
#     4  11  24  39  66  95 125 163 207 254 309 368
#     4  10  23  38  64  94 125 161 206 254 309 365
#
# _framework density 24.266653000000002
#
# number of rings (size 3 to 8) (size 9 to 14) (size 15 to 20)
#    0.000    2.000    0.000    1.000    9.333   12.667 
#    0.000    0.000    0.000    0.000    0.000    0.000 
#    0.000    0.000    0.000    0.000    0.000    0.000 
#
# Total GULP energy -67072.939557 kJ/mol
# GULP energy per Si atom -5589.411630 kJ/mol
# Density = 2.421142 g / cm^3
# Si number density = 24.266653 Si / 1000 Ang^3
#
#
#
# Elastic Constant Matrix: (Units=GPa)
#
#
# Indices 1 2 3 4 5 6 
#
# 1 75.1776 37.1263 14.1860 4.8957 -11.4174 -11.8256
# 2 37.1263 127.2699 18.6923 24.5794 -0.8008 -32.6303
# 3 14.1860 18.6923 77.6370 20.0372 1.7302 -11.3720
# 4 4.8957 24.5794 20.0372 36.4183 -12.9468 -1.1275
# 5 -11.4174 -0.8008 1.7302 -12.9468 41.3208 5.9599
# 6 -11.8256 -32.6303 -11.3720 -1.1275 5.9599 46.2540
#
#
#
# Elastic Compliance Matrix: (Units=1/GPa)
#
#
# Indices 1 2 3 4 5 6 
#
# 1 0.017435 -0.006093 -0.003714 0.006266 0.007036 -0.001508
# 2 -0.006093 0.013984 0.002373 -0.011990 -0.006632 0.009453
# 3 -0.003714 0.002373 0.017214 -0.012705 -0.006472 0.005481
# 4 0.006266 -0.011990 -0.012705 0.047994 0.018687 -0.011218
# 5 0.007036 -0.006632 -0.006472 0.018687 0.033341 -0.008312
# 6 -0.001508 0.009453 0.005481 -0.011218 -0.008312 0.030048
#
#
# Mechanical properties :
#
#
# Convention : Reuss Voigt Hill
#
# Bulk Modulus (GPa) = 29.61618 46.67709 38.14663
# Shear Modulus (GPa) = 26.86182 38.80394 32.83288
#
# Velocity S-wave (km/s) = 3.33069 4.00317 3.68231
# Velocity P-wave (km/s) = 5.19829 6.37526 5.81662
#
# Compressibility (1/GPa) = 0.03376533
#
# Stress axis : x y z
#
# Youngs Moduli (GPa) = 57.35596 71.51258 58.09340
#
# Poissons Ratio (x) = 0.43573 0.21574
# Poissons Ratio (y) = 0.34948 -0.13788
# Poissons Ratio (z) = 0.21300 -0.16973
#
# Static dielectric constant tensor:
#      x y z
#    x 1.990220 0.001970 -0.023260 
#    y 0.001970 1.939060 -0.017110 
#    z -0.023260 -0.017110 1.996730 
# 
# From -- ./inp_files/409727.got.cif
#   From: 2010.05.17/outbox.cif.g08.bks.cpg/sg2_205_cif.got.tgz:409727.got - 2010.06.03 11:33:40.
