data_PCOD9032601
_publ_section_title
;
Structure prediction by ZEFSAII (Michael W. Deem and Ramdas Pophale) SiO2 
 PCOD9032601
Probable space group: P -1
;
_chemical_formula_sum "Si O2"
_cell_formula_units_Z 16
_cell_length_a 9.175018
_cell_length_b 13.839636
_cell_length_c 5.321944
_cell_angle_alpha 73.953258
_cell_angle_beta 72.842399
_cell_angle_gamma 80.441585
_cell_volume 617.908395
_symmetry_space_group_name_H-M "P -1"
_symmetry_group_IT_number 2
_symmetry_cell_setting 'triclinic'
loop_
_space_group_symop_operation_xyz
x,y,z
-x,-y,-z
loop_
_atom_site_type_symbol
_atom_site_label
_atom_site_fract_x
_atom_site_fract_y
_atom_site_fract_z
Si Si1 0.616247 0.364376 0.206971
Si Si2 0.086206 0.929758 0.713041
Si Si3 0.811021 0.250205 0.561025
Si Si4 0.903783 0.795519 0.209203
Si Si5 0.491064 0.782481 0.997843
Si Si6 0.287723 0.479924 0.302302
Si Si7 0.764792 0.631988 0.101069
Si Si8 0.651831 0.927778 0.526478
O O1 0.726041 0.347452 0.399403
O O2 0.468022 0.441565 0.273021
O O3 0.550674 0.261210 0.223046
O O4 0.708791 0.408153 0.894921
O O5 0.138183 0.823145 0.639409
O O6 0.975180 0.896843 0.008900
O O7 0.231396 0.988958 0.636314
O O8 0.000000 0.000000 0.500000
O O9 0.674375 0.196913 0.807672
O O10 0.963166 0.256627 0.642153
O O11 0.743176 0.832447 0.401251
O O12 0.871052 0.719524 0.056704
O O13 0.593072 0.690186 0.144202
O O14 0.599357 0.872693 0.847621
O O15 0.214659 0.447069 0.622503
O O16 0.221545 0.418360 0.144471
O O17 0.500000 0.000000 0.500000
#
# Coordination Sequence:
#
# PCOD9032601 Si02
#       8
#     2   2   2   2   2   2   2   2
#     4  10  22  43  72 109 147 192 241 308 375 441
#     4  12  27  47  70 103 143 198 249 305 376 443
#     4  12  25  45  73 104 151 198 241 301 386 446
#     4  12  27  47  71 103 153 197 240 310 382 450
#     4  11  25  45  74 109 146 190 253 308 371 441
#     4  10  23  42  77 113 147 187 262 306 371 446
#     4  11  24  45  75 110 148 195 247 319 368 441
#     4  12  26  45  73 107 141 190 257 307 366 436
#
# _framework density 25.893808
#
# number of rings (size 3 to 8) (size 9 to 14) (size 15 to 20)
#    0.000    0.750    2.500    4.875    7.000    2.000 
#    0.000    1.250    0.000    0.000    0.000    0.000 
#    0.000    0.000    0.000    0.000    0.000    0.000 
#
# Total GULP energy -89451.930036 kJ/mol
# GULP energy per Si atom -5590.745627 kJ/mol
# Density = 2.583487 g / cm^3
# Si number density = 25.893808 Si / 1000 Ang^3
#
#
#
# Elastic Constant Matrix: (Units=GPa)
#
#
# Indices 1 2 3 4 5 6 
#
# 1 138.0231 51.8966 70.4755 3.8746 -5.9591 16.5054
# 2 51.8966 69.8547 26.1976 -7.2071 -1.1833 26.1336
# 3 70.4755 26.1976 141.0902 -22.8849 7.3066 4.3659
# 4 3.8746 -7.2071 -22.8849 40.2459 3.0368 -4.2431
# 5 -5.9591 -1.1833 7.3066 3.0368 53.4301 3.8705
# 6 16.5054 26.1336 4.3659 -4.2431 3.8705 29.6221
#
#
#
# Elastic Compliance Matrix: (Units=1/GPa)
#
#
# Indices 1 2 3 4 5 6 
#
# 1 0.014359 -0.008419 -0.006881 -0.007116 0.002829 -0.000949
# 2 -0.008419 0.028397 0.000118 0.003791 0.000904 -0.019955
# 3 -0.006881 0.000118 0.011857 0.008032 -0.003099 0.003538
# 4 -0.007116 0.003791 0.008032 0.031546 -0.003925 0.004468
# 5 0.002829 0.000904 -0.003099 -0.003925 0.020068 -0.005101
# 6 -0.000949 -0.019955 0.003538 0.004468 -0.005101 0.052677
#
#
# Mechanical properties :
#
#
# Convention : Reuss Voigt Hill
#
# Bulk Modulus (GPa) = 41.23674 71.78971 56.51323
# Shear Modulus (GPa) = 25.33558 38.01950 31.67754
#
# Velocity S-wave (km/s) = 3.13140 3.83598 3.50146
# Velocity P-wave (km/s) = 5.38833 6.88509 6.18218
#
# Compressibility (1/GPa) = 0.02425022
#
# Stress axis : x y z
#
# Youngs Moduli (GPa) = 69.64109 35.21440 84.34100
#
# Poissons Ratio (x) = 0.29646 0.58033
# Poissons Ratio (y) = 0.58629 -0.00995
# Poissons Ratio (z) = 0.47919 -0.00415
#
# Static dielectric constant tensor:
#      x y z
#    x 1.949800 -0.016910 -0.001040 
#    y -0.016910 2.155760 0.022690 
#    z -0.001040 0.022690 2.065850 
# 
# From -- ./inp_files/37434.got.cif
#   From: 2010.05.17/outbox.cif.g08.bks.cpg/sg2_19_cif.got.tgz:37434.got - 2010.06.03 11:33:40.
