data_PCOD9032600
_publ_section_title
;
Structure prediction by ZEFSAII (Michael W. Deem and Ramdas Pophale) SiO2 
 PCOD9032600
Probable space group: P -1
;
_chemical_formula_sum "Si O2"
_cell_formula_units_Z 15
_cell_length_a 5.213152
_cell_length_b 15.642868
_cell_length_c 9.555441
_cell_angle_alpha 89.488147
_cell_angle_beta 80.806374
_cell_angle_gamma 47.900993
_cell_volume 565.603398
_symmetry_space_group_name_H-M "P -1"
_symmetry_group_IT_number 2
_symmetry_cell_setting 'triclinic'
loop_
_space_group_symop_operation_xyz
x,y,z
-x,-y,-z
loop_
_atom_site_type_symbol
_atom_site_label
_atom_site_fract_x
_atom_site_fract_y
_atom_site_fract_z
Si Si1 0.346518 0.361335 0.616540
Si Si2 0.573313 0.103451 0.903902
Si Si3 0.319721 0.090991 0.221010
Si Si4 0.277058 0.509048 0.847768
Si Si5 0.887125 0.776269 0.316603
Si Si6 0.483347 0.305531 0.995774
Si Si7 0.500000 0.000000 0.500000
Si Si8 0.399202 0.662582 0.710386
O O1 0.168807 0.474006 0.725533
O O2 0.148680 0.316969 0.658219
O O3 0.382665 0.371796 0.449165
O O4 0.748971 0.269843 0.646361
O O5 0.224701 0.180279 0.834784
O O6 0.805833 0.976966 0.814653
O O7 0.495441 0.090432 0.068005
O O8 0.659929 0.184141 0.910218
O O9 0.003320 0.222503 0.294771
O O10 0.563963 0.022593 0.334338
O O11 0.427489 0.559999 0.764739
O O12 0.943757 0.609420 0.969730
O O13 0.518533 0.391328 0.920298
O O14 0.578191 0.886616 0.435370
O O15 0.555097 0.291505 0.154388
#
# Coordination Sequence:
#
# PCOD9032600 Si02
#       8
#     2   2   2   2   2   2   1   2
#     4  12  28  46  76 109 152 194 251 304 377 432
#     4  10  22  45  73 104 149 187 253 297 380 437
#     4  10  22  43  72 109 142 197 236 318 365 450
#     4  11  26  47  69 106 145 199 244 307 372 433
#     4  11  26  48  75 110 147 198 247 310 364 447
#     4  11  25  45  74 105 142 195 247 311 362 451
#     4  10  22  48  76 104 158 186 254 294 386 430
#     4  12  26  43  73 107 146 190 253 302 377 444
#
# _framework density 26.520351999999999
#
# number of rings (size 3 to 8) (size 9 to 14) (size 15 to 20)
#    0.000    1.067    4.000    0.800    7.467    1.600 
#    0.000    0.000    0.000    0.000    0.000    0.000 
#    0.000    0.000    0.000    0.000    0.000    0.000 
#
# Total GULP energy -83689.289090 kJ/mol
# GULP energy per Si atom -5579.285939 kJ/mol
# Density = 2.645999 g / cm^3
# Si number density = 26.520352 Si / 1000 Ang^3
#
#
#
# Elastic Constant Matrix: (Units=GPa)
#
#
# Indices 1 2 3 4 5 6 
#
# 1 76.2235 43.7993 26.3114 -15.1512 4.1247 25.9781
# 2 43.7993 126.8779 44.8064 -0.6918 -1.1912 34.4040
# 3 26.3114 44.8064 190.4576 -30.9506 -2.3690 9.3667
# 4 -15.1512 -0.6918 -30.9506 51.4756 10.7992 5.8299
# 5 4.1247 -1.1912 -2.3690 10.7992 34.6966 -0.7862
# 6 25.9781 34.4040 9.3667 5.8299 -0.7862 33.6594
#
#
#
# Elastic Compliance Matrix: (Units=1/GPa)
#
#
# Indices 1 2 3 4 5 6 
#
# 1 0.022858 -0.003608 -0.000024 0.009761 -0.006239 -0.015784
# 2 -0.003608 0.012321 -0.002174 -0.001386 0.000932 -0.008942
# 3 -0.000024 -0.002174 0.006425 0.004046 -0.000898 -0.000269
# 4 0.009761 -0.001386 0.004046 0.028210 -0.009992 -0.012362
# 5 -0.006239 0.000932 -0.000898 -0.009992 0.032793 0.006609
# 6 -0.015784 -0.008942 -0.000269 -0.012362 0.006609 0.053401
#
#
# Mechanical properties :
#
#
# Convention : Reuss Voigt Hill
#
# Bulk Modulus (GPa) = 33.34262 69.26590 51.30426
# Shear Modulus (GPa) = 28.15051 42.54244 35.34648
#
# Velocity S-wave (km/s) = 3.26155 4.00952 3.65472
# Velocity P-wave (km/s) = 5.17527 6.89998 6.09890
#
# Compressibility (1/GPa) = 0.02999165
#
# Stress axis : x y z
#
# Youngs Moduli (GPa) = 43.74858 81.16488 155.64709
#
# Poissons Ratio (x) = 0.29281 0.00375
# Poissons Ratio (y) = 0.15783 0.33838
# Poissons Ratio (z) = 0.00106 0.17646
#
# Static dielectric constant tensor:
#      x y z
#    x 2.155600 -0.095150 0.034900 
#    y -0.095150 2.124450 0.041010 
#    z 0.034900 0.041010 1.752710 
# 
# From -- ./inp_files/28337.got.cif
#   From: 2010.05.17/outbox.cif.g08.bks.cpg/sg2_15_cif.got.tgz:28337.got - 2010.06.03 11:33:40.
