data_PCOD9032574
_publ_section_title
;
Structure prediction by ZEFSAII (Michael W. Deem and Ramdas Pophale) SiO2 
 PCOD9032574
Probable space group: P -1
;
_chemical_formula_sum "Si O2"
_cell_formula_units_Z 12
_cell_length_a 9.474634
_cell_length_b 13.500901
_cell_length_c 7.101983
_cell_angle_alpha 136.265308
_cell_angle_beta 128.549649
_cell_angle_gamma 48.777853
_cell_volume 453.100980
_symmetry_space_group_name_H-M "P -1"
_symmetry_group_IT_number 2
_symmetry_cell_setting 'triclinic'
loop_
_space_group_symop_operation_xyz
x,y,z
-x,-y,-z
loop_
_atom_site_type_symbol
_atom_site_label
_atom_site_fract_x
_atom_site_fract_y
_atom_site_fract_z
Si Si1 0.766640 0.052457 0.349810
Si Si2 0.662067 0.871439 0.331756
Si Si3 0.256314 0.657051 0.085362
Si Si4 0.851671 0.857830 0.826676
Si Si5 0.676450 0.544720 0.787399
Si Si6 0.215017 0.422129 0.483137
O O1 0.697502 0.937050 0.253333
O O2 0.662324 0.223493 0.585293
O O3 0.750831 0.023456 0.074570
O O4 0.000000 0.000000 0.500000
O O5 0.851138 0.847578 0.587974
O O6 0.500000 0.000000 0.500000
O O7 0.212651 0.576734 0.125353
O O8 0.621366 0.715528 0.064893
O O9 0.335566 0.514274 0.806148
O O10 0.069221 0.774681 0.975638
O O11 0.733791 0.754390 0.658809
O O12 0.500000 0.500000 0.500000
O O13 0.795021 0.548636 0.705355
O O14 0.000000 0.500000 0.500000
#
# Coordination Sequence:
#
# PCOD9032574 Si02
#       6
#     2   2   2   2   2   2
#     4  10  24  45  71 105 140 183 235 292 348 415
#     4  12  28  46  70 103 146 189 230 286 358 424
#     4  10  24  43  73 107 136 180 238 297 345 412
#     4  10  22  45  72 103 138 183 237 290 349 413
#     4  12  28  46  69 106 145 184 235 289 353 422
#     4  10  22  43  72 104 134 181 235 294 345 407
#
# _framework density 26.484162999999999
#
# number of rings (size 3 to 8) (size 9 to 14) (size 15 to 20)
#    0.000    1.333    3.333    0.000    4.667   13.333 
#    0.000    0.000    0.000    0.000    0.000    0.000 
#    0.000    0.000    0.000    0.000    0.000    0.000 
#
# Total GULP energy -67118.535746 kJ/mol
# GULP energy per Si atom -5593.211312 kJ/mol
# Density = 2.642388 g / cm^3
# Si number density = 26.484163 Si / 1000 Ang^3
#
#
#
# Elastic Constant Matrix: (Units=GPa)
#
#
# Indices 1 2 3 4 5 6 
#
# 1 53.6382 -7.2293 -12.3235 -0.1157 -1.4546 2.2147
# 2 -7.2293 67.8854 26.0067 13.6039 -8.3310 11.5762
# 3 -12.3235 26.0067 180.2047 34.4796 -17.9325 -2.7765
# 4 -0.1157 13.6039 34.4796 69.2109 10.8749 -3.8440
# 5 -1.4546 -8.3310 -17.9325 10.8749 46.5775 -4.6324
# 6 2.2147 11.5762 -2.7765 -3.8440 -4.6324 26.9164
#
#
#
# Elastic Compliance Matrix: (Units=1/GPa)
#
#
# Indices 1 2 3 4 5 6 
#
# 1 0.019443 0.002472 0.001403 -0.001557 0.001710 -0.002446
# 2 0.002472 0.018065 -0.001597 -0.003634 0.002728 -0.008187
# 3 0.001403 -0.001597 0.006922 -0.003590 0.003396 0.001357
# 4 -0.001557 -0.003634 -0.003590 0.018052 -0.006011 0.002864
# 5 0.001710 0.002728 0.003396 -0.006011 0.024968 0.002475
# 6 -0.002446 -0.008187 0.001357 0.002864 0.002475 0.041850
#
#
# Mechanical properties :
#
#
# Convention : Reuss Voigt Hill
#
# Bulk Modulus (GPa) = 20.41435 34.95957 27.68696
# Shear Modulus (GPa) = 35.44283 48.22592 41.83437
#
# Velocity S-wave (km/s) = 3.66220 4.27187 3.97873
# Velocity P-wave (km/s) = 5.06035 6.12868 5.61996
#
# Compressibility (1/GPa) = 0.04898514
#
# Stress axis : x y z
#
# Youngs Moduli (GPa) = 51.43235 55.35552 144.47683
#
# Poissons Ratio (x) = -0.13684 -0.20274
# Poissons Ratio (y) = -0.12714 0.23079
# Poissons Ratio (z) = -0.07217 0.08843
#
# Static dielectric constant tensor:
#      x y z
#    x 2.177340 -0.172640 0.078790 
#    y -0.172640 2.160520 -0.012730 
#    z 0.078790 -0.012730 2.161370 
# 
# From -- ./inp_files/30841.got.cif
#   From: 2010.05.17/outbox.cif.g08.bks.cpg/sg2_16_cif.got.tgz:30841.got - 2010.06.03 11:33:40.
