data_PCOD9032055
_publ_section_title
;
Structure prediction by ZEFSAII (Michael W. Deem and Ramdas Pophale) SiO2 
 PCOD9032055
Probable space group: P -1
;
_chemical_formula_sum "Si O2"
_cell_formula_units_Z 16
_cell_length_a 9.869199
_cell_length_b 29.854760
_cell_length_c 9.711317
_cell_angle_alpha 34.572137
_cell_angle_beta 62.450573
_cell_angle_gamma 36.168411
_cell_volume 763.804773
_symmetry_space_group_name_H-M "P -1"
_symmetry_group_IT_number 2
_symmetry_cell_setting 'triclinic'
loop_
_space_group_symop_operation_xyz
x,y,z
-x,-y,-z
loop_
_atom_site_type_symbol
_atom_site_label
_atom_site_fract_x
_atom_site_fract_y
_atom_site_fract_z
Si Si1 0.232343 0.100477 0.171335
Si Si2 0.899271 0.661217 0.739312
Si Si3 0.041095 0.914155 0.489651
Si Si4 0.840199 0.919600 0.321565
Si Si5 0.247520 0.999383 0.155855
Si Si6 0.746161 0.434275 0.640587
Si Si7 0.233352 0.601583 0.966125
Si Si8 0.306273 0.426853 0.912381
O O1 0.176303 0.042546 0.424529
O O2 0.545583 0.002079 0.282710
O O3 0.173752 0.101116 0.039488
O O4 0.022275 0.258734 0.929237
O O5 0.595949 0.835826 0.404434
O O6 0.017961 0.642314 0.874594
O O7 0.144957 0.554718 0.774539
O O8 0.823385 0.602944 0.937450
O O9 0.104658 0.978684 0.323249
O O10 0.905370 0.965378 0.271818
O O11 0.352717 0.734214 0.814645
O O12 0.083597 0.751198 0.674304
O O13 0.847212 0.938244 0.111200
O O14 0.500000 0.500000 0.500000
O O15 0.765787 0.509260 0.366346
O O16 0.690136 0.464342 0.752748
O O17 0.500000 0.500000 0.000000
#
# Coordination Sequence:
#
# PCOD9032055 Si02
#       8
#     2   2   2   2   2   2   2   2
#     4  12  24  42  66  97 131 174 215 273 328 385
#     4  10  22  44  66  97 130 171 217 267 329 388
#     4  11  23  44  65  96 133 174 216 269 331 384
#     4  12  24  41  66 101 131 171 219 272 321 386
#     4  11  25  42  68  95 133 175 218 266 329 393
#     4  12  24  42  66  95 126 172 218 268 327 388
#     4  12  26  41  68  95 130 169 221 273 322 391
#     4  10  22  43  69  92 134 173 213 269 328 389
#
# _framework density 20.947761
#
# number of rings (size 3 to 8) (size 9 to 14) (size 15 to 20)
#    0.000    0.750    3.750    3.750    3.500    0.500 
#    0.000    1.250    0.000    0.000    0.000    0.000 
#    0.000    0.000    0.000    0.000    0.000    0.000 
#
# Total GULP energy -89421.135362 kJ/mol
# GULP energy per Si atom -5588.820960 kJ/mol
# Density = 2.090008 g / cm^3
# Si number density = 20.947761 Si / 1000 Ang^3
#
#
#
# Elastic Constant Matrix: (Units=GPa)
#
#
# Indices 1 2 3 4 5 6 
#
# 1 89.6043 15.6529 9.8489 6.1001 11.0726 8.4249
# 2 15.6529 77.6615 31.7007 26.5766 -1.4565 2.6723
# 3 9.8489 31.7007 59.4336 35.4941 10.2865 -0.1332
# 4 6.1001 26.5766 35.4941 34.3934 9.7709 8.9853
# 5 11.0726 -1.4565 10.2865 9.7709 21.5088 10.5551
# 6 8.4249 2.6723 -0.1332 8.9853 10.5551 37.8623
#
#
#
# Elastic Compliance Matrix: (Units=1/GPa)
#
#
# Indices 1 2 3 4 5 6 
#
# 1 0.012721 -0.003569 -0.001973 0.005067 -0.007286 -0.001757
# 2 -0.003569 0.020273 -0.003539 -0.014601 0.011763 -0.000463
# 3 -0.001973 -0.003539 0.051190 -0.051518 -0.007794 0.015268
# 4 0.005067 -0.014601 -0.051518 0.102319 -0.015509 -0.020236
# 5 -0.007286 0.011763 -0.007794 -0.015509 0.069083 -0.014815
# 6 -0.001757 -0.000463 0.015268 -0.020236 -0.014815 0.035821
#
#
# Mechanical properties :
#
#
# Convention : Reuss Voigt Hill
#
# Bulk Modulus (GPa) = 15.14632 37.90049 26.52340
# Shear Modulus (GPa) = 15.07943 30.05271 22.56607
#
# Velocity S-wave (km/s) = 2.68593 3.79179 3.28572
# Velocity P-wave (km/s) = 4.10672 6.10756 5.20421
#
# Compressibility (1/GPa) = 0.06602262
#
# Stress axis : x y z
#
# Youngs Moduli (GPa) = 78.60964 49.32549 19.53496
#
# Poissons Ratio (x) = 0.17602 0.03855
# Poissons Ratio (y) = 0.28052 0.06914
# Poissons Ratio (z) = 0.15513 0.17457
#
# Static dielectric constant tensor:
#      x y z
#    x 1.777460 -0.005720 -0.012830 
#    y -0.005720 1.773030 0.019120 
#    z -0.012830 0.019120 1.744210 
# 
# From -- ./inp_files/227705.got.cif
#   From: 2010.05.17/outbox.cif.g08.bks.cpg/sg2_114_cif.got.tgz:227705.got - 2010.06.03 11:33:40.
