data_PCOD9032627
_publ_section_title
;
Structure prediction by ZEFSAII (Michael W. Deem and Ramdas Pophale) SiO2 
 PCOD9032627
Probable space group: P -1
;
_chemical_formula_sum "Si O2"
_cell_formula_units_Z 14
_cell_length_a 19.847052
_cell_length_b 9.042723
_cell_length_c 8.419708
_cell_angle_alpha 117.239386
_cell_angle_beta 34.374855
_cell_angle_gamma 132.414289
_cell_volume 611.868782
_symmetry_space_group_name_H-M "P -1"
_symmetry_group_IT_number 2
_symmetry_cell_setting 'triclinic'
loop_
_space_group_symop_operation_xyz
x,y,z
-x,-y,-z
loop_
_atom_site_type_symbol
_atom_site_label
_atom_site_fract_x
_atom_site_fract_y
_atom_site_fract_z
Si Si1 0.908668 0.567301 0.300997
Si Si2 0.864073 0.772515 0.196370
Si Si3 0.689155 0.359544 0.172354
Si Si4 0.338643 0.131143 0.226997
Si Si5 0.175529 0.867848 0.136090
Si Si6 0.407135 0.308177 0.843797
Si Si7 0.378984 0.684033 0.073471
O O1 0.887724 0.699132 0.281896
O O2 0.749852 0.380060 0.582624
O O3 0.010369 0.707127 0.319606
O O4 0.000000 0.500000 0.000000
O O5 0.821964 0.597148 0.065186
O O6 0.725369 0.779461 0.493331
O O7 0.000000 0.000000 0.000000
O O8 0.541004 0.329485 0.504096
O O9 0.729953 0.223259 0.117316
O O10 0.667118 0.298680 0.002477
O O11 0.201689 0.933349 0.303216
O O12 0.425933 0.280442 0.980191
O O13 0.459023 0.129995 0.090384
O O14 0.254941 0.083187 0.992538
O O15 0.388613 0.488584 0.946485
#
# Coordination Sequence:
#
# PCOD9032627 Si02
#       7
#     2   2   2   2   2   2   2
#     4  12  26  47  70  99 139 190 227 280 354 407
#     4  12  27  44  72 102 139 180 237 284 341 407
#     4  12  25  43  69 109 140 176 228 293 339 404
#     4  10  24  45  73  97 135 182 234 275 344 406
#     4  10  26  42  72  98 141 179 228 279 345 405
#     4  10  22  43  72  97 137 178 232 275 345 404
#     4  12  25  42  74 101 141 182 232 282 343 408
#
# _framework density 22.880724000000001
#
# number of rings (size 3 to 8) (size 9 to 14) (size 15 to 20)
#    0.857    0.000    4.286    2.143    4.000    3.429 
#    0.000    0.000    0.000    0.000    0.000    0.000 
#    0.000    0.000    0.000    0.000    0.000    0.000 
#
# Total GULP energy -78255.131270 kJ/mol
# GULP energy per Si atom -5589.652234 kJ/mol
# Density = 2.282865 g / cm^3
# Si number density = 22.880724 Si / 1000 Ang^3
#
#
#
# Elastic Constant Matrix: (Units=GPa)
#
#
# Indices 1 2 3 4 5 6 
#
# 1 118.0051 20.1626 12.9200 -10.7902 -11.4119 22.4738
# 2 20.1626 70.3544 4.2395 10.4659 -2.3452 27.0256
# 3 12.9200 4.2395 94.3962 0.2527 -4.0015 -3.1470
# 4 -10.7902 10.4659 0.2527 24.8558 -2.9108 -5.8861
# 5 -11.4119 -2.3452 -4.0015 -2.9108 33.5365 0.8588
# 6 22.4738 27.0256 -3.1470 -5.8861 0.8588 43.3694
#
#
#
# Elastic Compliance Matrix: (Units=1/GPa)
#
#
# Indices 1 2 3 4 5 6 
#
# 1 0.010504 -0.002201 -0.001310 0.005104 0.003798 -0.003549
# 2 -0.002201 0.022803 -0.001193 -0.014130 -0.000137 -0.015071
# 3 -0.001310 -0.001193 0.010933 0.000447 0.000756 0.002261
# 4 0.005104 -0.014130 0.000447 0.052094 0.004986 0.013164
# 5 0.003798 -0.000137 0.000756 0.004986 0.031670 -0.001778
# 6 -0.003549 -0.015071 0.002261 0.013164 -0.001778 0.036274
#
#
# Mechanical properties :
#
#
# Convention : Reuss Voigt Hill
#
# Bulk Modulus (GPa) = 28.70936 39.71112 34.21024
# Shear Modulus (GPa) = 26.98400 36.71460 31.84930
#
# Velocity S-wave (km/s) = 3.43787 4.01010 3.73496
# Velocity P-wave (km/s) = 5.32290 6.23174 5.79516
#
# Compressibility (1/GPa) = 0.03483185
#
# Stress axis : x y z
#
# Youngs Moduli (GPa) = 95.20635 43.85399 91.46824
#
# Poissons Ratio (x) = 0.09650 0.11980
# Poissons Ratio (y) = 0.20951 0.10915
# Poissons Ratio (z) = 0.12470 0.05233
#
# Static dielectric constant tensor:
#      x y z
#    x 1.835600 0.030740 -0.008880 
#    y 0.030740 1.919380 -0.001890 
#    z -0.008880 -0.001890 1.819370 
# 
# From -- ./inp_files/343727.got.cif
#   From: 2010.05.17/outbox.cif.g08.bks.cpg/sg2_172_cif.got.tgz:343727.got - 2010.06.03 11:33:40.
