data_PCOD9032764
_publ_section_title
;
Structure prediction by ZEFSAII (Michael W. Deem and Ramdas Pophale) SiO2 
 PCOD9032764
Probable space group: P -1
;
_chemical_formula_sum "Si O2"
_cell_formula_units_Z 16
_cell_length_a 8.430663
_cell_length_b 9.622960
_cell_length_c 11.934113
_cell_angle_alpha 123.310465
_cell_angle_beta 79.313565
_cell_angle_gamma 114.768606
_cell_volume 733.416945
_symmetry_space_group_name_H-M "P -1"
_symmetry_group_IT_number 2
_symmetry_cell_setting 'triclinic'
loop_
_space_group_symop_operation_xyz
x,y,z
-x,-y,-z
loop_
_atom_site_type_symbol
_atom_site_label
_atom_site_fract_x
_atom_site_fract_y
_atom_site_fract_z
Si Si1 0.749820 0.474390 0.292779
Si Si2 0.324342 0.328379 0.970468
Si Si3 0.325964 0.949299 0.426801
Si Si4 0.573181 0.845832 0.912364
Si Si5 0.829416 0.549396 0.552800
Si Si6 0.150510 0.524278 0.233479
Si Si7 0.163341 0.159308 0.685283
Si Si8 0.794761 0.919448 0.698051
O O1 0.589031 0.331686 0.185104
O O2 0.710268 0.446695 0.418552
O O3 0.777080 0.672050 0.331856
O O4 0.940608 0.466184 0.243598
O O5 0.355299 0.199873 0.002067
O O6 0.194145 0.413038 0.079781
O O7 0.500000 0.500000 0.000000
O O8 0.266904 0.223273 0.815385
O O9 0.194648 0.998195 0.546908
O O10 0.347909 0.075158 0.370886
O O11 0.500000 0.000000 0.500000
O O12 0.248691 0.740554 0.307698
O O13 0.722090 0.911440 0.827763
O O14 0.500000 0.000000 0.000000
O O15 0.776032 0.515848 0.674541
O O16 0.856375 0.753176 0.611658
O O17 0.000000 0.500000 0.500000
O O18 0.962703 0.093509 0.718847
#
# Coordination Sequence:
#
# PCOD9032764 Si02
#       8
#     2   2   2   2   2   2   2   2
#     4  11  24  47  75 104 142 192 238 294 366 434
#     4  12  27  48  71 103 146 190 243 292 363 433
#     4  12  27  44  75 114 150 186 243 303 364 428
#     4  12  31  48  70 106 149 188 245 305 363 425
#     4  10  22  43  74 107 141 178 242 302 355 424
#     4  11  25  46  74 107 144 194 240 292 367 437
#     4  12  25  46  79 104 144 195 240 296 360 442
#     4  12  26  48  74 110 144 190 245 303 359 431
#
# _framework density 21.815694000000001
#
# number of rings (size 3 to 8) (size 9 to 14) (size 15 to 20)
#    0.000    0.500    5.000    2.625    7.000    3.500 
#    0.000    0.000    0.000    0.000    0.000    0.000 
#    0.000    0.000    0.000    0.000    0.000    0.000 
#
# Total GULP energy -89461.163930 kJ/mol
# GULP energy per Si atom -5591.322746 kJ/mol
# Density = 2.176604 g / cm^3
# Si number density = 21.815694 Si / 1000 Ang^3
#
#
#
# Elastic Constant Matrix: (Units=GPa)
#
#
# Indices 1 2 3 4 5 6 
#
# 1 38.0048 18.5861 0.2415 -9.1598 12.8948 -15.2509
# 2 18.5861 98.2905 15.2212 -11.4879 1.4520 -25.1476
# 3 0.2415 15.2212 76.1540 -16.2478 -0.6672 -21.2165
# 4 -9.1598 -11.4879 -16.2478 43.4280 -7.7991 4.4909
# 5 12.8948 1.4520 -0.6672 -7.7991 32.5778 -9.1081
# 6 -15.2509 -25.1476 -21.2165 4.4909 -9.1081 42.3150
#
#
#
# Elastic Compliance Matrix: (Units=1/GPa)
#
#
# Indices 1 2 3 4 5 6 
#
# 1 0.037450 -0.004321 0.004787 0.005618 -0.010244 0.010528
# 2 -0.004321 0.012918 -0.000212 0.002385 0.003524 0.006519
# 3 0.004787 -0.000212 0.017550 0.006998 0.003031 0.010308
# 4 0.005618 0.002385 0.006998 0.027991 0.005987 0.005269
# 5 -0.010244 0.003524 0.003031 0.005987 0.038188 0.007506
# 6 0.010528 0.006519 0.010308 0.005269 0.007506 0.037526
#
#
# Mechanical properties :
#
#
# Convention : Reuss Voigt Hill
#
# Bulk Modulus (GPa) = 14.61443 31.17188 22.89315
# Shear Modulus (GPa) = 25.78316 35.55753 30.67035
#
# Velocity S-wave (km/s) = 3.44155 4.04159 3.75358
# Velocity P-wave (km/s) = 4.74405 6.00825 5.41318
#
# Compressibility (1/GPa) = 0.06842554
#
# Stress axis : x y z
#
# Youngs Moduli (GPa) = 26.70215 77.40847 56.97970
#
# Poissons Ratio (x) = 0.33450 -0.27277
# Poissons Ratio (y) = 0.11539 0.01211
# Poissons Ratio (z) = -0.12783 0.01645
#
# Static dielectric constant tensor:
#      x y z
#    x 1.912060 -0.085410 -0.026210 
#    y -0.085410 1.829650 0.019770 
#    z -0.026210 0.019770 1.823550 
# 
# From -- ./inp_files/185409.got.cif
#   From: 2010.05.17/outbox.cif.g08.bks.cpg/sg2_93_cif.got.tgz:185409.got - 2010.06.03 11:33:40.
