data_PCOD9033053
_publ_section_title
;
Structure prediction by ZEFSAII (Michael W. Deem and Ramdas Pophale) SiO2 
 PCOD9033053
Probable space group: P -1
;
_chemical_formula_sum "Si O2"
_cell_formula_units_Z 12
_cell_length_a 9.384969
_cell_length_b 14.555002
_cell_length_c 7.862266
_cell_angle_alpha 30.699099
_cell_angle_beta 104.551258
_cell_angle_gamma 107.020645
_cell_volume 524.278269
_symmetry_space_group_name_H-M "P -1"
_symmetry_group_IT_number 2
_symmetry_cell_setting 'triclinic'
loop_
_space_group_symop_operation_xyz
x,y,z
-x,-y,-z
loop_
_atom_site_type_symbol
_atom_site_label
_atom_site_fract_x
_atom_site_fract_y
_atom_site_fract_z
Si Si1 0.405198 0.461465 0.201080
Si Si2 0.667964 0.660089 0.188966
Si Si3 0.134481 0.517619 0.190706
Si Si4 0.626591 0.924281 0.051561
Si Si5 0.924189 0.173883 0.746359
Si Si6 0.967139 0.797614 0.883449
O O1 0.527561 0.534350 0.265287
O O2 0.260405 0.559633 0.018212
O O3 0.342095 0.247702 0.550363
O O4 0.500000 0.500000 0.000000
O O5 0.763277 0.547277 0.521511
O O6 0.614085 0.823455 0.023457
O O7 0.790626 0.737639 0.959960
O O8 0.009209 0.343001 0.398499
O O9 0.046064 0.671798 0.983937
O O10 0.500000 0.000000 0.000000
O O11 0.752674 0.098254 0.792219
O O12 0.956806 0.215594 0.888152
O O13 0.000000 0.000000 0.000000
O O14 0.000000 0.000000 0.500000
#
# Coordination Sequence:
#
# PCOD9033053 Si02
#       6
#     2   2   2   2   2   2
#     4  11  25  43  63  98 133 166 209 268 329 374
#     4  10  22  44  65  91 132 170 215 256 319 388
#     4  10  22  44  68  91 127 177 213 260 314 388
#     4  11  24  39  67  99 125 172 215 258 311 392
#     4  11  20  42  67  93 128 166 224 254 308 390
#     4  11  25  40  66  96 130 168 210 274 322 369
#
# _framework density 22.888608000000001
#
# number of rings (size 3 to 8) (size 9 to 14) (size 15 to 20)
#    0.000    1.333    5.000    4.000    9.333    1.333 
#    0.000    3.333    0.000    0.000    0.000    0.000 
#    0.000    0.000    0.000    0.000    0.000    0.000 
#
# Total GULP energy -67049.111244 kJ/mol
# GULP energy per Si atom -5587.425937 kJ/mol
# Density = 2.283651 g / cm^3
# Si number density = 22.888608 Si / 1000 Ang^3
#
#
#
# Elastic Constant Matrix: (Units=GPa)
#
#
# Indices 1 2 3 4 5 6 
#
# 1 197.9290 65.6457 68.6233 -22.4323 -24.1056 -41.8585
# 2 65.6457 108.3583 32.4684 -9.2339 -2.6486 -19.0205
# 3 68.6233 32.4684 100.7828 -19.8796 -25.5819 -16.3357
# 4 -22.4323 -9.2339 -19.8796 37.4751 -7.6252 -0.3904
# 5 -24.1056 -2.6486 -25.5819 -7.6252 45.1524 -7.5177
# 6 -41.8585 -19.0205 -16.3357 -0.3904 -7.5177 61.7774
#
#
#
# Elastic Compliance Matrix: (Units=1/GPa)
#
#
# Indices 1 2 3 4 5 6 
#
# 1 0.009208 -0.003516 -0.002026 0.004691 0.005234 0.005288
# 2 -0.003516 0.011955 -0.002181 -0.000816 -0.002480 0.000415
# 3 -0.002026 -0.002181 0.017317 0.009693 0.010891 0.003921
# 4 0.004691 -0.000816 0.009693 0.037683 0.015581 0.007625
# 5 0.005234 -0.002480 0.010891 0.015581 0.035272 0.010054
# 6 0.005288 0.000415 0.003921 0.007625 0.010054 0.022206
#
#
# Mechanical properties :
#
#
# Convention : Reuss Voigt Hill
#
# Bulk Modulus (GPa) = 43.41352 82.28275 62.84814
# Shear Modulus (GPa) = 31.89524 44.90316 38.39920
#
# Velocity S-wave (km/s) = 3.73701 4.43404 4.10036
# Velocity P-wave (km/s) = 6.13423 7.88933 7.06648
#
# Compressibility (1/GPa) = 0.02303430
#
# Stress axis : x y z
#
# Youngs Moduli (GPa) = 108.59914 83.65013 57.74830
#
# Poissons Ratio (x) = 0.29407 0.11702
# Poissons Ratio (y) = 0.38178 0.12593
# Poissons Ratio (z) = 0.22006 0.18241
#
# Static dielectric constant tensor:
#      x y z
#    x 1.909000 -0.014220 -0.005990 
#    y -0.014220 1.915540 0.073230 
#    z -0.005990 0.073230 1.874000 
# 
# From -- ./inp_files/147603.got.cif
#   From: 2010.05.17/outbox.cif.g08.bks.cpg/sg2_74_cif.got.tgz:147603.got - 2010.06.03 11:33:40.
