data_PCOD9033797
_publ_section_title
;
Structure prediction by ZEFSAII (Michael W. Deem and Ramdas Pophale) SiO2 
 PCOD9033797
Probable space group: P -1
;
_chemical_formula_sum "Si O2"
_cell_formula_units_Z 13
_cell_length_a 8.867195
_cell_length_b 9.471213
_cell_length_c 7.033153
_cell_angle_alpha 89.193373
_cell_angle_beta 70.716742
_cell_angle_gamma 104.355472
_cell_volume 537.137898
_symmetry_space_group_name_H-M "P -1"
_symmetry_group_IT_number 2
_symmetry_cell_setting 'triclinic'
loop_
_space_group_symop_operation_xyz
x,y,z
-x,-y,-z
loop_
_atom_site_type_symbol
_atom_site_label
_atom_site_fract_x
_atom_site_fract_y
_atom_site_fract_z
Si Si1 0.962186 0.240653 0.805454
Si Si2 0.764772 0.016766 0.461167
Si Si3 0.302912 0.336909 0.862070
Si Si4 0.220291 0.625893 0.794182
Si Si5 0.464382 0.806773 0.405678
Si Si6 0.875107 0.900147 0.773950
Si Si7 0.000000 0.500000 0.500000
O O1 0.156127 0.266759 0.775481
O O2 0.288658 0.501323 0.872401
O O3 0.952798 0.334859 0.618749
O O4 0.886082 0.064594 0.838950
O O5 0.634542 0.930503 0.364816
O O6 0.818610 0.905172 0.581334
O O7 0.664007 0.109878 0.621659
O O8 0.935886 0.109134 0.298450
O O9 0.120861 0.689522 0.991305
O O10 0.481879 0.320606 0.725087
O O11 0.245406 0.236198 0.070786
O O12 0.379281 0.743503 0.640222
O O13 0.108031 0.562412 0.655621
#
# Coordination Sequence:
#
# PCOD9033797 Si02
#       7
#     2   2   2   2   2   2   1
#     4  11  23  42  72 103 132 182 227 285 325 411
#     4  10  24  41  70  99 138 178 226 284 335 402
#     4  11  23  41  68  96 136 178 224 282 339 396
#     4  11  25  45  70 100 140 179 227 280 343 406
#     4  11  23  44  65 101 140 178 216 288 348 393
#     4  11  23  44  70 104 129 181 239 272 325 416
#     4  10  22  44  70 100 130 180 234 270 332 404
#
# _framework density 24.202351
#
# number of rings (size 3 to 8) (size 9 to 14) (size 15 to 20)
#    0.000    1.231    1.538    4.615    4.308    4.308 
#    2.769    0.769    0.000    0.000    0.000    0.000 
#    0.000    0.000    0.000    0.000    0.000    0.000 
#
# Total GULP energy -72424.282947 kJ/mol
# GULP energy per Si atom -5571.098688 kJ/mol
# Density = 2.414726 g / cm^3
# Si number density = 24.202351 Si / 1000 Ang^3
#
#
#
# Elastic Constant Matrix: (Units=GPa)
#
#
# Indices 1 2 3 4 5 6 
#
# 1 75.7869 32.1370 19.1142 6.3507 -26.2222 -39.2689
# 2 32.1370 108.2930 26.7853 0.8676 -9.5743 -28.3342
# 3 19.1142 26.7853 104.3157 -21.8079 -7.4845 -32.9714
# 4 6.3507 0.8676 -21.8079 47.6336 -9.0038 -2.2836
# 5 -26.2222 -9.5743 -7.4845 -9.0038 34.0423 1.8816
# 6 -39.2689 -28.3342 -32.9714 -2.2836 1.8816 41.4898
#
#
#
# Elastic Compliance Matrix: (Units=1/GPa)
#
#
# Indices 1 2 3 4 5 6 
#
# 1 0.062584 0.000324 0.017514 0.012859 0.051585 0.071742
# 2 0.000324 0.011534 -0.000131 0.000674 0.003203 0.007972
# 3 0.017514 -0.000131 0.020777 0.012438 0.019499 0.032799
# 4 0.012859 0.000674 0.012438 0.029746 0.019410 0.023272
# 5 0.051585 0.003203 0.019499 0.019410 0.075887 0.064133
# 6 0.071742 0.007972 0.032799 0.023272 0.064133 0.121886
#
#
# Mechanical properties :
#
#
# Convention : Reuss Voigt Hill
#
# Bulk Modulus (GPa) = 7.67397 49.38542 28.52969
# Shear Modulus (GPa) = 15.13160 38.65708 26.89434
#
# Velocity S-wave (km/s) = 2.50314 4.00089 3.33713
# Velocity P-wave (km/s) = 3.39586 6.46470 5.16354
#
# Compressibility (1/GPa) = 0.13031068
#
# Stress axis : x y z
#
# Youngs Moduli (GPa) = 15.97844 86.70203 48.13110
#
# Poissons Ratio (x) = -0.02810 -0.84299
# Poissons Ratio (y) = -0.00518 0.00628
# Poissons Ratio (z) = -0.27985 0.01132
#
# Static dielectric constant tensor:
#      x y z
#    x 1.962250 0.026040 -0.009910 
#    y 0.026040 2.086310 0.015250 
#    z -0.009910 0.015250 1.908680 
# 
# From -- ./inp_files/149245.got.cif
#   From: 2010.05.17/outbox.cif.g08.bks.cpg/sg2_75_cif.got.tgz:149245.got - 2010.06.03 11:33:40.
