data_PCOD9033172
_publ_section_title
;
Structure prediction by ZEFSAII (Michael W. Deem and Ramdas Pophale) SiO2 
 PCOD9033172
Probable space group: P -1
;
_chemical_formula_sum "Si O2"
_cell_formula_units_Z 13
_cell_length_a 13.291174
_cell_length_b 12.764848
_cell_length_c 12.575592
_cell_angle_alpha 144.409727
_cell_angle_beta 145.732240
_cell_angle_gamma 29.825599
_cell_volume 561.098834
_symmetry_space_group_name_H-M "P -1"
_symmetry_group_IT_number 2
_symmetry_cell_setting 'triclinic'
loop_
_space_group_symop_operation_xyz
x,y,z
-x,-y,-z
loop_
_atom_site_type_symbol
_atom_site_label
_atom_site_fract_x
_atom_site_fract_y
_atom_site_fract_z
Si Si1 0.500000 0.000000 0.000000
Si Si2 0.613242 0.694024 0.048574
Si Si3 0.636494 0.233957 0.913083
Si Si4 0.548071 0.563949 0.419834
Si Si5 0.083555 0.150104 0.298177
Si Si6 0.944176 0.532878 0.648996
Si Si7 0.252232 0.800837 0.535320
O O1 0.567748 0.875694 0.074644
O O2 0.595821 0.137269 0.231035
O O3 0.505522 0.798113 0.155615
O O4 0.878501 0.510793 0.144245
O O5 0.498921 0.575916 0.813612
O O6 0.698154 0.097266 0.744105
O O7 0.500000 0.500000 0.000000
O O8 0.872243 0.144974 0.098021
O O9 0.700631 0.624776 0.552299
O O10 0.313232 0.751735 0.424125
O O11 0.689815 0.411738 0.521523
O O12 0.067743 0.306306 0.317967
O O13 0.048878 0.287821 0.486750
O O14 0.000000 0.000000 0.500000
#
# Coordination Sequence:
#
# PCOD9033172 Si02
#       7
#     1   2   2   2   2   2   2
#     4  10  24  42  66 104 132 174 234 280 330 422
#     4  11  23  43  69  98 140 181 230 282 345 407
#     4  11  22  46  68 100 139 187 229 285 350 406
#     4  10  23  42  64  94 136 170 224 284 328 411
#     4  10  24  42  69 100 145 175 232 291 338 415
#     4  11  22  44  68 106 136 186 228 281 354 409
#     4  10  22  44  66  92 130 177 224 278 338 398
#
# _framework density 23.168824000000001
#
# number of rings (size 3 to 8) (size 9 to 14) (size 15 to 20)
#    0.000    1.538    3.077    0.923    2.154    1.846 
#    8.308    4.615    0.000    0.000    0.000    0.000 
#    0.000    0.000    0.000    0.000    0.000    0.000 
#
# Total GULP energy -72435.724776 kJ/mol
# GULP energy per Si atom -5571.978829 kJ/mol
# Density = 2.311609 g / cm^3
# Si number density = 23.168824 Si / 1000 Ang^3
#
#
#
# Elastic Constant Matrix: (Units=GPa)
#
#
# Indices 1 2 3 4 5 6 
#
# 1 97.2714 38.1202 7.4347 -9.4854 7.3895 -8.6864
# 2 38.1202 85.8367 0.8081 11.5143 -5.7583 -15.8812
# 3 7.4347 0.8081 50.4006 -1.1903 7.1387 -15.2783
# 4 -9.4854 11.5143 -1.1903 26.5275 -6.7973 -5.7656
# 5 7.3895 -5.7583 7.1387 -6.7973 33.8153 8.8072
# 6 -8.6864 -15.8812 -15.2783 -5.7656 8.8072 43.3079
#
#
#
# Elastic Compliance Matrix: (Units=1/GPa)
#
#
# Indices 1 2 3 4 5 6 
#
# 1 0.014356 -0.007339 -0.000929 0.007835 -0.003011 0.001516
# 2 -0.007339 0.016861 0.001567 -0.008682 0.001403 0.003822
# 3 -0.000929 0.001567 0.024160 0.000484 -0.007255 0.010452
# 4 0.007835 -0.008682 0.000484 0.046392 0.005068 0.003704
# 5 -0.003011 0.001403 -0.007255 0.005068 0.035409 -0.009175
# 6 0.001516 0.003822 0.010452 0.003704 -0.009175 0.030842
#
#
# Mechanical properties :
#
#
# Convention : Reuss Voigt Hill
#
# Bulk Modulus (GPa) = 23.82400 36.24831 30.03616
# Shear Modulus (GPa) = 25.58669 33.20654 29.39662
#
# Velocity S-wave (km/s) = 3.32679 3.78993 3.56589
# Velocity P-wave (km/s) = 5.00618 5.90175 5.47232
#
# Compressibility (1/GPa) = 0.04197447
#
# Stress axis : x y z
#
# Youngs Moduli (GPa) = 69.65813 59.30979 41.39023
#
# Poissons Ratio (x) = 0.43529 0.03846
# Poissons Ratio (y) = 0.51124 -0.06487
# Poissons Ratio (z) = 0.06472 -0.09295
#
# Static dielectric constant tensor:
#      x y z
#    x 1.920230 -0.026590 -0.080670 
#    y -0.026590 1.951730 0.008670 
#    z -0.080670 0.008670 1.877500 
# 
# From -- ./inp_files/34027.got.cif
#   From: 2010.05.17/outbox.cif.g08.bks.cpg/sg2_18_cif.got.tgz:34027.got - 2010.06.03 11:33:40.
