data_PCOD9033969
_publ_section_title
;
Structure prediction by ZEFSAII (Michael W. Deem and Ramdas Pophale) SiO2 
 PCOD9033969
Probable space group: P -1
;
_chemical_formula_sum "Si O2"
_cell_formula_units_Z 14
_cell_length_a 14.717058
_cell_length_b 7.249544
_cell_length_c 11.216382
_cell_angle_alpha 79.047843
_cell_angle_beta 149.938115
_cell_angle_gamma 89.228014
_cell_volume 548.692946
_symmetry_space_group_name_H-M "P -1"
_symmetry_group_IT_number 2
_symmetry_cell_setting 'triclinic'
loop_
_space_group_symop_operation_xyz
x,y,z
-x,-y,-z
loop_
_atom_site_type_symbol
_atom_site_label
_atom_site_fract_x
_atom_site_fract_y
_atom_site_fract_z
Si Si1 0.220186 0.378153 0.723424
Si Si2 0.961625 0.381140 0.081890
Si Si3 0.327057 0.530506 0.059247
Si Si4 0.726913 0.254253 0.653115
Si Si5 0.858305 0.250769 0.558186
Si Si6 0.345086 0.022979 0.564356
Si Si7 0.751966 0.009445 0.107750
O O1 0.243752 0.519979 0.628947
O O2 0.248573 0.145216 0.766881
O O3 0.000000 0.500000 0.500000
O O4 0.339256 0.400986 0.971312
O O5 0.173080 0.229334 0.372026
O O6 0.841670 0.492661 0.045830
O O7 0.821615 0.266672 0.884475
O O8 0.000000 0.500000 0.000000
O O9 0.528664 0.441496 0.373093
O O10 0.259300 0.763773 0.912267
O O11 0.882909 0.252596 0.728297
O O12 0.681198 0.057186 0.588351
O O13 0.054876 0.119415 0.730326
O O14 0.710270 0.131617 0.394269
O O15 0.553050 0.036703 0.810488
#
# Coordination Sequence:
#
# PCOD9033969 Si02
#       7
#     2   2   2   2   2   2   2
#     4  10  23  43  73  99 136 185 222 276 348 393
#     4  12  26  43  66 101 139 178 228 284 343 397
#     4  12  24  45  69 103 140 171 235 284 328 414
#     4  10  23  43  70  97 138 179 224 281 333 407
#     4   9  22  44  70  95 142 170 235 272 332 408
#     4  10  22  44  70  97 139 183 225 273 344 399
#     4  11  22  44  70 102 137 180 225 279 339 401
#
# _framework density 25.515180999999998
#
# number of rings (size 3 to 8) (size 9 to 14) (size 15 to 20)
#    0.857    0.571    2.857    1.714    4.000    4.571 
#    0.000    3.571    0.000    0.000    0.000    0.000 
#    0.000    0.000    0.000    0.000    0.000    0.000 
#
# Total GULP energy -78267.698725 kJ/mol
# GULP energy per Si atom -5590.549909 kJ/mol
# Density = 2.545711 g / cm^3
# Si number density = 25.515181 Si / 1000 Ang^3
#
#
#
# Elastic Constant Matrix: (Units=GPa)
#
#
# Indices 1 2 3 4 5 6 
#
# 1 58.1310 33.3630 40.4437 -0.9429 13.4369 1.6934
# 2 33.3630 98.1781 25.6739 -14.3377 13.3417 12.8257
# 3 40.4437 25.6739 112.2651 -1.5808 32.6500 -9.4419
# 4 -0.9429 -14.3377 -1.5808 44.2443 -5.2235 -1.1043
# 5 13.4369 13.3417 32.6500 -5.2235 40.9964 0.0627
# 6 1.6934 12.8257 -9.4419 -1.1043 0.0627 36.6956
#
#
#
# Elastic Compliance Matrix: (Units=1/GPa)
#
#
# Indices 1 2 3 4 5 6 
#
# 1 0.027052 -0.007225 -0.008099 -0.002115 -0.000333 -0.000870
# 2 -0.007225 0.014184 -0.000620 0.004160 -0.001217 -0.004657
# 3 -0.008099 -0.000620 0.015007 -0.000813 -0.009205 0.004443
# 4 -0.002115 0.004160 -0.000813 0.024218 0.003074 -0.000842
# 5 -0.000333 -0.001217 -0.009205 0.003074 0.032623 -0.001891
# 6 -0.000870 -0.004657 0.004443 -0.000842 -0.001891 0.030040
#
#
# Mechanical properties :
#
#
# Convention : Reuss Voigt Hill
#
# Bulk Modulus (GPa) = 41.06102 51.94838 46.50470
# Shear Modulus (GPa) = 27.30289 35.66016 31.48153
#
# Velocity S-wave (km/s) = 3.27473 3.74251 3.51641
# Velocity P-wave (km/s) = 5.51600 6.25134 5.89514
#
# Compressibility (1/GPa) = 0.02435400
#
# Stress axis : x y z
#
# Youngs Moduli (GPa) = 36.96570 70.50120 66.63757
#
# Poissons Ratio (x) = 0.50936 0.53973
# Poissons Ratio (y) = 0.26707 0.04133
# Poissons Ratio (z) = 0.29940 0.04372
#
# Static dielectric constant tensor:
#      x y z
#    x 1.990990 0.019680 -0.034390 
#    y 0.019680 2.106270 0.026210 
#    z -0.034390 0.026210 2.026360 
# 
# From -- ./inp_files/447256.got.cif
#   From: 2010.05.17/outbox.cif.g08.bks.cpg/sg2_224_cif.got.tgz:447256.got - 2010.06.03 11:33:40.
