data_PCOD9033596
_publ_section_title
;
Structure prediction by ZEFSAII (Michael W. Deem and Ramdas Pophale) SiO2 
 PCOD9033596
Probable space group: P -1
;
_chemical_formula_sum "Si O2"
_cell_formula_units_Z 16
_cell_length_a 23.242028
_cell_length_b 7.695225
_cell_length_c 6.559244
_cell_angle_alpha 89.149119
_cell_angle_beta 121.493269
_cell_angle_gamma 126.154723
_cell_volume 730.716203
_symmetry_space_group_name_H-M "P -1"
_symmetry_group_IT_number 2
_symmetry_cell_setting 'triclinic'
loop_
_space_group_symop_operation_xyz
x,y,z
-x,-y,-z
loop_
_atom_site_type_symbol
_atom_site_label
_atom_site_fract_x
_atom_site_fract_y
_atom_site_fract_z
Si Si1 0.238838 0.334134 0.768786
Si Si2 0.427152 0.991942 0.485518
Si Si3 0.774734 0.399069 0.917533
Si Si4 0.976453 0.555323 0.748523
Si Si5 0.101466 0.247248 0.220315
Si Si6 0.464887 0.324889 0.245852
Si Si7 0.567940 0.403006 0.059687
Si Si8 0.151221 0.848560 0.808124
O O1 0.162900 0.216983 0.454270
O O2 0.338496 0.519143 0.842823
O O3 0.220756 0.123483 0.863759
O O4 0.228785 0.479693 0.897746
O O5 0.401965 0.079373 0.251336
O O6 0.500000 0.000000 0.500000
O O7 0.326454 0.755974 0.370570
O O8 0.483242 0.172411 0.776252
O O9 0.850588 0.606028 0.899694
O O10 0.801245 0.245525 0.020843
O O11 0.913189 0.609674 0.670058
O O12 0.915951 0.323847 0.498634
O O13 0.075238 0.780725 0.831177
O O14 0.000000 0.500000 0.000000
O O15 0.000000 0.000000 0.000000
O O16 0.500000 0.500000 0.500000
O O17 0.542739 0.364404 0.252768
O O18 0.421403 0.379305 0.002521
#
# Coordination Sequence:
#
# PCOD9033596 Si02
#       8
#     2   2   2   2   2   2   2   2
#     4  12  26  44  71 106 138 188 236 292 359 424
#     4  11  23  41  67  99 142 181 230 291 349 417
#     4  12  26  47  69 106 142 188 238 291 355 434
#     4  11  22  45  68  99 138 181 230 299 353 415
#     4  12  27  45  70 105 143 180 239 298 359 428
#     4   9  21  42  67  97 135 180 231 289 351 420
#     4  10  22  44  68  98 139 182 234 290 356 418
#     4  11  25  44  73  98 140 186 239 287 357 426
#
# _framework density 21.896325999999998
#
# number of rings (size 3 to 8) (size 9 to 14) (size 15 to 20)
#    0.000    1.000    3.750    2.250    3.500    2.500 
#    6.750    0.000    0.000    0.000    0.000    0.000 
#    0.000    0.000    0.000    0.000    0.000    0.000 
#
# Total GULP energy -89362.933777 kJ/mol
# GULP energy per Si atom -5585.183361 kJ/mol
# Density = 2.184649 g / cm^3
# Si number density = 21.896326 Si / 1000 Ang^3
#
#
#
# Elastic Constant Matrix: (Units=GPa)
#
#
# Indices 1 2 3 4 5 6 
#
# 1 130.4102 31.1686 37.5020 -6.3756 -4.1018 29.4538
# 2 31.1686 80.0128 38.4650 -7.3400 8.3211 19.2430
# 3 37.5020 38.4650 88.4364 4.9726 10.0138 19.4751
# 4 -6.3756 -7.3400 4.9726 30.7098 6.4048 5.7369
# 5 -4.1018 8.3211 10.0138 6.4048 37.6697 -1.6940
# 6 29.4538 19.2430 19.4751 5.7369 -1.6940 42.1112
#
#
#
# Elastic Compliance Matrix: (Units=1/GPa)
#
#
# Indices 1 2 3 4 5 6 
#
# 1 0.010254 -0.001051 -0.002967 0.003141 0.001347 -0.005694
# 2 -0.001051 0.018379 -0.006188 0.007121 -0.004007 -0.005933
# 3 -0.002967 -0.006188 0.016267 -0.003742 -0.002744 -0.002221
# 4 0.003141 0.007121 -0.003742 0.038770 -0.007246 -0.009293
# 5 0.001347 -0.004007 -0.002744 -0.007246 0.029735 0.004341
# 6 -0.005694 -0.005933 -0.002221 -0.009293 0.004341 0.032908
#
#
# Mechanical properties :
#
#
# Convention : Reuss Voigt Hill
#
# Bulk Modulus (GPa) = 40.83527 57.01450 48.92489
# Shear Modulus (GPa) = 28.58968 34.87974 31.73471
#
# Velocity S-wave (km/s) = 3.61734 3.99551 3.81112
# Velocity P-wave (km/s) = 6.01139 6.88334 6.46209
#
# Compressibility (1/GPa) = 0.02448863
#
# Stress axis : x y z
#
# Youngs Moduli (GPa) = 97.52053 54.40959 61.47268
#
# Poissons Ratio (x) = 0.05719 0.18236
# Poissons Ratio (y) = 0.10250 0.38042
# Poissons Ratio (z) = 0.28930 0.33671
#
# Static dielectric constant tensor:
#      x y z
#    x 1.907380 -0.053780 0.018300 
#    y -0.053780 1.862470 -0.007400 
#    z 0.018300 -0.007400 1.825040 
# 
# From -- ./inp_files/122932.got.cif
#   From: 2010.05.17/outbox.cif.g08.bks.cpg/sg2_62_cif.got.tgz:122932.got - 2010.06.03 11:33:40.
