data_PCOD9033401
_publ_section_title
;
Structure prediction by ZEFSAII (Michael W. Deem and Ramdas Pophale) SiO2 
 PCOD9033401
Probable space group: P -1
;
_chemical_formula_sum "Si O2"
_cell_formula_units_Z 16
_cell_length_a 9.449491
_cell_length_b 13.873742
_cell_length_c 8.545275
_cell_angle_alpha 128.494297
_cell_angle_beta 75.328610
_cell_angle_gamma 76.724191
_cell_volume 728.861790
_symmetry_space_group_name_H-M "P -1"
_symmetry_group_IT_number 2
_symmetry_cell_setting 'triclinic'
loop_
_space_group_symop_operation_xyz
x,y,z
-x,-y,-z
loop_
_atom_site_type_symbol
_atom_site_label
_atom_site_fract_x
_atom_site_fract_y
_atom_site_fract_z
Si Si1 0.732377 0.770944 0.020006
Si Si2 0.387269 0.593208 0.769186
Si Si3 0.803872 0.080448 0.830466
Si Si4 0.895054 0.390111 0.321667
Si Si5 0.015644 0.622197 0.212710
Si Si6 0.871245 0.908832 0.338535
Si Si7 0.843744 0.816592 0.739875
Si Si8 0.333462 0.456378 0.162844
O O1 0.700749 0.827839 0.909387
O O2 0.624020 0.704745 0.045156
O O3 0.928006 0.631088 0.813560
O O4 0.747139 0.884882 0.237750
O O5 0.500000 0.500000 0.500000
O O6 0.213947 0.595299 0.785122
O O7 0.499863 0.536148 0.836083
O O8 0.335438 0.757548 0.930395
O O9 0.987170 0.070966 0.769612
O O10 0.803406 0.963987 0.825653
O O11 0.783723 0.035652 0.615981
O O12 0.768983 0.502396 0.598589
O O13 0.987401 0.245379 0.257988
O O14 0.966883 0.761745 0.263677
O O15 0.203168 0.556172 0.168369
O O16 0.889167 0.695983 0.472823
O O17 0.000000 0.500000 0.000000
#
# Coordination Sequence:
#
# PCOD9033401 Si02
#       8
#     2   2   2   2   2   2   2   2
#     4  10  17  32  55  87 102 137 191 220 273 309
#     4  10  20  35  54  79 112 152 174 217 283 328
#     4  10  19  38  53  81 113 139 186 229 265 326
#     4   8  17  31  54  82 105 138 185 223 266 307
#     4  10  18  32  52  82 112 138 183 229 275 314
#     4  10  20  31  59  82 103 145 184 232 269 304
#     4   8  19  31  57  83 103 140 187 236 260 306
#     4  10  19  31  52  81 116 142 173 228 268 331
#
# _framework density 21.952034999999999
#
# number of rings (size 3 to 8) (size 9 to 14) (size 15 to 20)
#    0.750    1.750    2.500    0.375    0.000    2.000 
#    0.000    3.125    0.000    0.000    0.000    0.000 
#    0.000    0.000    0.000    0.000    0.000    0.000 
#
# Total GULP energy -89074.728288 kJ/mol
# GULP energy per Si atom -5567.170518 kJ/mol
# Density = 2.190207 g / cm^3
# Si number density = 21.952035 Si / 1000 Ang^3
#
#
#
# Elastic Constant Matrix: (Units=GPa)
#
#
# Indices 1 2 3 4 5 6 
#
# 1 50.7886 8.4170 14.6567 -5.1395 13.8419 -22.6853
# 2 8.4170 62.9191 21.2758 -0.1600 4.0975 -8.0879
# 3 14.6567 21.2758 126.0946 4.6068 17.1222 -2.0956
# 4 -5.1395 -0.1600 4.6068 31.0977 -2.8375 6.0755
# 5 13.8419 4.0975 17.1222 -2.8375 23.0795 -4.6272
# 6 -22.6853 -8.0879 -2.0956 6.0755 -4.6272 30.6159
#
#
#
# Elastic Compliance Matrix: (Units=1/GPa)
#
#
# Indices 1 2 3 4 5 6 
#
# 1 0.034618 -0.000134 -0.001596 0.000057 -0.014887 0.023245
# 2 -0.000134 0.017435 -0.002828 -0.000376 -0.000086 0.004375
# 3 -0.001596 -0.002828 0.009469 -0.001884 -0.006166 -0.001839
# 4 0.000057 -0.000376 -0.001884 0.034070 0.004358 -0.006288
# 5 -0.014887 -0.000086 -0.006166 0.004358 0.056624 -0.003782
# 6 0.023245 0.004375 -0.001839 -0.006288 -0.003782 0.051592
#
#
# Mechanical properties :
#
#
# Convention : Reuss Voigt Hill
#
# Bulk Modulus (GPa) = 19.08168 36.50011 27.79090
# Shear Modulus (GPa) = 21.70229 29.98881 25.84555
#
# Velocity S-wave (km/s) = 3.14765 3.70010 3.43500
# Velocity P-wave (km/s) = 4.68205 5.90911 5.33100
#
# Compressibility (1/GPa) = 0.05240629
#
# Stress axis : x y z
#
# Youngs Moduli (GPa) = 28.88697 57.35720 105.61076
#
# Poissons Ratio (x) = 0.00768 0.16850
# Poissons Ratio (y) = 0.00387 0.29867
# Poissons Ratio (z) = 0.04609 0.16221
#
# Static dielectric constant tensor:
#      x y z
#    x 1.869110 -0.022120 -0.011080 
#    y -0.022120 1.816020 -0.036400 
#    z -0.011080 -0.036400 1.842350 
# 
# From -- ./inp_files/274390.got.cif
#   From: 2010.05.17/outbox.cif.g08.bks.cpg/sg2_138_cif.got.tgz:274390.got - 2010.06.03 11:33:40.
