data_PCOD9033371
_publ_section_title
;
Structure prediction by ZEFSAII (Michael W. Deem and Ramdas Pophale) SiO2 
 PCOD9033371
Probable space group: P -1
;
_chemical_formula_sum "Si O2"
_cell_formula_units_Z 14
_cell_length_a 22.459393
_cell_length_b 5.358898
_cell_length_c 15.884184
_cell_angle_alpha 123.310560
_cell_angle_beta 158.376864
_cell_angle_gamma 64.514341
_cell_volume 568.409529
_symmetry_space_group_name_H-M "P -1"
_symmetry_group_IT_number 2
_symmetry_cell_setting 'triclinic'
loop_
_space_group_symop_operation_xyz
x,y,z
-x,-y,-z
loop_
_atom_site_type_symbol
_atom_site_label
_atom_site_fract_x
_atom_site_fract_y
_atom_site_fract_z
Si Si1 0.936839 0.703194 0.201026
Si Si2 0.262709 0.922495 0.100607
Si Si3 0.634772 0.895400 0.550486
Si Si4 0.352020 0.659869 0.819484
Si Si5 0.855839 0.650877 0.372897
Si Si6 0.504301 0.667810 0.845951
Si Si7 0.942088 0.315739 0.974363
O O1 0.836508 0.435745 0.081570
O O2 0.993524 0.530947 0.164040
O O3 0.080007 0.977274 0.480947
O O4 0.816165 0.896795 0.037617
O O5 0.453089 0.944037 0.334562
O O6 0.268986 0.079535 0.229766
O O7 0.604119 0.566883 0.405370
O O8 0.741843 0.176869 0.688289
O O9 0.185283 0.444134 0.600809
O O10 0.377046 0.704480 0.760547
O O11 0.500000 0.500000 0.000000
O O12 0.407396 0.984779 0.000769
O O13 0.000000 0.500000 0.500000
O O14 0.669391 0.551967 0.068610
O O15 0.000000 0.500000 0.000000
O O16 0.000000 0.000000 0.000000
#
# Coordination Sequence:
#
# PCOD9033371 Si02
#       7
#     2   2   2   2   2   2   2
#     4  11  25  45  70  99 147 176 231 292 343 414
#     4  10  24  46  69 106 131 187 226 287 355 408
#     4  10  23  43  72  95 137 176 232 287 343 424
#     4   9  22  42  61  97 131 180 236 274 352 410
#     4  11  25  41  69 102 138 186 231 293 350 417
#     4  10  22  44  67  97 134 183 230 288 346 414
#     4  11  25  43  66 102 132 180 227 275 348 407
#
# _framework density 24.630130000000001
#
# number of rings (size 3 to 8) (size 9 to 14) (size 15 to 20)
#    0.000    1.714    0.000    2.571    6.000   10.286 
#   12.857    0.000    0.000    0.000    0.000    0.000 
#    0.000    0.000    0.000    0.000    0.000    0.000 
#
# Total GULP energy -78344.610539 kJ/mol
# GULP energy per Si atom -5596.043610 kJ/mol
# Density = 2.457407 g / cm^3
# Si number density = 24.630130 Si / 1000 Ang^3
#
#
#
# Elastic Constant Matrix: (Units=GPa)
#
#
# Indices 1 2 3 4 5 6 
#
# 1 89.6593 39.9360 53.5152 10.6738 36.1531 -8.8492
# 2 39.9360 125.0645 37.5430 21.9329 14.4760 8.9140
# 3 53.5152 37.5430 143.0552 24.7022 16.4318 6.7357
# 4 10.6738 21.9329 24.7022 40.8246 -7.5658 -6.4633
# 5 36.1531 14.4760 16.4318 -7.5658 50.1126 5.8996
# 6 -8.8492 8.9140 6.7357 -6.4633 5.8996 41.1617
#
#
#
# Elastic Compliance Matrix: (Units=1/GPa)
#
#
# Indices 1 2 3 4 5 6 
#
# 1 0.024175 -0.004432 -0.006272 -0.001552 -0.015415 0.009149
# 2 -0.004432 0.010643 -0.000022 -0.005220 -0.000181 -0.004048
# 3 -0.006272 -0.000022 0.010302 -0.005047 0.000856 -0.003945
# 4 -0.001552 -0.005220 -0.005047 0.033248 0.008643 0.005605
# 5 -0.015415 -0.000181 0.000856 0.008643 0.032951 -0.006781
# 6 0.009149 -0.004048 -0.003945 0.005605 -0.006781 0.029635
#
#
# Mechanical properties :
#
#
# Convention : Reuss Voigt Hill
#
# Bulk Modulus (GPa) = 42.25603 68.86305 55.55954
# Shear Modulus (GPa) = 29.36059 41.53877 35.44968
#
# Velocity S-wave (km/s) = 3.45637 4.11116 3.79790
# Velocity P-wave (km/s) = 5.75518 7.11021 6.46828
#
# Compressibility (1/GPa) = 0.02366526
#
# Stress axis : x y z
#
# Youngs Moduli (GPa) = 41.36487 93.96054 97.07309
#
# Poissons Ratio (x) = 0.41646 0.60889
# Poissons Ratio (y) = 0.18334 0.00216
# Poissons Ratio (z) = 0.25946 0.00209
#
# Static dielectric constant tensor:
#      x y z
#    x 2.008920 0.003000 -0.021280 
#    y 0.003000 1.970770 -0.063130 
#    z -0.021280 -0.063130 1.974120 
# 
# From -- ./inp_files/578782.got.cif
#   From: 2010.05.17/outbox.cif.g08.bks.cpg/sg2_290_cif.got.tgz:578782.got - 2010.06.03 11:33:40.
