data_PCOD9033369
_publ_section_title
;
Structure prediction by ZEFSAII (Michael W. Deem and Ramdas Pophale) SiO2 
 PCOD9033369
Probable space group: P -1
;
_chemical_formula_sum "Si O2"
_cell_formula_units_Z 12
_cell_length_a 14.793330
_cell_length_b 25.721542
_cell_length_c 10.063811
_cell_angle_alpha 30.280947
_cell_angle_beta 30.825879
_cell_angle_gamma 16.537628
_cell_volume 536.746883
_symmetry_space_group_name_H-M "P -1"
_symmetry_group_IT_number 2
_symmetry_cell_setting 'triclinic'
loop_
_space_group_symop_operation_xyz
x,y,z
-x,-y,-z
loop_
_atom_site_type_symbol
_atom_site_label
_atom_site_fract_x
_atom_site_fract_y
_atom_site_fract_z
Si Si1 0.664228 0.213281 0.792059
Si Si2 0.945261 0.166635 0.795704
Si Si3 0.530514 0.274990 0.311201
Si Si4 0.124634 0.294205 0.715322
Si Si5 0.179984 0.765248 0.711833
Si Si6 0.860318 0.414527 0.502896
O O1 0.865704 0.137505 0.570630
O O2 0.297265 0.419105 0.756894
O O3 0.798578 0.227741 0.699254
O O4 0.741464 0.061447 0.081794
O O5 0.680559 0.243012 0.056829
O O6 0.990631 0.258549 0.591672
O O7 0.187650 0.500308 0.275031
O O8 0.748524 0.203747 0.316650
O O9 0.432402 0.203490 0.582949
O O10 0.094946 0.327768 0.519481
O O11 0.080625 0.194920 0.018197
O O12 0.528723 0.541778 0.720443
#
# Coordination Sequence:
#
# PCOD9033369 Si02
#       6
#     2   2   2   2   2   2
#     4   9  22  31  57  80 106 141 191 210 267 327
#     4  11  18  36  55  79 107 148 174 226 265 315
#     4  10  18  30  59  79 109 142 174 223 275 308
#     4  10  17  32  55  86 109 132 184 225 261 329
#     4   9  17  36  52  82 106 138 178 222 262 323
#     4   9  17  34  55  77 106 143 173 222 270 310
#
# _framework density 22.356905999999999
#
# number of rings (size 3 to 8) (size 9 to 14) (size 15 to 20)
#    1.000    1.333    3.333    1.500    0.000    0.667 
#    0.000    1.667    3.667    2.000    0.000    0.000 
#    0.000    0.000    0.000    0.000    0.000    0.000 
#
# Total GULP energy -66934.634979 kJ/mol
# GULP energy per Si atom -5577.886248 kJ/mol
# Density = 2.230602 g / cm^3
# Si number density = 22.356906 Si / 1000 Ang^3
#
#
#
# Elastic Constant Matrix: (Units=GPa)
#
#
# Indices 1 2 3 4 5 6 
#
# 1 121.1805 11.5256 51.4761 1.5208 -5.4451 11.2561
# 2 11.5256 42.5447 36.1918 -19.0408 -10.7919 5.8613
# 3 51.4761 36.1918 57.5444 8.3716 -14.8466 -21.1244
# 4 1.5208 -19.0408 8.3716 29.5342 -2.2574 0.6830
# 5 -5.4451 -10.7919 -14.8466 -2.2574 38.3155 -2.6325
# 6 11.2561 5.8613 -21.1244 0.6830 -2.6325 15.9939
#
#
#
# Elastic Compliance Matrix: (Units=1/GPa)
#
#
# Indices 1 2 3 4 5 6 
#
# 1 0.006550 -0.011619 0.005317 -0.009525 -0.000360 0.007018
# 2 -0.011619 0.008695 0.019427 0.000759 0.010593 0.032360
# 3 0.005317 0.019427 -0.011448 0.016179 0.000923 -0.026520
# 4 -0.009525 0.000759 0.016179 0.030281 0.008834 0.027955
# 5 -0.000360 0.010593 0.000923 0.008834 0.030058 0.002160
# 6 0.007018 0.032360 -0.026520 0.027955 0.002160 0.009860
#
#
# Mechanical properties :
#
#
# Convention : Reuss Voigt Hill
#
# Bulk Modulus (GPa) = 33.28065 46.62852 39.95458
# Shear Modulus (GPa) = 86.56045 24.90713 55.73379
#
# Velocity S-wave (km/s) = 6.22909 3.34139 4.99832
# Velocity P-wave (km/s) = 8.16418 5.98232 7.15689
#
# Compressibility (1/GPa) = 0.03004749
#
# Stress axis : x y z
#
# Youngs Moduli (GPa) = 152.67026 115.00715 -87.35368
#
# Poissons Ratio (x) = 1.33621 0.46446
# Poissons Ratio (y) = 1.77380 1.69698
# Poissons Ratio (z) = -0.81174 -2.23419
#
# Static dielectric constant tensor:
#      x y z
#    x 1.782220 -0.018590 0.007420 
#    y -0.018590 1.874860 -0.035510 
#    z 0.007420 -0.035510 1.835510 
# 
# From -- ./inp_files/265703.got.cif
#   From: 2010.05.17/outbox.cif.g08.bks.cpg/sg2_133_cif.got.tgz:265703.got - 2010.06.03 11:33:40.
