data_PCOD9033117
_publ_section_title
;
Structure prediction by ZEFSAII (Michael W. Deem and Ramdas Pophale) SiO2 
 PCOD9033117
Probable space group: P -1
;
_chemical_formula_sum "Si O2"
_cell_formula_units_Z 14
_cell_length_a 11.548811
_cell_length_b 5.993768
_cell_length_c 11.499707
_cell_angle_alpha 47.446900
_cell_angle_beta 89.560858
_cell_angle_gamma 83.873657
_cell_volume 580.774308
_symmetry_space_group_name_H-M "P -1"
_symmetry_group_IT_number 2
_symmetry_cell_setting 'triclinic'
loop_
_space_group_symop_operation_xyz
x,y,z
-x,-y,-z
loop_
_atom_site_type_symbol
_atom_site_label
_atom_site_fract_x
_atom_site_fract_y
_atom_site_fract_z
Si Si1 0.497412 0.869344 0.410399
Si Si2 0.910284 0.131997 0.809343
Si Si3 0.759138 0.505639 0.269744
Si Si4 0.384174 0.631939 0.883919
Si Si5 0.841969 0.126404 0.079686
Si Si6 0.757891 0.033355 0.647410
Si Si7 0.007445 0.293392 0.319811
O O1 0.500000 0.500000 0.500000
O O2 0.371440 0.034140 0.311147
O O3 0.500000 0.000000 0.500000
O O4 0.593005 0.034488 0.283274
O O5 0.801166 0.187482 0.706514
O O6 0.972373 0.431748 0.694046
O O7 0.863165 0.103105 0.949106
O O8 0.023432 0.875024 0.878341
O O9 0.649019 0.544555 0.170676
O O10 0.748349 0.255154 0.457223
O O11 0.877407 0.380308 0.240286
O O12 0.791008 0.811446 0.218748
O O13 0.267369 0.636889 0.961526
O O14 0.500000 0.500000 0.000000
O O15 0.869205 0.772447 0.724024
O O16 0.000000 0.000000 0.500000
#
# Coordination Sequence:
#
# PCOD9033117 Si02
#       7
#     2   2   2   2   2   2   2
#     4  12  29  51  76 110 152 207 258 316 378 453
#     4  10  23  42  71 101 135 186 240 310 380 443
#     4  10  22  44  66 100 139 179 239 306 376 436
#     4  12  28  45  71 103 148 200 248 309 376 461
#     4  10  24  45  67  99 144 187 241 308 377 456
#     4  11  23  41  71  99 137 181 242 307 366 445
#     4   9  21  37  67 103 131 172 234 305 370 434
#
# _framework density 24.105748999999999
#
# number of rings (size 3 to 8) (size 9 to 14) (size 15 to 20)
#    0.000    1.429    1.429    1.714    6.000    8.000 
#    0.000    4.286    0.000    0.000    0.000    0.000 
#    0.000    0.000    0.000    0.000    0.000    0.000 
#
# Total GULP energy -77952.167986 kJ/mol
# GULP energy per Si atom -5568.011999 kJ/mol
# Density = 2.405088 g / cm^3
# Si number density = 24.105749 Si / 1000 Ang^3
#
#
#
# Elastic Constant Matrix: (Units=GPa)
#
#
# Indices 1 2 3 4 5 6 
#
# 1 169.1085 32.3678 49.6289 29.9553 18.3793 3.8640
# 2 32.3678 37.4274 35.6924 11.9481 3.1303 -1.6214
# 3 49.6289 35.6924 73.2124 7.9548 11.4953 0.4349
# 4 29.9553 11.9481 7.9548 33.9650 12.5476 1.0230
# 5 18.3793 3.1303 11.4953 12.5476 53.4572 15.1811
# 6 3.8640 -1.6214 0.4349 1.0230 15.1811 46.4940
#
#
#
# Elastic Compliance Matrix: (Units=1/GPa)
#
#
# Indices 1 2 3 4 5 6 
#
# 1 0.008570 -0.001200 -0.004518 -0.005922 -0.000385 -0.000456
# 2 -0.001200 0.057369 -0.026467 -0.015205 0.006119 0.000684
# 3 -0.004518 -0.026467 0.029565 0.008355 -0.005433 0.000766
# 4 -0.005922 -0.015205 0.008355 0.041374 -0.009137 0.001957
# 5 -0.000385 0.006119 -0.005433 -0.009137 0.023865 -0.007295
# 6 -0.000456 0.000684 0.000766 0.001957 -0.007295 0.023902
#
#
# Mechanical properties :
#
#
# Convention : Reuss Voigt Hill
#
# Bulk Modulus (GPa) = 32.11992 57.23627 44.67810
# Shear Modulus (GPa) = 19.27571 37.58719 28.43145
#
# Velocity S-wave (km/s) = 2.83084 3.95303 3.43803
# Velocity P-wave (km/s) = 4.90290 6.68062 5.85957
#
# Compressibility (1/GPa) = 0.03113333
#
# Stress axis : x y z
#
# Youngs Moduli (GPa) = 116.68265 17.43112 33.82330
#
# Poissons Ratio (x) = 0.02092 0.15280
# Poissons Ratio (y) = 0.14007 0.89521
# Poissons Ratio (z) = 0.52713 0.46136
#
# Static dielectric constant tensor:
#      x y z
#    x 1.927270 -0.063480 -0.006660 
#    y -0.063480 2.090050 -0.043750 
#    z -0.006660 -0.043750 1.913400 
# 
# From -- ./inp_files/409763.got.cif
#   From: 2010.05.17/outbox.cif.g08.bks.cpg/sg2_205_cif.got.tgz:409763.got - 2010.06.03 11:33:40.
