data_PCOD9033695
_publ_section_title
;
Structure prediction by ZEFSAII (Michael W. Deem and Ramdas Pophale) SiO2 
 PCOD9033695
Probable space group: P -1
;
_chemical_formula_sum "Si O2"
_cell_formula_units_Z 14
_cell_length_a 9.150669
_cell_length_b 11.239107
_cell_length_c 9.387947
_cell_angle_alpha 56.299886
_cell_angle_beta 131.695193
_cell_angle_gamma 125.321357
_cell_volume 564.789264
_symmetry_space_group_name_H-M "P -1"
_symmetry_group_IT_number 2
_symmetry_cell_setting 'triclinic'
loop_
_space_group_symop_operation_xyz
x,y,z
-x,-y,-z
loop_
_atom_site_type_symbol
_atom_site_label
_atom_site_fract_x
_atom_site_fract_y
_atom_site_fract_z
Si Si1 0.852830 0.871141 0.389526
Si Si2 0.063195 0.644162 0.553575
Si Si3 0.876161 0.058690 0.998782
Si Si4 0.376257 0.812106 0.422900
Si Si5 0.592537 0.383059 0.989977
Si Si6 0.308740 0.272472 0.135683
Si Si7 0.559943 0.352554 0.663534
O O1 0.640247 0.797070 0.384932
O O2 0.912332 0.723206 0.477729
O O3 0.831149 0.960725 0.175499
O O4 0.000000 0.000000 0.500000
O O5 0.206862 0.780944 0.457799
O O6 0.211458 0.613599 0.790333
O O7 0.000000 0.500000 0.500000
O O8 0.062624 0.219705 0.039326
O O9 0.665332 0.064871 0.788067
O O10 0.000000 0.000000 0.000000
O O11 0.585607 0.824743 0.635107
O O12 0.304131 0.664720 0.369067
O O13 0.389628 0.283900 0.015949
O O14 0.585780 0.553181 0.863695
O O15 0.621568 0.340799 0.874540
O O16 0.500000 0.500000 0.500000
#
# Coordination Sequence:
#
# PCOD9033695 Si02
#       7
#     2   2   2   2   2   2   2
#     4  12  29  49  71 111 157 192 245 317 378 443
#     4  11  24  48  76 108 143 199 257 305 371 452
#     4  12  25  46  71 100 148 197 244 301 377 448
#     4  11  24  44  71 103 142 194 245 301 371 444
#     4  10  23  41  76 104 144 192 250 310 371 434
#     4  10  22  44  69 109 140 186 254 306 365 448
#     4  12  25  48  72 108 150 196 248 315 372 447
#
# _framework density 24.788004999999998
#
# number of rings (size 3 to 8) (size 9 to 14) (size 15 to 20)
#    0.000    0.857    2.857    3.429    6.000    1.143 
#    7.714    2.143    0.000    0.000    0.000    0.000 
#    0.000    0.000    0.000    0.000    0.000    0.000 
#
# Total GULP energy -78237.986482 kJ/mol
# GULP energy per Si atom -5588.427606 kJ/mol
# Density = 2.473159 g / cm^3
# Si number density = 24.788005 Si / 1000 Ang^3
#
#
#
# Elastic Constant Matrix: (Units=GPa)
#
#
# Indices 1 2 3 4 5 6 
#
# 1 84.9928 8.8469 33.1701 -1.1681 -11.6940 -2.8134
# 2 8.8469 103.8157 47.9484 4.0218 -5.8696 -0.2629
# 3 33.1701 47.9484 169.6990 -1.2652 -11.1996 0.7266
# 4 -1.1681 4.0218 -1.2652 40.1782 -9.9596 -7.3624
# 5 -11.6940 -5.8696 -11.1996 -9.9596 43.5569 -0.6189
# 6 -2.8134 -0.2629 0.7266 -7.3624 -0.6189 44.5758
#
#
#
# Elastic Compliance Matrix: (Units=1/GPa)
#
#
# Indices 1 2 3 4 5 6 
#
# 1 0.013191 0.000117 -0.002391 0.001312 0.003258 0.001134
# 2 0.000117 0.011146 -0.003149 -0.001104 0.000470 -0.000051
# 3 -0.002391 -0.003149 0.007320 0.000687 0.000971 -0.000162
# 4 0.001312 -0.001104 0.000687 0.027599 0.006758 0.004717
# 5 0.003258 0.000470 0.000971 0.006758 0.025715 0.001666
# 6 0.001134 -0.000051 -0.000162 0.004717 0.001666 0.023310
#
#
# Mechanical properties :
#
#
# Convention : Reuss Voigt Hill
#
# Bulk Modulus (GPa) = 48.05567 59.82648 53.94107
# Shear Modulus (GPa) = 39.66214 43.56499 41.61356
#
# Velocity S-wave (km/s) = 4.00441 4.19681 4.10173
# Velocity P-wave (km/s) = 6.38820 6.90448 6.65135
#
# Compressibility (1/GPa) = 0.02080920
#
# Stress axis : x y z
#
# Youngs Moduli (GPa) = 75.81097 89.71651 136.61470
#
# Poissons Ratio (x) = -0.01046 0.32669
# Poissons Ratio (y) = -0.00884 0.43022
# Poissons Ratio (z) = 0.18129 0.28253
#
# Static dielectric constant tensor:
#      x y z
#    x 1.977580 0.002120 0.063050 
#    y 0.002120 2.204950 0.109090 
#    z 0.063050 0.109090 1.991040 
# 
# From -- ./inp_files/185549.got.cif
#   From: 2010.05.17/outbox.cif.g08.bks.cpg/sg2_93_cif.got.tgz:185549.got - 2010.06.03 11:33:40.
