data_PCOD9033682
_publ_section_title
;
Structure prediction by ZEFSAII (Michael W. Deem and Ramdas Pophale) SiO2 
 PCOD9033682
Probable space group: P -1
;
_chemical_formula_sum "Si O2"
_cell_formula_units_Z 16
_cell_length_a 14.432561
_cell_length_b 14.473958
_cell_length_c 5.221454
_cell_angle_alpha 120.776809
_cell_angle_beta 126.301240
_cell_angle_gamma 46.944903
_cell_volume 631.520681
_symmetry_space_group_name_H-M "P -1"
_symmetry_group_IT_number 2
_symmetry_cell_setting 'triclinic'
loop_
_space_group_symop_operation_xyz
x,y,z
-x,-y,-z
loop_
_atom_site_type_symbol
_atom_site_label
_atom_site_fract_x
_atom_site_fract_y
_atom_site_fract_z
Si Si1 0.156555 0.886707 0.018392
Si Si2 0.171922 0.496841 0.917532
Si Si3 0.426207 0.640782 0.220839
Si Si4 0.074212 0.330522 0.637292
Si Si5 0.811750 0.903127 0.816201
Si Si6 0.440702 0.973847 0.112806
Si Si7 0.529094 0.692185 0.966880
Si Si8 0.080870 0.745692 0.325167
O O1 0.135454 0.827992 0.643538
O O2 0.260803 0.750320 0.141563
O O3 0.224835 0.968773 0.208082
O O4 0.000000 0.000000 0.000000
O O5 0.132927 0.417900 0.930334
O O6 0.045572 0.581706 0.639499
O O7 0.308083 0.395216 0.850051
O O8 0.195405 0.600324 0.231710
O O9 0.489717 0.629574 0.587104
O O10 0.500000 0.500000 0.000000
O O11 0.461778 0.708432 0.153911
O O12 0.193432 0.202004 0.508060
O O13 0.007934 0.283664 0.665644
O O14 0.722132 0.938821 0.975453
O O15 0.971749 0.829991 0.048627
O O16 0.500000 0.000000 0.500000
O O17 0.483997 0.828768 0.976460
O O18 0.500000 0.000000 0.000000
#
# Coordination Sequence:
#
# PCOD9033682 Si02
#       8
#     2   2   2   2   2   2   2   2
#     4  12  26  46  77 106 150 194 254 318 382 453
#     4  10  24  42  69 104 141 192 245 305 371 449
#     4  12  29  51  76 112 153 204 257 318 381 469
#     4  10  22  44  69 105 146 183 249 307 371 448
#     4  11  25  44  71 108 144 187 250 308 382 451
#     4  12  28  48  75 109 150 199 248 311 384 461
#     4  12  27  48  77 106 153 197 253 310 386 459
#     4  11  24  42  71 102 140 192 241 309 372 444
#
# _framework density 25.335671000000001
#
# number of rings (size 3 to 8) (size 9 to 14) (size 15 to 20)
#    0.000    0.750    2.500    3.375    8.750    1.000 
#    0.000    0.000    0.000    0.000    0.000    0.000 
#    0.000    0.000    0.000    0.000    0.000    0.000 
#
# Total GULP energy -89446.205223 kJ/mol
# GULP energy per Si atom -5590.387826 kJ/mol
# Density = 2.527801 g / cm^3
# Si number density = 25.335671 Si / 1000 Ang^3
#
#
#
# Elastic Constant Matrix: (Units=GPa)
#
#
# Indices 1 2 3 4 5 6 
#
# 1 111.6333 46.9928 -6.3084 4.7769 -20.4965 0.6671
# 2 46.9928 156.1982 11.7486 18.0592 5.9916 -10.0780
# 3 -6.3084 11.7486 68.8510 13.2110 4.6415 8.4379
# 4 4.7769 18.0592 13.2110 23.4527 -0.7888 0.7790
# 5 -20.4965 5.9916 4.6415 -0.7888 30.2052 -2.2746
# 6 0.6671 -10.0780 8.4379 0.7790 -2.2746 49.8478
#
#
#
# Elastic Compliance Matrix: (Units=1/GPa)
#
#
# Indices 1 2 3 4 5 6 
#
# 1 0.012500 -0.004304 0.001301 0.000369 0.009082 -0.000849
# 2 -0.004304 0.008693 -0.000714 -0.005628 -0.004546 0.001817
# 3 0.001301 -0.000714 0.017055 -0.009292 -0.002065 -0.002998
# 4 0.000369 -0.005628 -0.009292 0.052278 0.004145 -0.000198
# 5 0.009082 -0.004546 -0.002065 0.004145 0.040680 0.001100
# 6 -0.000849 0.001817 -0.002998 -0.000198 0.001100 0.021000
#
#
# Mechanical properties :
#
#
# Convention : Reuss Voigt Hill
#
# Bulk Modulus (GPa) = 32.45436 49.06094 40.75765
# Shear Modulus (GPa) = 29.42697 39.65110 34.53904
#
# Velocity S-wave (km/s) = 3.41175 3.96034 3.69624
# Velocity P-wave (km/s) = 5.32519 6.34971 5.85988
#
# Compressibility (1/GPa) = 0.03081250
#
# Stress axis : x y z
#
# Youngs Moduli (GPa) = 79.99897 115.03340 58.63513
#
# Poissons Ratio (x) = 0.49515 -0.07627
# Poissons Ratio (y) = 0.34435 0.04187
# Poissons Ratio (z) = -0.10406 0.08214
#
# Static dielectric constant tensor:
#      x y z
#    x 2.082660 -0.030900 -0.029100 
#    y -0.030900 2.008390 0.021020 
#    z -0.029100 0.021020 2.028920 
# 
# From -- ./inp_files/98628.got.cif
#   From: 2010.05.17/outbox.cif.g08.bks.cpg/sg2_50_cif.got.tgz:98628.got - 2010.06.03 11:33:40.
