data_PCOD9033571
_publ_section_title
;
Structure prediction by ZEFSAII (Michael W. Deem and Ramdas Pophale) SiO2 
 PCOD9033571
Probable space group: P -1
;
_chemical_formula_sum "Si O2"
_cell_formula_units_Z 14
_cell_length_a 6.374408
_cell_length_b 8.837842
_cell_length_c 20.431501
_cell_angle_alpha 38.461468
_cell_angle_beta 59.116685
_cell_angle_gamma 52.779819
_cell_volume 568.274377
_symmetry_space_group_name_H-M "P -1"
_symmetry_group_IT_number 2
_symmetry_cell_setting 'triclinic'
loop_
_space_group_symop_operation_xyz
x,y,z
-x,-y,-z
loop_
_atom_site_type_symbol
_atom_site_label
_atom_site_fract_x
_atom_site_fract_y
_atom_site_fract_z
Si Si1 0.440654 0.341464 0.329728
Si Si2 0.289366 0.868915 0.087390
Si Si3 0.346562 0.494894 0.092663
Si Si4 0.108466 0.485850 0.600290
Si Si5 0.133008 0.958662 0.805764
Si Si6 0.032565 0.135756 0.276284
Si Si7 0.384007 0.847911 0.435151
O O1 0.382826 0.611651 0.207086
O O2 0.754123 0.228121 0.328041
O O3 0.205445 0.409356 0.398023
O O4 0.387092 0.108339 0.379562
O O5 0.247680 0.757889 0.061836
O O6 0.039786 0.076696 0.095033
O O7 0.500000 0.000000 0.000000
O O8 0.589580 0.277564 0.166458
O O9 0.120616 0.377784 0.164147
O O10 0.500000 0.500000 0.000000
O O11 0.206480 0.700146 0.543688
O O12 0.315701 0.357781 0.552409
O O13 0.164614 0.232122 0.723448
O O14 0.994319 0.983376 0.749316
O O15 0.250403 0.935269 0.355754
#
# Coordination Sequence:
#
# PCOD9033571 Si02
#       7
#     2   2   2   2   2   2   2
#     4  11  23  45  64  97 142 171 221 282 335 388
#     4  11  24  45  68  95 132 175 220 278 334 394
#     4  12  26  46  69  98 134 179 225 274 340 395
#     4  10  22  44  68  97 137 179 218 280 327 396
#     4  11  24  47  65  98 141 170 222 279 331 395
#     4  12  22  44  71  95 139 179 217 281 335 395
#     4  11  22  45  69  97 136 179 225 269 336 397
#
# _framework density 24.635985999999999
#
# number of rings (size 3 to 8) (size 9 to 14) (size 15 to 20)
#    0.000    0.857    5.714    1.286    2.000    2.857 
#   10.286    0.000    0.000    0.000    0.000    0.000 
#    0.000    0.000    0.000    0.000    0.000    0.000 
#
# Total GULP energy -78262.447782 kJ/mol
# GULP energy per Si atom -5590.174842 kJ/mol
# Density = 2.457991 g / cm^3
# Si number density = 24.635986 Si / 1000 Ang^3
#
#
#
# Elastic Constant Matrix: (Units=GPa)
#
#
# Indices 1 2 3 4 5 6 
#
# 1 104.6410 70.3508 65.5291 15.0394 -30.7639 -7.8492
# 2 70.3508 130.5054 46.4445 11.1002 -14.1039 -24.4487
# 3 65.5291 46.4445 115.1170 -0.7395 -44.1727 2.6969
# 4 15.0394 11.1002 -0.7395 45.6250 -0.9130 -16.8157
# 5 -30.7639 -14.1039 -44.1727 -0.9130 55.4290 11.7534
# 6 -7.8492 -24.4487 2.6969 -16.8157 11.7534 41.6073
#
#
#
# Elastic Compliance Matrix: (Units=1/GPa)
#
#
# Indices 1 2 3 4 5 6 
#
# 1 0.022399 -0.009510 -0.006618 -0.007058 0.005770 -0.005416
# 2 -0.009510 0.014885 -0.003148 0.003070 -0.006094 0.010119
# 3 -0.006618 -0.003148 0.018412 0.000793 0.011758 -0.007293
# 4 -0.007058 0.003070 0.000793 0.028286 -0.004841 0.013220
# 5 0.005770 -0.006094 0.011758 -0.004841 0.032006 -0.014252
# 6 -0.005416 0.010119 -0.007293 0.013220 -0.014252 0.038800
#
#
# Mechanical properties :
#
#
# Convention : Reuss Voigt Hill
#
# Bulk Modulus (GPa) = 58.32798 79.43470 68.88134
# Shear Modulus (GPa) = 25.11883 39.72818 32.42351
#
# Velocity S-wave (km/s) = 3.19658 4.02009 3.63175
# Velocity P-wave (km/s) = 6.11159 7.33904 6.75326
#
# Compressibility (1/GPa) = 0.01714443
#
# Stress axis : x y z
#
# Youngs Moduli (GPa) = 44.64522 67.18058 54.31310
#
# Poissons Ratio (x) = 0.63889 0.35943
# Poissons Ratio (y) = 0.42458 0.17097
# Poissons Ratio (z) = 0.29545 0.21148
#
# Static dielectric constant tensor:
#      x y z
#    x 1.956390 -0.035090 0.029520 
#    y -0.035090 1.976400 0.001690 
#    z 0.029520 0.001690 2.005870 
# 
# From -- ./inp_files/135050.got.cif
#   From: 2010.05.17/outbox.cif.g08.bks.cpg/sg2_68_cif.got.tgz:135050.got - 2010.06.03 11:33:40.
