data_PCOD9033862
_publ_section_title
;
Structure prediction by ZEFSAII (Michael W. Deem and Ramdas Pophale) SiO2 
 PCOD9033862
Probable space group: P -1
;
_chemical_formula_sum "Si O2"
_cell_formula_units_Z 16
_cell_length_a 22.064326
_cell_length_b 11.682132
_cell_length_c 8.408482
_cell_angle_alpha 35.047716
_cell_angle_beta 38.473608
_cell_angle_gamma 33.647223
_cell_volume 653.678483
_symmetry_space_group_name_H-M "P -1"
_symmetry_group_IT_number 2
_symmetry_cell_setting 'triclinic'
loop_
_space_group_symop_operation_xyz
x,y,z
-x,-y,-z
loop_
_atom_site_type_symbol
_atom_site_label
_atom_site_fract_x
_atom_site_fract_y
_atom_site_fract_z
Si Si1 0.609912 0.914303 0.760195
Si Si2 0.214123 0.666207 0.168428
Si Si3 0.987068 0.851523 0.832138
Si Si4 0.875946 0.149326 0.173310
Si Si5 0.160957 0.305136 0.838805
Si Si6 0.249572 0.131069 0.186260
Si Si7 0.631001 0.216904 0.115225
Si Si8 0.489419 0.834462 0.841646
O O1 0.721460 0.813729 0.760150
O O2 0.596135 0.760700 0.825197
O O3 0.592614 0.139136 0.441043
O O4 0.500000 0.000000 0.000000
O O5 0.168434 0.508132 0.507023
O O6 0.122402 0.946042 0.074218
O O7 0.213391 0.664778 0.981101
O O8 0.318242 0.629820 0.104868
O O9 0.095017 0.752615 0.842076
O O10 0.949886 0.690705 0.004235
O O11 0.000000 0.000000 0.500000
O O12 0.822669 0.994226 0.505199
O O13 0.000000 0.000000 0.000000
O O14 0.265255 0.042404 0.868380
O O15 0.183041 0.312171 0.972823
O O16 0.377649 0.966782 0.035389
O O17 0.545588 0.310953 0.033191
O O18 0.500000 0.000000 0.500000
#
# Coordination Sequence:
#
# PCOD9033862 Si02
#       8
#     2   2   2   2   2   2   2   2
#     4   9  16  29  57  86 103 145 191 221 277 336
#     4  10  21  36  56  81 110 149 184 225 279 330
#     4  10  20  37  56  77 112 143 186 235 270 317
#     4  10  20  35  54  80 113 149 183 225 276 325
#     4  10  21  35  56  82 109 147 189 224 275 333
#     4  10  17  32  56  81 112 145 182 230 276 325
#     4   9  17  34  57  78 114 142 178 230 278 326
#     4   8  16  29  54  86 103 139 190 224 272 336
#
# _framework density 24.476863000000002
#
# number of rings (size 3 to 8) (size 9 to 14) (size 15 to 20)
#    0.000    2.500    2.500    0.000    0.000    1.000 
#    0.000    1.250    0.000   28.500    0.000    0.000 
#    0.000    0.000    0.000    0.000    0.000    0.000 
#
# Total GULP energy -89259.260013 kJ/mol
# GULP energy per Si atom -5578.703751 kJ/mol
# Density = 2.442115 g / cm^3
# Si number density = 24.476863 Si / 1000 Ang^3
#
#
#
# Elastic Constant Matrix: (Units=GPa)
#
#
# Indices 1 2 3 4 5 6 
#
# 1 226.1142 30.5671 13.7800 -6.6297 -21.6239 39.9857
# 2 30.5671 53.7406 5.6229 -2.5686 -16.1975 18.5675
# 3 13.7800 5.6229 80.9384 10.6766 -17.3701 26.0663
# 4 -6.6297 -2.5686 10.6766 31.9942 9.6450 -14.7275
# 5 -21.6239 -16.1975 -17.3701 9.6450 56.5490 -5.2933
# 6 39.9857 18.5675 26.0663 -14.7275 -5.2933 55.1463
#
#
#
# Elastic Compliance Matrix: (Units=1/GPa)
#
#
# Indices 1 2 3 4 5 6 
#
# 1 0.005442 -0.001114 0.001375 -0.002178 0.002125 -0.004599
# 2 -0.001114 0.024677 0.004753 -0.007375 0.008338 -0.010917
# 3 0.001375 0.004753 0.021368 -0.016913 0.009813 -0.016273
# 4 -0.002178 -0.007375 -0.016913 0.051504 -0.014640 0.024406
# 5 0.002125 0.008338 0.009813 -0.014640 0.025417 -0.010457
# 6 -0.004599 -0.010917 -0.016273 0.024406 -0.010457 0.038350
#
#
# Mechanical properties :
#
#
# Convention : Reuss Voigt Hill
#
# Bulk Modulus (GPa) = 16.25580 51.19257 33.72419
# Shear Modulus (GPa) = 28.21136 49.45947 38.83541
#
# Velocity S-wave (km/s) = 3.39864 4.50005 3.98756
# Velocity P-wave (km/s) = 4.69646 6.92537 5.91682
#
# Compressibility (1/GPa) = 0.06151650
#
# Stress axis : x y z
#
# Youngs Moduli (GPa) = 183.75889 40.52425 46.79847
#
# Poissons Ratio (x) = 0.04514 -0.06436
# Poissons Ratio (y) = 0.20468 -0.22245
# Poissons Ratio (z) = -0.25273 -0.19263
#
# Static dielectric constant tensor:
#      x y z
#    x 2.007460 -0.025860 -0.013930 
#    y -0.025860 2.065660 0.002000 
#    z -0.013930 0.002000 1.853790 
# 
# From -- ./inp_files/337234.got.cif
#   From: 2010.05.17/outbox.cif.g08.bks.cpg/sg2_169_cif.got.tgz:337234.got - 2010.06.03 11:33:40.
