data_PCOD9033040
_publ_section_title
;
Structure prediction by ZEFSAII (Michael W. Deem and Ramdas Pophale) SiO2 
 PCOD9033040
Probable space group: P -1
;
_chemical_formula_sum "Si O2"
_cell_formula_units_Z 14
_cell_length_a 12.152442
_cell_length_b 16.350392
_cell_length_c 9.741289
_cell_angle_alpha 127.796846
_cell_angle_beta 54.930095
_cell_angle_gamma 157.393950
_cell_volume 587.667900
_symmetry_space_group_name_H-M "P -1"
_symmetry_group_IT_number 2
_symmetry_cell_setting 'triclinic'
loop_
_space_group_symop_operation_xyz
x,y,z
-x,-y,-z
loop_
_atom_site_type_symbol
_atom_site_label
_atom_site_fract_x
_atom_site_fract_y
_atom_site_fract_z
Si Si1 0.587377 0.488228 0.665671
Si Si2 0.026965 0.901202 0.327936
Si Si3 0.765236 0.033970 0.015313
Si Si4 0.349061 0.246024 0.078073
Si Si5 0.746159 0.468073 0.780335
Si Si6 0.189391 0.424110 0.678489
Si Si7 0.682756 0.203112 0.674561
O O1 0.274535 0.311176 0.756626
O O2 0.761589 0.713648 0.775537
O O3 0.696932 0.470434 0.662235
O O4 0.586174 0.454903 0.474763
O O5 0.995370 0.800513 0.371833
O O6 0.000000 0.000000 0.500000
O O7 0.271762 0.026522 0.179314
O O8 0.984127 0.278562 0.107799
O O9 0.511309 0.896232 0.157237
O O10 0.857635 0.987030 0.968936
O O11 0.625753 0.417484 0.158888
O O12 0.473824 0.317196 0.910882
O O13 0.767548 0.361369 0.686883
O O14 0.967572 0.349161 0.687692
O O15 0.500000 0.000000 0.500000
#
# Coordination Sequence:
#
# PCOD9033040 Si02
#       7
#     2   2   2   2   2   2   2
#     4  11  22  40  71  97 143 173 219 290 341 400
#     4  11  23  42  69 109 133 172 232 277 348 408
#     4  11  23  44  71  98 139 182 224 278 338 402
#     4  10  22  44  65 104 135 169 226 280 347 401
#     4  11  24  45  67 101 135 179 230 278 339 406
#     4  11  23  44  68  97 139 180 224 286 331 402
#     4  11  28  48  66  98 140 181 237 277 336 405
#
# _framework density 23.822980000000001
#
# number of rings (size 3 to 8) (size 9 to 14) (size 15 to 20)
#    0.000    1.143    2.857    4.714    2.000    5.714 
#    5.143    0.000    0.000    0.000    0.000    0.000 
#    0.000    0.000    0.000    0.000    0.000    0.000 
#
# Total GULP energy -78177.813901 kJ/mol
# GULP energy per Si atom -5584.129564 kJ/mol
# Density = 2.376876 g / cm^3
# Si number density = 23.822980 Si / 1000 Ang^3
#
#
#
# Elastic Constant Matrix: (Units=GPa)
#
#
# Indices 1 2 3 4 5 6 
#
# 1 147.0689 60.0482 37.8035 7.5164 -2.9625 -30.4215
# 2 60.0482 104.4635 39.4211 4.3128 -13.9649 -34.2448
# 3 37.8035 39.4211 118.5279 -8.1298 3.4178 -13.8722
# 4 7.5164 4.3128 -8.1298 50.6990 -8.0756 -2.0286
# 5 -2.9625 -13.9649 3.4178 -8.0756 30.7062 8.1825
# 6 -30.4215 -34.2448 -13.8722 -2.0286 8.1825 47.5765
#
#
#
# Elastic Compliance Matrix: (Units=1/GPa)
#
#
# Indices 1 2 3 4 5 6 
#
# 1 0.009501 -0.004203 -0.001330 -0.001468 -0.002018 0.002947
# 2 -0.004203 0.016365 -0.003435 -0.000162 0.005474 0.007142
# 3 -0.001330 -0.003435 0.010210 0.001749 -0.002405 0.000142
# 4 -0.001468 -0.000162 0.001749 0.021054 0.005275 -0.000555
# 5 -0.002018 0.005474 -0.002405 0.005275 0.037663 -0.004304
# 6 0.002947 0.007142 0.000142 -0.000555 -0.004304 0.028802
#
#
# Mechanical properties :
#
#
# Convention : Reuss Voigt Hill
#
# Bulk Modulus (GPa) = 55.13023 71.62287 63.37655
# Shear Modulus (GPa) = 33.88053 41.31551 37.59802
#
# Velocity S-wave (km/s) = 3.77527 4.16898 3.97700
# Velocity P-wave (km/s) = 6.49580 7.30094 6.91011
#
# Compressibility (1/GPa) = 0.01813887
#
# Stress axis : x y z
#
# Youngs Moduli (GPa) = 105.24766 61.10783 97.94745
#
# Poissons Ratio (x) = 0.25682 0.13029
# Poissons Ratio (y) = 0.44233 0.33648
# Poissons Ratio (z) = 0.14000 0.20993
#
# Static dielectric constant tensor:
#      x y z
#    x 1.902990 0.024720 0.005790 
#    y 0.024720 2.024950 0.089870 
#    z 0.005790 0.089870 1.935920 
# 
# From -- ./inp_files/270836.got.cif
#   From: 2010.05.17/outbox.cif.g08.bks.cpg/sg2_136_cif.got.tgz:270836.got - 2010.06.03 11:33:40.
