data_PCOD9033406
_publ_section_title
;
Structure prediction by ZEFSAII (Michael W. Deem and Ramdas Pophale) SiO2 
 PCOD9033406
Probable space group: P -1
;
_chemical_formula_sum "Si O2"
_cell_formula_units_Z 16
_cell_length_a 8.846743
_cell_length_b 17.478880
_cell_length_c 7.882848
_cell_angle_alpha 72.490253
_cell_angle_beta 35.606240
_cell_angle_gamma 63.812868
_cell_volume 632.907552
_symmetry_space_group_name_H-M "P -1"
_symmetry_group_IT_number 2
_symmetry_cell_setting 'triclinic'
loop_
_space_group_symop_operation_xyz
x,y,z
-x,-y,-z
loop_
_atom_site_type_symbol
_atom_site_label
_atom_site_fract_x
_atom_site_fract_y
_atom_site_fract_z
Si Si1 0.840896 0.936323 0.536844
Si Si2 0.757198 0.986980 0.973437
Si Si3 0.865444 0.803633 0.141436
Si Si4 0.069030 0.519613 0.199003
Si Si5 0.247091 0.643321 0.752903
Si Si6 0.325157 0.589698 0.357148
Si Si7 0.656027 0.678273 0.611972
Si Si8 0.784102 0.234899 0.811657
O O1 0.782593 0.973888 0.754844
O O2 0.086476 0.844347 0.377601
O O3 0.967831 0.990452 0.260306
O O4 0.535310 0.939840 0.758256
O O5 0.748803 0.899960 0.119975
O O6 0.674196 0.753055 0.420737
O O7 0.058021 0.798365 0.133170
O O8 0.039155 0.741252 0.875412
O O9 0.867271 0.466375 0.402123
O O10 0.933676 0.594183 0.412058
O O11 0.083104 0.579742 0.987911
O O12 0.389552 0.459816 0.969442
O O13 0.408973 0.611954 0.453675
O O14 0.439189 0.642399 0.739952
O O15 0.166693 0.682134 0.359452
O O16 0.536239 0.725069 0.865772
#
# Coordination Sequence:
#
# PCOD9033406 Si02
#       8
#     2   2   2   2   2   2   2   2
#     4  10  24  45  72 103 133 163 220 275 324 392
#     4  10  23  46  73 102 130 171 214 271 332 386
#     4  10  24  43  68  95 140 179 217 262 333 397
#     4  11  24  43  67  98 130 171 229 279 334 384
#     4  10  22  44  67  99 130 172 225 282 328 390
#     4  12  26  40  71  96 129 176 225 283 328 382
#     4  10  24  45  64  96 137 177 221 270 327 399
#     4  11  27  45  62 101 137 177 221 266 330 398
#
# _framework density 25.280151
#
# number of rings (size 3 to 8) (size 9 to 14) (size 15 to 20)
#    0.000    1.500    1.250    1.500   10.500    2.000 
#    2.250    0.000    0.000    0.000    0.000    0.000 
#    0.000    0.000    0.000    0.000    0.000    0.000 
#
# Total GULP energy -89411.641541 kJ/mol
# GULP energy per Si atom -5588.227596 kJ/mol
# Density = 2.522261 g / cm^3
# Si number density = 25.280151 Si / 1000 Ang^3
#
#
#
# Elastic Constant Matrix: (Units=GPa)
#
#
# Indices 1 2 3 4 5 6 
#
# 1 25.8533 -7.0689 27.9958 4.8003 -6.6198 5.2853
# 2 -7.0689 126.0867 46.1977 15.0813 -12.2577 8.8063
# 3 27.9958 46.1977 147.8014 30.3536 -20.8731 17.4700
# 4 4.8003 15.0813 30.3536 36.9569 2.4838 -2.9534
# 5 -6.6198 -12.2577 -20.8731 2.4838 35.4053 -2.9667
# 6 5.2853 8.8063 17.4700 -2.9534 -2.9667 21.9637
#
#
#
# Elastic Compliance Matrix: (Units=1/GPa)
#
#
# Indices 1 2 3 4 5 6 
#
# 1 0.056938 0.008804 -0.011023 -0.003024 0.006741 -0.007960
# 2 0.008804 0.010634 -0.003468 -0.003139 0.003201 -0.003614
# 3 -0.011023 -0.003468 0.013251 -0.008910 0.004583 -0.007076
# 4 -0.003024 -0.003139 -0.008910 0.037657 -0.008458 0.012995
# 5 0.006741 0.003201 0.004583 -0.008458 0.033645 -0.003143
# 6 -0.007960 -0.003614 -0.007076 0.012995 -0.003143 0.055845
#
#
# Mechanical properties :
#
#
# Convention : Reuss Voigt Hill
#
# Bulk Modulus (GPa) = 14.39889 48.22119 31.31004
# Shear Modulus (GPa) = 20.61912 34.37296 27.49604
#
# Velocity S-wave (km/s) = 2.85901 3.69139 3.30154
# Velocity P-wave (km/s) = 4.07513 6.10611 5.19092
#
# Compressibility (1/GPa) = 0.06944981
#
# Stress axis : x y z
#
# Youngs Moduli (GPa) = 17.56302 94.03642 75.46597
#
# Poissons Ratio (x) = -0.82788 0.83185
# Poissons Ratio (y) = -0.15462 0.26169
# Poissons Ratio (z) = 0.19359 0.32608
#
# Static dielectric constant tensor:
#      x y z
#    x 2.080880 0.005890 -0.043050 
#    y 0.005890 1.973150 0.020060 
#    z -0.043050 0.020060 2.038580 
# 
# From -- ./inp_files/279177.got.cif
#   From: 2010.05.17/outbox.cif.g08.bks.cpg/sg2_140_cif.got.tgz:279177.got - 2010.06.03 11:33:40.
