data_PCOD9033354
_publ_section_title
;
Structure prediction by ZEFSAII (Michael W. Deem and Ramdas Pophale) SiO2 
 PCOD9033354
Probable space group: P -1
;
_chemical_formula_sum "Si O2"
_cell_formula_units_Z 16
_cell_length_a 9.155016
_cell_length_b 11.019601
_cell_length_c 9.211121
_cell_angle_alpha 119.459999
_cell_angle_beta 87.938614
_cell_angle_gamma 113.877536
_cell_volume 724.165126
_symmetry_space_group_name_H-M "P -1"
_symmetry_group_IT_number 2
_symmetry_cell_setting 'triclinic'
loop_
_space_group_symop_operation_xyz
x,y,z
-x,-y,-z
loop_
_atom_site_type_symbol
_atom_site_label
_atom_site_fract_x
_atom_site_fract_y
_atom_site_fract_z
Si Si1 0.062197 0.851294 0.493758
Si Si2 0.699111 0.821776 0.854831
Si Si3 0.663333 0.281844 0.078341
Si Si4 0.211587 0.916627 0.214603
Si Si5 0.285511 0.377047 0.770268
Si Si6 0.829921 0.346142 0.417582
Si Si7 0.878515 0.863341 0.141228
Si Si8 0.595284 0.480554 0.624178
O O1 0.178617 0.902669 0.378440
O O2 0.136318 0.775131 0.560638
O O3 0.878143 0.730208 0.380214
O O4 0.064855 0.000259 0.661202
O O5 0.520919 0.782773 0.897013
O O6 0.714978 0.661239 0.757344
O O7 0.722915 0.911744 0.756149
O O8 0.825950 0.918990 0.031225
O O9 0.712354 0.454705 0.117862
O O10 0.769562 0.295114 0.225972
O O11 0.682792 0.167349 0.894620
O O12 0.031483 0.826285 0.096757
O O13 0.265249 0.287184 0.869241
O O14 0.453991 0.404079 0.703593
O O15 0.694319 0.386107 0.523141
O O16 0.000000 0.500000 0.500000
O O17 0.500000 0.500000 0.500000
#
# Coordination Sequence:
#
# PCOD9033354 Si02
#       8
#     2   2   2   2   2   2   2   2
#     4  11  25  43  67  99 131 175 221 271 323 384
#     4  11  25  44  66  97 135 173 220 267 328 396
#     4  11  24  43  67  97 134 171 215 278 331 379
#     4  11  25  42  68  96 136 177 215 271 329 386
#     4  10  22  44  67  96 134 171 222 271 322 389
#     4  12  24  41  69 100 130 166 219 273 318 396
#     4  11  26  42  69  96 133 178 220 271 319 395
#     4  11  23  41  72  97 127 177 213 268 332 383
#
# _framework density 22.094408000000001
#
# number of rings (size 3 to 8) (size 9 to 14) (size 15 to 20)
#    0.000    1.000    3.750    3.000    7.000    6.000 
#    0.000    1.875    0.000    0.000    0.000    0.000 
#    0.000    0.000    0.000    0.000    0.000    0.000 
#
# Total GULP energy -89505.840918 kJ/mol
# GULP energy per Si atom -5594.115057 kJ/mol
# Density = 2.204412 g / cm^3
# Si number density = 22.094408 Si / 1000 Ang^3
#
#
#
# Elastic Constant Matrix: (Units=GPa)
#
#
# Indices 1 2 3 4 5 6 
#
# 1 60.0675 20.0570 2.7866 -6.0041 -12.0491 -12.4245
# 2 20.0570 125.7059 10.9737 -14.6019 -17.6930 -3.9493
# 3 2.7866 10.9737 63.4273 -0.8537 -5.6761 -5.9922
# 4 -6.0041 -14.6019 -0.8537 16.2740 -2.0249 2.8590
# 5 -12.0491 -17.6930 -5.6761 -2.0249 38.7834 0.3029
# 6 -12.4245 -3.9493 -5.9922 2.8590 0.3029 32.4904
#
#
#
# Elastic Compliance Matrix: (Units=1/GPa)
#
#
# Indices 1 2 3 4 5 6 
#
# 1 0.020386 -0.001599 0.000666 0.005599 0.005938 0.007176
# 2 -0.001599 0.009942 -0.001184 0.008885 0.004333 -0.000444
# 3 0.000666 -0.001184 0.016417 -0.000255 0.002031 0.003142
# 4 0.005599 0.008885 -0.000255 0.073258 0.009607 -0.003362
# 5 0.005938 0.004333 0.002031 0.009607 0.030388 0.002043
# 6 0.007176 -0.000444 0.003142 -0.003362 0.002043 0.034325
#
#
# Mechanical properties :
#
#
# Convention : Reuss Voigt Hill
#
# Bulk Modulus (GPa) = 23.52458 35.20393 29.36425
# Shear Modulus (GPa) = 24.61584 31.86846 28.24215
#
# Velocity S-wave (km/s) = 3.34147 3.80198 3.57914
# Velocity P-wave (km/s) = 5.05545 5.93645 5.51358
#
# Compressibility (1/GPa) = 0.04250873
#
# Stress axis : x y z
#
# Youngs Moduli (GPa) = 49.05309 100.58778 60.91282
#
# Poissons Ratio (x) = 0.16086 -0.04055
# Poissons Ratio (y) = 0.07845 0.07214
# Poissons Ratio (z) = -0.03265 0.11913
#
# Static dielectric constant tensor:
#      x y z
#    x 1.783220 0.026000 0.011640 
#    y 0.026000 1.845400 0.048820 
#    z 0.011640 0.048820 1.921760 
# 
# From -- ./inp_files/190020.got.cif
#   From: 2010.05.17/outbox.cif.g08.bks.cpg/sg2_96_cif.got.tgz:190020.got - 2010.06.03 11:33:40.
