data_PCOD9033622
_publ_section_title
;
Structure prediction by ZEFSAII (Michael W. Deem and Ramdas Pophale) SiO2 
 PCOD9033622
Probable space group: P -1
;
_chemical_formula_sum "Si O2"
_cell_formula_units_Z 15
_cell_length_a 7.060495
_cell_length_b 18.995950
_cell_length_c 8.663757
_cell_angle_alpha 120.804187
_cell_angle_beta 54.626670
_cell_angle_gamma 133.063271
_cell_volume 678.789899
_symmetry_space_group_name_H-M "P -1"
_symmetry_group_IT_number 2
_symmetry_cell_setting 'triclinic'
loop_
_space_group_symop_operation_xyz
x,y,z
-x,-y,-z
loop_
_atom_site_type_symbol
_atom_site_label
_atom_site_fract_x
_atom_site_fract_y
_atom_site_fract_z
Si Si1 0.062152 0.722994 0.466387
Si Si2 0.339763 0.648600 0.063596
Si Si3 0.778297 0.137435 0.928483
Si Si4 0.189384 0.920573 0.496358
Si Si5 0.853685 0.986554 0.891410
Si Si6 0.972071 0.459001 0.215478
Si Si7 0.075031 0.319701 0.182946
Si Si8 0.500000 0.500000 0.500000
O O1 0.304599 0.729252 0.253089
O O2 0.055547 0.817181 0.532965
O O3 0.117103 0.726431 0.627665
O O4 0.775986 0.615411 0.455611
O O5 0.221370 0.563153 0.151705
O O6 0.146789 0.608274 0.958271
O O7 0.632147 0.665678 0.895899
O O8 0.810304 0.104173 0.709472
O O9 0.839489 0.079261 0.960375
O O10 0.462181 0.104960 0.055157
O O11 0.973158 0.250260 0.004953
O O12 0.014514 0.967345 0.665268
O O13 0.500000 0.000000 0.500000
O O14 0.000000 0.000000 0.000000
O O15 0.721371 0.469040 0.397224
O O16 0.080940 0.415224 0.238439
#
# Coordination Sequence:
#
# PCOD9033622 Si02
#       8
#     2   2   2   2   2   2   2   1
#     4  11  26  44  71 105 137 190 230 288 352 407
#     4  10  23  45  67  98 143 178 230 291 341 419
#     4  11  27  44  70 109 134 186 236 287 354 416
#     4  12  26  46  75 101 142 188 233 291 350 415
#     4  11  24  47  73  99 143 184 230 291 349 417
#     4  10  22  44  69 100 135 188 229 284 352 408
#     4  12  25  43  71 102 140 178 238 286 350 421
#     4  10  22  46  70  98 142 178 234 282 340 420
#
# _framework density 22.09815
#
# number of rings (size 3 to 8) (size 9 to 14) (size 15 to 20)
#    0.000    1.067    2.667    2.400    5.600    5.333 
#    9.600    0.000    0.000    0.000    0.000    0.000 
#    0.000    0.000    0.000    0.000    0.000    0.000 
#
# Total GULP energy -83591.686730 kJ/mol
# GULP energy per Si atom -5572.779115 kJ/mol
# Density = 2.204785 g / cm^3
# Si number density = 22.098150 Si / 1000 Ang^3
#
#
#
# Elastic Constant Matrix: (Units=GPa)
#
#
# Indices 1 2 3 4 5 6 
#
# 1 54.9827 9.7287 14.7235 2.3965 2.6980 6.1500
# 2 9.7287 49.5301 -28.9928 5.0949 6.6556 10.3104
# 3 14.7235 -28.9928 76.0372 -4.2410 -5.7138 23.3933
# 4 2.3965 5.0949 -4.2410 25.3241 1.5413 3.7997
# 5 2.6980 6.6556 -5.7138 1.5413 40.1636 -9.2697
# 6 6.1500 10.3104 23.3933 3.7997 -9.2697 3.7669
#
#
#
# Elastic Compliance Matrix: (Units=1/GPa)
#
#
# Indices 1 2 3 4 5 6 
#
# 1 0.020882 -0.004155 -0.003539 -0.000415 -0.002952 -0.007584
# 2 -0.004155 0.010810 -0.005489 -0.008127 0.005820 0.033803
# 3 -0.003539 -0.005489 0.002328 -0.003548 0.009040 0.032171
# 4 -0.000415 -0.008127 -0.003548 0.039101 0.001487 0.009174
# 5 -0.002952 0.005820 0.009040 0.001487 0.021974 -0.014674
# 6 -0.007584 0.033803 0.032171 0.009174 -0.014674 -0.059823
#
#
# Mechanical properties :
#
#
# Convention : Reuss Voigt Hill
#
# Bulk Modulus (GPa) = 130.67377 19.05210 74.86293
# Shear Modulus (GPa) = 77.89331 26.19030 52.04181
#
# Velocity S-wave (km/s) = 5.94351 3.44638 4.85813
# Velocity P-wave (km/s) = 10.31320 4.94742 8.08824
#
# Compressibility (1/GPa) = 0.00765265
#
# Stress axis : x y z
#
# Youngs Moduli (GPa) = 47.88839 92.50383 429.61801
#
# Poissons Ratio (x) = 0.38438 1.52062
# Poissons Ratio (y) = 0.19899 2.35813
# Poissons Ratio (z) = 0.16950 0.50774
#
# Static dielectric constant tensor:
#      x y z
#    x 17.748560 40.009410 43.357990 
#    y 40.009410 101.952370 108.546990 
#    z 43.357990 108.546990 119.471850 
# 
# From -- ./inp_files/97929.got.cif
#   From: 2010.05.17/outbox.cif.g08.bks.cpg/sg2_49_cif.got.tgz:97929.got - 2010.06.03 11:33:40.
