data_PCOD9033697
_publ_section_title
;
Structure prediction by ZEFSAII (Michael W. Deem and Ramdas Pophale) SiO2 
 PCOD9033697
Probable space group: P -1
;
_chemical_formula_sum "Si O2"
_cell_formula_units_Z 15
_cell_length_a 20.900790
_cell_length_b 13.471429
_cell_length_c 8.976894
_cell_angle_alpha 131.653961
_cell_angle_beta 152.586323
_cell_angle_gamma 32.425220
_cell_volume 586.133458
_symmetry_space_group_name_H-M "P -1"
_symmetry_group_IT_number 2
_symmetry_cell_setting 'triclinic'
loop_
_space_group_symop_operation_xyz
x,y,z
-x,-y,-z
loop_
_atom_site_type_symbol
_atom_site_label
_atom_site_fract_x
_atom_site_fract_y
_atom_site_fract_z
Si Si1 0.459842 0.243002 0.523638
Si Si2 0.556686 0.508460 0.461851
Si Si3 0.000000 0.000000 0.500000
Si Si4 0.967120 0.582786 0.231087
Si Si5 0.086447 0.923330 0.268808
Si Si6 0.275649 0.055134 0.713495
Si Si7 0.719805 0.439927 0.299449
Si Si8 0.286131 0.122672 0.475124
O O1 0.453604 0.330031 0.442833
O O2 0.440010 0.366982 0.733443
O O3 0.657889 0.008383 0.682991
O O4 0.254035 0.302038 0.177153
O O5 0.500000 0.500000 0.500000
O O6 0.788187 0.300496 0.701230
O O7 0.408351 0.529155 0.069758
O O8 0.954484 0.031756 0.253110
O O9 0.159042 0.763584 0.572569
O O10 0.105807 0.581709 0.418204
O O11 0.101687 0.355982 0.307797
O O12 0.896894 0.716693 0.363696
O O13 0.238184 0.944291 0.610024
O O14 0.000000 0.000000 0.000000
O O15 0.255322 0.059214 0.497933
O O16 0.501461 0.947855 0.119846
#
# Coordination Sequence:
#
# PCOD9033697 Si02
#       8
#     2   2   1   2   2   2   2   2
#     4  11  26  46  70 112 149 193 253 306 385 458
#     4  12  27  48  75 107 153 195 257 317 382 462
#     4  12  26  48  78 106 154 194 260 316 382 460
#     4  11  24  44  76 104 148 199 253 306 386 454
#     4  12  26  47  76 113 146 200 254 317 385 460
#     4  10  22  44  69 109 147 190 256 302 385 452
#     4  12  26  50  74 110 148 205 246 318 390 453
#     4  10  23  43  71 106 149 195 244 317 373 458
#
# _framework density 25.591441
#
# number of rings (size 3 to 8) (size 9 to 14) (size 15 to 20)
#    0.000    0.800    2.667    3.600    1.867    3.733 
#    0.000    0.000    0.000    0.000    0.000    0.000 
#    0.000    0.000    0.000    0.000    0.000    0.000 
#
# Total GULP energy -83809.442265 kJ/mol
# GULP energy per Si atom -5587.296151 kJ/mol
# Density = 2.553319 g / cm^3
# Si number density = 25.591441 Si / 1000 Ang^3
#
#
#
# Elastic Constant Matrix: (Units=GPa)
#
#
# Indices 1 2 3 4 5 6 
#
# 1 94.4387 25.2464 46.5001 9.2096 -3.8787 -25.7038
# 2 25.2464 176.4641 17.7447 -25.0986 -13.9065 -23.7296
# 3 46.5001 17.7447 65.6042 -1.1273 13.0247 3.3849
# 4 9.2096 -25.0986 -1.1273 31.7369 2.9198 -3.4533
# 5 -3.8787 -13.9065 13.0247 2.9198 48.8371 11.9204
# 6 -25.7038 -23.7296 3.3849 -3.4533 11.9204 53.5250
#
#
#
# Elastic Compliance Matrix: (Units=1/GPa)
#
#
# Indices 1 2 3 4 5 6 
#
# 1 0.023358 -0.000834 -0.017842 -0.007312 0.004236 0.010561
# 2 -0.000834 0.007364 -0.001724 0.006212 0.001370 0.003069
# 3 -0.017842 -0.001724 0.030514 0.004645 -0.008088 -0.009162
# 4 -0.007312 0.006212 0.004645 0.039208 -0.002914 0.002128
# 5 0.004236 0.001370 -0.008088 -0.002914 0.024121 -0.002407
# 6 0.010561 0.003069 -0.009162 0.002128 -0.002407 0.026368
#
#
# Mechanical properties :
#
#
# Convention : Reuss Voigt Hill
#
# Bulk Modulus (GPa) = 48.93478 57.27660 53.10569
# Shear Modulus (GPa) = 25.18304 43.28753 34.23529
#
# Velocity S-wave (km/s) = 3.14035 4.11723 3.66151
# Velocity P-wave (km/s) = 5.68437 6.71058 6.21868
#
# Compressibility (1/GPa) = 0.02043536
#
# Stress axis : x y z
#
# Youngs Moduli (GPa) = 42.81111 135.80012 32.77170
#
# Poissons Ratio (x) = 0.11322 0.58472
# Poissons Ratio (y) = 0.03569 0.05651
# Poissons Ratio (z) = 0.76385 0.23418
#
# Static dielectric constant tensor:
#      x y z
#    x 2.002920 -0.012390 0.010810 
#    y -0.012390 2.007200 0.046610 
#    z 0.010810 0.046610 2.059900 
# 
# From -- ./inp_files/347694.got.cif
#   From: 2010.05.17/outbox.cif.g08.bks.cpg/sg2_174_cif.got.tgz:347694.got - 2010.06.03 11:33:40.
