data_PCOD9033461
_publ_section_title
;
Structure prediction by ZEFSAII (Michael W. Deem and Ramdas Pophale) SiO2 
 PCOD9033461
Probable space group: P -1
;
_chemical_formula_sum "Si O2"
_cell_formula_units_Z 16
_cell_length_a 5.732314
_cell_length_b 12.869005
_cell_length_c 8.747172
_cell_angle_alpha 86.379275
_cell_angle_beta 84.173910
_cell_angle_gamma 72.963173
_cell_volume 613.389413
_symmetry_space_group_name_H-M "P -1"
_symmetry_group_IT_number 2
_symmetry_cell_setting 'triclinic'
loop_
_space_group_symop_operation_xyz
x,y,z
-x,-y,-z
loop_
_atom_site_type_symbol
_atom_site_label
_atom_site_fract_x
_atom_site_fract_y
_atom_site_fract_z
Si Si1 0.158807 0.760411 0.661645
Si Si2 0.312339 0.921545 0.873265
Si Si3 0.880711 0.123763 0.809282
Si Si4 0.429708 0.961215 0.347134
Si Si5 0.135548 0.244371 0.598051
Si Si6 0.429346 0.391763 0.561780
Si Si7 0.630374 0.621568 0.074161
Si Si8 0.137739 0.630168 0.958496
O O1 0.219649 0.848426 0.762241
O O2 0.388051 0.701919 0.543955
O O3 0.108816 0.668244 0.781955
O O4 0.935281 0.797861 0.555129
O O5 0.546703 0.949508 0.787112
O O6 0.320013 0.875652 0.047995
O O7 0.121550 0.042354 0.873616
O O8 0.822228 0.063182 0.668675
O O9 0.931146 0.231749 0.732712
O O10 0.622579 0.839990 0.340089
O O11 0.500000 0.000000 0.500000
O O12 0.171063 0.362758 0.558008
O O13 0.500000 0.500000 0.500000
O O14 0.440784 0.384937 0.744616
O O15 0.758327 0.499206 0.016876
O O16 0.375721 0.665042 0.995969
O O17 0.859657 0.672088 0.038204
#
# Coordination Sequence:
#
# PCOD9033461 Si02
#       8
#     2   2   2   2   2   2   2   2
#     4  12  26  43  68 106 144 190 253 307 370 445
#     4  10  23  41  69 102 140 184 244 299 367 449
#     4  10  22  44  68 102 141 189 234 299 375 451
#     4  11  21  42  70 100 141 184 231 299 370 448
#     4  11  26  41  67  99 140 187 240 300 376 445
#     4  12  27  46  69 103 142 194 246 315 377 448
#     4  10  24  48  74 101 143 194 247 307 388 443
#     4  10  24  46  74 105 141 190 249 314 373 452
#
# _framework density 26.084569999999999
#
# number of rings (size 3 to 8) (size 9 to 14) (size 15 to 20)
#    0.000    1.250    1.250    3.375    5.250    4.500 
#    0.000    0.000    0.000    0.000    0.000    0.000 
#    0.000    0.000    0.000    0.000    0.000    0.000 
#
# Total GULP energy -89343.190458 kJ/mol
# GULP energy per Si atom -5583.949404 kJ/mol
# Density = 2.602520 g / cm^3
# Si number density = 26.084570 Si / 1000 Ang^3
#
#
#
# Elastic Constant Matrix: (Units=GPa)
#
#
# Indices 1 2 3 4 5 6 
#
# 1 126.3765 36.2011 72.5518 -17.9707 -3.7295 21.0112
# 2 36.2011 80.0996 23.6986 -7.5162 -10.1643 26.9418
# 3 72.5518 23.6986 154.7455 -23.6749 -10.1982 8.5881
# 4 -17.9707 -7.5162 -23.6749 41.2964 10.0734 -5.1253
# 5 -3.7295 -10.1643 -10.1982 10.0734 48.8784 3.5223
# 6 21.0112 26.9418 8.5881 -5.1253 3.5223 45.9037
#
#
#
# Elastic Compliance Matrix: (Units=1/GPa)
#
#
# Indices 1 2 3 4 5 6 
#
# 1 0.012316 -0.003195 -0.004919 0.001872 -0.000952 -0.002560
# 2 -0.003195 0.017629 -0.000517 -0.000617 0.004102 -0.009171
# 3 -0.004919 -0.000517 0.009303 0.003052 0.000750 0.001098
# 4 0.001872 -0.000617 0.003052 0.028285 -0.005358 0.002503
# 5 -0.000952 0.004102 0.000750 -0.005358 0.022822 -0.004462
# 6 -0.002560 -0.009171 0.001098 0.002503 -0.004462 0.028756
#
#
# Mechanical properties :
#
#
# Convention : Reuss Voigt Hill
#
# Bulk Modulus (GPa) = 45.48403 69.56940 57.52671
# Shear Modulus (GPa) = 34.79449 42.46705 38.63077
#
# Velocity S-wave (km/s) = 3.65624 4.03929 3.85253
# Velocity P-wave (km/s) = 5.94130 6.96298 6.47233
#
# Compressibility (1/GPa) = 0.02198574
#
# Stress axis : x y z
#
# Youngs Moduli (GPa) = 81.19623 56.72524 107.49034
#
# Poissons Ratio (x) = 0.18124 0.52876
# Poissons Ratio (y) = 0.25942 0.05556
# Poissons Ratio (z) = 0.39942 0.02932
#
# Static dielectric constant tensor:
#      x y z
#    x 2.118920 0.030530 -0.075500 
#    y 0.030530 2.102170 0.037600 
#    z -0.075500 0.037600 2.065960 
# 
# From -- ./inp_files/135086.got.cif
#   From: 2010.05.17/outbox.cif.g08.bks.cpg/sg2_68_cif.got.tgz:135086.got - 2010.06.03 11:33:40.
