data_PCOD9033914
_publ_section_title
;
Structure prediction by ZEFSAII (Michael W. Deem and Ramdas Pophale) SiO2 
 PCOD9033914
Probable space group: P -1
;
_chemical_formula_sum "Si O2"
_cell_formula_units_Z 16
_cell_length_a 12.372342
_cell_length_b 8.679184
_cell_length_c 17.371292
_cell_angle_alpha 54.458252
_cell_angle_beta 148.201317
_cell_angle_gamma 125.523161
_cell_volume 783.167338
_symmetry_space_group_name_H-M "P -1"
_symmetry_group_IT_number 2
_symmetry_cell_setting 'triclinic'
loop_
_space_group_symop_operation_xyz
x,y,z
-x,-y,-z
loop_
_atom_site_type_symbol
_atom_site_label
_atom_site_fract_x
_atom_site_fract_y
_atom_site_fract_z
Si Si1 0.185550 0.711548 0.833389
Si Si2 0.714667 0.024526 0.904272
Si Si3 0.589173 0.584296 0.112990
Si Si4 0.216599 0.648881 0.583151
Si Si5 0.978352 0.270705 0.860469
Si Si6 0.205717 0.911571 0.630506
Si Si7 0.277776 0.864515 0.407925
Si Si8 0.113676 0.016865 0.818650
O O1 0.182943 0.743277 0.730587
O O2 0.052442 0.502325 0.837003
O O3 0.141011 0.900671 0.792783
O O4 0.418468 0.702090 0.002483
O O5 0.844243 0.185524 0.878847
O O6 0.459938 0.003762 0.756647
O O7 0.780186 0.065170 0.020556
O O8 0.820998 0.836728 0.999561
O O9 0.620368 0.429108 0.240375
O O10 0.797649 0.750999 0.189777
O O11 0.500000 0.500000 0.000000
O O12 0.175245 0.836749 0.547137
O O13 0.281778 0.697710 0.521514
O O14 0.000000 0.500000 0.500000
O O15 0.822034 0.214756 0.710151
O O16 0.000000 0.000000 0.500000
O O17 0.128409 0.003471 0.306438
O O18 0.500000 0.000000 0.500000
#
# Coordination Sequence:
#
# PCOD9033914 Si02
#       8
#     2   2   2   2   2   2   2   2
#     4  12  24  40  66  99 134 170 219 278 337 388
#     4  10  22  44  70  92 130 177 230 264 329 403
#     4  12  22  41  69  95 130 172 224 275 321 396
#     4  12  23  39  64  95 127 167 224 272 321 392
#     4  10  23  44  69  96 128 178 228 278 325 399
#     4  12  25  39  62  96 136 174 210 271 342 393
#     4  11  23  42  67  92 131 173 224 274 330 394
#     4  11  23  41  66  97 134 172 219 279 330 395
#
# _framework density 20.429860000000001
#
# number of rings (size 3 to 8) (size 9 to 14) (size 15 to 20)
#    0.000    0.750    3.750    4.875    0.000    2.500 
#    0.000    3.750    0.000    0.000    0.000    0.000 
#    0.000    0.000    0.000    0.000    0.000    0.000 
#
# Total GULP energy -89172.550822 kJ/mol
# GULP energy per Si atom -5573.284426 kJ/mol
# Density = 2.038336 g / cm^3
# Si number density = 20.429860 Si / 1000 Ang^3
#
#
#
# Elastic Constant Matrix: (Units=GPa)
#
#
# Indices 1 2 3 4 5 6 
#
# 1 54.2365 19.7923 22.0526 6.2004 -7.3511 19.6779
# 2 19.7923 67.5556 25.0825 9.9920 2.9123 26.5772
# 3 22.0526 25.0825 124.7404 7.1366 12.4427 15.4197
# 4 6.2004 9.9920 7.1366 34.8907 10.8550 0.3313
# 5 -7.3511 2.9123 12.4427 10.8550 48.9430 -3.4949
# 6 19.6779 26.5772 15.4197 0.3313 -3.4949 41.8603
#
#
#
# Elastic Compliance Matrix: (Units=1/GPa)
#
#
# Indices 1 2 3 4 5 6 
#
# 1 0.024888 -0.002263 -0.003116 -0.004634 0.005075 -0.008654
# 2 -0.002263 0.021750 -0.002120 -0.005018 -0.000839 -0.011995
# 3 -0.003116 -0.002120 0.009376 0.000128 -0.002817 -0.000879
# 4 -0.004634 -0.005018 0.000128 0.033178 -0.007472 0.004431
# 5 0.005075 -0.000839 -0.002817 -0.007472 0.023705 0.001223
# 6 -0.008654 -0.011995 -0.000879 0.004431 0.001223 0.035964
#
#
# Mechanical properties :
#
#
# Convention : Reuss Voigt Hill
#
# Bulk Modulus (GPa) = 24.38088 42.26527 33.32307
# Shear Modulus (GPa) = 28.16407 37.11247 32.63827
#
# Velocity S-wave (km/s) = 3.71694 4.26676 4.00131
# Velocity P-wave (km/s) = 5.51187 6.70869 6.13951
#
# Compressibility (1/GPa) = 0.04101574
#
# Stress axis : x y z
#
# Youngs Moduli (GPa) = 40.17958 45.97700 106.65380
#
# Poissons Ratio (x) = 0.10406 0.33235
# Poissons Ratio (y) = 0.09094 0.22609
# Poissons Ratio (z) = 0.12520 0.09746
#
# Static dielectric constant tensor:
#      x y z
#    x 1.730150 0.014590 0.012690 
#    y 0.014590 1.810460 -0.040310 
#    z 0.012690 -0.040310 1.769570 
# 
# From -- ./inp_files/566593.got.cif
#   From: 2010.05.17/outbox.cif.g08.bks.cpg/sg2_284_cif.got.tgz:566593.got - 2010.06.03 11:33:40.
