data_PCOD9033470
_publ_section_title
;
Structure prediction by ZEFSAII (Michael W. Deem and Ramdas Pophale) SiO2 
 PCOD9033470
Probable space group: P -1
;
_chemical_formula_sum "Si O2"
_cell_formula_units_Z 14
_cell_length_a 15.058945
_cell_length_b 5.047424
_cell_length_c 15.132119
_cell_angle_alpha 115.847485
_cell_angle_beta 148.906728
_cell_angle_gamma 68.239734
_cell_volume 534.555903
_symmetry_space_group_name_H-M "P -1"
_symmetry_group_IT_number 2
_symmetry_cell_setting 'triclinic'
loop_
_space_group_symop_operation_xyz
x,y,z
-x,-y,-z
loop_
_atom_site_type_symbol
_atom_site_label
_atom_site_fract_x
_atom_site_fract_y
_atom_site_fract_z
Si Si1 0.557398 0.044925 0.782415
Si Si2 0.386107 0.851726 0.959140
Si Si3 0.169785 0.310326 0.637295
Si Si4 0.960517 0.864154 0.310120
Si Si5 0.936762 0.685237 0.795949
Si Si6 0.285110 0.791035 0.376583
Si Si7 0.717497 0.438386 0.841349
O O1 0.409635 0.929350 0.574798
O O2 0.698296 0.784177 0.859182
O O3 0.515052 0.100964 0.856725
O O4 0.620687 0.346820 0.835281
O O5 0.675385 0.461505 0.179637
O O6 0.500000 0.000000 0.000000
O O7 0.197973 0.975860 0.848386
O O8 0.130619 0.169183 0.677732
O O9 0.000000 0.500000 0.500000
O O10 0.135753 0.051590 0.499179
O O11 0.002760 0.549312 0.260377
O O12 0.780493 0.521317 0.687968
O O13 0.873796 0.985625 0.742454
O O14 0.091804 0.684532 0.998093
O O15 0.359390 0.726494 0.333349
#
# Coordination Sequence:
#
# PCOD9033470 Si02
#       7
#     2   2   2   2   2   2   2
#     4  12  26  48  76 107 154 199 242 307 383 444
#     4  11  25  46  71 106 145 193 252 306 374 448
#     4   9  21  41  71  96 136 186 252 305 368 433
#     4  10  22  44  68 103 137 200 243 307 373 436
#     4  12  25  45  74 109 152 191 253 303 371 443
#     4  12  27  45  74 117 149 193 249 313 367 447
#     4  12  24  49  79 106 151 199 250 303 377 445
#
# _framework density 26.189965999999998
#
# number of rings (size 3 to 8) (size 9 to 14) (size 15 to 20)
#    0.000    0.857    1.429    5.143    4.000    4.000 
#    2.571    0.000    0.000    0.000    0.000    0.000 
#    0.000    0.000    0.000    0.000    0.000    0.000 
#
# Total GULP energy -78319.258834 kJ/mol
# GULP energy per Si atom -5594.232774 kJ/mol
# Density = 2.613036 g / cm^3
# Si number density = 26.189966 Si / 1000 Ang^3
#
#
#
# Elastic Constant Matrix: (Units=GPa)
#
#
# Indices 1 2 3 4 5 6 
#
# 1 100.0880 16.7195 41.6916 18.8416 -15.9298 -7.2421
# 2 16.7195 71.4129 26.5293 4.0813 -3.5152 -17.7132
# 3 41.6916 26.5293 200.4636 22.7921 -16.9683 3.1654
# 4 18.8416 4.0813 22.7921 48.5578 -1.2196 10.1483
# 5 -15.9298 -3.5152 -16.9683 -1.2196 36.4900 14.2965
# 6 -7.2421 -17.7132 3.1654 10.1483 14.2965 50.6431
#
#
#
# Elastic Compliance Matrix: (Units=1/GPa)
#
#
# Indices 1 2 3 4 5 6 
#
# 1 0.012389 -0.001646 -0.001577 -0.004032 0.004001 0.000973
# 2 -0.001646 0.016785 -0.002075 -0.001291 -0.002777 0.006808
# 3 -0.001577 -0.002075 0.006016 -0.001615 0.002528 -0.001717
# 4 -0.004032 -0.001291 -0.001615 0.024277 0.000501 -0.005933
# 5 0.004001 -0.002777 0.002528 0.000501 0.034106 -0.010286
# 6 0.000973 0.006808 -0.001717 -0.005933 -0.010286 0.026466
#
#
# Mechanical properties :
#
#
# Convention : Reuss Voigt Hill
#
# Bulk Modulus (GPa) = 40.66053 60.20506 50.43279
# Shear Modulus (GPa) = 36.01447 46.27309 41.14378
#
# Velocity S-wave (km/s) = 3.71229 4.20792 3.96785
# Velocity P-wave (km/s) = 5.82527 6.82983 6.34745
#
# Compressibility (1/GPa) = 0.02459387
#
# Stress axis : x y z
#
# Youngs Moduli (GPa) = 80.71533 59.57759 166.23112
#
# Poissons Ratio (x) = 0.09807 0.26218
# Poissons Ratio (y) = 0.13286 0.34489
# Poissons Ratio (z) = 0.12730 0.12361
#
# Static dielectric constant tensor:
#      x y z
#    x 2.047770 -0.007080 0.009390 
#    y -0.007080 1.863210 0.289190 
#    z 0.009390 0.289190 1.617770 
# 
# From -- ./inp_files/97674.got.cif
#   From: 2010.05.17/outbox.cif.g08.bks.cpg/sg2_49_cif.got.tgz:97674.got - 2010.06.03 11:33:40.
