data_PCOD9033708
_publ_section_title
;
Structure prediction by ZEFSAII (Michael W. Deem and Ramdas Pophale) SiO2 
 PCOD9033708
Probable space group: P -1
;
_chemical_formula_sum "Si O2"
_cell_formula_units_Z 16
_cell_length_a 6.315963
_cell_length_b 8.341621
_cell_length_c 18.270847
_cell_angle_alpha 131.564036
_cell_angle_beta 90.968585
_cell_angle_gamma 106.622550
_cell_volume 660.834269
_symmetry_space_group_name_H-M "P -1"
_symmetry_group_IT_number 2
_symmetry_cell_setting 'triclinic'
loop_
_space_group_symop_operation_xyz
x,y,z
-x,-y,-z
loop_
_atom_site_type_symbol
_atom_site_label
_atom_site_fract_x
_atom_site_fract_y
_atom_site_fract_z
Si Si1 0.410940 0.155662 0.351501
Si Si2 0.432047 0.171829 0.197189
Si Si3 0.629132 0.812782 0.270162
Si Si4 0.881998 0.631411 0.333177
Si Si5 0.880444 0.237124 0.009903
Si Si6 0.752820 0.651860 0.080574
Si Si7 0.183523 0.433450 0.200022
Si Si8 0.851728 0.623566 0.495646
O O1 0.364407 0.047235 0.237328
O O2 0.599456 0.417429 0.419325
O O3 0.198316 0.184841 0.398749
O O4 0.544733 0.017275 0.349637
O O5 0.692912 0.360367 0.251326
O O6 0.274438 0.317868 0.229005
O O7 0.354444 0.980925 0.075454
O O8 0.771441 0.770872 0.325221
O O9 0.743718 0.832913 0.197166
O O10 0.400344 0.572651 0.191958
O O11 0.937460 0.709781 0.440827
O O12 0.098822 0.620396 0.290022
O O13 0.068330 0.238537 0.950983
O O14 0.838440 0.472575 0.068865
O O15 0.986279 0.249622 0.094054
O O16 0.500000 0.500000 0.000000
O O17 0.000000 0.500000 0.500000
#
# Coordination Sequence:
#
# PCOD9033708 Si02
#       8
#     2   2   2   2   2   2   2   2
#     4  10  23  42  66  93 122 159 205 257 318 372
#     4  10  23  39  60  91 124 166 208 261 307 362
#     4  11  23  41  63  90 132 165 203 258 310 368
#     4  10  23  42  62  91 128 164 205 260 316 370
#     4  11  23  37  62  90 124 170 218 254 298 367
#     4  11  22  38  58  88 126 166 211 257 303 352
#     4  11  22  40  59  91 128 170 209 253 304 367
#     4  10  22  44  69  93 119 157 206 259 316 379
#
# _framework density 24.211818999999998
#
# number of rings (size 3 to 8) (size 9 to 14) (size 15 to 20)
#    0.000    1.500    2.500    1.875    1.750    7.000 
#    0.000    1.250    0.000    0.000    0.000    0.000 
#    0.000    0.000    0.000    0.000    0.000    0.000 
#
# Total GULP energy -89535.319591 kJ/mol
# GULP energy per Si atom -5595.957474 kJ/mol
# Density = 2.415671 g / cm^3
# Si number density = 24.211819 Si / 1000 Ang^3
#
#
#
# Elastic Constant Matrix: (Units=GPa)
#
#
# Indices 1 2 3 4 5 6 
#
# 1 77.8739 25.3647 35.7335 -20.3265 -25.1703 -10.2795
# 2 25.3647 57.6740 16.9155 -11.6010 -14.6185 -15.3993
# 3 35.7335 16.9155 84.7158 -19.0780 -9.5710 4.9418
# 4 -20.3265 -11.6010 -19.0780 41.4541 2.5830 7.0353
# 5 -25.1703 -14.6185 -9.5710 2.5830 44.0564 14.7644
# 6 -10.2795 -15.3993 4.9418 7.0353 14.7644 40.1053
#
#
#
# Elastic Compliance Matrix: (Units=1/GPa)
#
#
# Indices 1 2 3 4 5 6 
#
# 1 0.021438 -0.004119 -0.005823 0.006076 0.009200 0.000178
# 2 -0.004119 0.022642 -0.002508 0.001870 0.002227 0.006799
# 3 -0.005823 -0.002508 0.016297 0.004845 0.001002 -0.005682
# 4 0.006076 0.001870 0.004845 0.030479 0.005232 -0.005595
# 5 0.009200 0.002227 0.001002 0.005232 0.031800 -0.009535
# 6 0.000178 0.006799 -0.005682 -0.005595 -0.009535 0.032782
#
#
# Mechanical properties :
#
#
# Convention : Reuss Voigt Hill
#
# Bulk Modulus (GPa) = 28.18654 41.81012 34.99833
# Shear Modulus (GPa) = 26.01979 34.60650 30.31314
#
# Velocity S-wave (km/s) = 3.28178 3.78474 3.54220
# Velocity P-wave (km/s) = 5.10167 6.03365 5.58713
#
# Compressibility (1/GPa) = 0.03547792
#
# Stress axis : x y z
#
# Youngs Moduli (GPa) = 46.64655 44.16628 61.36204
#
# Poissons Ratio (x) = 0.18191 0.35730
# Poissons Ratio (y) = 0.19213 0.15387
# Poissons Ratio (z) = 0.27161 0.11075
#
# Static dielectric constant tensor:
#      x y z
#    x 1.923040 0.021580 0.006720 
#    y 0.021580 1.923900 0.021690 
#    z 0.006720 0.021690 1.941720 
# 
# From -- ./inp_files/47888.got.cif
#   From: 2010.05.17/outbox.cif.g08.bks.cpg/sg2_24_cif.got.tgz:47888.got - 2010.06.03 11:33:40.
