data_PCOD9033942
_publ_section_title
;
Structure prediction by ZEFSAII (Michael W. Deem and Ramdas Pophale) SiO2 
 PCOD9033942
Probable space group: P -1
;
_chemical_formula_sum "Si O2"
_cell_formula_units_Z 16
_cell_length_a 8.663227
_cell_length_b 20.438362
_cell_length_c 9.165025
_cell_angle_alpha 57.839629
_cell_angle_beta 47.359162
_cell_angle_gamma 35.693216
_cell_volume 695.878196
_symmetry_space_group_name_H-M "P -1"
_symmetry_group_IT_number 2
_symmetry_cell_setting 'triclinic'
loop_
_space_group_symop_operation_xyz
x,y,z
-x,-y,-z
loop_
_atom_site_type_symbol
_atom_site_label
_atom_site_fract_x
_atom_site_fract_y
_atom_site_fract_z
Si Si1 0.989280 0.086504 0.327666
Si Si2 0.856433 0.714358 0.735739
Si Si3 0.370551 0.218924 0.620898
Si Si4 0.256869 0.120833 0.588073
Si Si5 0.545959 0.570615 0.809082
Si Si6 0.130196 0.890409 0.963687
Si Si7 0.112089 0.215133 0.070476
Si Si8 0.062201 0.555583 0.549850
O O1 0.653999 0.200131 0.463765
O O2 0.984386 0.077787 0.166929
O O3 0.198384 0.105829 0.199205
O O4 0.000000 0.000000 0.500000
O O5 0.904706 0.783441 0.542794
O O6 0.497287 0.790545 0.850983
O O7 0.056088 0.597848 0.660877
O O8 0.901377 0.719035 0.870404
O O9 0.425414 0.136181 0.567629
O O10 0.093027 0.341383 0.585735
O O11 0.325542 0.190856 0.837095
O O12 0.500000 0.000000 0.500000
O O13 0.015265 0.141264 0.817576
O O14 0.223614 0.698315 0.888703
O O15 0.834489 0.542807 0.716693
O O16 0.624400 0.544839 0.615680
O O17 0.500000 0.500000 0.000000
O O18 0.000000 0.000000 0.000000
#
# Coordination Sequence:
#
# PCOD9033942 Si02
#       8
#     2   2   2   2   2   2   2   2
#     4  12  27  42  66  96 138 180 222 274 321 389
#     4  11  26  41  63  97 139 170 218 278 329 392
#     4  11  22  42  66  94 132 170 223 270 321 395
#     4  11  22  40  65  89 126 183 224 264 321 389
#     4  11  22  43  77  97 124 172 222 270 339 401
#     4  12  23  41  62  90 130 180 227 267 327 383
#     4  12  26  42  66 103 133 173 225 274 334 394
#     4  10  22  44  70  96 126 171 216 274 334 396
#
# _framework density 22.992529000000001
#
# number of rings (size 3 to 8) (size 9 to 14) (size 15 to 20)
#    0.000    0.750    7.500    0.000    5.250    1.000 
#    0.000    0.625    0.000    0.000    0.000    0.000 
#    0.000    0.000    0.000    0.000    0.000    0.000 
#
# Total GULP energy -89419.372235 kJ/mol
# GULP energy per Si atom -5588.710765 kJ/mol
# Density = 2.294020 g / cm^3
# Si number density = 22.992529 Si / 1000 Ang^3
#
#
#
# Elastic Constant Matrix: (Units=GPa)
#
#
# Indices 1 2 3 4 5 6 
#
# 1 68.1125 3.0849 39.6922 2.0897 9.2208 28.2461
# 2 3.0849 52.7722 16.6807 0.6492 -1.7650 22.6856
# 3 39.6922 16.6807 175.3852 -3.3290 -11.4671 19.2909
# 4 2.0897 0.6492 -3.3290 39.6351 13.8537 1.7966
# 5 9.2208 -1.7650 -11.4671 13.8537 41.4908 8.0238
# 6 28.2461 22.6856 19.2909 1.7966 8.0238 37.9290
#
#
#
# Elastic Compliance Matrix: (Units=1/GPa)
#
#
# Indices 1 2 3 4 5 6 
#
# 1 0.026705 0.009615 -0.004607 -0.000094 -0.002360 -0.022791
# 2 0.009615 0.029785 -0.002076 -0.001374 0.003783 -0.024655
# 3 -0.004607 -0.002076 0.007072 -0.000146 0.002846 0.000481
# 4 -0.000094 -0.001374 -0.000146 0.028655 -0.009978 0.001720
# 5 -0.002360 0.003783 0.002846 -0.009978 0.030437 -0.007919
# 6 -0.022791 -0.024655 0.000481 0.001720 -0.007919 0.059433
#
#
# Mechanical properties :
#
#
# Convention : Reuss Voigt Hill
#
# Bulk Modulus (GPa) = 14.40385 46.13170 30.26777
# Shear Modulus (GPa) = 25.07944 39.59845 32.33895
#
# Velocity S-wave (km/s) = 3.30626 4.15448 3.75440
# Velocity P-wave (km/s) = 4.56654 6.56660 5.65569
#
# Compressibility (1/GPa) = 0.06942589
#
# Stress axis : x y z
#
# Youngs Moduli (GPa) = 37.44631 33.57358 141.39579
#
# Poissons Ratio (x) = -0.32281 0.65147
# Poissons Ratio (y) = -0.36004 0.29350
# Poissons Ratio (z) = 0.17253 0.06969
#
# Static dielectric constant tensor:
#      x y z
#    x 1.912790 -0.056310 -0.018140 
#    y -0.056310 2.004190 -0.012340 
#    z -0.018140 -0.012340 1.833250 
# 
# From -- ./inp_files/201796.got.cif
#   From: 2010.05.17/outbox.cif.g08.bks.cpg/sg2_101_cif.got.tgz:201796.got - 2010.06.03 11:33:40.
