data_PCOD9033879
_publ_section_title
;
Structure prediction by ZEFSAII (Michael W. Deem and Ramdas Pophale) SiO2 
 PCOD9033879
Probable space group: P -1
;
_chemical_formula_sum "Si O2"
_cell_formula_units_Z 12
_cell_length_a 11.375305
_cell_length_b 11.717817
_cell_length_c 6.115005
_cell_angle_alpha 109.906541
_cell_angle_beta 71.902522
_cell_angle_gamma 140.923015
_cell_volume 481.627191
_symmetry_space_group_name_H-M "P -1"
_symmetry_group_IT_number 2
_symmetry_cell_setting 'triclinic'
loop_
_space_group_symop_operation_xyz
x,y,z
-x,-y,-z
loop_
_atom_site_type_symbol
_atom_site_label
_atom_site_fract_x
_atom_site_fract_y
_atom_site_fract_z
Si Si1 0.606695 0.151658 0.847533
Si Si2 0.121142 0.775763 0.569833
Si Si3 0.534538 0.316100 0.693853
Si Si4 0.117487 0.061224 0.689605
Si Si5 0.201667 0.544665 0.743008
Si Si6 0.880822 0.683389 0.983702
O O1 0.689964 0.132502 0.589490
O O2 0.502044 0.188494 0.815255
O O3 0.773729 0.338656 0.007644
O O4 0.500000 0.000000 0.000000
O O5 0.967435 0.581568 0.409235
O O6 0.056189 0.730352 0.830277
O O7 0.096573 0.900437 0.618980
O O8 0.343768 0.240881 0.690486
O O9 0.617280 0.318749 0.427342
O O10 0.702324 0.524456 0.826791
O O11 0.060658 0.133948 0.921716
O O12 0.000000 0.000000 0.500000
O O13 0.181332 0.405187 0.799193
#
# Coordination Sequence:
#
# PCOD9033879 Si02
#       6
#     2   2   2   2   2   2
#     4  11  25  46  73 105 140 183 237 297 356 417
#     4  11  24  43  70 103 140 185 235 293 350 417
#     4  10  25  46  73 105 140 186 238 290 353 419
#     4  12  24  46  71 104 145 190 235 290 348 419
#     4  10  22  44  70 105 139 185 232 290 356 416
#     4  10  23  46  69 105 141 190 234 288 350 415
#
# _framework density 24.915535999999999
#
# number of rings (size 3 to 8) (size 9 to 14) (size 15 to 20)
#    0.000    1.333    1.667    2.500    0.000   12.000 
#   15.000    0.000    0.000    0.000    0.000    0.000 
#    0.000    0.000    0.000    0.000    0.000    0.000 
#
# Total GULP energy -67002.218458 kJ/mol
# GULP energy per Si atom -5583.518205 kJ/mol
# Density = 2.485883 g / cm^3
# Si number density = 24.915536 Si / 1000 Ang^3
#
#
#
# Elastic Constant Matrix: (Units=GPa)
#
#
# Indices 1 2 3 4 5 6 
#
# 1 126.7814 37.8695 60.5451 -0.6459 8.3254 -5.4348
# 2 37.8695 94.4844 38.0190 12.7288 6.4985 -23.1652
# 3 60.5451 38.0190 122.1332 14.6188 -19.0590 8.4505
# 4 -0.6459 12.7288 14.6188 56.9688 -5.7198 1.0003
# 5 8.3254 6.4985 -19.0590 -5.7198 40.4995 -1.7557
# 6 -5.4348 -23.1652 8.4505 1.0003 -1.7557 43.0611
#
#
#
# Elastic Compliance Matrix: (Units=1/GPa)
#
#
# Indices 1 2 3 4 5 6 
#
# 1 0.011853 -0.001641 -0.006439 0.001632 -0.004902 0.001639
# 2 -0.001641 0.016496 -0.005386 -0.002978 -0.004849 0.009595
# 3 -0.006439 -0.005386 0.015066 -0.001746 0.008760 -0.006269
# 4 0.001632 -0.002978 -0.001746 0.018904 0.001929 -0.001414
# 5 -0.004902 -0.004849 0.008760 0.001929 0.030710 -0.003739
# 6 0.001639 0.009595 -0.006269 -0.001414 -0.003739 0.029702
#
#
# Mechanical properties :
#
#
# Convention : Reuss Voigt Hill
#
# Bulk Modulus (GPa) = 60.66513 68.47401 64.56957
# Shear Modulus (GPa) = 32.22558 41.90360 37.06459
#
# Velocity S-wave (km/s) = 3.60028 4.10546 3.86114
# Velocity P-wave (km/s) = 6.45630 7.07214 6.77123
#
# Compressibility (1/GPa) = 0.01648393
#
# Stress axis : x y z
#
# Youngs Moduli (GPa) = 84.36614 60.62207 66.37457
#
# Poissons Ratio (x) = 0.09946 0.42738
# Poissons Ratio (y) = 0.13842 0.35748
# Poissons Ratio (z) = 0.54323 0.32650
#
# Static dielectric constant tensor:
#      x y z
#    x 1.981660 -0.011210 -0.010090 
#    y -0.011210 2.049350 -0.061060 
#    z -0.010090 -0.061060 1.993390 
# 
# From -- ./inp_files/71737.got.cif
#   From: 2010.05.17/outbox.cif.g08.bks.cpg/sg2_36_cif.got.tgz:71737.got - 2010.06.03 11:33:40.
