data_PCOD9033488
_publ_section_title
;
Structure prediction by ZEFSAII (Michael W. Deem and Ramdas Pophale) SiO2 
 PCOD9033488
Probable space group: P -1
;
_chemical_formula_sum "Si O2"
_cell_formula_units_Z 14
_cell_length_a 13.581674
_cell_length_b 22.848411
_cell_length_c 5.344551
_cell_angle_alpha 68.672532
_cell_angle_beta 102.590026
_cell_angle_gamma 156.904315
_cell_volume 574.361741
_symmetry_space_group_name_H-M "P -1"
_symmetry_group_IT_number 2
_symmetry_cell_setting 'triclinic'
loop_
_space_group_symop_operation_xyz
x,y,z
-x,-y,-z
loop_
_atom_site_type_symbol
_atom_site_label
_atom_site_fract_x
_atom_site_fract_y
_atom_site_fract_z
Si Si1 0.024437 0.388323 0.081364
Si Si2 0.222834 0.071917 0.986807
Si Si3 0.481372 0.030673 0.191318
Si Si4 0.989089 0.068681 0.409026
Si Si5 0.540188 0.580534 0.710948
Si Si6 0.891506 0.689025 0.466919
Si Si7 0.815919 0.452205 0.562342
O O1 0.091225 0.353791 0.238084
O O2 0.052367 0.439877 0.284102
O O3 0.725892 0.218581 0.067088
O O4 0.199271 0.517137 0.753852
O O5 0.517439 0.264685 0.782848
O O6 0.128845 0.977191 0.846275
O O7 0.199878 0.025654 0.314480
O O8 0.000000 0.000000 0.000000
O O9 0.500000 0.000000 0.500000
O O10 0.180042 0.877560 0.262228
O O11 0.500000 0.000000 0.000000
O O12 0.281544 0.263451 0.311868
O O13 0.000000 0.000000 0.500000
O O14 0.730173 0.658338 0.488655
O O15 0.267447 0.437511 0.644317
O O16 0.500000 0.500000 0.000000
O O17 0.000000 0.500000 0.500000
#
# Coordination Sequence:
#
# PCOD9033488 Si02
#       7
#     2   2   2   2   2   2   2
#     4  11  25  46  79 103 148 204 252 317 388 462
#     4  10  24  45  69 105 145 195 246 305 374 458
#     4  10  22  44  68 105 134 189 248 302 372 451
#     4  10  24  46  71 103 149 197 251 304 383 454
#     4  11  27  44  73 114 154 197 253 324 374 451
#     4  10  26  44  71 107 153 196 252 312 388 456
#     4  12  27  47  74 112 149 198 263 322 379 458
#
# _framework density 24.374884000000002
#
# number of rings (size 3 to 8) (size 9 to 14) (size 15 to 20)
#    0.000    1.429    0.000    3.000   14.000    3.429 
#    0.000    0.000    0.000    0.000    0.000    0.000 
#    0.000    0.000    0.000    0.000    0.000    0.000 
#
# Total GULP energy -78251.331929 kJ/mol
# GULP energy per Si atom -5589.380852 kJ/mol
# Density = 2.431941 g / cm^3
# Si number density = 24.374884 Si / 1000 Ang^3
#
#
#
# Elastic Constant Matrix: (Units=GPa)
#
#
# Indices 1 2 3 4 5 6 
#
# 1 85.8744 46.0075 29.5090 -0.1134 -5.2184 -4.1154
# 2 46.0075 218.7543 77.4877 -7.6834 -12.1815 -11.3535
# 3 29.5090 77.4877 180.1883 17.1335 -2.7183 0.0310
# 4 -0.1134 -7.6834 17.1335 57.1991 -6.1248 -11.7630
# 5 -5.2184 -12.1815 -2.7183 -6.1248 38.5562 -3.1970
# 6 -4.1154 -11.3535 0.0310 -11.7630 -3.1970 39.3448
#
#
#
# Elastic Compliance Matrix: (Units=1/GPa)
#
#
# Indices 1 2 3 4 5 6 
#
# 1 0.013395 -0.002243 -0.001252 0.000426 0.001165 0.000977
# 2 -0.002243 0.006255 -0.002511 0.002309 0.002064 0.002430
# 3 -0.001252 -0.002511 0.007100 -0.002960 -0.001085 -0.001834
# 4 0.000426 0.002309 -0.002960 0.020649 0.004460 0.007249
# 5 0.001165 0.002064 -0.001085 0.004460 0.027735 0.004305
# 6 0.000977 0.002430 -0.001834 0.007249 0.004305 0.028738
#
#
# Mechanical properties :
#
#
# Convention : Reuss Voigt Hill
#
# Bulk Modulus (GPa) = 67.85665 87.86948 77.86306
# Shear Modulus (GPa) = 41.39174 49.14088 45.26631
#
# Velocity S-wave (km/s) = 4.12531 4.49491 4.31407
# Velocity P-wave (km/s) = 7.11267 7.94144 7.53845
#
# Compressibility (1/GPa) = 0.01473695
#
# Stress axis : x y z
#
# Youngs Moduli (GPa) = 74.65417 159.87738 140.84215
#
# Poissons Ratio (x) = 0.35863 0.17635
# Poissons Ratio (y) = 0.16746 0.35369
# Poissons Ratio (z) = 0.09348 0.40149
#
# Static dielectric constant tensor:
#      x y z
#    x 1.990660 -0.030760 -0.068130 
#    y -0.030760 1.943380 -0.028770 
#    z -0.068130 -0.028770 1.981250 
# 
# From -- ./inp_files/101077.got.cif
#   From: 2010.05.17/outbox.cif.g08.bks.cpg/sg2_51_cif.got.tgz:101077.got - 2010.06.03 11:33:40.
