data_PCOD9033001
_publ_section_title
;
Structure prediction by ZEFSAII (Michael W. Deem and Ramdas Pophale) SiO2 
 PCOD9033001
Probable space group: P -1
;
_chemical_formula_sum "Si O2"
_cell_formula_units_Z 14
_cell_length_a 8.663283
_cell_length_b 11.848275
_cell_length_c 18.355661
_cell_angle_alpha 150.902103
_cell_angle_beta 47.822175
_cell_angle_gamma 115.266805
_cell_volume 608.545076
_symmetry_space_group_name_H-M "P -1"
_symmetry_group_IT_number 2
_symmetry_cell_setting 'triclinic'
loop_
_space_group_symop_operation_xyz
x,y,z
-x,-y,-z
loop_
_atom_site_type_symbol
_atom_site_label
_atom_site_fract_x
_atom_site_fract_y
_atom_site_fract_z
Si Si1 0.397917 0.376103 0.700173
Si Si2 0.201365 0.003310 0.534919
Si Si3 0.869768 0.693796 0.586418
Si Si4 0.799265 0.242891 0.905437
Si Si5 0.358452 0.764740 0.807586
Si Si6 0.974907 0.653748 0.793119
Si Si7 0.665245 0.487166 0.873635
O O1 0.632394 0.181061 0.557196
O O2 0.411474 0.593564 0.767567
O O3 0.316313 0.187402 0.577192
O O4 0.208330 0.539103 0.913963
O O5 0.210660 0.806706 0.359121
O O6 0.955980 0.187869 0.752838
O O7 0.605775 0.735900 0.686737
O O8 0.000000 0.500000 0.500000
O O9 0.986929 0.572244 0.403691
O O10 0.878628 0.959803 0.752916
O O11 0.529469 0.345174 0.029162
O O12 0.215607 0.657876 0.741096
O O13 0.186339 0.071023 0.038437
O O14 0.847075 0.609026 0.879804
O O15 0.500000 0.500000 0.000000
#
# Coordination Sequence:
#
# PCOD9033001 Si02
#       7
#     2   2   2   2   2   2   2
#     4  10  23  41  66  99 132 173 220 279 342 398
#     4  10  22  44  64  97 133 169 229 283 326 404
#     4  12  24  41  74 101 133 179 225 276 339 399
#     4  11  22  40  68  95 132 170 230 278 331 394
#     4  11  25  44  66  98 138 182 217 278 341 398
#     4  11  25  47  64  99 142 172 229 279 330 410
#     4  11  25  43  68  97 130 178 227 277 336 397
#
# _framework density 23.005690999999999
#
# number of rings (size 3 to 8) (size 9 to 14) (size 15 to 20)
#    0.000    1.143    2.857    2.571    4.000    2.857 
#    5.143    0.000    0.000    0.000    0.000    0.000 
#    0.000    0.000    0.000    0.000    0.000    0.000 
#
# Total GULP energy -78223.602728 kJ/mol
# GULP energy per Si atom -5587.400195 kJ/mol
# Density = 2.295333 g / cm^3
# Si number density = 23.005691 Si / 1000 Ang^3
#
#
#
# Elastic Constant Matrix: (Units=GPa)
#
#
# Indices 1 2 3 4 5 6 
#
# 1 47.8939 14.2623 25.3729 8.5836 -14.8023 10.1363
# 2 14.2623 89.0778 20.0275 -1.5908 -7.8202 10.4085
# 3 25.3729 20.0275 109.7588 2.0249 -5.3956 3.8648
# 4 8.5836 -1.5908 2.0249 38.4753 -1.1521 -5.1708
# 5 -14.8023 -7.8202 -5.3956 -1.1521 35.6000 5.8567
# 6 10.1363 10.4085 3.8648 -5.1708 5.8567 35.3949
#
#
#
# Elastic Compliance Matrix: (Units=1/GPa)
#
#
# Indices 1 2 3 4 5 6 
#
# 1 0.032879 -0.001417 -0.006077 -0.008247 0.014125 -0.011877
# 2 -0.001417 0.012462 -0.001715 0.000539 0.002465 -0.003401
# 3 -0.006077 -0.001715 0.010688 0.000873 -0.001494 0.001453
# 4 -0.008247 0.000539 0.000873 0.028626 -0.003379 0.006849
# 5 0.014125 0.002465 -0.001494 -0.003379 0.035988 -0.011055
# 6 -0.011877 -0.003401 0.001453 0.006849 -0.011055 0.035325
#
#
# Mechanical properties :
#
#
# Convention : Reuss Voigt Hill
#
# Bulk Modulus (GPa) = 26.58918 40.67287 33.63103
# Shear Modulus (GPa) = 26.74888 34.36522 30.55705
#
# Velocity S-wave (km/s) = 3.41355 3.86913 3.64845
# Velocity P-wave (km/s) = 5.20761 6.13824 5.69198
#
# Compressibility (1/GPa) = 0.03760928
#
# Stress axis : x y z
#
# Youngs Moduli (GPa) = 30.41499 80.24308 93.56277
#
# Poissons Ratio (x) = 0.11372 0.56859
# Poissons Ratio (y) = 0.04310 0.16049
# Poissons Ratio (z) = 0.18484 0.13764
#
# Static dielectric constant tensor:
#      x y z
#    x 1.888520 -0.010830 -0.000670 
#    y -0.010830 1.871320 -0.024380 
#    z -0.000670 -0.024380 1.826050 
# 
# From -- ./inp_files/44152.got.cif
#   From: 2010.05.17/outbox.cif.g08.bks.cpg/sg2_23_cif.got.tgz:44152.got - 2010.06.03 11:33:40.
