data_PCOD9033242
_publ_section_title
;
Structure prediction by ZEFSAII (Michael W. Deem and Ramdas Pophale) SiO2 
 PCOD9033242
Probable space group: P -1
;
_chemical_formula_sum "Si O2"
_cell_formula_units_Z 14
_cell_length_a 11.178275
_cell_length_b 11.611225
_cell_length_c 6.729446
_cell_angle_alpha 122.340293
_cell_angle_beta 107.669834
_cell_angle_gamma 53.786571
_cell_volume 595.298327
_symmetry_space_group_name_H-M "P -1"
_symmetry_group_IT_number 2
_symmetry_cell_setting 'triclinic'
loop_
_space_group_symop_operation_xyz
x,y,z
-x,-y,-z
loop_
_atom_site_type_symbol
_atom_site_label
_atom_site_fract_x
_atom_site_fract_y
_atom_site_fract_z
Si Si1 0.791776 0.375085 0.040300
Si Si2 0.691023 0.864767 0.846574
Si Si3 0.374304 0.922244 0.663740
Si Si4 0.435132 0.443226 0.584114
Si Si5 0.191785 0.453500 0.188765
Si Si6 0.025989 0.291751 0.407970
Si Si7 0.104552 0.984448 0.359207
O O1 0.639091 0.459519 0.164692
O O2 0.917943 0.370229 0.237544
O O3 0.782280 0.474802 0.931022
O O4 0.837148 0.192573 0.856235
O O5 0.525387 0.925440 0.741503
O O6 0.753980 0.734763 0.942900
O O7 0.809685 0.775406 0.651445
O O8 0.684360 0.017449 0.085538
O O9 0.436554 0.737776 0.479285
O O10 0.236157 0.007578 0.526024
O O11 0.500000 0.500000 0.500000
O O12 0.301490 0.447260 0.406510
O O13 0.031027 0.584735 0.321195
O O14 0.014619 0.138283 0.315217
O O15 0.000000 0.000000 0.500000
#
# Coordination Sequence:
#
# PCOD9033242 Si02
#       7
#     2   2   2   2   2   2   2
#     4  11  24  43  69 101 135 174 217 280 339 386
#     4  10  23  46  68  95 137 177 225 273 328 393
#     4  10  24  45  64  97 133 177 219 274 329 394
#     4  10  23  41  68  97 136 172 224 275 328 397
#     4  10  22  44  66  99 130 176 223 272 333 397
#     4  11  24  42  69 102 132 175 223 276 331 396
#     4  12  24  42  70 101 135 171 223 275 340 399
#
# _framework density 23.517620999999998
#
# number of rings (size 3 to 8) (size 9 to 14) (size 15 to 20)
#    0.000    1.429    1.429    2.571    4.000    3.429 
#   12.857    0.000    0.000    0.000    0.000    0.000 
#    0.000    0.000    0.000    0.000    0.000    0.000 
#
# Total GULP energy -78147.708650 kJ/mol
# GULP energy per Si atom -5581.979189 kJ/mol
# Density = 2.346409 g / cm^3
# Si number density = 23.517621 Si / 1000 Ang^3
#
#
#
# Elastic Constant Matrix: (Units=GPa)
#
#
# Indices 1 2 3 4 5 6 
#
# 1 77.8910 24.2515 30.2828 2.4358 -21.1325 -8.5183
# 2 24.2515 98.8830 43.3983 1.2550 -22.5644 7.3678
# 3 30.2828 43.3983 97.5068 15.6663 -26.8352 -4.5694
# 4 2.4358 1.2550 15.6663 50.9860 -8.6369 -1.8271
# 5 -21.1325 -22.5644 -26.8352 -8.6369 32.2874 0.6731
# 6 -8.5183 7.3678 -4.5694 -1.8271 0.6731 39.6721
#
#
#
# Elastic Compliance Matrix: (Units=1/GPa)
#
#
# Indices 1 2 3 4 5 6 
#
# 1 0.016815 -0.001472 -0.002341 0.001495 0.008357 0.003541
# 2 -0.001472 0.014056 -0.004768 0.001997 0.005504 -0.003477
# 3 -0.002341 -0.004768 0.015731 -0.003301 0.007287 0.001919
# 4 0.001495 0.001997 -0.003301 0.021431 0.005353 0.000466
# 5 0.008357 0.005504 0.007287 0.005353 0.047754 0.001048
# 6 0.003541 -0.003477 0.001919 0.000466 0.001048 0.026837
#
#
# Mechanical properties :
#
#
# Convention : Reuss Voigt Hill
#
# Bulk Modulus (GPa) = 33.96899 52.23846 43.10372
# Shear Modulus (GPa) = 29.48113 36.34565 32.91339
#
# Velocity S-wave (km/s) = 3.54443 3.93550 3.74507
# Velocity P-wave (km/s) = 5.58803 6.55070 6.08842
#
# Compressibility (1/GPa) = 0.02943862
#
# Stress axis : x y z
#
# Youngs Moduli (GPa) = 59.47110 71.14251 63.56989
#
# Poissons Ratio (x) = 0.10474 0.14883
# Poissons Ratio (y) = 0.08756 0.30311
# Poissons Ratio (z) = 0.13924 0.33922
#
# Static dielectric constant tensor:
#      x y z
#    x 1.945870 -0.007780 0.015020 
#    y -0.007780 1.946040 -0.003340 
#    z 0.015020 -0.003340 1.878390 
# 
# From -- ./inp_files/71882.got.cif
#   From: 2010.05.17/outbox.cif.g08.bks.cpg/sg2_36_cif.got.tgz:71882.got - 2010.06.03 11:33:40.
