data_PCOD9034581
_publ_section_title
;
Structure prediction by ZEFSAII (Michael W. Deem and Ramdas Pophale) SiO2 
 PCOD9034581
Probable space group: P -1
;
_chemical_formula_sum "Si O2"
_cell_formula_units_Z 16
_cell_length_a 9.450909
_cell_length_b 9.767645
_cell_length_c 15.812349
_cell_angle_alpha 54.848553
_cell_angle_beta 59.640142
_cell_angle_gamma 32.687626
_cell_volume 643.833391
_symmetry_space_group_name_H-M "P -1"
_symmetry_group_IT_number 2
_symmetry_cell_setting 'triclinic'
loop_
_space_group_symop_operation_xyz
x,y,z
-x,-y,-z
loop_
_atom_site_type_symbol
_atom_site_label
_atom_site_fract_x
_atom_site_fract_y
_atom_site_fract_z
Si Si1 0.735129 0.474808 0.426603
Si Si2 0.390962 0.112676 0.585713
Si Si3 0.509642 0.525933 0.886807
Si Si4 0.821292 0.750155 0.718823
Si Si5 0.773049 0.179467 0.637331
Si Si6 0.773236 0.824795 0.875458
Si Si7 0.004113 0.148062 0.751664
Si Si8 0.339743 0.355221 0.893438
O O1 0.627440 0.676277 0.462952
O O2 0.906542 0.200679 0.521815
O O3 0.531999 0.552766 0.394902
O O4 0.892929 0.487797 0.320610
O O5 0.130635 0.213968 0.648495
O O6 0.500000 0.000000 0.500000
O O7 0.609090 0.876857 0.669617
O O8 0.786713 0.358828 0.816321
O O9 0.478750 0.366810 0.911227
O O10 0.500000 0.500000 0.000000
O O11 0.253652 0.840855 0.822669
O O12 0.757855 0.714179 0.839370
O O13 0.812206 0.955703 0.675583
O O14 0.861827 0.167525 0.707905
O O15 0.068843 0.655095 0.843065
O O16 0.536617 0.144028 0.836014
O O17 0.743877 0.748521 0.998135
#
# Coordination Sequence:
#
# PCOD9034581 Si02
#       8
#     2   2   2   2   2   2   2   2
#     4  10  24  43  72 101 145 190 236 313 364 435
#     4  11  28  47  69 105 150 196 246 302 364 448
#     4  12  28  49  73 106 150 195 248 305 364 442
#     4  11  23  41  70 103 136 184 240 301 360 443
#     4  10  23  43  70 108 140 184 248 300 373 433
#     4  10  23  39  73 100 137 174 235 293 367 421
#     4  12  29  47  79 107 147 204 247 301 374 447
#     4  10  22  45  65 104 135 182 225 304 357 426
#
# _framework density 24.851148999999999
#
# number of rings (size 3 to 8) (size 9 to 14) (size 15 to 20)
#    0.000    1.250    0.000    3.750   12.250    2.000 
#    2.250    0.000    0.000    0.000    0.000    0.000 
#    0.000    0.000    0.000    0.000    0.000    0.000 
#
# Total GULP energy -89274.603600 kJ/mol
# GULP energy per Si atom -5579.662725 kJ/mol
# Density = 2.479459 g / cm^3
# Si number density = 24.851149 Si / 1000 Ang^3
#
#
#
# Elastic Constant Matrix: (Units=GPa)
#
#
# Indices 1 2 3 4 5 6 
#
# 1 124.4009 38.6945 53.1322 21.0693 11.3563 -8.0261
# 2 38.6945 120.3769 54.0892 31.0468 4.7347 -3.0733
# 3 53.1322 54.0892 125.4105 28.6364 27.6499 -10.1124
# 4 21.0693 31.0468 28.6364 50.4372 4.2411 -1.4392
# 5 11.3563 4.7347 27.6499 4.2411 45.8161 2.3376
# 6 -8.0261 -3.0733 -10.1124 -1.4392 2.3376 36.8802
#
#
#
# Elastic Compliance Matrix: (Units=1/GPa)
#
#
# Indices 1 2 3 4 5 6 
#
# 1 0.010209 -0.001411 -0.003190 -0.001519 -0.000380 0.001194
# 2 -0.001411 0.011558 -0.003832 -0.004531 0.001923 -0.000693
# 3 -0.003190 -0.003832 0.013468 -0.003300 -0.006788 0.002981
# 4 -0.001519 -0.004531 -0.003300 0.025058 0.000551 -0.000670
# 5 -0.000380 0.001923 -0.006788 0.000551 0.025941 -0.003407
# 6 0.001194 -0.000693 0.002981 -0.000670 -0.003407 0.028324
#
#
# Mechanical properties :
#
#
# Convention : Reuss Voigt Hill
#
# Bulk Modulus (GPa) = 54.43963 73.55778 63.99870
# Shear Modulus (GPa) = 36.35093 41.57819 38.96456
#
# Velocity S-wave (km/s) = 3.82874 4.09478 3.96399
# Velocity P-wave (km/s) = 6.44201 7.21248 6.83810
#
# Compressibility (1/GPa) = 0.01836897
#
# Stress axis : x y z
#
# Youngs Moduli (GPa) = 97.95527 86.51955 74.24747
#
# Poissons Ratio (x) = 0.12210 0.23681
# Poissons Ratio (y) = 0.13823 0.28455
# Poissons Ratio (z) = 0.31243 0.33158
#
# Static dielectric constant tensor:
#      x y z
#    x 1.981630 -0.013360 -0.071510 
#    y -0.013360 2.042500 0.006570 
#    z -0.071510 0.006570 2.114740 
# 
# From -- ./inp_files/494620.got.cif
#   From: 2010.05.17/outbox.cif.g08.bks.cpg/sg2_248_cif.got.tgz:494620.got - 2010.06.03 11:33:40.
