data_PCOD9034046
_publ_section_title
;
Structure prediction by ZEFSAII (Michael W. Deem and Ramdas Pophale) SiO2 
 PCOD9034046
Probable space group: P -1
;
_chemical_formula_sum "Si O2"
_cell_formula_units_Z 13
_cell_length_a 19.592263
_cell_length_b 11.230947
_cell_length_c 8.284983
_cell_angle_alpha 33.943266
_cell_angle_beta 135.659817
_cell_angle_gamma 145.603273
_cell_volume 572.321841
_symmetry_space_group_name_H-M "P -1"
_symmetry_group_IT_number 2
_symmetry_cell_setting 'triclinic'
loop_
_space_group_symop_operation_xyz
x,y,z
-x,-y,-z
loop_
_atom_site_type_symbol
_atom_site_label
_atom_site_fract_x
_atom_site_fract_y
_atom_site_fract_z
Si Si1 0.947407 0.060356 0.690954
Si Si2 0.727932 0.992129 0.712023
Si Si3 0.676733 0.155962 0.775764
Si Si4 0.000000 0.500000 0.500000
Si Si5 0.505337 0.189870 0.661707
Si Si6 0.717566 0.786213 0.430479
Si Si7 0.835392 0.760134 0.342364
O O1 0.979173 0.343837 0.468613
O O2 0.025933 0.064059 0.674748
O O3 0.805212 0.849579 0.656622
O O4 0.000000 0.000000 0.000000
O O5 0.676024 0.037654 0.735731
O O6 0.855994 0.261843 0.573073
O O7 0.624254 0.884310 0.524159
O O8 0.759633 0.790620 0.043454
O O9 0.565794 0.162312 0.635080
O O10 0.790508 0.461739 0.620008
O O11 0.688691 0.994835 0.117056
O O12 0.597298 0.489740 0.544662
O O13 0.500000 0.000000 0.000000
O O14 0.801580 0.834784 0.364460
#
# Coordination Sequence:
#
# PCOD9034046 Si02
#       7
#     2   2   2   1   2   2   2
#     4  12  25  43  70 100 142 180 227 285 338 406
#     4  11  24  45  69 104 137 179 234 273 343 414
#     4  10  23  45  70 101 137 183 222 286 339 405
#     4  12  26  42  72 104 136 182 230 282 342 402
#     4  11  27  44  71 101 140 180 226 286 341 407
#     4  10  26  45  68 105 135 178 235 276 344 411
#     4  10  22  44  71 101 135 182 226 286 338 401
#
# _framework density 22.714493000000001
#
# number of rings (size 3 to 8) (size 9 to 14) (size 15 to 20)
#    0.000    1.231    3.077    0.923    4.308    9.231 
#    0.000    0.000    0.000    0.000    0.000    0.000 
#    0.000    0.000    0.000    0.000    0.000    0.000 
#
# Total GULP energy -72390.496416 kJ/mol
# GULP energy per Si atom -5568.499724 kJ/mol
# Density = 2.266279 g / cm^3
# Si number density = 22.714493 Si / 1000 Ang^3
#
#
#
# Elastic Constant Matrix: (Units=GPa)
#
#
# Indices 1 2 3 4 5 6 
#
# 1 97.1083 22.9006 4.6531 0.7122 -0.7722 17.4069
# 2 22.9006 172.2316 85.3560 22.1372 4.3760 28.1246
# 3 4.6531 85.3560 108.5592 11.8863 4.0046 18.1952
# 4 0.7122 22.1372 11.8863 28.4983 -4.8278 -2.8399
# 5 -0.7722 4.3760 4.0046 -4.8278 29.7461 -6.2874
# 6 17.4069 28.1246 18.1952 -2.8399 -6.2874 30.4074
#
#
#
# Elastic Compliance Matrix: (Units=1/GPa)
#
#
# Indices 1 2 3 4 5 6 
#
# 1 0.011749 -0.001047 0.001707 -0.001160 -0.001479 -0.007193
# 2 -0.001047 0.011643 -0.006901 -0.007498 -0.003611 -0.007488
# 3 0.001707 -0.006901 0.015658 -0.002077 -0.002368 -0.004647
# 4 -0.001160 -0.007498 -0.002077 0.045395 0.012010 0.015565
# 5 -0.001479 -0.003611 -0.002368 0.012010 0.039528 0.014898
# 6 -0.007193 -0.007488 -0.004647 0.015565 0.014898 0.051245
#
#
# Mechanical properties :
#
#
# Convention : Reuss Voigt Hill
#
# Bulk Modulus (GPa) = 37.63876 67.07983 52.35929
# Shear Modulus (GPa) = 25.43807 35.39632 30.41719
#
# Velocity S-wave (km/s) = 3.35013 3.95183 3.66335
# Velocity P-wave (km/s) = 5.61879 7.10060 6.40271
#
# Compressibility (1/GPa) = 0.02656836
#
# Stress axis : x y z
#
# Youngs Moduli (GPa) = 85.11398 85.88538 63.86544
#
# Poissons Ratio (x) = 0.08990 -0.10899
# Poissons Ratio (y) = 0.08909 0.44072
# Poissons Ratio (z) = -0.14525 0.59268
#
# Static dielectric constant tensor:
#      x y z
#    x 1.935210 -0.016540 0.012780 
#    y -0.016540 1.810070 0.005190 
#    z 0.012780 0.005190 1.861480 
# 
# From -- ./inp_files/43714.got.cif
#   From: 2010.05.17/outbox.cif.g08.bks.cpg/sg2_22_cif.got.tgz:43714.got - 2010.06.03 11:33:40.
