data_PCOD9034160
_publ_section_title
;
Structure prediction by ZEFSAII (Michael W. Deem and Ramdas Pophale) SiO2 
 PCOD9034160
Probable space group: P -1
;
_chemical_formula_sum "Si O2"
_cell_formula_units_Z 12
_cell_length_a 6.541981
_cell_length_b 14.863927
_cell_length_c 8.322634
_cell_angle_alpha 61.862794
_cell_angle_beta 121.561155
_cell_angle_gamma 76.808968
_cell_volume 471.145275
_symmetry_space_group_name_H-M "P -1"
_symmetry_group_IT_number 2
_symmetry_cell_setting 'triclinic'
loop_
_space_group_symop_operation_xyz
x,y,z
-x,-y,-z
loop_
_atom_site_type_symbol
_atom_site_label
_atom_site_fract_x
_atom_site_fract_y
_atom_site_fract_z
Si Si1 0.193035 0.624354 0.906562
Si Si2 0.171318 0.215961 0.060034
Si Si3 0.105165 0.927476 0.935666
Si Si4 0.374073 0.333246 0.488410
Si Si5 0.734616 0.190926 0.420551
Si Si6 0.778152 0.466112 0.489813
O O1 0.203790 0.724148 0.724115
O O2 0.002842 0.697060 0.927728
O O3 0.981943 0.597325 0.754824
O O4 0.534875 0.509528 0.210466
O O5 0.564329 0.267271 0.455165
O O6 0.504799 0.177323 0.241440
O O7 0.123838 0.107915 0.147849
O O8 0.450312 0.791123 0.212463
O O9 0.039349 0.039868 0.698591
O O10 0.000000 0.000000 0.000000
O O11 0.991267 0.312959 0.753335
O O12 0.376533 0.439582 0.493789
O O13 0.000000 0.500000 0.500000
#
# Coordination Sequence:
#
# PCOD9034160 Si02
#       6
#     2   2   2   2   2   2
#     4  11  24  45  69 107 134 181 227 282 339 409
#     4  11  23  45  69  99 142 179 227 284 339 404
#     4  10  22  44  71  98 139 183 225 281 342 403
#     4  10  25  46  68 105 139 181 224 284 343 402
#     4  10  23  45  72 104 136 182 231 278 343 404
#     4  12  25  47  71 101 140 184 226 281 349 405
#
# _framework density 25.469854999999999
#
# number of rings (size 3 to 8) (size 9 to 14) (size 15 to 20)
#    0.000    1.333    3.333    1.000    0.000    7.333 
#    3.000    1.667    0.000    0.000    0.000    0.000 
#    0.000    0.000    0.000    0.000    0.000    0.000 
#
# Total GULP energy -67191.121000 kJ/mol
# GULP energy per Si atom -5599.260083 kJ/mol
# Density = 2.541188 g / cm^3
# Si number density = 25.469855 Si / 1000 Ang^3
#
#
#
# Elastic Constant Matrix: (Units=GPa)
#
#
# Indices 1 2 3 4 5 6 
#
# 1 66.9057 5.3740 41.7980 -7.3146 -7.9282 6.6175
# 2 5.3740 127.0141 67.6687 7.4603 5.0973 11.5423
# 3 41.7980 67.6687 186.6208 -1.0843 -9.3055 24.2754
# 4 -7.3146 7.4603 -1.0843 48.5395 28.9754 4.1215
# 5 -7.9282 5.0973 -9.3055 28.9754 33.6885 -9.2080
# 6 6.6175 11.5423 24.2754 4.1215 -9.2080 28.5911
#
#
#
# Elastic Compliance Matrix: (Units=1/GPa)
#
#
# Indices 1 2 3 4 5 6 
#
# 1 0.017985 0.001530 -0.004390 0.002028 0.000741 -0.001106
# 2 0.001530 0.010214 -0.003897 0.001183 -0.003997 -0.002626
# 3 -0.004390 -0.003897 0.008349 0.000195 0.000501 -0.004366
# 4 0.002028 0.001183 0.000195 0.055890 -0.055072 -0.026906
# 5 0.000741 -0.003997 0.000501 -0.055072 0.088179 0.037354
# 6 -0.001106 -0.002626 -0.004366 -0.026906 0.037354 0.055908
#
#
# Mechanical properties :
#
#
# Convention : Reuss Voigt Hill
#
# Bulk Modulus (GPa) = 43.41566 67.80244 55.60905
# Shear Modulus (GPa) = 19.40101 39.87715 29.63908
#
# Velocity S-wave (km/s) = 2.76293 3.96114 3.41499
# Velocity P-wave (km/s) = 5.22123 6.89922 6.11803
#
# Compressibility (1/GPa) = 0.02303316
#
# Stress axis : x y z
#
# Youngs Moduli (GPa) = 55.60102 97.90227 119.77678
#
# Poissons Ratio (x) = -0.14975 0.52584
# Poissons Ratio (y) = -0.08505 0.46678
# Poissons Ratio (z) = 0.24410 0.38153
#
# Static dielectric constant tensor:
#      x y z
#    x 2.123120 0.005790 -0.004390 
#    y 0.005790 1.955770 0.018370 
#    z -0.004390 0.018370 2.068890 
# 
# From -- ./inp_files/134876.got.cif
#   From: 2010.05.17/outbox.cif.g08.bks.cpg/sg2_68_cif.got.tgz:134876.got - 2010.06.03 11:33:40.
