data_PCOD9034239
_publ_section_title
;
Structure prediction by ZEFSAII (Michael W. Deem and Ramdas Pophale) SiO2 
 PCOD9034239
Probable space group: P -1
;
_chemical_formula_sum "Si O2"
_cell_formula_units_Z 15
_cell_length_a 12.594467
_cell_length_b 11.342423
_cell_length_c 6.503177
_cell_angle_alpha 58.954883
_cell_angle_beta 122.239165
_cell_angle_gamma 95.712452
_cell_volume 653.157261
_symmetry_space_group_name_H-M "P -1"
_symmetry_group_IT_number 2
_symmetry_cell_setting 'triclinic'
loop_
_space_group_symop_operation_xyz
x,y,z
-x,-y,-z
loop_
_atom_site_type_symbol
_atom_site_label
_atom_site_fract_x
_atom_site_fract_y
_atom_site_fract_z
Si Si1 0.624695 0.344784 0.342755
Si Si2 0.367327 0.276858 0.305894
Si Si3 0.120117 0.371583 0.695606
Si Si4 0.753184 0.275019 0.117991
Si Si5 0.500000 0.000000 0.500000
Si Si6 0.018324 0.104885 0.744499
Si Si7 0.280902 0.922142 0.070292
Si Si8 0.718147 0.542963 0.563893
O O1 0.487118 0.312033 0.273595
O O2 0.663120 0.349771 0.143216
O O3 0.723944 0.202497 0.657969
O O4 0.637206 0.478204 0.369822
O O5 0.394834 0.109182 0.443164
O O6 0.362811 0.336771 0.477614
O O7 0.233829 0.355864 0.992300
O O8 0.068463 0.232318 0.778408
O O9 0.179405 0.395810 0.513560
O O10 0.000000 0.500000 0.500000
O O11 0.887329 0.177156 0.425593
O O12 0.681811 0.172241 0.010781
O O13 0.777061 0.402559 0.886640
O O14 0.616264 0.000953 0.793460
O O15 0.139113 0.022044 0.806478
O O16 0.000000 0.000000 0.000000
#
# Coordination Sequence:
#
# PCOD9034239 Si02
#       8
#     2   2   2   2   1   2   2   2
#     4  10  22  44  75 108 147 189 245 313 371 440
#     4  11  24  45  74 106 151 197 248 310 375 448
#     4  12  28  48  72 108 152 198 250 316 376 441
#     4  11  24  44  77 110 148 198 254 306 372 452
#     4  10  22  48  70 106 154 190 244 310 370 442
#     4  12  24  47  75 106 148 200 253 315 376 444
#     4  10  22  44  72 107 144 195 249 304 375 444
#     4  11  25  46  73 110 148 198 249 308 376 453
#
# _framework density 22.965371999999999
#
# number of rings (size 3 to 8) (size 9 to 14) (size 15 to 20)
#    0.000    1.067    2.667    3.200    1.867    7.467 
#    7.200    3.333    0.000    0.000    0.000    0.000 
#    0.000    0.000    0.000    0.000    0.000    0.000 
#
# Total GULP energy -83615.781790 kJ/mol
# GULP energy per Si atom -5574.385453 kJ/mol
# Density = 2.291310 g / cm^3
# Si number density = 22.965372 Si / 1000 Ang^3
#
#
#
# Elastic Constant Matrix: (Units=GPa)
#
#
# Indices 1 2 3 4 5 6 
#
# 1 78.8136 8.8107 18.6281 8.4036 12.7015 -5.6254
# 2 8.8107 91.7713 -0.7046 22.3548 1.6328 -8.5027
# 3 18.6281 -0.7046 41.8611 9.7610 6.5582 -1.8098
# 4 8.4036 22.3548 9.7610 43.2574 -2.2702 0.7423
# 5 12.7015 1.6328 6.5582 -2.2702 39.0343 -10.0352
# 6 -5.6254 -8.5027 -1.8098 0.7423 -10.0352 46.5192
#
#
#
# Elastic Compliance Matrix: (Units=1/GPa)
#
#
# Indices 1 2 3 4 5 6 
#
# 1 0.014953 -0.001047 -0.005758 -0.001273 -0.003774 0.000599
# 2 -0.001047 0.012982 0.002519 -0.007137 -0.000433 0.002365
# 3 -0.005758 0.002519 0.028623 -0.006823 -0.003371 0.000259
# 4 -0.001273 -0.007137 -0.006823 0.028784 0.003146 -0.001504
# 5 -0.003774 -0.000433 -0.003371 0.003146 0.029040 0.005548
# 6 0.000599 0.002365 0.000259 -0.001504 0.005548 0.023232
#
#
# Mechanical properties :
#
#
# Convention : Reuss Voigt Hill
#
# Bulk Modulus (GPa) = 20.83934 29.54604 25.19269
# Shear Modulus (GPa) = 30.82966 38.14297 34.48632
#
# Velocity S-wave (km/s) = 3.66791 4.07982 3.87934
# Velocity P-wave (km/s) = 5.19923 5.92340 5.57309
#
# Compressibility (1/GPa) = 0.04798617
#
# Stress axis : x y z
#
# Youngs Moduli (GPa) = 66.87698 77.03073 34.93642
#
# Poissons Ratio (x) = 0.08065 0.20115
# Poissons Ratio (y) = 0.07002 -0.08799
# Poissons Ratio (z) = 0.38505 -0.19401
#
# Static dielectric constant tensor:
#      x y z
#    x 2.117420 0.037320 0.044430 
#    y 0.037320 1.952090 -0.046510 
#    z 0.044430 -0.046510 1.927160 
# 
# From -- ./inp_files/68801.got.cif
#   From: 2010.05.17/outbox.cif.g08.bks.cpg/sg2_35_cif.got.tgz:68801.got - 2010.06.03 11:33:40.
