data_PCOD9034927
_publ_section_title
;
Structure prediction by ZEFSAII (Michael W. Deem and Ramdas Pophale) SiO2 
 PCOD9034927
Probable space group: P -1
;
_chemical_formula_sum "Si O2"
_cell_formula_units_Z 16
_cell_length_a 15.293872
_cell_length_b 9.189080
_cell_length_c 11.892135
_cell_angle_alpha 110.755072
_cell_angle_beta 25.010794
_cell_angle_gamma 111.585481
_cell_volume 656.108503
_symmetry_space_group_name_H-M "P -1"
_symmetry_group_IT_number 2
_symmetry_cell_setting 'triclinic'
loop_
_space_group_symop_operation_xyz
x,y,z
-x,-y,-z
loop_
_atom_site_type_symbol
_atom_site_label
_atom_site_fract_x
_atom_site_fract_y
_atom_site_fract_z
Si Si1 0.222628 0.436509 0.232985
Si Si2 0.231199 0.631581 0.493817
Si Si3 0.514739 0.521289 0.291900
Si Si4 0.840973 0.763003 0.063004
Si Si5 0.330433 0.944524 0.352665
Si Si6 0.946359 0.162566 0.557401
Si Si7 0.680663 0.215124 0.074074
Si Si8 0.938274 0.099639 0.942082
O O1 0.294751 0.525495 0.288211
O O2 0.000000 0.500000 0.500000
O O3 0.153191 0.252604 0.285581
O O4 0.360586 0.468505 0.970665
O O5 0.289383 0.553133 0.520529
O O6 0.347672 0.806580 0.385045
O O7 0.994141 0.670034 0.783031
O O8 0.543587 0.357791 0.270221
O O9 0.621018 0.660161 0.283928
O O10 0.828388 0.938554 0.081307
O O11 0.960097 0.786627 0.048450
O O12 0.246169 0.860773 0.312418
O O13 0.537909 0.063973 0.148821
O O14 0.137478 0.041595 0.631801
O O15 0.871312 0.256916 0.776564
O O16 0.000000 0.000000 0.500000
O O17 0.783017 0.172760 0.059722
#
# Coordination Sequence:
#
# PCOD9034927 Si02
#       8
#     2   2   2   2   2   2   2   2
#     4  12  21  42  64  90 127 167 211 246 306 377
#     4  11  23  40  67  92 124 168 209 255 305 374
#     4  12  25  40  65  94 127 167 206 257 310 370
#     4  10  22  45  69  89 120 165 216 258 310 368
#     4  11  23  41  63  94 127 164 209 254 312 370
#     4  12  24  38  66  93 127 168 200 255 315 367
#     4  12  25  40  62  97 130 161 206 259 315 369
#     4  10  23  44  68  91 121 164 211 266 309 364
#
# _framework density 24.386209999999998
#
# number of rings (size 3 to 8) (size 9 to 14) (size 15 to 20)
#    0.000    0.750    5.000    2.250    3.500    2.500 
#    0.000    5.000    0.000    0.000    0.000    0.000 
#    0.000    0.000    0.000    0.000    0.000    0.000 
#
# Total GULP energy -89527.553121 kJ/mol
# GULP energy per Si atom -5595.472070 kJ/mol
# Density = 2.433071 g / cm^3
# Si number density = 24.386210 Si / 1000 Ang^3
#
#
#
# Elastic Constant Matrix: (Units=GPa)
#
#
# Indices 1 2 3 4 5 6 
#
# 1 144.5187 66.3828 13.7547 16.9551 -7.2628 -7.4860
# 2 66.3828 88.1564 5.3409 6.4461 -11.8378 -12.3134
# 3 13.7547 5.3409 33.2129 2.3303 1.0097 -5.5251
# 4 16.9551 6.4461 2.3303 23.5068 -4.4040 -5.5369
# 5 -7.2628 -11.8378 1.0097 -4.4040 29.1155 9.2809
# 6 -7.4860 -12.3134 -5.5251 -5.5369 9.2809 47.9459
#
#
#
# Elastic Compliance Matrix: (Units=1/GPa)
#
#
# Indices 1 2 3 4 5 6 
#
# 1 0.011760 -0.008504 -0.003241 -0.006307 -0.000963 -0.001263
# 2 -0.008504 0.018574 0.000685 0.002563 0.004879 0.002873
# 3 -0.003241 0.000685 0.032123 -0.000681 -0.002981 0.003870
# 4 -0.006307 0.002563 -0.000681 0.048458 0.005507 0.004125
# 5 -0.000963 0.004879 -0.002981 0.005507 0.038987 -0.006152
# 6 -0.001263 0.002873 0.003870 0.004125 -0.006152 0.023511
#
#
# Mechanical properties :
#
#
# Convention : Reuss Voigt Hill
#
# Bulk Modulus (GPa) = 24.79107 48.53830 36.66468
# Shear Modulus (GPa) = 23.92574 32.14094 28.03334
#
# Velocity S-wave (km/s) = 3.13568 3.63436 3.39419
# Velocity P-wave (km/s) = 4.82681 6.12851 5.51619
#
# Compressibility (1/GPa) = 0.04033711
#
# Stress axis : x y z
#
# Youngs Moduli (GPa) = 85.03223 53.83730 31.13014
#
# Poissons Ratio (x) = 0.45782 0.10090
# Poissons Ratio (y) = 0.72310 -0.02131
# Poissons Ratio (z) = 0.27561 -0.03686
#
# Static dielectric constant tensor:
#      x y z
#    x 1.981000 0.039310 0.020030 
#    y 0.039310 1.992100 -0.015280 
#    z 0.020030 -0.015280 1.968620 
# 
# From -- ./inp_files/272442.got.cif
#   From: 2010.05.17/outbox.cif.g08.bks.cpg/sg2_137_cif.got.tgz:272442.got - 2010.06.03 11:33:40.
