data_PCOD9034614
_publ_section_title
;
Structure prediction by ZEFSAII (Michael W. Deem and Ramdas Pophale) SiO2 
 PCOD9034614
Probable space group: P -1
;
_chemical_formula_sum "Si O2"
_cell_formula_units_Z 16
_cell_length_a 13.914408
_cell_length_b 9.476233
_cell_length_c 11.806589
_cell_angle_alpha 120.044861
_cell_angle_beta 66.158695
_cell_angle_gamma 63.520938
_cell_volume 707.726846
_symmetry_space_group_name_H-M "P -1"
_symmetry_group_IT_number 2
_symmetry_cell_setting 'triclinic'
loop_
_space_group_symop_operation_xyz
x,y,z
-x,-y,-z
loop_
_atom_site_type_symbol
_atom_site_label
_atom_site_fract_x
_atom_site_fract_y
_atom_site_fract_z
Si Si1 0.913732 0.566906 0.731362
Si Si2 0.821945 0.670201 0.086418
Si Si3 0.238971 0.805987 0.813566
Si Si4 0.868207 0.188553 0.745634
Si Si5 0.506341 0.222196 0.348126
Si Si6 0.070447 0.777057 0.044332
Si Si7 0.238086 0.030008 0.219066
Si Si8 0.590874 0.780721 0.002909
O O1 0.884336 0.595464 0.892411
O O2 0.861727 0.796313 0.781247
O O3 0.113710 0.267545 0.473725
O O4 0.758621 0.635562 0.787963
O O5 0.788208 0.544698 0.120233
O O6 0.000000 0.500000 0.000000
O O7 0.635614 0.009183 0.307432
O O8 0.320727 0.542842 0.603794
O O9 0.387054 0.757367 0.747471
O O10 0.158436 0.825954 0.970290
O O11 0.083382 0.075579 0.913585
O O12 0.998143 0.090500 0.744692
O O13 0.772586 0.144672 0.814220
O O14 0.704415 0.522118 0.930776
O O15 0.000000 0.000000 0.500000
O O16 0.504423 0.057114 0.209918
O O17 0.436242 0.862717 0.057457
#
# Coordination Sequence:
#
# PCOD9034614 Si02
#       8
#     2   2   2   2   2   2   2   2
#     4  10  23  44  66 100 133 176 230 281 340 412
#     4  11  21  41  69  94 137 178 218 281 348 406
#     4  10  24  43  69 102 132 181 227 279 353 410
#     4  12  24  46  66 100 141 181 234 287 343 412
#     4  10  22  45  65  99 142 168 230 287 337 414
#     4  11  23  42  69  98 134 184 225 279 347 417
#     4  11  24  42  72  96 137 184 227 284 344 402
#     4  11  23  45  68 101 138 181 231 283 345 411
#
# _framework density 22.607593000000001
#
# number of rings (size 3 to 8) (size 9 to 14) (size 15 to 20)
#    0.000    1.250    5.000    0.750    3.500    3.500 
#    6.750    1.250    0.000    0.000    0.000    0.000 
#    0.000    0.000    0.000    0.000    0.000    0.000 
#
# Total GULP energy -89144.576757 kJ/mol
# GULP energy per Si atom -5571.536047 kJ/mol
# Density = 2.255614 g / cm^3
# Si number density = 22.607593 Si / 1000 Ang^3
#
#
#
# Elastic Constant Matrix: (Units=GPa)
#
#
# Indices 1 2 3 4 5 6 
#
# 1 68.9699 27.2135 -7.4435 -3.9159 -6.7131 17.5415
# 2 27.2135 159.8711 16.1136 5.6584 4.8748 13.5734
# 3 -7.4435 16.1136 51.2862 0.9260 3.0026 -3.0562
# 4 -3.9159 5.6584 0.9260 32.6795 4.6971 6.5206
# 5 -6.7131 4.8748 3.0026 4.6971 29.1066 2.1626
# 6 17.5415 13.5734 -3.0562 6.5206 2.1626 36.0317
#
#
#
# Elastic Compliance Matrix: (Units=1/GPa)
#
#
# Indices 1 2 3 4 5 6 
#
# 1 0.018900 -0.003032 0.002834 0.003799 0.004614 -0.008783
# 2 -0.003032 0.007223 -0.002681 -0.001104 -0.001366 -0.001190
# 3 0.002834 -0.002681 0.020906 0.000090 -0.001177 0.001458
# 4 0.003799 -0.001104 0.000090 0.033226 -0.003774 -0.007212
# 5 0.004614 -0.001366 -0.001177 -0.003774 0.036629 -0.003347
# 6 -0.008783 -0.001190 0.001458 -0.007212 -0.003347 0.034107
#
#
# Mechanical properties :
#
#
# Convention : Reuss Voigt Hill
#
# Bulk Modulus (GPa) = 24.23018 39.09939 31.66478
# Shear Modulus (GPa) = 29.32452 35.84646 32.58549
#
# Velocity S-wave (km/s) = 3.60545 3.98627 3.80063
# Velocity P-wave (km/s) = 5.29843 6.20641 5.77030
#
# Compressibility (1/GPa) = 0.04127085
#
# Stress axis : x y z
#
# Youngs Moduli (GPa) = 52.91030 138.44341 47.83299
#
# Poissons Ratio (x) = 0.41979 -0.13554
# Poissons Ratio (y) = 0.16044 0.12822
# Poissons Ratio (z) = -0.14993 0.37111
#
# Static dielectric constant tensor:
#      x y z
#    x 1.950660 0.011140 0.053480 
#    y 0.011140 1.838920 0.003240 
#    z 0.053480 0.003240 1.871860 
# 
# From -- ./inp_files/447809.got.cif
#   From: 2010.05.17/outbox.cif.g08.bks.cpg/sg2_224_cif.got.tgz:447809.got - 2010.06.03 11:33:40.
