data_PCOD9034207
_publ_section_title
;
Structure prediction by ZEFSAII (Michael W. Deem and Ramdas Pophale) SiO2 
 PCOD9034207
Probable space group: P -1
;
_chemical_formula_sum "Si O2"
_cell_formula_units_Z 13
_cell_length_a 15.326007
_cell_length_b 9.528145
_cell_length_c 8.898972
_cell_angle_alpha 59.260258
_cell_angle_beta 39.982445
_cell_angle_gamma 38.090413
_cell_volume 501.072828
_symmetry_space_group_name_H-M "P -1"
_symmetry_group_IT_number 2
_symmetry_cell_setting 'triclinic'
loop_
_space_group_symop_operation_xyz
x,y,z
-x,-y,-z
loop_
_atom_site_type_symbol
_atom_site_label
_atom_site_fract_x
_atom_site_fract_y
_atom_site_fract_z
Si Si1 0.184789 0.066331 0.676241
Si Si2 0.704297 0.861085 0.072290
Si Si3 0.485227 0.816087 0.187885
Si Si4 0.073600 0.766396 0.601532
Si Si5 0.571019 0.625063 0.844608
Si Si6 0.788556 0.328703 0.186491
Si Si7 0.500000 0.000000 0.500000
O O1 0.263021 0.021645 0.426085
O O2 0.209207 0.852023 0.793490
O O3 0.332539 0.051282 0.579819
O O4 0.960515 0.286176 0.899715
O O5 0.546131 0.124449 0.220468
O O6 0.893446 0.800316 0.838160
O O7 0.614325 0.861068 0.042981
O O8 0.687552 0.749123 0.288799
O O9 0.584712 0.588367 0.281150
O O10 0.530062 0.715119 0.018178
O O11 0.219660 0.563920 0.398890
O O12 0.160200 0.729356 0.672957
O O13 0.000000 0.000000 0.500000
O O14 0.500000 0.500000 0.000000
#
# Coordination Sequence:
#
# PCOD9034207 Si02
#       7
#     2   2   2   2   2   2   1
#     4  10  23  42  72 103 149 183 248 295 360 425
#     4  11  26  47  71 106 150 188 245 298 372 430
#     4  11  27  46  73 108 148 190 244 304 367 433
#     4  12  27  46  74 107 148 188 246 303 364 440
#     4  12  27  45  77 102 145 196 239 299 370 431
#     4  11  25  43  76 108 142 195 248 300 363 429
#     4  10  22  44  72 102 146 186 236 302 356 428
#
# _framework density 25.944333
#
# number of rings (size 3 to 8) (size 9 to 14) (size 15 to 20)
#    0.000    0.923    3.077    1.846   10.769    3.692 
#    0.000    0.000    0.000    0.000    0.000    0.000 
#    0.000    0.000    0.000    0.000    0.000    0.000 
#
# Total GULP energy -72600.146457 kJ/mol
# GULP energy per Si atom -5584.626651 kJ/mol
# Density = 2.588528 g / cm^3
# Si number density = 25.944333 Si / 1000 Ang^3
#
#
#
# Elastic Constant Matrix: (Units=GPa)
#
#
# Indices 1 2 3 4 5 6 
#
# 1 131.3083 29.0083 58.5913 -6.2889 23.0240 30.5261
# 2 29.0083 97.2595 11.3059 3.1980 8.3012 13.5840
# 3 58.5913 11.3059 219.9395 20.5549 3.8848 2.0364
# 4 -6.2889 3.1980 20.5549 44.6084 10.4308 -2.7653
# 5 23.0240 8.3012 3.8848 10.4308 63.8822 -8.6838
# 6 30.5261 13.5840 2.0364 -2.7653 -8.6838 44.0848
#
#
#
# Elastic Compliance Matrix: (Units=1/GPa)
#
#
# Indices 1 2 3 4 5 6 
#
# 1 0.013116 -0.001803 -0.003629 0.004542 -0.006280 -0.009311
# 2 -0.001803 0.011281 0.000035 -0.001001 -0.000993 -0.002487
# 3 -0.003629 0.000035 0.005780 -0.003460 0.001840 0.002381
# 4 0.004542 -0.001001 -0.003460 0.025951 -0.005833 -0.002198
# 5 -0.006280 -0.000993 0.001840 -0.005833 0.019993 0.008142
# 6 -0.009311 -0.002487 0.002381 -0.002198 0.008142 0.031253
#
#
# Mechanical properties :
#
#
# Convention : Reuss Voigt Hill
#
# Bulk Modulus (GPa) = 51.59211 71.81314 61.70263
# Shear Modulus (GPa) = 40.11831 53.82184 46.97008
#
# Velocity S-wave (km/s) = 3.93660 4.55962 4.25952
# Velocity P-wave (km/s) = 6.37113 7.44715 6.93005
#
# Compressibility (1/GPa) = 0.01938281
#
# Stress axis : x y z
#
# Youngs Moduli (GPa) = 76.23992 88.64784 172.99569
#
# Poissons Ratio (x) = 0.15984 0.62777
# Poissons Ratio (y) = 0.13747 -0.00598
# Poissons Ratio (z) = 0.27666 -0.00307
#
# Static dielectric constant tensor:
#      x y z
#    x 2.055140 -0.085820 0.144090 
#    y -0.085820 2.269270 -0.092080 
#    z 0.144090 -0.092080 2.358700 
# 
# From -- ./inp_files/294640.got.cif
#   From: 2010.05.17/outbox.cif.g08.bks.cpg/sg2_148_cif.got.tgz:294640.got - 2010.06.03 11:33:40.
