data_PCOD9034812
_publ_section_title
;
Structure prediction by ZEFSAII (Michael W. Deem and Ramdas Pophale) SiO2 
 PCOD9034812
Probable space group: P -1
;
_chemical_formula_sum "Si O2"
_cell_formula_units_Z 14
_cell_length_a 7.346134
_cell_length_b 9.239816
_cell_length_c 20.985159
_cell_angle_alpha 151.887412
_cell_angle_beta 120.897942
_cell_angle_gamma 66.886066
_cell_volume 569.481054
_symmetry_space_group_name_H-M "P -1"
_symmetry_group_IT_number 2
_symmetry_cell_setting 'triclinic'
loop_
_space_group_symop_operation_xyz
x,y,z
-x,-y,-z
loop_
_atom_site_type_symbol
_atom_site_label
_atom_site_fract_x
_atom_site_fract_y
_atom_site_fract_z
Si Si1 0.751340 0.272477 0.411205
Si Si2 0.687341 0.950847 0.961400
Si Si3 0.420678 0.201923 0.913148
Si Si4 0.544821 0.293345 0.667884
Si Si5 0.058254 0.285684 0.573760
Si Si6 0.018376 0.991051 0.850618
Si Si7 0.329411 0.049912 0.323872
O O1 0.571549 0.167047 0.391339
O O2 0.760004 0.641722 0.547617
O O3 0.968037 0.187370 0.449047
O O4 0.664230 0.086552 0.260945
O O5 0.668050 0.617751 0.793273
O O6 0.629257 0.175673 0.983438
O O7 0.500000 0.000000 0.000000
O O8 0.902955 0.961744 0.044807
O O9 0.216426 0.163806 0.910144
O O10 0.500000 0.500000 0.000000
O O11 0.308433 0.376905 0.666432
O O12 0.500000 0.000000 0.500000
O O13 0.656547 0.195553 0.713616
O O14 0.973679 0.613150 0.693507
O O15 0.000000 0.000000 0.500000
O O16 0.808840 0.079983 0.812810
#
# Coordination Sequence:
#
# PCOD9034812 Si02
#       7
#     2   2   2   2   2   2   2
#     4  10  23  41  61  96 135 169 222 274 331 395
#     4  10  22  45  68  92 135 179 221 271 331 408
#     4  11  24  40  69  94 130 173 228 273 322 399
#     4  12  24  40  69 102 135 170 229 281 331 387
#     4  11  22  40  70  96 129 183 223 265 338 407
#     4  10  24  44  68  95 131 181 225 267 337 405
#     4  10  23  41  65  96 135 171 217 286 333 387
#
# _framework density 24.583784000000001
#
# number of rings (size 3 to 8) (size 9 to 14) (size 15 to 20)
#    0.000    1.429    4.286    0.857    8.000    1.714 
#    0.000    0.714    0.000    0.000    0.000    0.000 
#    0.000    0.000    0.000    0.000    0.000    0.000 
#
# Total GULP energy -78150.512837 kJ/mol
# GULP energy per Si atom -5582.179488 kJ/mol
# Density = 2.452783 g / cm^3
# Si number density = 24.583784 Si / 1000 Ang^3
#
#
#
# Elastic Constant Matrix: (Units=GPa)
#
#
# Indices 1 2 3 4 5 6 
#
# 1 38.1722 41.8177 16.3956 5.4570 18.7632 7.5153
# 2 41.8177 203.3755 39.2065 -25.3270 11.5621 -0.3630
# 3 16.3956 39.2065 109.6953 -21.3749 5.6651 1.0331
# 4 5.4570 -25.3270 -21.3749 44.6755 -3.6004 13.2318
# 5 18.7632 11.5621 5.6651 -3.6004 31.1255 -2.3676
# 6 7.5153 -0.3630 1.0331 13.2318 -2.3676 30.8927
#
#
#
# Elastic Compliance Matrix: (Units=1/GPa)
#
#
# Indices 1 2 3 4 5 6 
#
# 1 0.065145 -0.012252 -0.006864 -0.017894 -0.036369 -0.010885
# 2 -0.012252 0.007918 -0.000086 0.006111 0.005233 0.000860
# 3 -0.006864 -0.000086 0.011385 0.006891 0.002784 -0.001450
# 4 -0.017894 0.006111 0.006891 0.035160 0.010565 -0.010055
# 5 -0.036369 0.005233 0.002784 0.010565 0.053461 0.008388
# 6 -0.010885 0.000860 -0.001450 -0.010055 0.008388 0.040027
#
#
# Mechanical properties :
#
#
# Convention : Reuss Voigt Hill
#
# Bulk Modulus (GPa) = 21.71830 60.67585 41.19708
# Shear Modulus (GPa) = 18.73713 38.26028 28.49871
#
# Velocity S-wave (km/s) = 2.76375 3.94930 3.40847
# Velocity P-wave (km/s) = 4.36325 6.74765 5.68194
#
# Compressibility (1/GPa) = 0.04604412
#
# Stress axis : x y z
#
# Youngs Moduli (GPa) = 15.35030 126.29479 87.83118
#
# Poissons Ratio (x) = 1.54738 0.60287
# Poissons Ratio (y) = 0.18807 0.00758
# Poissons Ratio (z) = 0.10536 0.01090
#
# Static dielectric constant tensor:
#      x y z
#    x 2.160770 0.300860 0.407690 
#    y 0.300860 2.412170 0.852270 
#    z 0.407690 0.852270 3.376480 
# 
# From -- ./inp_files/299530.got.cif
#   From: 2010.05.17/outbox.cif.g08.bks.cpg/sg2_150_cif.got.tgz:299530.got - 2010.06.03 11:33:40.
