data_PCOD9034955
_publ_section_title
;
Structure prediction by ZEFSAII (Michael W. Deem and Ramdas Pophale) SiO2 
 PCOD9034955
Probable space group: P -1
;
_chemical_formula_sum "Si O2"
_cell_formula_units_Z 14
_cell_length_a 6.511152
_cell_length_b 8.260715
_cell_length_c 17.517555
_cell_angle_alpha 59.416913
_cell_angle_beta 46.161518
_cell_angle_gamma 59.626742
_cell_volume 566.980710
_symmetry_space_group_name_H-M "P -1"
_symmetry_group_IT_number 2
_symmetry_cell_setting 'triclinic'
loop_
_space_group_symop_operation_xyz
x,y,z
-x,-y,-z
loop_
_atom_site_type_symbol
_atom_site_label
_atom_site_fract_x
_atom_site_fract_y
_atom_site_fract_z
Si Si1 0.105833 0.099025 0.667480
Si Si2 0.226959 0.114130 0.880101
Si Si3 0.727063 0.964633 0.534210
Si Si4 0.670565 0.632023 0.064019
Si Si5 0.931686 0.474394 0.770164
Si Si6 0.766285 0.815762 0.843764
Si Si7 0.889322 0.525671 0.609408
O O1 0.182057 0.019635 0.581011
O O2 0.865555 0.302801 0.679533
O O3 0.430384 0.112089 0.603377
O O4 0.986261 0.943181 0.782091
O O5 0.312591 0.236939 0.898813
O O6 0.088819 0.263940 0.813147
O O7 0.521205 0.953715 0.820948
O O8 0.000000 0.000000 0.000000
O O9 0.686559 0.744577 0.607680
O O10 0.000000 0.000000 0.500000
O O11 0.412249 0.519222 0.160437
O O12 0.610476 0.755906 0.972003
O O13 0.000000 0.500000 0.000000
O O14 0.931158 0.628424 0.799607
O O15 0.062617 0.531725 0.643533
O O16 0.000000 0.500000 0.500000
#
# Coordination Sequence:
#
# PCOD9034955 Si02
#       7
#     2   2   2   2   2   2   2
#     4  10  24  42  66 101 132 178 232 289 356 418
#     4  12  26  45  69 104 149 191 243 291 356 435
#     4  10  22  45  69  96 134 176 230 295 356 422
#     4  12  25  45  71 106 150 191 240 300 357 431
#     4  12  26  46  70 105 147 196 242 299 362 425
#     4  12  25  45  72 106 147 194 240 294 363 432
#     4  10  24  45  71 101 139 182 239 299 359 419
#
# _framework density 24.692198999999999
#
# number of rings (size 3 to 8) (size 9 to 14) (size 15 to 20)
#    0.000    0.857    2.857    3.429    4.000    4.000 
#    0.000    2.857    0.000    0.000    0.000    0.000 
#    0.000    0.000    0.000    0.000    0.000    0.000 
#
# Total GULP energy -78160.329838 kJ/mol
# GULP energy per Si atom -5582.880703 kJ/mol
# Density = 2.463600 g / cm^3
# Si number density = 24.692199 Si / 1000 Ang^3
#
#
#
# Elastic Constant Matrix: (Units=GPa)
#
#
# Indices 1 2 3 4 5 6 
#
# 1 79.6526 12.0046 21.7314 -1.5655 3.4261 -8.9184
# 2 12.0046 115.9433 31.8206 -4.5424 -2.0581 -13.9492
# 3 21.7314 31.8206 78.9638 -0.0918 7.6646 -2.3616
# 4 -1.5655 -4.5424 -0.0918 28.9012 -0.4233 2.2964
# 5 3.4261 -2.0581 7.6646 -0.4233 51.0796 -4.3228
# 6 -8.9184 -13.9492 -2.3616 2.2964 -4.3228 46.8594
#
#
#
# Elastic Compliance Matrix: (Units=1/GPa)
#
#
# Indices 1 2 3 4 5 6 
#
# 1 0.013860 -0.000123 -0.003676 0.000528 -0.000178 0.002374
# 2 -0.000123 0.010185 -0.004109 0.001373 0.001288 0.002853
# 3 -0.003676 -0.004109 0.015521 -0.000725 -0.002366 -0.001323
# 4 0.000528 0.001373 -0.000725 0.034944 0.000316 -0.001211
# 5 -0.000178 0.001288 -0.002366 0.000316 0.020174 0.002076
# 6 0.002374 0.002853 -0.001323 -0.001211 0.002076 0.022826
#
#
# Mechanical properties :
#
#
# Convention : Reuss Voigt Hill
#
# Bulk Modulus (GPa) = 42.10457 45.07479 43.58968
# Shear Modulus (GPa) = 35.40050 39.30158 37.35104
#
# Velocity S-wave (km/s) = 3.79049 3.99389 3.89352
# Velocity P-wave (km/s) = 6.02046 6.28987 6.15664
#
# Compressibility (1/GPa) = 0.02375039
#
# Stress axis : x y z
#
# Youngs Moduli (GPa) = 72.15148 98.18205 64.43071
#
# Poissons Ratio (x) = 0.01208 0.23684
# Poissons Ratio (y) = 0.00888 0.26472
# Poissons Ratio (z) = 0.26522 0.40339
#
# Static dielectric constant tensor:
#      x y z
#    x 2.032630 0.000330 0.021980 
#    y 0.000330 2.006630 -0.007470 
#    z 0.021980 -0.007470 1.970890 
# 
# From -- ./inp_files/143038.got.cif
#   From: 2010.05.17/outbox.cif.g08.bks.cpg/sg2_72_cif.got.tgz:143038.got - 2010.06.03 11:33:40.
