data_PCOD9034409
_publ_section_title
;
Structure prediction by ZEFSAII (Michael W. Deem and Ramdas Pophale) SiO2 
 PCOD9034409
Probable space group: P -1
;
_chemical_formula_sum "Si O2"
_cell_formula_units_Z 14
_cell_length_a 11.433367
_cell_length_b 12.601942
_cell_length_c 5.619631
_cell_angle_alpha 47.223397
_cell_angle_beta 118.591190
_cell_angle_gamma 112.697673
_cell_volume 519.513984
_symmetry_space_group_name_H-M "P -1"
_symmetry_group_IT_number 2
_symmetry_cell_setting 'triclinic'
loop_
_space_group_symop_operation_xyz
x,y,z
-x,-y,-z
loop_
_atom_site_type_symbol
_atom_site_label
_atom_site_fract_x
_atom_site_fract_y
_atom_site_fract_z
Si Si1 0.807096 0.085671 0.153720
Si Si2 0.684833 0.126365 0.470507
Si Si3 0.412209 0.636633 0.717116
Si Si4 0.281475 0.202762 0.964954
Si Si5 0.355623 0.233809 0.503368
Si Si6 0.880446 0.471992 0.241801
Si Si7 0.026175 0.256586 0.385857
O O1 0.734115 0.146890 0.218781
O O2 0.956318 0.139336 0.311143
O O3 0.733918 0.921886 0.320586
O O4 0.781732 0.142038 0.777786
O O5 0.585094 0.247623 0.240128
O O6 0.653517 0.951072 0.718339
O O7 0.485313 0.744062 0.426172
O O8 0.257884 0.571067 0.689256
O O9 0.500000 0.500000 0.000000
O O10 0.341561 0.295996 0.658940
O O11 0.122597 0.183029 0.776947
O O12 0.300729 0.275136 0.128931
O O13 0.923339 0.347880 0.292022
O O14 0.000000 0.500000 0.500000
O O15 0.887496 0.619407 0.870261
#
# Coordination Sequence:
#
# PCOD9034409 Si02
#       7
#     2   2   2   2   2   2   2
#     4  10  22  44  74 107 147 189 241 306 366 428
#     4  10  23  44  67 108 144 187 239 302 365 424
#     4  12  26  48  76 108 150 200 247 300 371 448
#     4  10  24  44  74 110 148 192 244 307 363 436
#     4  10  25  46  70 111 147 188 246 301 369 431
#     4  11  26  49  72 105 156 197 247 301 364 445
#     4  11  24  43  75 106 147 199 248 300 372 433
#
# _framework density 26.948264999999999
#
# number of rings (size 3 to 8) (size 9 to 14) (size 15 to 20)
#    0.000    1.429    1.429    1.714    4.000   10.286 
#    5.143    2.143    0.000    0.000    0.000    0.000 
#    0.000    0.000    0.000    0.000    0.000    0.000 
#
# Total GULP energy -77975.929050 kJ/mol
# GULP energy per Si atom -5569.709218 kJ/mol
# Density = 2.688693 g / cm^3
# Si number density = 26.948265 Si / 1000 Ang^3
#
#
#
# Elastic Constant Matrix: (Units=GPa)
#
#
# Indices 1 2 3 4 5 6 
#
# 1 175.3817 48.3942 48.3604 5.4913 -8.0651 17.9164
# 2 48.3942 144.4457 70.3423 -12.0521 17.1174 17.0811
# 3 48.3604 70.3423 131.1089 35.2781 5.7366 11.5099
# 4 5.4913 -12.0521 35.2781 61.1856 -11.6167 1.6420
# 5 -8.0651 17.1174 5.7366 -11.6167 44.8865 7.3331
# 6 17.9164 17.0811 11.5099 1.6420 7.3331 66.7094
#
#
#
# Elastic Compliance Matrix: (Units=1/GPa)
#
#
# Indices 1 2 3 4 5 6 
#
# 1 0.006865 -0.001405 -0.001959 0.000739 0.002445 -0.001433
# 2 -0.001405 0.011922 -0.007396 0.006399 -0.001979 -0.001339
# 3 -0.001959 -0.007396 0.015210 -0.010484 -0.002238 0.000299
# 4 0.000739 0.006399 -0.010484 0.024684 0.005626 -0.001254
# 5 0.002445 -0.001979 -0.002238 0.005626 0.025659 -0.002723
# 6 -0.001433 -0.001339 0.000299 -0.001254 -0.002723 0.015997
#
#
# Mechanical properties :
#
#
# Convention : Reuss Voigt Hill
#
# Bulk Modulus (GPa) = 80.13521 87.23669 83.68595
# Shear Modulus (GPa) = 39.67748 53.47893 46.57820
#
# Velocity S-wave (km/s) = 3.84129 4.45961 4.16195
# Velocity P-wave (km/s) = 7.03387 7.67852 7.36325
#
# Compressibility (1/GPa) = 0.01247891
#
# Stress axis : x y z
#
# Youngs Moduli (GPa) = 145.66045 83.87744 65.74529
#
# Poissons Ratio (x) = 0.11784 0.12877
# Poissons Ratio (y) = 0.20464 0.48624
# Poissons Ratio (z) = 0.28529 0.62035
#
# Static dielectric constant tensor:
#      x y z
#    x 2.335880 0.092430 0.045580 
#    y 0.092430 2.140040 -0.049310 
#    z 0.045580 -0.049310 2.220110 
# 
# From -- ./inp_files/68816.got.cif
#   From: 2010.05.17/outbox.cif.g08.bks.cpg/sg2_35_cif.got.tgz:68816.got - 2010.06.03 11:33:40.
