data_PCOD9034516
_publ_section_title
;
Structure prediction by ZEFSAII (Michael W. Deem and Ramdas Pophale) SiO2 
 PCOD9034516
Probable space group: P -1
;
_chemical_formula_sum "Si O2"
_cell_formula_units_Z 14
_cell_length_a 11.220298
_cell_length_b 24.366109
_cell_length_c 7.226717
_cell_angle_alpha 42.485597
_cell_angle_beta 135.312348
_cell_angle_gamma 156.527273
_cell_volume 527.124212
_symmetry_space_group_name_H-M "P -1"
_symmetry_group_IT_number 2
_symmetry_cell_setting 'triclinic'
loop_
_space_group_symop_operation_xyz
x,y,z
-x,-y,-z
loop_
_atom_site_type_symbol
_atom_site_label
_atom_site_fract_x
_atom_site_fract_y
_atom_site_fract_z
Si Si1 0.425752 0.028050 0.611000
Si Si2 0.266085 0.223316 0.042734
Si Si3 0.616248 0.936656 0.101564
Si Si4 0.776476 0.314849 0.251151
Si Si5 0.346741 0.434337 0.695496
Si Si6 0.748962 0.725356 0.528513
Si Si7 0.765459 0.361506 0.716659
O O1 0.461923 0.070627 0.756903
O O2 0.543726 0.152968 0.323497
O O3 0.084993 0.866790 0.613855
O O4 0.613915 0.023075 0.781705
O O5 0.275789 0.311211 0.952128
O O6 0.251927 0.246218 0.756903
O O7 0.567792 0.288578 0.215766
O O8 0.967883 0.052402 0.182775
O O9 0.359338 0.774119 0.154375
O O10 0.052596 0.376237 0.499957
O O11 0.876151 0.397469 0.963955
O O12 0.500000 0.500000 0.500000
O O13 0.599763 0.577512 0.743486
O O14 0.531497 0.701221 0.449837
O O15 0.000000 0.500000 0.500000
#
# Coordination Sequence:
#
# PCOD9034516 Si02
#       7
#     2   2   2   2   2   2   2
#     4  11  25  46  75 106 141 193 244 297 356 430
#     4  10  22  44  78 106 140 188 242 297 354 428
#     4  11  25  46  71 108 147 184 246 302 356 423
#     4  11  24  47  80 102 144 192 243 290 358 437
#     4  10  23  44  71 112 145 184 239 294 357 430
#     4  10  24  45  67 105 145 181 246 290 353 435
#     4  11  27  46  69 107 145 186 242 297 362 428
#
# _framework density 26.559204999999999
#
# number of rings (size 3 to 8) (size 9 to 14) (size 15 to 20)
#    0.000    1.429    1.429    1.714    6.000   10.857 
#    5.143    1.429    0.000    0.000    0.000    0.000 
#    0.000    0.000    0.000    0.000    0.000    0.000 
#
# Total GULP energy -78503.523789 kJ/mol
# GULP energy per Si atom -5607.394556 kJ/mol
# Density = 2.649875 g / cm^3
# Si number density = 26.559205 Si / 1000 Ang^3
#
#
#
# Elastic Constant Matrix: (Units=GPa)
#
#
# Indices 1 2 3 4 5 6 
#
# 1 87.4454 42.6179 28.7215 1.7555 17.1215 12.6526
# 2 42.6179 177.0597 28.4633 -7.1472 20.9535 12.4252
# 3 28.7215 28.4633 97.5684 -15.7126 2.8423 11.1428
# 4 1.7555 -7.1472 -15.7126 33.5180 4.8470 -2.8884
# 5 17.1215 20.9535 2.8423 4.8470 41.3247 -3.3547
# 6 12.6526 12.4252 11.1428 -2.8884 -3.3547 55.5871
#
#
#
# Elastic Compliance Matrix: (Units=1/GPa)
#
#
# Indices 1 2 3 4 5 6 
#
# 1 0.015199 -0.002421 -0.003756 -0.002614 -0.004715 -0.002586
# 2 -0.002421 0.006801 -0.000856 0.001481 -0.002632 -0.000880
# 3 -0.003756 -0.000856 0.012662 0.005799 0.000344 -0.001170
# 4 -0.002614 0.001481 0.005799 0.033632 -0.003962 0.000610
# 5 -0.004715 -0.002632 0.000344 -0.003962 0.028178 0.003087
# 6 -0.002586 -0.000880 -0.001170 0.000610 0.003087 0.019227
#
#
# Mechanical properties :
#
#
# Convention : Reuss Voigt Hill
#
# Bulk Modulus (GPa) = 48.55217 62.40875 55.48046
# Shear Modulus (GPa) = 36.59510 43.57067 40.08289
#
# Velocity S-wave (km/s) = 3.71599 4.05472 3.88904
# Velocity P-wave (km/s) = 6.06068 6.74314 6.41100
#
# Compressibility (1/GPa) = 0.02059640
#
# Stress axis : x y z
#
# Youngs Moduli (GPa) = 65.79398 147.03799 78.97521
#
# Poissons Ratio (x) = 0.35592 0.29666
# Poissons Ratio (y) = 0.15926 0.06760
# Poissons Ratio (z) = 0.24714 0.12585
#
# Static dielectric constant tensor:
#      x y z
#    x 2.063320 -0.060220 -0.008150 
#    y -0.060220 2.061510 -0.010720 
#    z -0.008150 -0.010720 2.157140 
# 
# From -- ./inp_files/285801.got.cif
#   From: 2010.05.17/outbox.cif.g08.bks.cpg/sg2_143_cif.got.tgz:285801.got - 2010.06.03 11:33:40.
