data_PCOD9034524
_publ_section_title
;
Structure prediction by ZEFSAII (Michael W. Deem and Ramdas Pophale) SiO2 
 PCOD9034524
Probable space group: P -1
;
_chemical_formula_sum "Si O2"
_cell_formula_units_Z 11
_cell_length_a 7.798460
_cell_length_b 5.181541
_cell_length_c 11.641602
_cell_angle_alpha 106.218817
_cell_angle_beta 102.799356
_cell_angle_gamma 101.374043
_cell_volume 423.270977
_symmetry_space_group_name_H-M "P -1"
_symmetry_group_IT_number 2
_symmetry_cell_setting 'triclinic'
loop_
_space_group_symop_operation_xyz
x,y,z
-x,-y,-z
loop_
_atom_site_type_symbol
_atom_site_label
_atom_site_fract_x
_atom_site_fract_y
_atom_site_fract_z
Si Si1 0.929812 0.144812 0.447110
Si Si2 0.723866 0.113012 0.192437
Si Si3 0.376461 0.680173 0.449451
Si Si4 0.500000 0.500000 0.000000
Si Si5 0.613922 0.700945 0.793372
Si Si6 0.875054 0.202169 0.979259
O O1 0.327311 0.521823 0.301866
O O2 0.875877 0.831339 0.458865
O O3 0.893491 0.136243 0.306173
O O4 0.810826 0.316455 0.513765
O O5 0.589349 0.269462 0.251033
O O6 0.612774 0.791413 0.121001
O O7 0.764995 0.235894 0.083986
O O8 0.500000 0.500000 0.500000
O O9 0.500000 0.000000 0.500000
O O10 0.383915 0.381882 0.084095
O O11 0.740983 0.019067 0.842178
O O12 0.000000 0.500000 0.000000
O O13 0.000000 0.000000 0.000000
#
# Coordination Sequence:
#
# PCOD9034524 Si02
#       6
#     2   2   2   1   2   2
#     4  12  29  52  76 115 159 211 256 327 403 464
#     4  11  26  49  79 111 157 208 270 319 398 480
#     4  12  26  51  80 112 150 204 267 321 380 475
#     4  10  22  44  80 114 144 200 264 328 384 460
#     4  11  26  47  80 113 153 207 266 325 391 478
#     4  11  28  47  73 117 157 201 250 327 402 462
#
# _framework density 25.988081000000001
#
# number of rings (size 3 to 8) (size 9 to 14) (size 15 to 20)
#    0.000    0.727    1.818    4.364   15.273    0.000 
#    0.000    0.000    0.000    0.000    0.000    0.000 
#    0.000    0.000    0.000    0.000    0.000    0.000 
#
# Total GULP energy -61250.929919 kJ/mol
# GULP energy per Si atom -5568.266356 kJ/mol
# Density = 2.592893 g / cm^3
# Si number density = 25.988081 Si / 1000 Ang^3
#
#
#
# Elastic Constant Matrix: (Units=GPa)
#
#
# Indices 1 2 3 4 5 6 
#
# 1 61.7215 8.8355 18.8705 12.7169 -16.3479 -19.1735
# 2 8.8355 163.3741 41.3725 41.9152 6.7406 1.5345
# 3 18.8705 41.3725 161.4000 19.8686 -11.9366 -1.7296
# 4 12.7169 41.9152 19.8686 34.3589 -3.5690 6.2379
# 5 -16.3479 6.7406 -11.9366 -3.5690 43.9781 6.8114
# 6 -19.1735 1.5345 -1.7296 6.2379 6.8114 31.0357
#
#
#
# Elastic Compliance Matrix: (Units=1/GPa)
#
#
# Indices 1 2 3 4 5 6 
#
# 1 0.026058 0.002198 -0.001288 -0.014258 0.005107 0.017663
# 2 0.002198 0.009724 -0.001316 -0.012920 -0.002697 0.003993
# 3 -0.001288 -0.001316 0.007009 -0.001753 0.001533 -0.000324
# 4 -0.014258 -0.012920 -0.001753 0.055221 0.003815 -0.020203
# 5 0.005107 -0.002697 0.001533 0.003815 0.026265 -0.003157
# 6 0.017663 0.003993 -0.000324 -0.020203 -0.003157 0.047671
#
#
# Mechanical properties :
#
#
# Convention : Reuss Voigt Hill
#
# Bulk Modulus (GPa) = 23.82074 58.29472 41.05773
# Shear Modulus (GPa) = 26.77332 43.03567 34.90449
#
# Velocity S-wave (km/s) = 3.21318 4.07378 3.66880
# Velocity P-wave (km/s) = 4.79082 6.67890 5.81204
#
# Compressibility (1/GPa) = 0.04198023
#
# Stress axis : x y z
#
# Youngs Moduli (GPa) = 38.37579 102.84058 142.66515
#
# Poissons Ratio (x) = -0.22607 0.18375
# Poissons Ratio (y) = -0.08436 0.18771
# Poissons Ratio (z) = 0.04943 0.13531
#
# Static dielectric constant tensor:
#      x y z
#    x 2.294190 -0.014640 0.184800 
#    y -0.014640 2.025740 -0.065620 
#    z 0.184800 -0.065620 1.932080 
# 
# From -- ./inp_files/29286.got.cif
#   From: 2010.05.17/outbox.cif.g08.bks.cpg/sg2_15_cif.got.tgz:29286.got - 2010.06.03 11:33:40.
