data_PCOD9034000
_publ_section_title
;
Structure prediction by ZEFSAII (Michael W. Deem and Ramdas Pophale) SiO2 
 PCOD9034000
Probable space group: P -1
;
_chemical_formula_sum "Si O2"
_cell_formula_units_Z 15
_cell_length_a 9.754513
_cell_length_b 5.010630
_cell_length_c 19.126517
_cell_angle_alpha 123.838951
_cell_angle_beta 52.448242
_cell_angle_gamma 125.507309
_cell_volume 572.733889
_symmetry_space_group_name_H-M "P -1"
_symmetry_group_IT_number 2
_symmetry_cell_setting 'triclinic'
loop_
_space_group_symop_operation_xyz
x,y,z
-x,-y,-z
loop_
_atom_site_type_symbol
_atom_site_label
_atom_site_fract_x
_atom_site_fract_y
_atom_site_fract_z
Si Si1 0.906609 0.632707 0.313218
Si Si2 0.000000 0.500000 0.500000
Si Si3 0.340858 0.636007 0.517486
Si Si4 0.795491 0.226615 0.030495
Si Si5 0.221865 0.329748 0.320532
Si Si6 0.458907 0.681156 0.677591
Si Si7 0.226965 0.350515 0.157670
Si Si8 0.392291 0.236100 0.858659
O O1 0.774301 0.407788 0.382137
O O2 0.750270 0.610917 0.300683
O O3 0.054442 0.471640 0.217724
O O4 0.030178 0.014013 0.360142
O O5 0.179532 0.543906 0.497161
O O6 0.147454 0.632973 0.403412
O O7 0.440692 0.364232 0.430942
O O8 0.500000 0.000000 0.500000
O O9 0.658370 0.435316 0.094997
O O10 0.766803 0.037135 0.086088
O O11 0.000000 0.500000 0.000000
O O12 0.772666 0.950670 0.936536
O O13 0.404252 0.338825 0.305458
O O14 0.226433 0.263338 0.227413
O O15 0.431753 0.040674 0.751058
O O16 0.425428 0.657412 0.133518
#
# Coordination Sequence:
#
# PCOD9034000 Si02
#       8
#     2   1   2   2   2   2   2   2
#     4  12  26  45  73 110 149 201 264 317 393 471
#     4  10  22  44  70  98 150 198 248 314 380 474
#     4  11  25  44  70 112 151 207 260 327 394 464
#     4  12  29  50  83 116 159 204 271 333 411 478
#     4  11  25  46  70 109 149 203 256 317 396 462
#     4  11  26  45  76 107 158 199 266 322 397 468
#     4  12  27  49  79 110 157 204 264 326 402 480
#     4  12  27  51  76 121 152 216 259 335 403 481
#
# _framework density 26.190173999999999
#
# number of rings (size 3 to 8) (size 9 to 14) (size 15 to 20)
#    0.000    0.533    2.667    4.000    3.733    7.467 
#    0.000    0.000    0.000    0.000    0.000    0.000 
#    0.000    0.000    0.000    0.000    0.000    0.000 
#
# Total GULP energy -83814.854119 kJ/mol
# GULP energy per Si atom -5587.656941 kJ/mol
# Density = 2.613056 g / cm^3
# Si number density = 26.190174 Si / 1000 Ang^3
#
#
#
# Elastic Constant Matrix: (Units=GPa)
#
#
# Indices 1 2 3 4 5 6 
#
# 1 122.0332 14.3374 0.6764 5.7410 -33.6375 34.7325
# 2 14.3374 112.8293 10.3188 -10.7408 -9.0277 23.0868
# 3 0.6764 10.3188 131.8299 6.0984 -14.9120 -3.8768
# 4 5.7410 -10.7408 6.0984 19.0658 3.6456 3.2821
# 5 -33.6375 -9.0277 -14.9120 3.6456 51.0697 -5.3060
# 6 34.7325 23.0868 -3.8768 3.2821 -5.3060 53.0262
#
#
#
# Elastic Compliance Matrix: (Units=1/GPa)
#
#
# Indices 1 2 3 4 5 6 
#
# 1 0.012690 0.000008 0.000853 -0.004421 0.008180 -0.007161
# 2 0.000008 0.010772 -0.001279 0.007277 0.000478 -0.005192
# 3 0.000853 -0.001279 0.008284 -0.004444 0.003197 0.001198
# 4 -0.004421 0.007277 -0.004444 0.061703 -0.007868 -0.005204
# 5 0.008180 0.000478 0.003197 -0.007868 0.026319 -0.002212
# 6 -0.007161 -0.005192 0.001198 -0.005204 -0.002212 0.025998
#
#
# Mechanical properties :
#
#
# Convention : Reuss Voigt Hill
#
# Bulk Modulus (GPa) = 32.34973 46.37308 39.36141
# Shear Modulus (GPa) = 31.86696 47.38966 39.62831
#
# Velocity S-wave (km/s) = 3.49198 4.25837 3.89408
# Velocity P-wave (km/s) = 5.35138 6.47480 5.93971
#
# Compressibility (1/GPa) = 0.03091216
#
# Stress axis : x y z
#
# Youngs Moduli (GPa) = 78.80378 92.83269 120.71972
#
# Poissons Ratio (x) = -0.00078 -0.10303
# Poissons Ratio (y) = -0.00066 0.15434
# Poissons Ratio (z) = -0.06726 0.11869
#
# Static dielectric constant tensor:
#      x y z
#    x 1.859910 0.278760 0.447470 
#    y 0.278760 1.812390 -0.492320 
#    z 0.447470 -0.492320 1.326170 
# 
# From -- ./inp_files/592628.got.cif
#   From: 2010.05.17/outbox.cif.g08.bks.cpg/sg2_297_cif.got.tgz:592628.got - 2010.06.03 11:33:40.
