data_PCOD9034014
_publ_section_title
;
Structure prediction by ZEFSAII (Michael W. Deem and Ramdas Pophale) SiO2 
 PCOD9034014
Probable space group: P -1
;
_chemical_formula_sum "Si O2"
_cell_formula_units_Z 12
_cell_length_a 6.895438
_cell_length_b 13.135017
_cell_length_c 12.688405
_cell_angle_alpha 149.949069
_cell_angle_beta 71.397452
_cell_angle_gamma 95.711299
_cell_volume 506.255340
_symmetry_space_group_name_H-M "P -1"
_symmetry_group_IT_number 2
_symmetry_cell_setting 'triclinic'
loop_
_space_group_symop_operation_xyz
x,y,z
-x,-y,-z
loop_
_atom_site_type_symbol
_atom_site_label
_atom_site_fract_x
_atom_site_fract_y
_atom_site_fract_z
Si Si1 0.194437 0.080535 0.002372
Si Si2 0.626272 0.662054 0.090788
Si Si3 0.218376 0.028417 0.531748
Si Si4 0.555379 0.641867 0.528555
Si Si5 0.768898 0.157625 0.409769
Si Si6 0.938411 0.498010 0.688010
O O1 0.432592 0.894314 0.816619
O O2 0.175489 0.063423 0.863074
O O3 0.159814 0.333362 0.241330
O O4 0.000000 0.000000 0.000000
O O5 0.425481 0.890066 0.299327
O O6 0.759998 0.742194 0.230484
O O7 0.500000 0.500000 0.000000
O O8 0.786114 0.554583 0.869525
O O9 0.259629 0.894122 0.513256
O O10 0.000000 0.000000 0.500000
O O11 0.500000 0.500000 0.500000
O O12 0.436220 0.664326 0.455790
O O13 0.811933 0.531753 0.365055
O O14 0.957543 0.251301 0.439785
#
# Coordination Sequence:
#
# PCOD9034014 Si02
#       6
#     2   2   2   2   2   2
#     4  10  22  44  70  99 142 177 240 305 359 428
#     4  11  24  45  70 106 147 189 247 301 357 442
#     4  11  25  46  72 105 148 194 247 301 363 439
#     4  10  23  43  71 101 136 183 244 296 364 430
#     4  10  24  44  66 105 143 178 252 296 351 456
#     4  12  22  45  72  99 145 193 231 304 372 421
#
# _framework density 23.703455000000002
#
# number of rings (size 3 to 8) (size 9 to 14) (size 15 to 20)
#    1.000    0.333    5.000    0.000    0.000    8.667 
#    3.000    1.667    0.000    0.000    0.000    0.000 
#    0.000    0.000    0.000    0.000    0.000    0.000 
#
# Total GULP energy -66825.039572 kJ/mol
# GULP energy per Si atom -5568.753298 kJ/mol
# Density = 2.364950 g / cm^3
# Si number density = 23.703455 Si / 1000 Ang^3
#
#
#
# Elastic Constant Matrix: (Units=GPa)
#
#
# Indices 1 2 3 4 5 6 
#
# 1 137.0984 53.8590 32.7833 -5.5288 -10.2442 14.6251
# 2 53.8590 138.9030 32.5046 9.7264 -4.2864 20.0771
# 3 32.7833 32.5046 82.8113 -3.7085 -0.3697 9.5647
# 4 -5.5288 9.7264 -3.7085 37.5826 11.7150 3.0345
# 5 -10.2442 -4.2864 -0.3697 11.7150 50.8315 1.3947
# 6 14.6251 20.0771 9.5647 3.0345 1.3947 41.0608
#
#
#
# Elastic Compliance Matrix: (Units=1/GPa)
#
#
# Indices 1 2 3 4 5 6 
#
# 1 0.009315 -0.002933 -0.002283 0.001628 0.001280 -0.001516
# 2 -0.002933 0.009572 -0.002405 -0.003233 0.001022 -0.002871
# 3 -0.002283 -0.002405 0.014179 0.002116 -0.001008 -0.001436
# 4 0.001628 -0.003233 0.002116 0.030144 -0.006836 -0.001487
# 5 0.001280 0.001022 -0.001008 -0.006836 0.021611 -0.000950
# 6 -0.001516 -0.002871 -0.001436 -0.001487 -0.000950 0.026775
#
#
# Mechanical properties :
#
#
# Convention : Reuss Voigt Hill
#
# Bulk Modulus (GPa) = 56.09868 66.34518 61.22193
# Shear Modulus (GPa) = 37.65652 41.87269 39.76460
#
# Velocity S-wave (km/s) = 3.99011 4.20756 4.10028
# Velocity P-wave (km/s) = 6.70420 7.18716 6.94987
#
# Compressibility (1/GPa) = 0.01782573
#
# Stress axis : x y z
#
# Youngs Moduli (GPa) = 107.35252 104.46868 70.52520
#
# Poissons Ratio (x) = 0.30642 0.16099
# Poissons Ratio (y) = 0.31488 0.16959
# Poissons Ratio (z) = 0.24505 0.25121
#
# Static dielectric constant tensor:
#      x y z
#    x 1.957380 -0.015450 0.067800 
#    y -0.015450 1.916600 -0.036280 
#    z 0.067800 -0.036280 1.998580 
# 
# From -- ./inp_files/483426.got.cif
#   From: 2010.05.17/outbox.cif.g08.bks.cpg/sg2_242_cif.got.tgz:483426.got - 2010.06.03 11:33:40.
