data_PCOD9034383
_publ_section_title
;
Structure prediction by ZEFSAII (Michael W. Deem and Ramdas Pophale) SiO2 
 PCOD9034383
Probable space group: P -1
;
_chemical_formula_sum "Si O2"
_cell_formula_units_Z 14
_cell_length_a 12.516773
_cell_length_b 10.444564
_cell_length_c 11.554608
_cell_angle_alpha 136.879417
_cell_angle_beta 139.203815
_cell_angle_gamma 43.788731
_cell_volume 624.253766
_symmetry_space_group_name_H-M "P -1"
_symmetry_group_IT_number 2
_symmetry_cell_setting 'triclinic'
loop_
_space_group_symop_operation_xyz
x,y,z
-x,-y,-z
loop_
_atom_site_type_symbol
_atom_site_label
_atom_site_fract_x
_atom_site_fract_y
_atom_site_fract_z
Si Si1 0.834321 0.978088 0.288992
Si Si2 0.987515 0.284530 0.377593
Si Si3 0.876496 0.699046 0.957522
Si Si4 0.689410 0.382798 0.024281
Si Si5 0.519232 0.268589 0.368319
Si Si6 0.639062 0.075834 0.596299
Si Si7 0.918675 0.593437 0.245635
O O1 0.826213 0.771040 0.196866
O O2 0.658124 0.151911 0.304814
O O3 0.883762 0.906454 0.149858
O O4 0.000000 0.000000 0.500000
O O5 0.967679 0.316788 0.520467
O O6 0.000000 0.500000 0.500000
O O7 0.830207 0.265934 0.161892
O O8 0.174576 0.110034 0.389021
O O9 0.673125 0.731168 0.812853
O O10 0.954918 0.622350 0.844685
O O11 0.000000 0.500000 0.000000
O O12 0.762683 0.548798 0.148663
O O13 0.500000 0.500000 0.000000
O O14 0.671998 0.241184 0.813896
O O15 0.500000 0.500000 0.500000
O O16 0.579544 0.168269 0.479166
O O17 0.500000 0.000000 0.500000
#
# Coordination Sequence:
#
# PCOD9034383 Si02
#       7
#     2   2   2   2   2   2   2
#     4  11  24  47  70 105 146 189 244 304 370 437
#     4  10  22  46  73 101 146 187 241 300 367 429
#     4  10  24  44  73 103 143 190 244 300 368 433
#     4  11  26  44  74 107 148 194 246 299 374 439
#     4  12  27  47  77 109 148 196 246 307 369 442
#     4  12  27  48  75 111 148 193 251 302 372 440
#     4  10  22  44  74 102 144 188 243 307 361 440
#
# _framework density 22.426776
#
# number of rings (size 3 to 8) (size 9 to 14) (size 15 to 20)
#    0.000    1.143    1.429    4.286   12.000    0.000 
#    2.571    0.000    0.000    0.000    0.000    0.000 
#    0.000    0.000    0.000    0.000    0.000    0.000 
#
# Total GULP energy -78188.575236 kJ/mol
# GULP energy per Si atom -5584.898231 kJ/mol
# Density = 2.237573 g / cm^3
# Si number density = 22.426776 Si / 1000 Ang^3
#
#
#
# Elastic Constant Matrix: (Units=GPa)
#
#
# Indices 1 2 3 4 5 6 
#
# 1 77.0550 49.5997 22.3603 -3.4252 1.8117 -23.7395
# 2 49.5997 157.3197 56.3181 -2.9462 -9.9755 -31.0117
# 3 22.3603 56.3181 148.5915 -4.4049 -11.2338 -27.4490
# 4 -3.4252 -2.9462 -4.4049 48.0921 -10.0557 -4.1392
# 5 1.8117 -9.9755 -11.2338 -10.0557 39.0004 3.2998
# 6 -23.7395 -31.0117 -27.4490 -4.1392 3.2998 61.6241
#
#
#
# Elastic Compliance Matrix: (Units=1/GPa)
#
#
# Indices 1 2 3 4 5 6 
#
# 1 0.017529 -0.004707 -0.000167 0.000866 -0.002223 0.004487
# 2 -0.004707 0.009120 -0.002275 0.000558 0.001896 0.001699
# 3 -0.000167 -0.002275 0.008249 0.001214 0.001908 0.002444
# 4 0.000866 0.000558 0.001214 0.022466 0.006047 0.002340
# 5 -0.002223 0.001896 0.001908 0.006047 0.028352 -0.000164
# 6 0.004487 0.001699 0.002444 0.002340 -0.000164 0.020066
#
#
# Mechanical properties :
#
#
# Convention : Reuss Voigt Hill
#
# Bulk Modulus (GPa) = 48.54215 71.05807 59.80011
# Shear Modulus (GPa) = 39.38649 46.72252 43.05450
#
# Velocity S-wave (km/s) = 4.19528 4.56931 4.38628
# Velocity P-wave (km/s) = 6.72004 7.71955 7.23707
#
# Compressibility (1/GPa) = 0.02060065
#
# Stress axis : x y z
#
# Youngs Moduli (GPa) = 57.04762 109.64380 121.22725
#
# Poissons Ratio (x) = 0.51609 0.02029
# Poissons Ratio (y) = 0.26852 0.27575
# Poissons Ratio (z) = 0.00955 0.24940
#
# Static dielectric constant tensor:
#      x y z
#    x 2.067740 0.110850 -0.118760 
#    y 0.110850 1.760320 -0.010510 
#    z -0.118760 -0.010510 1.713410 
# 
# From -- ./inp_files/429158.got.cif
#   From: 2010.05.17/outbox.cif.g08.bks.cpg/sg2_215_cif.got.tgz:429158.got - 2010.06.03 11:33:40.
