data_PCOD9034080
_publ_section_title
;
Structure prediction by ZEFSAII (Michael W. Deem and Ramdas Pophale) SiO2 
 PCOD9034080
Probable space group: P -1
;
_chemical_formula_sum "Si O2"
_cell_formula_units_Z 14
_cell_length_a 15.132905
_cell_length_b 7.304655
_cell_length_c 9.873001
_cell_angle_alpha 113.413484
_cell_angle_beta 47.492732
_cell_angle_gamma 83.450448
_cell_volume 608.914305
_symmetry_space_group_name_H-M "P -1"
_symmetry_group_IT_number 2
_symmetry_cell_setting 'triclinic'
loop_
_space_group_symop_operation_xyz
x,y,z
-x,-y,-z
loop_
_atom_site_type_symbol
_atom_site_label
_atom_site_fract_x
_atom_site_fract_y
_atom_site_fract_z
Si Si1 0.533849 0.585969 0.129330
Si Si2 0.623505 0.501162 0.516895
Si Si3 0.943056 0.556307 0.925663
Si Si4 0.809221 0.599376 0.533953
Si Si5 0.759407 0.358833 0.046518
Si Si6 0.077100 0.153920 0.193972
Si Si7 0.622644 0.933351 0.040880
O O1 0.414344 0.643929 0.384570
O O2 0.509259 0.217359 0.256115
O O3 0.500000 0.500000 0.000000
O O4 0.556430 0.798249 0.138934
O O5 0.758433 0.492988 0.440662
O O6 0.659134 0.419033 0.300631
O O7 0.897473 0.091825 0.855981
O O8 0.077609 0.352296 0.633706
O O9 0.000000 0.500000 0.000000
O O10 0.805691 0.544713 0.050324
O O11 0.917982 0.798271 0.957716
O O12 0.666891 0.825490 0.812162
O O13 0.916214 0.384482 0.465529
O O14 0.681155 0.379946 0.993609
O O15 0.218334 0.142608 0.095349
#
# Coordination Sequence:
#
# PCOD9034080 Si02
#       7
#     2   2   2   2   2   2   2
#     4  12  26  44  70 105 139 186 238 284 353 423
#     4  12  26  44  72 102 146 183 228 295 351 419
#     4  10  22  44  71 104 135 183 234 285 351 410
#     4  10  23  45  69 102 140 181 234 291 348 415
#     4  12  24  48  71 106 141 183 243 284 353 424
#     4  10  24  43  73  97 143 182 228 293 348 406
#     4  12  24  47  68 100 143 187 232 290 351 412
#
# _framework density 22.991738999999999
#
# number of rings (size 3 to 8) (size 9 to 14) (size 15 to 20)
#    0.857    0.000    5.714    1.286    0.000    4.000 
#    5.143    1.429    0.000    0.000    0.000    0.000 
#    0.000    0.000    0.000    0.000    0.000    0.000 
#
# Total GULP energy -78097.144633 kJ/mol
# GULP energy per Si atom -5578.367474 kJ/mol
# Density = 2.293941 g / cm^3
# Si number density = 22.991739 Si / 1000 Ang^3
#
#
#
# Elastic Constant Matrix: (Units=GPa)
#
#
# Indices 1 2 3 4 5 6 
#
# 1 114.8838 11.3017 10.4250 6.0300 1.1417 -20.7531
# 2 11.3017 70.6975 21.5279 -6.5658 5.2624 0.1139
# 3 10.4250 21.5279 97.4873 -2.3984 -3.9625 -3.9552
# 4 6.0300 -6.5658 -2.3984 42.5750 -4.3091 -7.1706
# 5 1.1417 5.2624 -3.9625 -4.3091 31.2815 -7.1732
# 6 -20.7531 0.1139 -3.9552 -7.1706 -7.1732 30.3723
#
#
#
# Elastic Compliance Matrix: (Units=1/GPa)
#
#
# Indices 1 2 3 4 5 6 
#
# 1 0.010207 -0.001670 -0.000381 -0.000366 0.001458 0.007189
# 2 -0.001670 0.015893 -0.003500 0.001824 -0.003263 -0.001996
# 3 -0.000381 -0.003500 0.011277 0.000751 0.002596 0.002012
# 4 -0.000366 0.001824 0.000751 0.025548 0.004935 0.007038
# 5 0.001458 -0.003263 0.002596 0.004935 0.035997 0.011013
# 6 0.007189 -0.001996 0.002012 0.007038 0.011013 0.042369
#
#
# Mechanical properties :
#
#
# Convention : Reuss Voigt Hill
#
# Bulk Modulus (GPa) = 38.05807 41.06423 39.56115
# Shear Modulus (GPa) = 31.02695 36.83336 33.93016
#
# Velocity S-wave (km/s) = 3.67752 4.00687 3.84572
# Velocity P-wave (km/s) = 5.88396 6.26944 6.07976
#
# Compressibility (1/GPa) = 0.02627564
#
# Stress axis : x y z
#
# Youngs Moduli (GPa) = 97.97588 62.92137 88.67658
#
# Poissons Ratio (x) = 0.10507 0.03377
# Poissons Ratio (y) = 0.16360 0.31035
# Poissons Ratio (z) = 0.03731 0.22021
#
# Static dielectric constant tensor:
#      x y z
#    x 1.901560 -0.003610 -0.014410 
#    y -0.003610 1.851470 -0.014190 
#    z -0.014410 -0.014190 1.895610 
# 
# From -- ./inp_files/299091.got.cif
#   From: 2010.05.17/outbox.cif.g08.bks.cpg/sg2_150_cif.got.tgz:299091.got - 2010.06.03 11:33:40.
