data_PCOD9034387
_publ_section_title
;
Structure prediction by ZEFSAII (Michael W. Deem and Ramdas Pophale) SiO2 
 PCOD9034387
Probable space group: P -1
;
_chemical_formula_sum "Si O2"
_cell_formula_units_Z 14
_cell_length_a 6.824233
_cell_length_b 28.078131
_cell_length_c 13.828146
_cell_angle_alpha 19.917352
_cell_angle_beta 47.350863
_cell_angle_gamma 38.827696
_cell_volume 546.899762
_symmetry_space_group_name_H-M "P -1"
_symmetry_group_IT_number 2
_symmetry_cell_setting 'triclinic'
loop_
_space_group_symop_operation_xyz
x,y,z
-x,-y,-z
loop_
_atom_site_type_symbol
_atom_site_label
_atom_site_fract_x
_atom_site_fract_y
_atom_site_fract_z
Si Si1 0.122801 0.330487 0.548665
Si Si2 0.364371 0.528267 0.206393
Si Si3 0.184438 0.538604 0.973831
Si Si4 0.476091 0.602455 0.382948
Si Si5 0.766395 0.914123 0.344989
Si Si6 0.207285 0.058096 0.943427
Si Si7 0.315080 0.146414 0.202274
O O1 0.766707 0.435865 0.527717
O O2 0.413408 0.125368 0.821004
O O3 0.312063 0.387991 0.446640
O O4 0.085438 0.434929 0.265295
O O5 0.675825 0.507572 0.093178
O O6 0.375414 0.499333 0.371885
O O7 0.066432 0.719606 0.915054
O O8 0.903582 0.735955 0.689904
O O9 0.500000 0.500000 0.000000
O O10 0.098528 0.755589 0.263250
O O11 0.557988 0.733160 0.068876
O O12 0.762826 0.900948 0.256486
O O13 0.419738 0.054334 0.238800
O O14 0.010889 0.967811 0.184726
O O15 0.500000 0.000000 0.500000
#
# Coordination Sequence:
#
# PCOD9034387 Si02
#       7
#     2   2   2   2   2   2   2
#     4  11  23  44  74 102 136 181 239 289 337 421
#     4  11  25  46  78 101 142 189 236 287 350 420
#     4  10  22  44  74 103 137 181 234 285 351 409
#     4  12  26  45  73 103 140 191 242 280 348 429
#     4  11  25  44  67 103 141 178 223 291 353 404
#     4  11  24  40  68 101 138 177 227 287 347 409
#     4  12  26  48  72 100 151 187 226 296 360 411
#
# _framework density 25.598839999999999
#
# number of rings (size 3 to 8) (size 9 to 14) (size 15 to 20)
#    0.000    0.857    2.857    4.714    4.000    2.286 
#    0.000    0.714    0.000    0.000    0.000    0.000 
#    0.000    0.000    0.000    0.000    0.000    0.000 
#
# Total GULP energy -78347.539801 kJ/mol
# GULP energy per Si atom -5596.252843 kJ/mol
# Density = 2.554058 g / cm^3
# Si number density = 25.598840 Si / 1000 Ang^3
#
#
#
# Elastic Constant Matrix: (Units=GPa)
#
#
# Indices 1 2 3 4 5 6 
#
# 1 79.3439 51.1418 49.2135 -0.3432 13.1417 10.7084
# 2 51.1418 219.6987 89.1612 -27.8392 -4.1733 18.5851
# 3 49.2135 89.1612 207.7475 -17.0511 13.0594 26.2336
# 4 -0.3432 -27.8392 -17.0511 72.0465 -6.4147 1.5751
# 5 13.1417 -4.1733 13.0594 -6.4147 40.6357 0.8039
# 6 10.7084 18.5851 26.2336 1.5751 0.8039 47.4912
#
#
#
# Elastic Compliance Matrix: (Units=1/GPa)
#
#
# Indices 1 2 3 4 5 6 
#
# 1 0.017281 -0.003365 -0.002346 -0.002239 -0.005512 -0.001116
# 2 -0.003365 0.006514 -0.001869 0.002322 0.002742 -0.000882
# 3 -0.002346 -0.001869 0.006625 0.000763 -0.001394 -0.002401
# 4 -0.002239 0.002322 0.000763 0.015258 0.003154 -0.001385
# 5 -0.005512 0.002742 -0.001394 0.003154 0.027612 0.000368
# 6 -0.001116 -0.000882 -0.002401 -0.001385 0.000368 0.023019
#
#
# Mechanical properties :
#
#
# Convention : Reuss Voigt Hill
#
# Bulk Modulus (GPa) = 65.52821 98.42481 81.97651
# Shear Modulus (GPa) = 42.89774 53.18626 48.04200
#
# Velocity S-wave (km/s) = 4.09806 4.56310 4.33682
# Velocity P-wave (km/s) = 6.93151 8.14217 7.56111
#
# Compressibility (1/GPa) = 0.01526060
#
# Stress axis : x y z
#
# Youngs Moduli (GPa) = 57.86668 153.50506 150.94409
#
# Poissons Ratio (x) = 0.51649 0.35412
# Poissons Ratio (y) = 0.19470 0.28216
# Poissons Ratio (z) = 0.13576 0.28694
#
# Static dielectric constant tensor:
#      x y z
#    x 2.081970 -0.003180 -0.040600 
#    y -0.003180 2.045910 -0.087040 
#    z -0.040600 -0.087040 1.899790 
# 
# From -- ./inp_files/509076.got.cif
#   From: 2010.05.17/outbox.cif.g08.bks.cpg/sg2_255_cif.got.tgz:509076.got - 2010.06.03 11:33:40.
