data_PCOD9034626
_publ_section_title
;
Structure prediction by ZEFSAII (Michael W. Deem and Ramdas Pophale) SiO2 
 PCOD9034626
Probable space group: P -1
;
_chemical_formula_sum "Si O2"
_cell_formula_units_Z 15
_cell_length_a 11.407653
_cell_length_b 5.141174
_cell_length_c 15.400702
_cell_angle_alpha 84.522215
_cell_angle_beta 137.627784
_cell_angle_gamma 77.873638
_cell_volume 550.400725
_symmetry_space_group_name_H-M "P -1"
_symmetry_group_IT_number 2
_symmetry_cell_setting 'triclinic'
loop_
_space_group_symop_operation_xyz
x,y,z
-x,-y,-z
loop_
_atom_site_type_symbol
_atom_site_label
_atom_site_fract_x
_atom_site_fract_y
_atom_site_fract_z
Si Si1 0.660983 0.173069 0.583127
Si Si2 0.547940 0.239629 0.967574
Si Si3 0.337294 0.079996 0.586417
Si Si4 0.058253 0.685156 0.382333
Si Si5 0.114166 0.322936 0.875724
Si Si6 0.165923 0.796038 0.159613
Si Si7 0.000000 0.000000 0.500000
Si Si8 0.411317 0.422982 0.155839
O O1 0.500000 0.500000 0.500000
O O2 0.851817 0.174318 0.642327
O O3 0.743593 0.058712 0.727178
O O4 0.603439 0.010652 0.479357
O O5 0.461751 0.437392 0.828218
O O6 0.500000 0.500000 0.000000
O O7 0.500000 0.000000 0.000000
O O8 0.759762 0.020130 0.058111
O O9 0.242875 0.420191 0.528963
O O10 0.163147 0.998223 0.522364
O O11 0.492503 0.902119 0.747356
O O12 0.925175 0.853473 0.383426
O O13 0.944775 0.559529 0.258115
O O14 0.931258 0.374614 0.832897
O O15 0.248135 0.434710 0.998747
O O16 0.330129 0.595252 0.193144
O O17 0.000000 0.000000 0.000000
#
# Coordination Sequence:
#
# PCOD9034626 Si02
#       8
#     2   2   2   2   2   2   1   2
#     4  10  22  45  66 102 148 192 247 314 381 454
#     4  12  27  50  75 112 154 207 262 328 392 467
#     4  11  25  45  73 107 146 199 250 315 387 468
#     4  10  25  44  71 104 143 203 247 315 393 459
#     4  11  26  46  72 112 155 205 255 325 397 467
#     4  11  23  44  74 107 152 203 261 321 387 471
#     4  10  24  46  70 100 146 190 260 310 374 464
#     4  12  26  46  76 115 152 203 263 323 394 471
#
# _framework density 27.252872
#
# number of rings (size 3 to 8) (size 9 to 14) (size 15 to 20)
#    0.000    1.067    4.000    0.800    3.733    5.867 
#    0.000    0.000    0.000    0.000    0.000    0.000 
#    0.000    0.000    0.000    0.000    0.000    0.000 
#
# Total GULP energy -83611.546139 kJ/mol
# GULP energy per Si atom -5574.103076 kJ/mol
# Density = 2.719084 g / cm^3
# Si number density = 27.252872 Si / 1000 Ang^3
#
#
#
# Elastic Constant Matrix: (Units=GPa)
#
#
# Indices 1 2 3 4 5 6 
#
# 1 120.2411 52.9079 39.4555 34.6980 -36.9084 -29.5046
# 2 52.9079 143.8416 41.7404 2.3485 -29.4479 -8.7040
# 3 39.4555 41.7404 160.5327 18.5991 -37.4943 3.3122
# 4 34.6980 2.3485 18.5991 40.9428 0.2703 -6.6941
# 5 -36.9084 -29.4479 -37.4943 0.2703 45.2828 14.2915
# 6 -29.5046 -8.7040 3.3122 -6.6941 14.2915 41.3470
#
#
#
# Elastic Compliance Matrix: (Units=1/GPa)
#
#
# Indices 1 2 3 4 5 6 
#
# 1 0.019911 -0.004434 0.000799 -0.016009 0.012068 0.006448
# 2 -0.004434 0.009164 -0.001328 0.003648 0.001565 -0.001078
# 3 0.000799 -0.001328 0.009163 -0.005537 0.008790 -0.004378
# 4 -0.016009 0.003648 -0.005537 0.040723 -0.016120 0.001953
# 5 0.012068 0.001565 0.008790 -0.016120 0.043254 -0.009323
# 6 0.006448 -0.001078 -0.004378 0.001953 -0.009323 0.032449
#
#
# Mechanical properties :
#
#
# Convention : Reuss Voigt Hill
#
# Bulk Modulus (GPa) = 35.31877 76.98034 56.14956
# Shear Modulus (GPa) = 28.73128 44.88196 36.80662
#
# Velocity S-wave (km/s) = 3.25044 4.06257 3.67898
# Velocity P-wave (km/s) = 5.20336 7.09323 6.22049
#
# Compressibility (1/GPa) = 0.02831355
#
# Stress axis : x y z
#
# Youngs Moduli (GPa) = 50.22269 109.12632 109.13611
#
# Poissons Ratio (x) = 0.48382 -0.08724
# Poissons Ratio (y) = 0.22266 0.14493
# Poissons Ratio (z) = -0.04015 0.14492
#
# Static dielectric constant tensor:
#      x y z
#    x 2.142500 0.052260 0.055130 
#    y 0.052260 2.500820 0.106270 
#    z 0.055130 0.106270 2.242140 
# 
# From -- ./inp_files/511025.got.cif
#   From: 2010.05.17/outbox.cif.g08.bks.cpg/sg2_256_cif.got.tgz:511025.got - 2010.06.03 11:33:40.
