data_PCOD9034067
_publ_section_title
;
Structure prediction by ZEFSAII (Michael W. Deem and Ramdas Pophale) SiO2 
 PCOD9034067
Probable space group: P -1
;
_chemical_formula_sum "Si O2"
_cell_formula_units_Z 16
_cell_length_a 7.889408
_cell_length_b 13.942278
_cell_length_c 9.002850
_cell_angle_alpha 102.626520
_cell_angle_beta 76.825825
_cell_angle_gamma 47.598790
_cell_volume 609.145611
_symmetry_space_group_name_H-M "P -1"
_symmetry_group_IT_number 2
_symmetry_cell_setting 'triclinic'
loop_
_space_group_symop_operation_xyz
x,y,z
-x,-y,-z
loop_
_atom_site_type_symbol
_atom_site_label
_atom_site_fract_x
_atom_site_fract_y
_atom_site_fract_z
Si Si1 0.541259 0.650552 0.788176
Si Si2 0.450457 0.165418 0.352073
Si Si3 0.798530 0.278791 0.868524
Si Si4 0.505165 0.440670 0.683845
Si Si5 0.197550 0.162876 0.974391
Si Si6 0.063232 0.183105 0.343126
Si Si7 0.217220 0.988851 0.488141
Si Si8 0.957687 0.565741 0.868348
O O1 0.498749 0.755307 0.715467
O O2 0.503752 0.558264 0.695534
O O3 0.829932 0.542635 0.772577
O O4 0.331384 0.743360 0.999974
O O5 0.153915 0.250580 0.409870
O O6 0.629384 0.001561 0.182588
O O7 0.529558 0.142120 0.502233
O O8 0.582426 0.400845 0.830121
O O9 0.948286 0.286880 0.953308
O O10 0.045242 0.136636 0.672341
O O11 0.237229 0.710144 0.508115
O O12 0.892593 0.838183 0.847165
O O13 0.260382 0.250490 0.022210
O O14 0.261077 0.022677 0.335115
O O15 0.763379 0.506440 0.271436
O O16 0.000000 0.000000 0.500000
O O17 0.000000 0.500000 0.000000
#
# Coordination Sequence:
#
# PCOD9034067 Si02
#       8
#     2   2   2   2   2   2   2   2
#     4  12  24  43  77 105 143 192 251 290 360 434
#     4  11  26  47  73 107 143 196 240 297 365 434
#     4  10  22  44  71 102 141 191 234 305 354 420
#     4  11  25  49  70 107 154 185 245 307 355 430
#     4  11  24  45  76 107 144 188 244 301 354 437
#     4  11  25  48  70 103 148 191 234 306 367 420
#     4  10  25  43  70 104 142 187 239 294 371 431
#     4  12  24  44  76 110 141 193 247 296 365 427
#
# _framework density 26.266299
#
# number of rings (size 3 to 8) (size 9 to 14) (size 15 to 20)
#    0.000    1.000    3.750    1.875    3.500    2.000 
#    4.500    0.000    0.000    0.000    0.000    0.000 
#    0.000    0.000    0.000    0.000    0.000    0.000 
#
# Total GULP energy -89512.436603 kJ/mol
# GULP energy per Si atom -5594.527288 kJ/mol
# Density = 2.620652 g / cm^3
# Si number density = 26.266299 Si / 1000 Ang^3
#
#
#
# Elastic Constant Matrix: (Units=GPa)
#
#
# Indices 1 2 3 4 5 6 
#
# 1 123.5311 17.9090 17.5226 -8.4601 -5.5871 -5.8802
# 2 17.9090 108.8164 45.0679 -26.0444 -6.9784 6.3456
# 3 17.5226 45.0679 91.9167 -19.3775 6.9771 -1.3811
# 4 -8.4601 -26.0444 -19.3775 51.2532 -5.2778 -3.4562
# 5 -5.5871 -6.9784 6.9771 -5.2778 38.8722 -14.3795
# 6 -5.8802 6.3456 -1.3811 -3.4562 -14.3795 49.8630
#
#
#
# Elastic Compliance Matrix: (Units=1/GPa)
#
#
# Indices 1 2 3 4 5 6 
#
# 1 0.008611 -0.000628 -0.001266 0.000960 0.002126 0.001740
# 2 -0.000628 0.012989 -0.005535 0.004752 0.003701 -0.000484
# 3 -0.001266 -0.005535 0.014548 0.002130 -0.003458 0.000109
# 4 0.000960 0.004752 0.002130 0.023553 0.004758 0.002572
# 5 0.002126 0.003701 -0.003458 0.004758 0.031307 0.009042
# 6 0.001740 -0.000484 0.000109 0.002572 0.009042 0.023111
#
#
# Mechanical properties :
#
#
# Convention : Reuss Voigt Hill
#
# Bulk Modulus (GPa) = 46.97537 53.91812 50.44675
# Shear Modulus (GPa) = 36.74518 44.24866 40.49692
#
# Velocity S-wave (km/s) = 3.74431 4.10886 3.93081
# Velocity P-wave (km/s) = 6.05113 6.56372 6.31263
#
# Compressibility (1/GPa) = 0.02128775
#
# Stress axis : x y z
#
# Youngs Moduli (GPa) = 116.13696 76.99062 68.73876
#
# Poissons Ratio (x) = 0.04835 0.08706
# Poissons Ratio (y) = 0.07294 0.38048
# Poissons Ratio (z) = 0.14709 0.42615
#
# Static dielectric constant tensor:
#      x y z
#    x 2.099630 -0.061710 -0.026180 
#    y -0.061710 2.124210 0.003200 
#    z -0.026180 0.003200 2.025070 
# 
# From -- ./inp_files/207310.got.cif
#   From: 2010.05.17/outbox.cif.g08.bks.cpg/sg2_104_cif.got.tgz:207310.got - 2010.06.03 11:33:40.
