data_PCOD9034885
_publ_section_title
;
Structure prediction by ZEFSAII (Michael W. Deem and Ramdas Pophale) SiO2 
 PCOD9034885
Probable space group: P -1
;
_chemical_formula_sum "Si O2"
_cell_formula_units_Z 14
_cell_length_a 9.607478
_cell_length_b 11.541384
_cell_length_c 17.801489
_cell_angle_alpha 17.242131
_cell_angle_beta 78.132824
_cell_angle_gamma 76.153477
_cell_volume 566.275207
_symmetry_space_group_name_H-M "P -1"
_symmetry_group_IT_number 2
_symmetry_cell_setting 'triclinic'
loop_
_space_group_symop_operation_xyz
x,y,z
-x,-y,-z
loop_
_atom_site_type_symbol
_atom_site_label
_atom_site_fract_x
_atom_site_fract_y
_atom_site_fract_z
Si Si1 0.673931 0.673823 0.569612
Si Si2 0.581641 0.646618 0.161449
Si Si3 0.329843 0.579938 0.978221
Si Si4 0.113213 0.088110 0.246281
Si Si5 0.166333 0.492494 0.195799
Si Si6 0.355894 0.751976 0.321896
Si Si7 0.109541 0.649687 0.658979
O O1 0.511376 0.706621 0.601248
O O2 0.769588 0.470056 0.752575
O O3 0.668664 0.460187 0.622556
O O4 0.720087 0.084373 0.285290
O O5 0.733745 0.577020 0.226926
O O6 0.500000 0.000000 0.000000
O O7 0.602025 0.816410 0.971405
O O8 0.500000 0.500000 0.000000
O O9 0.255489 0.207611 0.195921
O O10 0.264452 0.665611 0.015955
O O11 0.197649 0.837931 0.324677
O O12 0.051570 0.809422 0.485808
O O13 0.000000 0.500000 0.000000
O O14 0.995860 0.637206 0.118225
O O15 0.146063 0.027336 0.470426
O O16 0.500000 0.500000 0.500000
#
# Coordination Sequence:
#
# PCOD9034885 Si02
#       7
#     2   2   2   2   2   2   2
#     4  11  24  44  69 107 137 183 241 295 353 421
#     4  10  23  42  70  98 136 187 237 286 354 423
#     4  11  24  41  67 104 142 181 236 297 352 415
#     4  11  24  43  74 103 141 190 240 290 355 432
#     4  10  24  42  70 104 144 181 235 294 355 423
#     4  11  25  45  72 104 144 191 239 295 362 431
#     4  10  22  45  69 101 144 188 233 290 362 425
#
# _framework density 24.722961000000002
#
# number of rings (size 3 to 8) (size 9 to 14) (size 15 to 20)
#    0.000    1.429    0.000    5.143   12.000    1.143 
#    0.000    5.714    0.000    0.000    0.000    0.000 
#    0.000    0.000    0.000    0.000    0.000    0.000 
#
# Total GULP energy -78061.715054 kJ/mol
# GULP energy per Si atom -5575.836790 kJ/mol
# Density = 2.466669 g / cm^3
# Si number density = 24.722961 Si / 1000 Ang^3
#
#
#
# Elastic Constant Matrix: (Units=GPa)
#
#
# Indices 1 2 3 4 5 6 
#
# 1 145.8931 36.5930 23.6065 14.0497 2.9308 -27.3380
# 2 36.5930 110.1530 22.4789 27.4158 2.9967 -13.3345
# 3 23.6065 22.4789 84.1066 38.1994 3.3439 -14.2645
# 4 14.0497 27.4158 38.1994 30.1407 -7.9609 -7.1496
# 5 2.9308 2.9967 3.3439 -7.9609 45.1160 5.5504
# 6 -27.3380 -13.3345 -14.2645 -7.1496 5.5504 47.1739
#
#
#
# Elastic Compliance Matrix: (Units=1/GPa)
#
#
# Indices 1 2 3 4 5 6 
#
# 1 0.008307 -0.002084 -0.001201 0.000294 -0.000752 0.003995
# 2 -0.002084 0.014312 0.007756 -0.022816 -0.005711 0.002397
# 3 -0.001201 0.007756 0.036876 -0.055455 -0.013676 0.005852
# 4 0.000294 -0.022816 -0.055455 0.130241 0.029421 -0.006770
# 5 -0.000752 -0.005711 -0.013676 0.029421 0.029437 -0.005190
# 6 0.003995 0.002397 0.005852 -0.006770 -0.005190 0.025545
#
#
# Mechanical properties :
#
#
# Convention : Reuss Voigt Hill
#
# Bulk Modulus (GPa) = 14.61164 56.16772 35.38968
# Shear Modulus (GPa) = 19.33589 41.65108 30.49349
#
# Velocity S-wave (km/s) = 2.79964 4.10898 3.51580
# Velocity P-wave (km/s) = 4.04644 6.72902 5.55218
#
# Compressibility (1/GPa) = 0.06843858
#
# Stress axis : x y z
#
# Youngs Moduli (GPa) = 120.38673 69.87171 27.11771
#
# Poissons Ratio (x) = 0.14558 0.03256
# Poissons Ratio (y) = 0.25083 -0.21032
# Poissons Ratio (z) = 0.14453 -0.54192
#
# Static dielectric constant tensor:
#      x y z
#    x 2.030380 -0.118340 -0.003170 
#    y -0.118340 2.214210 0.012300 
#    z -0.003170 0.012300 2.100660 
# 
# From -- ./inp_files/488884.got.cif
#   From: 2010.05.17/outbox.cif.g08.bks.cpg/sg2_245_cif.got.tgz:488884.got - 2010.06.03 11:33:40.
