data_PCOD9034605
_publ_section_title
;
Structure prediction by ZEFSAII (Michael W. Deem and Ramdas Pophale) SiO2 
 PCOD9034605
Probable space group: P -1
;
_chemical_formula_sum "Si O2"
_cell_formula_units_Z 14
_cell_length_a 14.999261
_cell_length_b 6.791570
_cell_length_c 7.071648
_cell_angle_alpha 95.645447
_cell_angle_beta 101.678545
_cell_angle_gamma 51.656184
_cell_volume 552.951017
_symmetry_space_group_name_H-M "P -1"
_symmetry_group_IT_number 2
_symmetry_cell_setting 'triclinic'
loop_
_space_group_symop_operation_xyz
x,y,z
-x,-y,-z
loop_
_atom_site_type_symbol
_atom_site_label
_atom_site_fract_x
_atom_site_fract_y
_atom_site_fract_z
Si Si1 0.028133 0.395014 0.208300
Si Si2 0.460483 0.653775 0.299140
Si Si3 0.227742 0.842603 0.310499
Si Si4 0.907673 0.284291 0.569088
Si Si5 0.300901 0.792701 0.774322
Si Si6 0.617734 0.925513 0.953175
Si Si7 0.809898 0.416639 0.169367
O O1 0.933597 0.352497 0.198668
O O2 0.029937 0.592430 0.351830
O O3 0.151311 0.127931 0.241678
O O4 0.000000 0.500000 0.000000
O O5 0.500000 0.500000 0.500000
O O6 0.345109 0.678564 0.226540
O O7 0.574432 0.483650 0.204194
O O8 0.413427 0.938340 0.253840
O O9 0.150518 0.748378 0.280665
O O10 0.258751 0.854504 0.544747
O O11 0.799038 0.470805 0.397923
O O12 0.000000 0.000000 0.500000
O O13 0.205288 0.799181 0.851918
O O14 0.332158 0.959655 0.891008
O O15 0.718288 0.633462 0.009233
O O16 0.500000 0.000000 0.000000
#
# Coordination Sequence:
#
# PCOD9034605 Si02
#       7
#     2   2   2   2   2   2   2
#     4  12  26  43  67 107 140 178 234 289 355 412
#     4  10  22  45  65  95 139 175 221 282 353 403
#     4  10  23  45  67  96 139 182 222 287 355 411
#     4  11  24  45  71  99 136 188 235 281 344 421
#     4  10  23  43  70  98 132 182 233 285 341 415
#     4  12  24  41  68 101 135 178 238 285 338 415
#     4  11  24  41  71  98 134 183 234 284 346 418
#
# _framework density 25.318698999999999
#
# number of rings (size 3 to 8) (size 9 to 14) (size 15 to 20)
#    0.000    1.143    2.857    2.571    4.000    1.714 
#    2.571    1.429    0.000    0.000    0.000    0.000 
#    0.000    0.000    0.000    0.000    0.000    0.000 
#
# Total GULP energy -78144.425240 kJ/mol
# GULP energy per Si atom -5581.744660 kJ/mol
# Density = 2.526107 g / cm^3
# Si number density = 25.318699 Si / 1000 Ang^3
#
#
#
# Elastic Constant Matrix: (Units=GPa)
#
#
# Indices 1 2 3 4 5 6 
#
# 1 179.9015 53.5120 19.8508 4.6982 13.4389 21.5607
# 2 53.5120 116.6321 59.9702 -20.9615 13.7800 1.2380
# 3 19.8508 59.9702 123.1536 -30.6833 16.4621 18.8141
# 4 4.6982 -20.9615 -30.6833 52.2763 12.3973 6.3512
# 5 13.4389 13.7800 16.4621 12.3973 43.2243 -3.3459
# 6 21.5607 1.2380 18.8141 6.3512 -3.3459 47.1246
#
#
#
# Elastic Compliance Matrix: (Units=1/GPa)
#
#
# Indices 1 2 3 4 5 6 
#
# 1 0.007139 -0.003847 0.001395 -0.000512 -0.001670 -0.003772
# 2 -0.003847 0.013930 -0.005870 0.002428 -0.001450 0.003308
# 3 0.001395 -0.005870 0.015459 0.009482 -0.007827 -0.008489
# 4 -0.000512 0.002428 0.009482 0.029958 -0.013485 -0.008610
# 5 -0.001670 -0.001450 -0.007827 -0.013485 0.031583 0.007987
# 6 -0.003772 0.003308 -0.008489 -0.008610 0.007987 0.027976
#
#
# Mechanical properties :
#
#
# Convention : Reuss Voigt Hill
#
# Bulk Modulus (GPa) = 50.29338 76.26147 63.27742
# Shear Modulus (GPa) = 33.48568 47.61531 40.55050
#
# Velocity S-wave (km/s) = 3.64066 4.34134 4.00634
# Velocity P-wave (km/s) = 6.13023 7.43745 6.81525
#
# Compressibility (1/GPa) = 0.01988333
#
# Stress axis : x y z
#
# Youngs Moduli (GPa) = 140.07194 71.78895 64.68743
#
# Poissons Ratio (x) = 0.27619 -0.09021
# Poissons Ratio (y) = 0.53890 0.37969
# Poissons Ratio (z) = -0.19535 0.42137
#
# Static dielectric constant tensor:
#      x y z
#    x 2.152040 0.058510 -0.154490 
#    y 0.058510 2.049760 0.000500 
#    z -0.154490 0.000500 2.233800 
# 
# From -- ./inp_files/106909.got.cif
#   From: 2010.05.17/outbox.cif.g08.bks.cpg/sg2_54_cif.got.tgz:106909.got - 2010.06.03 11:33:40.
