data_PCOD9034761
_publ_section_title
;
Structure prediction by ZEFSAII (Michael W. Deem and Ramdas Pophale) SiO2 
 PCOD9034761
Probable space group: P -1
;
_chemical_formula_sum "Si O2"
_cell_formula_units_Z 16
_cell_length_a 8.527473
_cell_length_b 12.105855
_cell_length_c 8.396000
_cell_angle_alpha 90.941945
_cell_angle_beta 94.712577
_cell_angle_gamma 51.838304
_cell_volume 678.535114
_symmetry_space_group_name_H-M "P -1"
_symmetry_group_IT_number 2
_symmetry_cell_setting 'triclinic'
loop_
_space_group_symop_operation_xyz
x,y,z
-x,-y,-z
loop_
_atom_site_type_symbol
_atom_site_label
_atom_site_fract_x
_atom_site_fract_y
_atom_site_fract_z
Si Si1 0.120109 0.207246 0.810710
Si Si2 0.723414 0.740600 0.890986
Si Si3 0.116510 0.659982 0.759915
Si Si4 0.875277 0.162265 0.024734
Si Si5 0.399778 0.950805 0.604581
Si Si6 0.582954 0.629383 0.099783
Si Si7 0.782400 0.418444 0.596078
Si Si8 0.540303 0.296876 0.565608
O O1 0.970511 0.206796 0.911962
O O2 0.973114 0.359151 0.719693
O O3 0.213829 0.088918 0.680763
O O4 0.284073 0.182367 0.945683
O O5 0.551397 0.848413 0.755837
O O6 0.931586 0.674346 0.819023
O O7 0.709502 0.627448 0.967868
O O8 0.320568 0.531743 0.861159
O O9 0.137392 0.627573 0.577179
O O10 0.090561 0.800207 0.798150
O O11 0.642408 0.254460 0.973574
O O12 0.000000 0.000000 0.000000
O O13 0.358731 0.857028 0.498225
O O14 0.500000 0.000000 0.500000
O O15 0.578502 0.681650 0.280879
O O16 0.679365 0.343101 0.619576
O O17 0.613145 0.585872 0.575331
#
# Coordination Sequence:
#
# PCOD9034761 Si02
#       8
#     2   2   2   2   2   2   2   2
#     4  11  24  44  67  97 136 178 224 277 332 407
#     4  11  25  44  67 102 136 176 225 279 338 404
#     4  10  24  41  68  96 132 176 224 278 329 402
#     4  11  24  40  61  97 132 174 220 276 336 394
#     4  12  26  44  69 101 138 183 224 277 346 410
#     4  11  22  44  67  97 132 177 224 275 338 394
#     4  10  22  45  68 100 135 176 231 280 337 392
#     4  10  24  42  70 100 136 179 224 285 335 401
#
# _framework density 23.580210999999998
#
# number of rings (size 3 to 8) (size 9 to 14) (size 15 to 20)
#    0.000    1.250    1.250    3.375    3.500    7.500 
#    0.000    3.125    0.000    0.000    0.000    0.000 
#    0.000    0.000    0.000    0.000    0.000    0.000 
#
# Total GULP energy -89435.694175 kJ/mol
# GULP energy per Si atom -5589.730886 kJ/mol
# Density = 2.352654 g / cm^3
# Si number density = 23.580211 Si / 1000 Ang^3
#
#
#
# Elastic Constant Matrix: (Units=GPa)
#
#
# Indices 1 2 3 4 5 6 
#
# 1 38.2261 6.9250 10.7907 -6.2054 -5.4028 -6.2735
# 2 6.9250 82.2369 8.4105 15.1799 4.0539 3.4418
# 3 10.7907 8.4105 82.9492 -13.1279 -6.6785 9.0570
# 4 -6.2054 15.1799 -13.1279 37.9594 -8.1585 0.0062
# 5 -5.4028 4.0539 -6.6785 -8.1585 28.0338 -3.6071
# 6 -6.2735 3.4418 9.0570 0.0062 -3.6071 29.3006
#
#
#
# Elastic Compliance Matrix: (Units=1/GPa)
#
#
# Indices 1 2 3 4 5 6 
#
# 1 0.032106 -0.004887 -0.002576 0.008451 0.009959 0.009469
# 2 -0.004887 0.014966 -0.002556 -0.009115 -0.006733 -0.002841
# 3 -0.002576 -0.002556 0.014538 0.006647 0.004735 -0.004163
# 4 0.008451 -0.009115 0.006647 0.037035 0.015662 0.002746
# 5 0.009959 -0.006733 0.004735 0.015662 0.045153 0.007015
# 6 0.009469 -0.002841 -0.004163 0.002746 0.007015 0.038640
#
#
# Mechanical properties :
#
#
# Convention : Reuss Voigt Hill
#
# Bulk Modulus (GPa) = 24.05476 28.40717 26.23096
# Shear Modulus (GPa) = 23.11255 30.87782 26.99518
#
# Velocity S-wave (km/s) = 3.13416 3.62260 3.38719
# Velocity P-wave (km/s) = 4.82915 5.43791 5.14254
#
# Compressibility (1/GPa) = 0.04157182
#
# Stress axis : x y z
#
# Youngs Moduli (GPa) = 31.14693 66.81719 68.78681
#
# Poissons Ratio (x) = 0.32655 0.17717
# Poissons Ratio (y) = 0.15222 0.17583
# Poissons Ratio (z) = 0.08022 0.17079
#
# Static dielectric constant tensor:
#      x y z
#    x 1.909210 -0.073370 0.067490 
#    y -0.073370 1.410070 0.152050 
#    z 0.067490 0.152050 1.853760 
# 
# From -- ./inp_files/186708.got.cif
#   From: 2010.05.17/outbox.cif.g08.bks.cpg/sg2_94_cif.got.tgz:186708.got - 2010.06.03 11:33:40.
