data_PCOD9034689
_publ_section_title
;
Structure prediction by ZEFSAII (Michael W. Deem and Ramdas Pophale) SiO2 
 PCOD9034689
Probable space group: P -1
;
_chemical_formula_sum "Si O2"
_cell_formula_units_Z 11
_cell_length_a 13.089787
_cell_length_b 6.717631
_cell_length_c 11.240973
_cell_angle_alpha 65.609241
_cell_angle_beta 32.462490
_cell_angle_gamma 53.179390
_cell_volume 414.706367
_symmetry_space_group_name_H-M "P -1"
_symmetry_group_IT_number 2
_symmetry_cell_setting 'triclinic'
loop_
_space_group_symop_operation_xyz
x,y,z
-x,-y,-z
loop_
_atom_site_type_symbol
_atom_site_label
_atom_site_fract_x
_atom_site_fract_y
_atom_site_fract_z
Si Si1 0.563894 0.051775 0.585897
Si Si2 0.655752 0.270947 0.069381
Si Si3 0.131658 0.324070 0.794426
Si Si4 0.000000 0.000000 0.000000
Si Si5 0.636804 0.173739 0.748863
Si Si6 0.079007 0.167946 0.266973
O O1 0.358332 0.251949 0.656919
O O2 0.581915 0.148617 0.672404
O O3 0.522210 0.818291 0.707765
O O4 0.787792 0.926285 0.315240
O O5 0.549113 0.566364 0.073531
O O6 0.793441 0.214657 0.067622
O O7 0.809586 0.082161 0.862776
O O8 0.987709 0.576465 0.801124
O O9 0.993431 0.242135 0.031619
O O10 0.847665 0.211652 0.528405
O O11 0.737675 0.913459 0.789490
#
# Coordination Sequence:
#
# PCOD9034689 Si02
#       6
#     2   2   2   1   2   2
#     4  10  23  43  71  95 137 175 225 278 333 386
#     4  11  24  44  66 105 132 176 225 277 325 408
#     4  10  22  45  67 103 131 176 226 279 328 401
#     4  10  24  40  70  98 132 174 222 274 340 378
#     4  11  25  46  67  99 138 183 212 280 333 398
#     4  11  25  44  69  98 139 176 226 268 338 400
#
# _framework density 26.524792999999999
#
# number of rings (size 3 to 8) (size 9 to 14) (size 15 to 20)
#    0.000    1.455    1.818    1.636    5.091    3.636 
#    3.273    0.000    0.000    0.000    0.000    0.000 
#    0.000    0.000    0.000    0.000    0.000    0.000 
#
# Total GULP energy -61416.864585 kJ/mol
# GULP energy per Si atom -5583.351326 kJ/mol
# Density = 2.646442 g / cm^3
# Si number density = 26.524793 Si / 1000 Ang^3
#
#
#
# Elastic Constant Matrix: (Units=GPa)
#
#
# Indices 1 2 3 4 5 6 
#
# 1 156.9258 63.7174 25.4114 22.0129 -12.1514 -30.1554
# 2 63.7174 194.6005 49.6967 27.9215 -15.9942 -54.5127
# 3 25.4114 49.6967 78.9287 28.3561 1.9185 3.1167
# 4 22.0129 27.9215 28.3561 44.7344 7.8289 -9.9620
# 5 -12.1514 -15.9942 1.9185 7.8289 48.5521 0.2448
# 6 -30.1554 -54.5127 3.1167 -9.9620 0.2448 31.6174
#
#
#
# Elastic Compliance Matrix: (Units=1/GPa)
#
#
# Indices 1 2 3 4 5 6 
#
# 1 0.008954 0.001913 -0.004395 -0.000676 0.003093 0.012035
# 2 0.001913 0.018807 -0.015658 0.004394 0.006397 0.037129
# 3 -0.004395 -0.015658 0.031281 -0.015794 -0.004750 -0.039211
# 4 -0.000676 0.004394 -0.015794 0.034978 -0.003836 0.019539
# 5 0.003093 0.006397 -0.004750 -0.003836 0.024218 0.013052
# 6 0.012035 0.037129 -0.039211 0.019539 0.013052 0.117042
#
#
# Mechanical properties :
#
#
# Convention : Reuss Voigt Hill
#
# Bulk Modulus (GPa) = 43.93101 78.67846 61.30473
# Shear Modulus (GPa) = 17.91157 44.42275 31.16716
#
# Velocity S-wave (km/s) = 2.60143 4.09683 3.43157
# Velocity P-wave (km/s) = 5.06176 7.21840 6.23405
#
# Compressibility (1/GPa) = 0.02276297
#
# Stress axis : x y z
#
# Youngs Moduli (GPa) = 111.67725 53.17108 31.96796
#
# Poissons Ratio (x) = -0.10172 0.14050
# Poissons Ratio (y) = -0.21364 0.50055
# Poissons Ratio (z) = 0.49083 0.83254
#
# Static dielectric constant tensor:
#      x y z
#    x 2.068290 -0.225360 0.478950 
#    y -0.225360 -0.056160 3.422620 
#    z 0.478950 3.422620 -2.967570 
# 
# From -- ./inp_files/20843.got.cif
#   From: 2010.05.17/outbox.cif.g08.bks.cpg/sg2_11_cif.got.tgz:20843.got - 2010.06.03 11:33:40.
