data_PCOD9034719
_publ_section_title
;
Structure prediction by ZEFSAII (Michael W. Deem and Ramdas Pophale) SiO2 
 PCOD9034719
Probable space group: P -1
;
_chemical_formula_sum "Si O2"
_cell_formula_units_Z 12
_cell_length_a 8.494948
_cell_length_b 13.481354
_cell_length_c 5.140984
_cell_angle_alpha 134.552327
_cell_angle_beta 88.352413
_cell_angle_gamma 92.540081
_cell_volume 419.143902
_symmetry_space_group_name_H-M "P -1"
_symmetry_group_IT_number 2
_symmetry_cell_setting 'triclinic'
loop_
_space_group_symop_operation_xyz
x,y,z
-x,-y,-z
loop_
_atom_site_type_symbol
_atom_site_label
_atom_site_fract_x
_atom_site_fract_y
_atom_site_fract_z
Si Si1 0.566114 0.772612 0.200750
Si Si2 0.052374 0.328791 0.867406
Si Si3 0.244282 0.748093 0.996100
Si Si4 0.646504 0.490056 0.778086
Si Si5 0.032874 0.144593 0.021205
Si Si6 0.654601 0.927467 0.967911
O O1 0.654588 0.803516 0.524151
O O2 0.377408 0.787130 0.268497
O O3 0.601621 0.616075 0.819575
O O4 0.604038 0.877103 0.160812
O O5 0.021093 0.252299 0.456293
O O6 0.177071 0.454312 0.052038
O O7 0.104328 0.222033 0.901226
O O8 0.883074 0.357484 0.058286
O O9 0.330624 0.662565 0.613634
O O10 0.146720 0.874624 0.112595
O O11 0.500000 0.500000 0.000000
O O12 0.157698 0.034539 0.919858
O O13 0.500000 0.000000 0.000000
#
# Coordination Sequence:
#
# PCOD9034719 Si02
#       6
#     2   2   2   2   2   2
#     4  12  25  45  67 106 138 175 237 292 331 418
#     4  10  23  42  66  94 146 184 230 269 339 404
#     4  10  26  41  71  99 150 186 222 275 354 412
#     4  12  24  42  70 107 148 189 232 272 343 416
#     4  10  22  45  67  95 137 179 235 275 345 408
#     4  12  25  48  76  98 132 183 235 297 357 400
#
# _framework density 28.629784999999998
#
# number of rings (size 3 to 8) (size 9 to 14) (size 15 to 20)
#    1.000    0.000    3.333    2.500    4.667    2.000 
#    0.000    1.667    0.000    0.000    0.000    0.000 
#    0.000    0.000    0.000    0.000    0.000    0.000 
#
# Total GULP energy -67033.018007 kJ/mol
# GULP energy per Si atom -5586.084834 kJ/mol
# Density = 2.856462 g / cm^3
# Si number density = 28.629785 Si / 1000 Ang^3
#
#
#
# Elastic Constant Matrix: (Units=GPa)
#
#
# Indices 1 2 3 4 5 6 
#
# 1 196.5399 30.9077 46.8158 -10.2317 -0.9720 -36.6064
# 2 30.9077 124.0767 18.6200 -14.6408 -4.1809 -29.6683
# 3 46.8158 18.6200 137.1539 -23.5850 1.2715 6.7009
# 4 -10.2317 -14.6408 -23.5850 41.1198 -3.3943 -8.2257
# 5 -0.9720 -4.1809 1.2715 -3.3943 56.5189 -10.1469
# 6 -36.6064 -29.6683 6.7009 -8.2257 -10.1469 59.0187
#
#
#
# Elastic Compliance Matrix: (Units=1/GPa)
#
#
# Indices 1 2 3 4 5 6 
#
# 1 0.006580 0.000034 -0.002252 0.001396 0.001101 0.004737
# 2 0.000034 0.010325 -0.000954 0.004586 0.002199 0.006337
# 3 -0.002252 -0.000954 0.008950 0.003696 -0.000532 -0.002469
# 4 0.001396 0.004586 0.003696 0.030216 0.003451 0.007556
# 5 0.001101 0.002199 -0.000532 0.003451 0.019102 0.005614
# 6 0.004737 0.006337 -0.002469 0.007556 0.005614 0.025366
#
#
# Mechanical properties :
#
#
# Convention : Reuss Voigt Hill
#
# Bulk Modulus (GPa) = 51.25848 72.27304 61.76576
# Shear Modulus (GPa) = 44.09655 55.42662 49.76158
#
# Velocity S-wave (km/s) = 3.92884 4.40475 4.17358
# Velocity P-wave (km/s) = 6.20675 7.15317 6.69670
#
# Compressibility (1/GPa) = 0.01950897
#
# Stress axis : x y z
#
# Youngs Moduli (GPa) = 151.98354 96.85378 111.72640
#
# Poissons Ratio (x) = -0.00325 0.25161
# Poissons Ratio (y) = -0.00510 0.10664
# Poissons Ratio (z) = 0.34227 0.09244
#
# Static dielectric constant tensor:
#      x y z
#    x 2.461950 -0.017940 -0.040930 
#    y -0.017940 2.254210 0.059980 
#    z -0.040930 0.059980 2.212210 
# 
# From -- ./inp_files/33630.got.cif
#   From: 2010.05.17/outbox.cif.g08.bks.cpg/sg2_17_cif.got.tgz:33630.got - 2010.06.03 11:33:40.
