data_PCOD9034261
_publ_section_title
;
Structure prediction by ZEFSAII (Michael W. Deem and Ramdas Pophale) SiO2 
 PCOD9034261
Probable space group: P -1
;
_chemical_formula_sum "Si O2"
_cell_formula_units_Z 16
_cell_length_a 8.217113
_cell_length_b 18.172052
_cell_length_c 8.920678
_cell_angle_alpha 78.919838
_cell_angle_beta 49.648884
_cell_angle_gamma 53.923409
_cell_volume 780.851777
_symmetry_space_group_name_H-M "P -1"
_symmetry_group_IT_number 2
_symmetry_cell_setting 'triclinic'
loop_
_space_group_symop_operation_xyz
x,y,z
-x,-y,-z
loop_
_atom_site_type_symbol
_atom_site_label
_atom_site_fract_x
_atom_site_fract_y
_atom_site_fract_z
Si Si1 0.745604 0.150279 0.849976
Si Si2 0.620273 0.790733 0.683728
Si Si3 0.375266 0.629352 0.648733
Si Si4 0.763845 0.602468 0.668746
Si Si5 0.657589 0.023057 0.792682
Si Si6 0.912132 0.465018 0.201377
Si Si7 0.053321 0.810841 0.558971
Si Si8 0.349034 0.959177 0.555261
O O1 0.599330 0.114208 0.869360
O O2 0.781800 0.208124 0.685345
O O3 0.593754 0.198268 0.075487
O O4 0.037034 0.046705 0.741943
O O5 0.792833 0.682494 0.567695
O O6 0.458649 0.865532 0.618224
O O7 0.802782 0.813563 0.649650
O O8 0.489042 0.629331 0.744753
O O9 0.643335 0.552893 0.417005
O O10 0.180819 0.597974 0.773817
O O11 0.216548 0.730948 0.619335
O O12 0.000000 0.500000 0.500000
O O13 0.838204 0.589920 0.806255
O O14 0.586954 0.055820 0.651673
O O15 0.947099 0.915444 0.640421
O O16 0.500000 0.000000 0.000000
O O17 0.000000 0.500000 0.000000
O O18 0.500000 0.000000 0.500000
#
# Coordination Sequence:
#
# PCOD9034261 Si02
#       8
#     2   2   2   2   2   2   2   2
#     4  11  24  40  64  93 133 178 220 264 334 392
#     4  12  23  42  66  92 134 175 224 275 334 398
#     4  10  23  42  66  96 131 170 214 273 342 389
#     4  10  24  45  66  98 133 173 220 281 335 395
#     4  11  22  41  62  91 136 176 220 266 323 395
#     4  10  22  44  72  92 128 170 217 280 335 398
#     4  11  22  40  64  94 131 174 218 269 330 399
#     4  11  21  40  62  95 131 174 217 273 322 384
#
# _framework density 20.490445999999999
#
# number of rings (size 3 to 8) (size 9 to 14) (size 15 to 20)
#    0.000    1.250    5.000    1.875    5.250    0.500 
#    0.000    2.500    0.000    0.000    0.000    0.000 
#    0.000    0.000    0.000    0.000    0.000    0.000 
#
# Total GULP energy -89182.921876 kJ/mol
# GULP energy per Si atom -5573.932617 kJ/mol
# Density = 2.044381 g / cm^3
# Si number density = 20.490446 Si / 1000 Ang^3
#
#
#
# Elastic Constant Matrix: (Units=GPa)
#
#
# Indices 1 2 3 4 5 6 
#
# 1 116.0087 36.8786 38.8365 -26.1566 20.5557 -13.5751
# 2 36.8786 106.3518 36.2239 -29.3829 24.2108 -14.2774
# 3 38.8365 36.2239 113.0388 -32.1042 -2.2983 -6.3285
# 4 -26.1566 -29.3829 -32.1042 30.7397 3.7514 9.5431
# 5 20.5557 24.2108 -2.2983 3.7514 10.8785 -7.2870
# 6 -13.5751 -14.2774 -6.3285 9.5431 -7.2870 38.9065
#
#
#
# Elastic Compliance Matrix: (Units=1/GPa)
#
#
# Indices 1 2 3 4 5 6 
#
# 1 0.001680 -0.015857 -0.000470 -0.022510 0.045649 0.008762
# 2 -0.015857 -0.008700 0.000914 -0.033225 0.069395 0.012570
# 3 -0.000470 0.000914 0.012806 0.015283 -0.005389 -0.002503
# 4 -0.022510 -0.033225 0.015283 -0.023453 0.137083 0.013867
# 5 0.045649 0.069395 -0.005389 0.137083 -0.220196 -0.034348
# 6 0.008762 0.012570 -0.002503 0.013867 -0.034348 0.023131
#
#
# Mechanical properties :
#
#
# Convention : Reuss Voigt Hill
#
# Bulk Modulus (GPa) = -39.93704 62.14191 11.10244
# Shear Modulus (GPa) = -26.00730 31.00230 2.49750
#
# Velocity S-wave (km/s) = -3.56650 3.89397 1.10522
# Velocity P-wave (km/s) = 6.04093 7.11410 2.65684
#
# Compressibility (1/GPa) = -0.02503941
#
# Stress axis : x y z
#
# Youngs Moduli (GPa) = 595.37219 -114.94689 78.08938
#
# Poissons Ratio (x) = -1.82272 0.03669
# Poissons Ratio (y) = 9.44085 -0.07140
# Poissons Ratio (z) = 0.27975 0.10510
#
# Static dielectric constant tensor:
#      x y z
#    x 1.758900 -0.012260 -0.020270 
#    y -0.012260 1.722580 0.050480 
#    z -0.020270 0.050480 1.662240 
# 
# From -- ./inp_files/202726.got.cif
#   From: 2010.05.17/outbox.cif.g08.bks.cpg/sg2_102_cif.got.tgz:202726.got - 2010.06.03 11:33:40.
