data_PCOD9034834
_publ_section_title
;
Structure prediction by ZEFSAII (Michael W. Deem and Ramdas Pophale) SiO2 
 PCOD9034834
Probable space group: P -1
;
_chemical_formula_sum "Si O2"
_cell_formula_units_Z 14
_cell_length_a 8.697131
_cell_length_b 16.644122
_cell_length_c 6.921507
_cell_angle_alpha 139.161506
_cell_angle_beta 110.387189
_cell_angle_gamma 74.081933
_cell_volume 614.056454
_symmetry_space_group_name_H-M "P -1"
_symmetry_group_IT_number 2
_symmetry_cell_setting 'triclinic'
loop_
_space_group_symop_operation_xyz
x,y,z
-x,-y,-z
loop_
_atom_site_type_symbol
_atom_site_label
_atom_site_fract_x
_atom_site_fract_y
_atom_site_fract_z
Si Si1 0.691430 0.481392 0.013051
Si Si2 0.097402 0.197042 0.674386
Si Si3 0.601197 0.124128 0.260987
Si Si4 0.071889 0.634792 0.800287
Si Si5 0.923257 0.984656 0.157670
Si Si6 0.807024 0.290798 0.425363
Si Si7 0.283552 0.240634 0.485060
O O1 0.773271 0.389002 0.034528
O O2 0.764580 0.617503 0.310297
O O3 0.500000 0.500000 0.000000
O O4 0.737010 0.419000 0.714849
O O5 0.961963 0.249386 0.552239
O O6 0.261359 0.212100 0.650993
O O7 0.072466 0.053668 0.455690
O O8 0.061763 0.280905 0.994504
O O9 0.666479 0.189442 0.212872
O O10 0.473084 0.218810 0.471852
O O11 0.776106 0.077046 0.331885
O O12 0.500000 0.000000 0.000000
O O13 0.135113 0.693415 0.737644
O O14 0.000000 0.500000 0.500000
O O15 0.829170 0.856206 0.857977
O O16 0.000000 0.000000 0.000000
#
# Coordination Sequence:
#
# PCOD9034834 Si02
#       7
#     2   2   2   2   2   2   2
#     4  11  22  37  59  89 123 164 200 247 310 362
#     4   9  19  36  61  84 116 159 206 251 305 356
#     4   9  17  31  57  85 111 154 196 241 304 362
#     4  11  23  38  61  90 123 163 210 253 297 361
#     4   8  16  31  57  85 108 151 199 244 296 356
#     4  10  20  38  59  86 121 160 203 251 298 360
#     4  10  17  32  57  85 116 154 206 244 300 365
#
# _framework density 22.799206999999999
#
# number of rings (size 3 to 8) (size 9 to 14) (size 15 to 20)
#    0.000    2.286    1.429    1.714    0.000    2.857 
#    0.000    0.000    0.000   60.857    0.000    0.000 
#    0.000    0.000    0.000    0.000    0.000    0.000 
#
# Total GULP energy -77935.558597 kJ/mol
# GULP energy per Si atom -5566.825614 kJ/mol
# Density = 2.274732 g / cm^3
# Si number density = 22.799207 Si / 1000 Ang^3
#
#
#
# Elastic Constant Matrix: (Units=GPa)
#
#
# Indices 1 2 3 4 5 6 
#
# 1 105.7998 37.2800 10.0683 -9.5594 -21.3562 22.4881
# 2 37.2800 111.2378 37.5605 -2.3948 -8.6546 33.7104
# 3 10.0683 37.5605 104.9785 22.3162 -19.2761 15.9558
# 4 -9.5594 -2.3948 22.3162 40.8612 10.5083 -2.3556
# 5 -21.3562 -8.6546 -19.2761 10.5083 41.2802 7.2846
# 6 22.4881 33.7104 15.9558 -2.3556 7.2846 46.5223
#
#
#
# Elastic Compliance Matrix: (Units=1/GPa)
#
#
# Indices 1 2 3 4 5 6 
#
# 1 0.013316 -0.002552 0.002633 -0.001222 0.009126 -0.006981
# 2 -0.002552 0.013347 -0.003664 0.001610 0.000627 -0.007198
# 3 0.002633 -0.003664 0.016586 -0.012321 0.012696 -0.006918
# 4 -0.001222 0.001610 -0.012321 0.035735 -0.016566 0.008053
# 5 0.009126 0.000627 0.012696 -0.016566 0.042164 -0.016662
# 6 -0.006981 -0.007198 -0.006918 0.008053 -0.016662 0.035475
#
#
# Mechanical properties :
#
#
# Convention : Reuss Voigt Hill
#
# Bulk Modulus (GPa) = 27.71417 54.64819 41.18118
# Shear Modulus (GPa) = 28.43861 41.53989 34.98925
#
# Velocity S-wave (km/s) = 3.53562 4.27311 3.92174
# Velocity P-wave (km/s) = 5.37118 6.95466 6.21357
#
# Compressibility (1/GPa) = 0.03608263
#
# Stress axis : x y z
#
# Youngs Moduli (GPa) = 75.09578 74.92374 60.29138
#
# Poissons Ratio (x) = 0.19123 -0.15872
# Poissons Ratio (y) = 0.19167 0.22088
# Poissons Ratio (z) = -0.19769 0.27449
#
# Static dielectric constant tensor:
#      x y z
#    x 1.878560 -0.005290 0.017090 
#    y -0.005290 1.967670 0.023460 
#    z 0.017090 0.023460 1.945050 
# 
# From -- ./inp_files/39791.got.cif
#   From: 2010.05.17/outbox.cif.g08.bks.cpg/sg2_20_cif.got.tgz:39791.got - 2010.06.03 11:33:40.
