data_PCOD9034066
_publ_section_title
;
Structure prediction by ZEFSAII (Michael W. Deem and Ramdas Pophale) SiO2 
 PCOD9034066
Probable space group: P -1
;
_chemical_formula_sum "Si O2"
_cell_formula_units_Z 16
_cell_length_a 9.467315
_cell_length_b 11.233807
_cell_length_c 8.355392
_cell_angle_alpha 90.078842
_cell_angle_beta 75.760607
_cell_angle_gamma 128.396517
_cell_volume 661.506779
_symmetry_space_group_name_H-M "P -1"
_symmetry_group_IT_number 2
_symmetry_cell_setting 'triclinic'
loop_
_space_group_symop_operation_xyz
x,y,z
-x,-y,-z
loop_
_atom_site_type_symbol
_atom_site_label
_atom_site_fract_x
_atom_site_fract_y
_atom_site_fract_z
Si Si1 0.465950 0.328951 0.662351
Si Si2 0.901977 0.334483 0.943957
Si Si3 0.746097 0.111415 0.743512
Si Si4 0.180532 0.046134 0.540676
Si Si5 0.969647 0.237225 0.230362
Si Si6 0.796663 0.339726 0.506141
Si Si7 0.604214 0.602291 0.813531
Si Si8 0.466181 0.193353 0.009502
O O1 0.304779 0.215166 0.579631
O O2 0.654720 0.374031 0.528596
O O3 0.495251 0.481292 0.700293
O O4 0.438799 0.244220 0.843569
O O5 0.961031 0.263336 0.049651
O O6 0.685074 0.268660 0.980594
O O7 0.929175 0.276031 0.768835
O O8 0.000000 0.500000 0.000000
O O9 0.678768 0.190101 0.658777
O O10 0.744802 0.012030 0.605682
O O11 0.650901 0.988431 0.916414
O O12 0.123576 0.936840 0.707778
O O13 0.000000 0.000000 0.500000
O O14 0.851808 0.282441 0.345193
O O15 0.182045 0.337472 0.240429
O O16 0.000000 0.500000 0.500000
O O17 0.594350 0.738222 0.842150
O O18 0.500000 0.500000 0.000000
#
# Coordination Sequence:
#
# PCOD9034066 Si02
#       8
#     2   2   2   2   2   2   2   2
#     4  11  23  45  75 101 142 197 238 296 360 424
#     4  12  24  42  70 108 141 182 238 297 358 424
#     4  11  25  43  69  99 145 180 232 299 352 425
#     4  11  27  46  67 104 146 191 245 292 363 429
#     4  11  24  42  71 102 144 185 235 297 361 425
#     4  11  22  42  71 104 143 185 238 295 357 430
#     4  10  22  44  71 102 140 189 236 291 353 430
#     4  11  24  44  71 108 144 181 245 293 362 427
#
# _framework density 24.187204999999999
#
# number of rings (size 3 to 8) (size 9 to 14) (size 15 to 20)
#    0.000    1.000    2.500    4.125    3.500    4.000 
#    0.000    6.875    0.000    0.000    0.000    0.000 
#    0.000    0.000    0.000    0.000    0.000    0.000 
#
# Total GULP energy -89134.602826 kJ/mol
# GULP energy per Si atom -5570.912677 kJ/mol
# Density = 2.413215 g / cm^3
# Si number density = 24.187205 Si / 1000 Ang^3
#
#
#
# Elastic Constant Matrix: (Units=GPa)
#
#
# Indices 1 2 3 4 5 6 
#
# 1 72.4385 46.1192 19.3387 18.2251 1.5424 -6.9136
# 2 46.1192 158.7115 49.3441 31.6677 4.0876 -2.6085
# 3 19.3387 49.3441 42.3932 14.2523 3.9663 -6.7792
# 4 18.2251 31.6677 14.2523 57.3284 -10.6943 7.6476
# 5 1.5424 4.0876 3.9663 -10.6943 33.6292 2.7823
# 6 -6.9136 -2.6085 -6.7792 7.6476 2.7823 43.6269
#
#
#
# Elastic Compliance Matrix: (Units=1/GPa)
#
#
# Indices 1 2 3 4 5 6 
#
# 1 0.018028 -0.003793 -0.001840 -0.003904 -0.001649 0.003134
# 2 -0.003793 0.011152 -0.010622 -0.002263 -0.000553 -0.001153
# 3 -0.001840 -0.010622 0.040233 -0.005493 -0.005667 0.006649
# 4 -0.003904 -0.002263 -0.005493 0.023871 0.009221 -0.006380
# 5 -0.001649 -0.000553 -0.005667 0.009221 0.033889 -0.004953
# 6 0.003134 -0.001153 0.006649 -0.006380 -0.004953 0.025817
#
#
# Mechanical properties :
#
#
# Convention : Reuss Voigt Hill
#
# Bulk Modulus (GPa) = 27.10011 55.90522 41.50267
# Shear Modulus (GPa) = 25.27766 37.49966 31.38866
#
# Velocity S-wave (km/s) = 3.23628 3.94177 3.60632
# Velocity P-wave (km/s) = 5.01930 6.62424 5.87681
#
# Compressibility (1/GPa) = 0.03690022
#
# Stress axis : x y z
#
# Youngs Moduli (GPa) = 55.47023 89.66641 24.85542
#
# Poissons Ratio (x) = 0.34015 0.04575
# Poissons Ratio (y) = 0.21042 0.26402
# Poissons Ratio (z) = 0.10209 0.95247
#
# Static dielectric constant tensor:
#      x y z
#    x 1.881810 -0.003680 -0.035290 
#    y -0.003680 1.932410 -0.068800 
#    z -0.035290 -0.068800 2.051590 
# 
# From -- ./inp_files/187541.got.cif
#   From: 2010.05.17/outbox.cif.g08.bks.cpg/sg2_94_cif.got.tgz:187541.got - 2010.06.03 11:33:40.
