data_PCOD9035206
_publ_section_title
;
Structure prediction by ZEFSAII (Michael W. Deem and Ramdas Pophale) SiO2 
 PCOD9035206
Probable space group: P -1
;
_chemical_formula_sum "Si O2"
_cell_formula_units_Z 14
_cell_length_a 12.471935
_cell_length_b 8.276850
_cell_length_c 8.636490
_cell_angle_alpha 72.833924
_cell_angle_beta 67.164689
_cell_angle_gamma 119.347514
_cell_volume 570.722540
_symmetry_space_group_name_H-M "P -1"
_symmetry_group_IT_number 2
_symmetry_cell_setting 'triclinic'
loop_
_space_group_symop_operation_xyz
x,y,z
-x,-y,-z
loop_
_atom_site_type_symbol
_atom_site_label
_atom_site_fract_x
_atom_site_fract_y
_atom_site_fract_z
Si Si1 0.661438 0.196279 0.555561
Si Si2 0.977846 0.024635 0.679696
Si Si3 0.644663 0.564793 0.995961
Si Si4 0.994715 0.433094 0.845197
Si Si5 0.554166 0.781462 0.524694
Si Si6 0.861263 0.978693 0.159899
Si Si7 0.811643 0.472851 0.690685
O O1 0.821562 0.429395 0.322882
O O2 0.517260 0.168015 0.581973
O O3 0.697716 0.249393 0.703522
O O4 0.638423 0.989080 0.547727
O O5 0.052437 0.935906 0.746961
O O6 0.789577 0.839648 0.867912
O O7 0.000000 0.000000 0.500000
O O8 0.086462 0.300666 0.544877
O O9 0.581892 0.440619 0.232349
O O10 0.500000 0.500000 0.000000
O O11 0.712335 0.483834 0.868992
O O12 0.934349 0.490227 0.723343
O O13 0.000000 0.500000 0.000000
O O14 0.872156 0.156384 0.003573
O O15 0.678114 0.775988 0.374825
O O16 0.000000 0.000000 0.000000
#
# Coordination Sequence:
#
# PCOD9035206 Si02
#       7
#     2   2   2   2   2   2   2
#     4  11  25  44  73 106 152 185 251 311 375 438
#     4  10  22  45  72 101 144 193 246 300 367 444
#     4  11  25  43  72 106 151 197 244 304 391 445
#     4  12  23  45  74 105 146 197 252 305 372 444
#     4  11  25  47  71 106 151 199 235 315 387 439
#     4  12  26  46  73 106 143 196 256 299 372 453
#     4  11  25  45  75 111 145 199 260 305 358 456
#
# _framework density 24.530308000000002
#
# number of rings (size 3 to 8) (size 9 to 14) (size 15 to 20)
#    0.000    0.857    1.429    6.429    4.000    1.714 
#    0.000    4.286    0.000    0.000    0.000    0.000 
#    0.000    0.000    0.000    0.000    0.000    0.000 
#
# Total GULP energy -78121.228482 kJ/mol
# GULP energy per Si atom -5580.087749 kJ/mol
# Density = 2.447448 g / cm^3
# Si number density = 24.530308 Si / 1000 Ang^3
#
#
#
# Elastic Constant Matrix: (Units=GPa)
#
#
# Indices 1 2 3 4 5 6 
#
# 1 112.1782 25.4118 23.2743 5.4700 -16.9075 10.4293
# 2 25.4118 127.5913 36.9104 20.3365 -3.2706 14.6187
# 3 23.2743 36.9104 152.1906 1.1870 -21.2077 -10.0220
# 4 5.4700 20.3365 1.1870 39.6719 -2.7355 1.1172
# 5 -16.9075 -3.2706 -21.2077 -2.7355 45.5798 1.7028
# 6 10.4293 14.6187 -10.0220 1.1172 1.7028 26.8084
#
#
#
# Elastic Compliance Matrix: (Units=1/GPa)
#
#
# Indices 1 2 3 4 5 6 
#
# 1 0.010294 -0.001113 -0.001097 -0.000472 0.003349 -0.004001
# 2 -0.001113 0.010330 -0.002839 -0.004962 -0.001067 -0.005987
# 3 -0.001097 -0.002839 0.008161 0.001442 0.003095 0.004769
# 4 -0.000472 -0.004962 0.001442 0.027831 0.001729 0.002159
# 5 0.003349 -0.001067 0.003095 0.001729 0.024694 -0.001205
# 6 -0.004001 -0.005987 0.004769 0.002159 -0.001205 0.043892
#
#
# Mechanical properties :
#
#
# Convention : Reuss Voigt Hill
#
# Bulk Modulus (GPa) = 53.51725 62.57255 58.04490
# Shear Modulus (GPa) = 35.32797 42.83626 39.08212
#
# Velocity S-wave (km/s) = 3.79908 4.18336 3.99584
# Velocity P-wave (km/s) = 6.41157 6.99268 6.70842
#
# Compressibility (1/GPa) = 0.01868556
#
# Stress axis : x y z
#
# Youngs Moduli (GPa) = 97.14372 96.80478 122.53051
#
# Poissons Ratio (x) = 0.10777 0.13446
# Poissons Ratio (y) = 0.10815 0.34790
# Poissons Ratio (z) = 0.10660 0.27486
#
# Static dielectric constant tensor:
#      x y z
#    x 2.081900 0.238340 -0.019590 
#    y 0.238340 3.662740 -0.508840 
#    z -0.019590 -0.508840 2.200350 
# 
# From -- ./inp_files/242975.got.cif
#   From: 2010.05.17/outbox.cif.g08.bks.cpg/sg2_122_cif.got.tgz:242975.got - 2010.06.03 11:33:40.
