data_PCOD9035848
_publ_section_title
;
Structure prediction by ZEFSAII (Michael W. Deem and Ramdas Pophale) SiO2 
 PCOD9035848
Probable space group: P -1
;
_chemical_formula_sum "Si O2"
_cell_formula_units_Z 16
_cell_length_a 7.293027
_cell_length_b 5.074287
_cell_length_c 17.189049
_cell_angle_alpha 86.887409
_cell_angle_beta 114.089388
_cell_angle_gamma 91.478211
_cell_volume 579.853056
_symmetry_space_group_name_H-M "P -1"
_symmetry_group_IT_number 2
_symmetry_cell_setting 'triclinic'
loop_
_space_group_symop_operation_xyz
x,y,z
-x,-y,-z
loop_
_atom_site_type_symbol
_atom_site_label
_atom_site_fract_x
_atom_site_fract_y
_atom_site_fract_z
Si Si1 0.321070 0.542128 0.379187
Si Si2 0.618255 0.309477 0.270750
Si Si3 0.719494 0.058621 0.762899
Si Si4 0.738001 0.978304 0.540288
Si Si5 0.829497 0.511453 0.082170
Si Si6 0.830062 0.008797 0.180420
Si Si7 0.270514 0.340599 0.106744
Si Si8 0.789308 0.615024 0.431843
O O1 0.298689 0.658998 0.286140
O O2 0.220391 0.275675 0.395463
O O3 0.567065 0.530844 0.430761
O O4 0.205428 0.762162 0.407449
O O5 0.464908 0.122518 0.296526
O O6 0.739378 0.097096 0.244646
O O7 0.749765 0.511892 0.339621
O O8 0.724775 0.966077 0.856576
O O9 0.932199 0.952488 0.774336
O O10 0.532363 0.547354 0.818240
O O11 0.797659 0.913509 0.462698
O O12 0.500000 0.000000 0.500000
O O13 0.755509 0.225153 0.101274
O O14 0.065472 0.472814 0.100555
O O15 0.806409 0.719496 0.144619
O O16 0.727556 0.620724 0.985076
O O17 0.000000 0.500000 0.500000
#
# Coordination Sequence:
#
# PCOD9035848 Si02
#       8
#     2   2   2   2   2   2   2   2
#     4  11  23  46  74  99 136 188 241 290 371 439
#     4  10  24  49  69 110 146 200 241 315 373 436
#     4   9  23  44  72 104 146 193 237 305 365 436
#     4  10  23  46  71 100 130 186 238 293 364 439
#     4  10  22  46  73 116 142 202 248 296 370 440
#     4  11  25  45  75 109 153 193 251 302 364 448
#     4   8  21  45  75 105 153 196 241 309 361 451
#     4  11  25  45  69 105 143 182 244 308 365 436
#
# _framework density 27.5932
#
# number of rings (size 3 to 8) (size 9 to 14) (size 15 to 20)
#    0.750    1.250    0.000    2.250    3.500    8.500 
#    2.250    8.750    0.000    0.000    0.000    0.000 
#    0.000    0.000    0.000    0.000    0.000    0.000 
#
# Total GULP energy -89409.331143 kJ/mol
# GULP energy per Si atom -5588.083196 kJ/mol
# Density = 2.753040 g / cm^3
# Si number density = 27.593200 Si / 1000 Ang^3
#
#
#
# Elastic Constant Matrix: (Units=GPa)
#
#
# Indices 1 2 3 4 5 6 
#
# 1 113.1239 25.8588 43.8926 2.2466 5.9111 -19.4148
# 2 25.8588 161.8098 47.1809 -14.3712 -8.5087 -0.5676
# 3 43.8926 47.1809 147.0194 -8.2344 6.7277 -12.8951
# 4 2.2466 -14.3712 -8.2344 54.7618 -15.3405 -9.1263
# 5 5.9111 -8.5087 6.7277 -15.3405 37.4698 0.8160
# 6 -19.4148 -0.5676 -12.8951 -9.1263 0.8160 46.7451
#
#
#
# Elastic Compliance Matrix: (Units=1/GPa)
#
#
# Indices 1 2 3 4 5 6 
#
# 1 0.010834 -0.001197 -0.002501 -0.001111 -0.002065 0.003614
# 2 -0.001197 0.007364 -0.002064 0.002495 0.003265 -0.000547
# 3 -0.002501 -0.002064 0.008435 0.000692 -0.001336 0.001422
# 4 -0.001111 0.002495 0.000692 0.022451 0.009723 0.003973
# 5 -0.002065 0.003265 -0.001336 0.009723 0.031973 0.000153
# 6 0.003614 -0.000547 0.001422 0.003973 0.000153 0.024052
#
#
# Mechanical properties :
#
#
# Convention : Reuss Voigt Hill
#
# Bulk Modulus (GPa) = 66.17757 72.86863 69.52310
# Shear Modulus (GPa) = 41.09464 48.13005 44.61235
#
# Velocity S-wave (km/s) = 3.86334 4.18098 4.02529
# Velocity P-wave (km/s) = 6.62841 7.05500 6.84503
#
# Compressibility (1/GPa) = 0.01511086
#
# Stress axis : x y z
#
# Youngs Moduli (GPa) = 92.30029 135.78753 118.54766
#
# Poissons Ratio (x) = 0.16250 0.29651
# Poissons Ratio (y) = 0.11046 0.24465
# Poissons Ratio (z) = 0.23086 0.28023
#
# Static dielectric constant tensor:
#      x y z
#    x 2.184520 0.038500 -0.038160 
#    y 0.038500 2.256600 0.015340 
#    z -0.038160 0.015340 2.231810 
# 
# From -- ./inp_files/553735.got.cif
#   From: 2010.05.17/outbox.cif.g08.bks.cpg/sg2_277_cif.got.tgz:553735.got - 2010.06.03 11:33:40.
