data_PCOD9035790
_publ_section_title
;
Structure prediction by ZEFSAII (Michael W. Deem and Ramdas Pophale) SiO2 
 PCOD9035790
Probable space group: P -1
;
_chemical_formula_sum "Si O2"
_cell_formula_units_Z 12
_cell_length_a 9.026470
_cell_length_b 5.013474
_cell_length_c 12.143587
_cell_angle_alpha 105.783957
_cell_angle_beta 75.691732
_cell_angle_gamma 104.303723
_cell_volume 502.799675
_symmetry_space_group_name_H-M "P -1"
_symmetry_group_IT_number 2
_symmetry_cell_setting 'triclinic'
loop_
_space_group_symop_operation_xyz
x,y,z
-x,-y,-z
loop_
_atom_site_type_symbol
_atom_site_label
_atom_site_fract_x
_atom_site_fract_y
_atom_site_fract_z
Si Si1 0.860570 0.817500 0.070787
Si Si2 0.644185 0.361164 0.916316
Si Si3 0.095776 0.893023 0.214460
Si Si4 0.884871 0.498223 0.623822
Si Si5 0.571437 0.988745 0.252418
Si Si6 0.528249 0.442193 0.614702
O O1 0.729028 0.979676 0.157793
O O2 0.948532 0.733160 0.153537
O O3 0.780385 0.584747 0.973307
O O4 0.000000 0.000000 0.000000
O O5 0.740211 0.099510 0.880960
O O6 0.564236 0.248664 0.803148
O O7 0.500000 0.500000 0.000000
O O8 0.104947 0.735537 0.311379
O O9 0.079089 0.207553 0.283066
O O10 0.711190 0.460128 0.602615
O O11 0.000000 0.500000 0.500000
O O12 0.571697 0.856947 0.359199
O O13 0.528245 0.294029 0.285852
O O14 0.500000 0.500000 0.500000
#
# Coordination Sequence:
#
# PCOD9035790 Si02
#       6
#     2   2   2   2   2   2
#     4  11  27  46  77 112 153 198 254 302 372 445
#     4  10  22  46  72 105 145 195 243 300 368 436
#     4  12  25  47  73 108 152 187 249 302 374 446
#     4  12  27  47  75 108 147 194 240 313 379 440
#     4  11  26  48  77 109 149 198 243 315 367 444
#     4  12  26  48  78 107 145 193 257 304 375 444
#
# _framework density 23.866364999999998
#
# number of rings (size 3 to 8) (size 9 to 14) (size 15 to 20)
#    0.000    0.667    3.333    2.500    4.667    4.000 
#    0.000    6.667    0.000    0.000    0.000    0.000 
#    0.000    0.000    0.000    0.000    0.000    0.000 
#
# Total GULP energy -66894.545907 kJ/mol
# GULP energy per Si atom -5574.545492 kJ/mol
# Density = 2.381204 g / cm^3
# Si number density = 23.866365 Si / 1000 Ang^3
#
#
#
# Elastic Constant Matrix: (Units=GPa)
#
#
# Indices 1 2 3 4 5 6 
#
# 1 134.0155 -17.5488 62.1624 -4.0149 -11.5705 5.5800
# 2 -17.5488 15.3010 16.5887 -0.0016 -11.4088 -5.4646
# 3 62.1624 16.5887 76.4734 2.2149 -14.1985 -3.7001
# 4 -4.0149 -0.0016 2.2149 35.5978 -10.4619 0.2485
# 5 -11.5705 -11.4088 -14.1985 -10.4619 65.6122 9.0584
# 6 5.5800 -5.4646 -3.7001 0.2485 9.0584 34.3553
#
#
#
# Elastic Compliance Matrix: (Units=1/GPa)
#
#
# Indices 1 2 3 4 5 6 
#
# 1 -0.089863 -0.269530 0.124770 -0.029598 -0.039865 -0.004113
# 2 -0.269530 -0.709796 0.355505 -0.084027 -0.107146 -0.001976
# 3 0.124770 0.355505 -0.156040 0.040178 0.055842 0.004462
# 4 -0.029598 -0.084027 0.040178 0.020028 -0.007616 -0.002368
# 5 -0.039865 -0.107146 0.055842 -0.007616 0.001112 -0.004792
# 6 -0.004113 -0.001976 0.004462 -0.002368 -0.004792 0.031222
#
#
# Mechanical properties :
#
#
# Convention : Reuss Voigt Hill
#
# Bulk Modulus (GPa) = -1.87193 38.68828 18.40818
# Shear Modulus (GPa) = -3.32691 38.08556 17.37933
#
# Velocity S-wave (km/s) = -1.18195 3.99906 2.70143
# Velocity P-wave (km/s) = 1.62748 6.12935 4.17853
#
# Compressibility (1/GPa) = -0.53420902
#
# Stress axis : x y z
#
# Youngs Moduli (GPa) = -11.12806 -1.40886 -6.40859
#
# Poissons Ratio (x) = -0.37973 0.79960
# Poissons Ratio (y) = -2.99934 2.27829
# Poissons Ratio (z) = 1.38844 0.50086
#
# Static dielectric constant tensor:
#      x y z
#    x 1.909370 -0.030260 0.016770 
#    y -0.030260 1.914870 -0.038340 
#    z 0.016770 -0.038340 1.968400 
# 
# From -- ./inp_files/372742.got.cif
#   From: 2010.05.17/outbox.cif.g08.bks.cpg/sg2_187_cif.got.tgz:372742.got - 2010.06.03 11:33:40.
