data_PCOD9035779
_publ_section_title
;
Structure prediction by ZEFSAII (Michael W. Deem and Ramdas Pophale) SiO2 
 PCOD9035779
Probable space group: P -1
;
_chemical_formula_sum "Si O2"
_cell_formula_units_Z 15
_cell_length_a 8.216443
_cell_length_b 13.209606
_cell_length_c 8.679533
_cell_angle_alpha 60.666957
_cell_angle_beta 69.464419
_cell_angle_gamma 42.761252
_cell_volume 557.527236
_symmetry_space_group_name_H-M "P -1"
_symmetry_group_IT_number 2
_symmetry_cell_setting 'triclinic'
loop_
_space_group_symop_operation_xyz
x,y,z
-x,-y,-z
loop_
_atom_site_type_symbol
_atom_site_label
_atom_site_fract_x
_atom_site_fract_y
_atom_site_fract_z
Si Si1 0.500000 0.000000 0.500000
Si Si2 0.249807 0.632928 0.808178
Si Si3 0.027685 0.279954 0.618159
Si Si4 0.541057 0.786863 0.782751
Si Si5 0.251520 0.727033 0.053229
Si Si6 0.930621 0.488989 0.238776
Si Si7 0.714952 0.137578 0.508443
Si Si8 0.402537 0.165609 0.842533
O O1 0.786310 0.850168 0.470258
O O2 0.557206 0.913397 0.720624
O O3 0.500288 0.455741 0.888167
O O4 0.324571 0.708565 0.623708
O O5 0.132584 0.735147 0.928330
O O6 0.098965 0.605740 0.794237
O O7 0.892993 0.448155 0.451188
O O8 0.181762 0.253434 0.730592
O O9 0.875148 0.246447 0.766901
O O10 0.788399 0.605712 0.803026
O O11 0.431827 0.861387 0.584533
O O12 0.334676 0.818402 0.920249
O O13 0.731172 0.676672 0.121684
O O14 0.611435 0.136342 0.701372
O O15 0.000000 0.000000 0.500000
O O16 0.500000 0.000000 0.000000
#
# Coordination Sequence:
#
# PCOD9035779 Si02
#       8
#     1   2   2   2   2   2   2   2
#     4  10  22  46  72 102 148 200 252 302 376 460
#     4  10  25  46  77 114 148 200 259 318 384 457
#     4  11  25  47  78 105 155 206 256 315 386 461
#     4  10  24  45  75 107 150 209 246 315 388 457
#     4  10  24  46  74 113 152 193 258 323 389 444
#     4  11  25  49  82 108 152 206 266 309 383 478
#     4  11  25  45  73 104 157 206 249 311 400 454
#     4  12  28  46  74 118 156 201 257 327 392 458
#
# _framework density 26.904513000000001
#
# number of rings (size 3 to 8) (size 9 to 14) (size 15 to 20)
#    0.000    1.333    2.667    1.200   13.067    4.267 
#    0.000    0.000    0.000    0.000    0.000    0.000 
#    0.000    0.000    0.000    0.000    0.000    0.000 
#
# Total GULP energy -83791.899479 kJ/mol
# GULP energy per Si atom -5586.126632 kJ/mol
# Density = 2.684328 g / cm^3
# Si number density = 26.904513 Si / 1000 Ang^3
#
#
#
# Elastic Constant Matrix: (Units=GPa)
#
#
# Indices 1 2 3 4 5 6 
#
# 1 90.8572 25.5454 35.2508 5.9171 -2.0820 -4.7552
# 2 25.5454 87.0656 55.1647 2.4474 -17.2397 -18.6723
# 3 35.2508 55.1647 210.8403 10.5935 -50.7280 -6.6225
# 4 5.9171 2.4474 10.5935 63.9029 -11.0127 -10.3784
# 5 -2.0820 -17.2397 -50.7280 -11.0127 52.8823 1.0771
# 6 -4.7552 -18.6723 -6.6225 -10.3784 1.0771 34.4689
#
#
#
# Elastic Compliance Matrix: (Units=1/GPa)
#
#
# Indices 1 2 3 4 5 6 
#
# 1 0.012598 -0.003120 -0.001861 -0.001280 -0.002560 -0.000615
# 2 -0.003120 0.016604 -0.003022 0.001988 0.002632 0.008500
# 3 -0.001861 -0.003022 0.007244 -0.000007 0.005903 -0.000689
# 4 -0.001280 0.001988 -0.000007 0.017371 0.004086 0.006002
# 5 -0.002560 0.002632 0.005903 0.004086 0.026127 0.002620
# 6 -0.000615 0.008500 -0.000689 0.006002 0.002620 0.035124
#
#
# Mechanical properties :
#
#
# Convention : Reuss Voigt Hill
#
# Bulk Modulus (GPa) = 48.92607 68.96501 58.94554
# Shear Modulus (GPa) = 36.26130 48.43761 42.34946
#
# Velocity S-wave (km/s) = 3.67519 4.24766 3.97175
# Velocity P-wave (km/s) = 6.01946 7.05306 6.55666
#
# Compressibility (1/GPa) = 0.02043900
#
# Stress axis : x y z
#
# Youngs Moduli (GPa) = 79.37745 60.22573 138.05018
#
# Poissons Ratio (x) = 0.18791 0.25691
# Poissons Ratio (y) = 0.24767 0.41724
# Poissons Ratio (z) = 0.14772 0.18203
#
# Static dielectric constant tensor:
#      x y z
#    x -0.703690 -1.599550 2.047240 
#    y -1.599550 1.132150 1.087340 
#    z 2.047240 1.087340 0.903850 
# 
# From -- ./inp_files/437592.got.cif
#   From: 2010.05.17/outbox.cif.g08.bks.cpg/sg2_219_cif.got.tgz:437592.got - 2010.06.03 11:33:40.
