data_PCOD9035116
_publ_section_title
;
Structure prediction by ZEFSAII (Michael W. Deem and Ramdas Pophale) SiO2 
 PCOD9035116
Probable space group: P -1
;
_chemical_formula_sum "Si O2"
_cell_formula_units_Z 12
_cell_length_a 15.290613
_cell_length_b 5.000255
_cell_length_c 7.629685
_cell_angle_alpha 112.493433
_cell_angle_beta 57.177463
_cell_angle_gamma 100.120852
_cell_volume 452.543728
_symmetry_space_group_name_H-M "P -1"
_symmetry_group_IT_number 2
_symmetry_cell_setting 'triclinic'
loop_
_space_group_symop_operation_xyz
x,y,z
-x,-y,-z
loop_
_atom_site_type_symbol
_atom_site_label
_atom_site_fract_x
_atom_site_fract_y
_atom_site_fract_z
Si Si1 0.558982 0.103466 0.788495
Si Si2 0.767471 0.933219 0.621741
Si Si3 0.645976 0.680172 0.000120
Si Si4 0.197568 0.521876 0.925212
Si Si5 0.157067 0.859697 0.725876
Si Si6 0.984839 0.569113 0.331248
O O1 0.605539 0.415585 0.859616
O O2 0.660469 0.886830 0.609613
O O3 0.460775 0.151097 0.778477
O O4 0.500000 0.000000 0.000000
O O5 0.718639 0.884990 0.855512
O O6 0.880433 0.767827 0.469454
O O7 0.803368 0.203144 0.531572
O O8 0.711913 0.532547 0.046945
O O9 0.221849 0.697487 0.767883
O O10 0.165371 0.198374 0.829457
O O11 0.093372 0.674444 0.162940
O O12 0.045794 0.719154 0.811449
O O13 0.000000 0.500000 0.500000
#
# Coordination Sequence:
#
# PCOD9035116 Si02
#       6
#     2   2   2   2   2   2
#     4   9  21  41  74 101 138 179 246 298 341 403
#     4  11  23  44  71 103 138 191 237 291 341 424
#     4  10  22  45  71 104 137 187 245 288 346 422
#     4  12  28  45  72 106 149 188 227 292 365 411
#     4  12  28  48  67 106 154 188 225 291 362 422
#     4  12  26  45  73 105 140 190 244 287 338 427
#
# _framework density 26.516773000000001
#
# number of rings (size 3 to 8) (size 9 to 14) (size 15 to 20)
#    0.000    1.000    3.333    2.000    7.000    0.667 
#    0.000    1.667    0.000    0.000    0.000    0.000 
#    0.000    0.000    0.000    0.000    0.000    0.000 
#
# Total GULP energy -66933.418295 kJ/mol
# GULP energy per Si atom -5577.784858 kJ/mol
# Density = 2.645642 g / cm^3
# Si number density = 26.516773 Si / 1000 Ang^3
#
#
#
# Elastic Constant Matrix: (Units=GPa)
#
#
# Indices 1 2 3 4 5 6 
#
# 1 231.8422 45.4442 85.5822 -11.8189 -27.1163 -58.7767
# 2 45.4442 118.3787 44.1212 -22.2556 9.4737 -25.9538
# 3 85.5822 44.1212 75.3535 -4.8970 -18.9973 -31.9627
# 4 -11.8189 -22.2556 -4.8970 45.8194 -14.6649 8.3226
# 5 -27.1163 9.4737 -18.9973 -14.6649 63.4447 0.8218
# 6 -58.7767 -25.9538 -31.9627 8.3226 0.8218 53.2949
#
#
#
# Elastic Compliance Matrix: (Units=1/GPa)
#
#
# Indices 1 2 3 4 5 6 
#
# 1 0.008403 0.000755 -0.007420 0.001320 0.001498 0.004956
# 2 0.000755 0.012504 -0.008027 0.004177 -0.003002 0.001502
# 3 -0.007420 -0.008027 0.030769 -0.001527 0.006803 0.006494
# 4 0.001320 0.004177 -0.001527 0.026090 0.005535 -0.001585
# 5 0.001498 -0.003002 0.006803 0.005535 0.020127 0.003096
# 6 0.004956 0.001502 0.006494 -0.001585 0.003096 0.029055
#
#
# Mechanical properties :
#
#
# Convention : Reuss Voigt Hill
#
# Bulk Modulus (GPa) = 44.86149 86.20774 65.53461
# Shear Modulus (GPa) = 30.53161 49.20690 39.86925
#
# Velocity S-wave (km/s) = 3.39692 4.31244 3.88177
# Velocity P-wave (km/s) = 5.68685 7.57479 6.69768
#
# Compressibility (1/GPa) = 0.02229083
#
# Stress axis : x y z
#
# Youngs Moduli (GPa) = 118.99873 79.97242 32.50017
#
# Poissons Ratio (x) = -0.06034 0.24117
# Poissons Ratio (y) = -0.08979 0.26088
# Poissons Ratio (z) = 0.88302 0.64195
#
# Static dielectric constant tensor:
#      x y z
#    x 2.128550 0.009790 -0.019170 
#    y 0.009790 2.208050 0.137240 
#    z -0.019170 0.137240 2.261190 
# 
# From -- ./inp_files/286325.got.cif
#   From: 2010.05.17/outbox.cif.g08.bks.cpg/sg2_144_cif.got.tgz:286325.got - 2010.06.03 11:33:40.
