data_PCOD9035534
_publ_section_title
;
Structure prediction by ZEFSAII (Michael W. Deem and Ramdas Pophale) SiO2 
 PCOD9035534
Probable space group: P -1
;
_chemical_formula_sum "Si O2"
_cell_formula_units_Z 16
_cell_length_a 20.517571
_cell_length_b 6.803514
_cell_length_c 8.876823
_cell_angle_alpha 51.206019
_cell_angle_beta 52.785047
_cell_angle_gamma 71.033190
_cell_volume 766.216296
_symmetry_space_group_name_H-M "P -1"
_symmetry_group_IT_number 2
_symmetry_cell_setting 'triclinic'
loop_
_space_group_symop_operation_xyz
x,y,z
-x,-y,-z
loop_
_atom_site_type_symbol
_atom_site_label
_atom_site_fract_x
_atom_site_fract_y
_atom_site_fract_z
Si Si1 0.353041 0.000640 0.096719
Si Si2 0.433634 0.533291 0.706626
Si Si3 0.905928 0.452562 0.839057
Si Si4 0.186226 0.093208 0.118055
Si Si5 0.097918 0.540197 0.518787
Si Si6 0.188615 0.092920 0.756198
Si Si7 0.653541 0.104141 0.511823
Si Si8 0.512883 0.228830 0.179282
O O1 0.269177 0.066647 0.107029
O O2 0.339474 0.846026 0.344169
O O3 0.405780 0.260393 0.944201
O O4 0.406979 0.868075 0.963259
O O5 0.500000 0.500000 0.500000
O O6 0.353282 0.639908 0.694878
O O7 0.472200 0.719714 0.690342
O O8 0.857859 0.660873 0.890842
O O9 0.895782 0.498558 0.651863
O O10 0.002646 0.490514 0.720325
O O11 0.870409 0.165834 0.062805
O O12 0.129971 0.833141 0.357549
O O13 0.202571 0.107949 0.909019
O O14 0.149791 0.340177 0.628433
O O15 0.273094 0.050443 0.573564
O O16 0.566407 0.953757 0.666151
O O17 0.500000 0.500000 0.000000
#
# Coordination Sequence:
#
# PCOD9035534 Si02
#       8
#     2   2   2   2   2   2   2   2
#     4  12  26  45  64  94 131 171 219 268 321 380
#     4  12  25  43  66  92 124 170 219 266 322 378
#     4  10  22  46  67  97 132 169 214 265 326 393
#     4  11  25  41  66  99 133 168 217 268 323 389
#     4  10  23  43  71  95 131 172 212 265 327 391
#     4  11  25  41  65 101 131 170 216 270 324 386
#     4  12  25  44  66  93 131 172 217 268 323 378
#     4  12  25  44  67  92 128 172 219 269 318 382
#
# _framework density 20.881830000000001
#
# number of rings (size 3 to 8) (size 9 to 14) (size 15 to 20)
#    0.000    0.750    2.500    4.500    3.500    5.500 
#    0.000    0.000    0.000    0.000    0.000    0.000 
#    0.000    0.000    0.000    0.000    0.000    0.000 
#
# Total GULP energy -89537.646800 kJ/mol
# GULP energy per Si atom -5596.102925 kJ/mol
# Density = 2.083430 g / cm^3
# Si number density = 20.881830 Si / 1000 Ang^3
#
#
#
# Elastic Constant Matrix: (Units=GPa)
#
#
# Indices 1 2 3 4 5 6 
#
# 1 90.1469 20.3393 18.1123 15.4860 13.9198 -4.5082
# 2 20.3393 95.9814 12.3588 17.1435 5.7323 1.5197
# 3 18.1123 12.3588 45.8775 12.1022 11.8607 1.9392
# 4 15.4860 17.1435 12.1022 41.2075 -11.5629 2.4384
# 5 13.9198 5.7323 11.8607 -11.5629 30.2417 -2.9905
# 6 -4.5082 1.5197 1.9392 2.4384 -2.9905 36.0113
#
#
#
# Elastic Compliance Matrix: (Units=1/GPa)
#
#
# Indices 1 2 3 4 5 6 
#
# 1 0.014157 -0.001135 -0.001442 -0.006818 -0.008176 0.001680
# 2 -0.001135 0.011907 -0.000331 -0.005447 -0.003744 -0.000569
# 3 -0.001442 -0.000331 0.029995 -0.012496 -0.016040 -0.002268
# 4 -0.006818 -0.005447 -0.012496 0.039577 0.024142 -0.000626
# 5 -0.008176 -0.003744 -0.016040 0.024142 0.053338 0.002793
# 6 0.001680 -0.000569 -0.002268 -0.000626 0.002793 0.028400
#
#
# Mechanical properties :
#
#
# Convention : Reuss Voigt Hill
#
# Bulk Modulus (GPa) = 19.90307 37.06960 28.48633
# Shear Modulus (GPa) = 25.00804 33.57179 29.28992
#
# Velocity S-wave (km/s) = 3.46439 4.01397 3.74926
# Velocity P-wave (km/s) = 5.05516 6.26683 5.69332
#
# Compressibility (1/GPa) = 0.05024352
#
# Stress axis : x y z
#
# Youngs Moduli (GPa) = 70.63860 83.98242 33.33942
#
# Poissons Ratio (x) = 0.09529 0.04807
# Poissons Ratio (y) = 0.08015 0.01103
# Poissons Ratio (z) = 0.10185 0.02778
#
# Static dielectric constant tensor:
#      x y z
#    x 1.726900 0.010040 0.023130 
#    y 0.010040 1.732370 -0.030230 
#    z 0.023130 -0.030230 1.783230 
# 
# From -- ./inp_files/112371.got.cif
#   From: 2010.05.17/outbox.cif.g08.bks.cpg/sg2_57_cif.got.tgz:112371.got - 2010.06.03 11:33:40.
