data_PCOD9035963
_publ_section_title
;
Structure prediction by ZEFSAII (Michael W. Deem and Ramdas Pophale) SiO2 
 PCOD9035963
Probable space group: P -1
;
_chemical_formula_sum "Si O2"
_cell_formula_units_Z 15
_cell_length_a 9.298787
_cell_length_b 8.687229
_cell_length_c 15.083316
_cell_angle_alpha 81.488587
_cell_angle_beta 113.714033
_cell_angle_gamma 48.070112
_cell_volume 656.469822
_symmetry_space_group_name_H-M "P -1"
_symmetry_group_IT_number 2
_symmetry_cell_setting 'triclinic'
loop_
_space_group_symop_operation_xyz
x,y,z
-x,-y,-z
loop_
_atom_site_type_symbol
_atom_site_label
_atom_site_fract_x
_atom_site_fract_y
_atom_site_fract_z
Si Si1 0.661287 0.481555 0.749476
Si Si2 0.212131 0.162974 0.728330
Si Si3 0.686763 0.240842 0.626367
Si Si4 0.882266 0.096530 0.364143
Si Si5 0.500000 0.000000 0.000000
Si Si6 0.706981 0.732079 0.627470
Si Si7 0.889203 0.908021 0.986705
Si Si8 0.351432 0.011743 0.258579
O O1 0.796993 0.256468 0.733322
O O2 0.569357 0.696302 0.646284
O O3 0.863494 0.376295 0.882139
O O4 0.410240 0.603571 0.723010
O O5 0.146414 0.049033 0.677593
O O6 0.945265 0.472996 0.652210
O O7 0.407124 0.088667 0.714206
O O8 0.361067 0.044213 0.870363
O O9 0.500000 0.500000 0.500000
O O10 0.912277 0.987020 0.643288
O O11 0.535432 0.222855 0.637675
O O12 0.000000 0.000000 0.500000
O O13 0.642991 0.036262 0.972928
O O14 0.810037 0.752595 0.733517
O O15 0.500000 0.000000 0.500000
O O16 0.829800 0.903920 0.872683
O O17 0.000000 0.000000 0.000000
#
# Coordination Sequence:
#
# PCOD9035963 Si02
#       8
#     2   2   2   2   1   2   2   2
#     4  12  24  47  73 105 151 199 244 312 384 450
#     4  11  25  47  74 107 147 194 249 313 374 451
#     4  12  24  45  70 100 148 192 237 309 369 446
#     4  12  26  43  73 108 141 201 248 294 384 454
#     4  10  22  46  82 106 146 204 250 312 398 436
#     4  12  26  44  71 108 147 194 248 303 375 456
#     4  11  23  47  78 112 155 195 258 321 383 458
#     4  11  27  44  75 110 141 194 254 305 379 450
#
# _framework density 22.849489999999999
#
# number of rings (size 3 to 8) (size 9 to 14) (size 15 to 20)
#    0.000    0.533    6.667    0.800    0.000    4.267 
#    0.000    0.667    0.000    0.000    0.000    0.000 
#    0.000    0.000    0.000    0.000    0.000    0.000 
#
# Total GULP energy -83511.765138 kJ/mol
# GULP energy per Si atom -5567.451009 kJ/mol
# Density = 2.279748 g / cm^3
# Si number density = 22.849490 Si / 1000 Ang^3
#
#
#
# Elastic Constant Matrix: (Units=GPa)
#
#
# Indices 1 2 3 4 5 6 
#
# 1 118.3098 26.8887 39.3197 19.5891 -6.8499 3.8740
# 2 26.8887 100.0620 37.3310 32.2402 3.4577 -15.8079
# 3 39.3197 37.3310 120.3182 28.4548 2.3836 1.4406
# 4 19.5891 32.2402 28.4548 35.2459 5.3945 6.9420
# 5 -6.8499 3.4577 2.3836 5.3945 41.6784 0.6956
# 6 3.8740 -15.8079 1.4406 6.9420 0.6956 36.5305
#
#
#
# Elastic Compliance Matrix: (Units=1/GPa)
#
#
# Indices 1 2 3 4 5 6 
#
# 1 0.010121 -0.001184 -0.002303 -0.002835 0.002277 -0.000999
# 2 -0.001184 0.018068 -0.001323 -0.017075 0.000405 0.011234
# 3 -0.002303 -0.001323 0.011001 -0.006473 -0.000068 0.000469
# 4 -0.002835 -0.017075 -0.006473 0.055021 -0.005514 -0.017184
# 5 0.002277 0.000405 -0.000068 -0.005514 0.025043 0.000507
# 6 -0.000999 0.011234 0.000469 -0.017184 0.000507 0.035579
#
#
# Mechanical properties :
#
#
# Convention : Reuss Voigt Hill
#
# Bulk Modulus (GPa) = 33.81834 60.64098 47.22966
# Shear Modulus (GPa) = 28.68471 38.36768 33.52619
#
# Velocity S-wave (km/s) = 3.54697 4.10219 3.83464
# Velocity P-wave (km/s) = 5.62204 7.00244 6.34986
#
# Compressibility (1/GPa) = 0.02956975
#
# Stress axis : x y z
#
# Youngs Moduli (GPa) = 98.80791 55.34637 90.90051
#
# Poissons Ratio (x) = 0.06551 0.20934
# Poissons Ratio (y) = 0.11696 0.12029
# Poissons Ratio (z) = 0.22755 0.07324
#
# Static dielectric constant tensor:
#      x y z
#    x 1.928820 0.029610 0.004900 
#    y 0.029610 1.877500 -0.005210 
#    z 0.004900 -0.005210 1.861050 
# 
# From -- ./inp_files/492812.got.cif
#   From: 2010.05.17/outbox.cif.g08.bks.cpg/sg2_247_cif.got.tgz:492812.got - 2010.06.03 11:33:40.
