data_PCOD9035071
_publ_section_title
;
Structure prediction by ZEFSAII (Michael W. Deem and Ramdas Pophale) SiO2 
 PCOD9035071
Probable space group: P -1
;
_chemical_formula_sum "Si O2"
_cell_formula_units_Z 16
_cell_length_a 8.676341
_cell_length_b 19.007682
_cell_length_c 4.986300
_cell_angle_alpha 111.854342
_cell_angle_beta 113.394999
_cell_angle_gamma 58.216945
_cell_volume 627.372384
_symmetry_space_group_name_H-M "P -1"
_symmetry_group_IT_number 2
_symmetry_cell_setting 'triclinic'
loop_
_space_group_symop_operation_xyz
x,y,z
-x,-y,-z
loop_
_atom_site_type_symbol
_atom_site_label
_atom_site_fract_x
_atom_site_fract_y
_atom_site_fract_z
Si Si1 0.039280 0.574587 0.512106
Si Si2 0.622168 0.892071 0.893463
Si Si3 0.717596 0.206343 0.819281
Si Si4 0.352926 0.943141 0.266048
Si Si5 0.285076 0.547045 0.133415
Si Si6 0.665874 0.713624 0.659902
Si Si7 0.941161 0.924606 0.408554
Si Si8 0.463192 0.634817 0.756658
O O1 0.120516 0.559624 0.249518
O O2 0.000000 0.500000 0.500000
O O3 0.845428 0.656313 0.530123
O O4 0.195558 0.576705 0.824515
O O5 0.457016 0.939505 0.059663
O O6 0.796217 0.911413 0.094576
O O7 0.514885 0.911577 0.562541
O O8 0.692053 0.794116 0.884751
O O9 0.726351 0.126984 0.887107
O O10 0.519002 0.248619 0.595022
O O11 0.874015 0.163049 0.636118
O O12 0.702913 0.282914 0.105349
O O13 0.187093 0.034269 0.360190
O O14 0.385266 0.599591 0.408222
O O15 0.425815 0.447091 0.095385
O O16 0.615630 0.663711 0.785825
O O17 0.000000 0.000000 0.500000
#
# Coordination Sequence:
#
# PCOD9035071 Si02
#       8
#     2   2   2   2   2   2   2   2
#     4  12  25  46  70 100 135 178 236 275 339 393
#     4  11  23  44  69 101 130 180 223 276 338 396
#     4  10  23  45  64 100 137 182 220 280 346 393
#     4  10  22  45  70  97 134 176 227 275 332 402
#     4  11  28  42  72 100 133 186 223 284 331 411
#     4  11  25  41  70  95 138 179 225 286 329 407
#     4  10  23  44  69 100 136 177 225 277 336 409
#     4  11  24  45  66  98 142 174 228 276 350 391
#
# _framework density 25.503195999999999
#
# number of rings (size 3 to 8) (size 9 to 14) (size 15 to 20)
#    0.000    1.250    2.500    1.875    5.250    1.000 
#    4.500    4.375    0.000    0.000    0.000    0.000 
#    0.000    0.000    0.000    0.000    0.000    0.000 
#
# Total GULP energy -89639.808848 kJ/mol
# GULP energy per Si atom -5602.488053 kJ/mol
# Density = 2.544515 g / cm^3
# Si number density = 25.503196 Si / 1000 Ang^3
#
#
#
# Elastic Constant Matrix: (Units=GPa)
#
#
# Indices 1 2 3 4 5 6 
#
# 1 127.7871 50.8638 39.8258 8.7997 0.7675 -18.1054
# 2 50.8638 143.3613 45.6449 33.8000 3.7775 -33.8353
# 3 39.8258 45.6449 100.1522 12.5180 1.8089 4.3514
# 4 8.7997 33.8000 12.5180 45.4915 4.9120 0.7480
# 5 0.7675 3.7775 1.8089 4.9120 39.6064 15.1761
# 6 -18.1054 -33.8353 4.3514 0.7480 15.1761 57.3060
#
#
#
# Elastic Compliance Matrix: (Units=1/GPa)
#
#
# Indices 1 2 3 4 5 6 
#
# 1 0.009938 -0.002059 -0.003168 0.000530 -0.000828 0.002377
# 2 -0.002059 0.013018 -0.004437 -0.007842 -0.003217 0.008327
# 3 -0.003168 -0.004437 0.013444 0.000098 0.001822 -0.005126
# 4 0.000530 -0.007842 0.000098 0.027859 -0.000968 -0.004578
# 5 -0.000828 -0.003217 0.001822 -0.000968 0.029475 -0.010093
# 6 0.002377 0.008327 -0.005126 -0.004578 -0.010093 0.026239
#
#
# Mechanical properties :
#
#
# Convention : Reuss Voigt Hill
#
# Bulk Modulus (GPa) = 58.57972 71.55217 65.06594
# Shear Modulus (GPa) = 34.48434 44.14519 39.31476
#
# Velocity S-wave (km/s) = 3.68116 4.16500 3.93053
# Velocity P-wave (km/s) = 6.40994 7.15868 6.79463
#
# Compressibility (1/GPa) = 0.01707076
#
# Stress axis : x y z
#
# Youngs Moduli (GPa) = 100.62690 76.81726 74.38043
#
# Poissons Ratio (x) = 0.15820 0.23561
# Poissons Ratio (y) = 0.20724 0.33006
# Poissons Ratio (z) = 0.31875 0.34087
#
# Static dielectric constant tensor:
#      x y z
#    x 2.062100 0.037530 0.024000 
#    y 0.037530 2.070890 0.035080 
#    z 0.024000 0.035080 2.016000 
# 
# From -- ./inp_files/53850.got.cif
#   From: 2010.05.17/outbox.cif.g08.bks.cpg/sg2_27_cif.got.tgz:53850.got - 2010.06.03 11:33:40.
