data_PCOD9035598
_publ_section_title
;
Structure prediction by ZEFSAII (Michael W. Deem and Ramdas Pophale) SiO2 
 PCOD9035598
Probable space group: P -1
;
_chemical_formula_sum "Si O2"
_cell_formula_units_Z 10
_cell_length_a 6.298387
_cell_length_b 12.978000
_cell_length_c 5.783907
_cell_angle_alpha 66.102968
_cell_angle_beta 101.757678
_cell_angle_gamma 115.210222
_cell_volume 390.800096
_symmetry_space_group_name_H-M "P -1"
_symmetry_group_IT_number 2
_symmetry_cell_setting 'triclinic'
loop_
_space_group_symop_operation_xyz
x,y,z
-x,-y,-z
loop_
_atom_site_type_symbol
_atom_site_label
_atom_site_fract_x
_atom_site_fract_y
_atom_site_fract_z
Si Si1 0.904317 0.039085 0.166976
Si Si2 0.286353 0.369072 0.083396
Si Si3 0.568942 0.645077 0.372898
Si Si4 0.224419 0.730257 0.973213
Si Si5 0.584745 0.890197 0.551843
O O1 0.150126 0.080208 0.327435
O O2 0.661280 0.922725 0.273808
O O3 0.826844 0.153343 0.057072
O O4 0.000000 0.000000 0.000000
O O5 0.322714 0.310107 0.389929
O O6 0.500000 0.500000 0.000000
O O7 0.285410 0.315538 0.871224
O O8 0.029017 0.369824 0.055005
O O9 0.500000 0.500000 0.500000
O O10 0.344759 0.677142 0.240084
O O11 0.392059 0.775684 0.742802
O O12 0.500000 0.000000 0.500000
#
# Coordination Sequence:
#
# PCOD9035598 Si02
#       5
#     2   2   2   2   2
#     4  10  22  46  69 101 144 186 243 307 363 439
#     4  10  24  47  72 107 150 190 249 308 367 437
#     4  10  24  47  72 105 149 192 247 308 369 433
#     4  11  23  45  71 112 142 199 245 299 374 446
#     4   9  21  44  65  98 141 182 243 299 367 426
#
# _framework density 25.588529999999999
#
# number of rings (size 3 to 8) (size 9 to 14) (size 15 to 20)
#    0.000    2.000    0.000    1.200    0.000   11.200 
#   46.800    0.000    0.000    0.000    0.000    0.000 
#    0.000    0.000    0.000    0.000    0.000    0.000 
#
# Total GULP energy -55751.322001 kJ/mol
# GULP energy per Si atom -5575.132200 kJ/mol
# Density = 2.553029 g / cm^3
# Si number density = 25.588530 Si / 1000 Ang^3
#
#
#
# Elastic Constant Matrix: (Units=GPa)
#
#
# Indices 1 2 3 4 5 6 
#
# 1 206.8787 59.7172 108.2414 -3.8715 -1.2622 12.0684
# 2 59.7172 87.9475 37.8303 -3.8860 -8.9121 14.3841
# 3 108.2414 37.8303 153.6296 9.3761 -12.5062 8.4855
# 4 -3.8715 -3.8860 9.3761 54.2734 -9.7413 -6.1384
# 5 -1.2622 -8.9121 -12.5062 -9.7413 80.9513 -1.4734
# 6 12.0684 14.3841 8.4855 -6.1384 -1.4734 56.4043
#
#
#
# Elastic Compliance Matrix: (Units=1/GPa)
#
#
# Indices 1 2 3 4 5 6 
#
# 1 0.008726 -0.003648 -0.005395 0.001117 -0.000965 -0.000029
# 2 -0.003648 0.014864 -0.000872 0.000915 0.001505 -0.002740
# 3 -0.005395 -0.000872 0.010779 -0.002141 0.001219 -0.000446
# 4 0.001117 0.000915 -0.002141 0.019561 0.002178 0.002036
# 5 -0.000965 0.001505 0.001219 0.002178 0.012958 0.000215
# 6 -0.000029 -0.002740 -0.000446 0.002036 0.000215 0.018728
#
#
# Mechanical properties :
#
#
# Convention : Reuss Voigt Hill
#
# Bulk Modulus (GPa) = 68.77763 95.55930 82.16847
# Shear Modulus (GPa) = 45.33356 54.50360 49.91858
#
# Velocity S-wave (km/s) = 4.21365 4.62020 4.42160
# Velocity P-wave (km/s) = 7.11405 8.11710 7.63207
#
# Compressibility (1/GPa) = 0.01453961
#
# Stress axis : x y z
#
# Youngs Moduli (GPa) = 114.59655 67.27821 92.76932
#
# Poissons Ratio (x) = 0.24546 0.50048
# Poissons Ratio (y) = 0.41809 0.08085
# Poissons Ratio (z) = 0.61824 0.05864
#
# Static dielectric constant tensor:
#      x y z
#    x 1.978430 -0.058580 0.087480 
#    y -0.058580 2.207150 0.060710 
#    z 0.087480 0.060710 2.547920 
# 
# From -- ./inp_files/2324.got.cif
#   From: 2010.05.17/outbox.cif.g08.bks.cpg/sg2_2_cif.got.tgz:2324.got - 2010.06.03 11:33:40.
