data_PCOD9035711
_publ_section_title
;
Structure prediction by ZEFSAII (Michael W. Deem and Ramdas Pophale) SiO2 
 PCOD9035711
Probable space group: P -1
;
_chemical_formula_sum "Si O2"
_cell_formula_units_Z 16
_cell_length_a 12.121008
_cell_length_b 18.564827
_cell_length_c 8.662275
_cell_angle_alpha 61.802926
_cell_angle_beta 53.073584
_cell_angle_gamma 27.103277
_cell_volume 699.454209
_symmetry_space_group_name_H-M "P -1"
_symmetry_group_IT_number 2
_symmetry_cell_setting 'triclinic'
loop_
_space_group_symop_operation_xyz
x,y,z
-x,-y,-z
loop_
_atom_site_type_symbol
_atom_site_label
_atom_site_fract_x
_atom_site_fract_y
_atom_site_fract_z
Si Si1 0.467687 0.112554 0.896266
Si Si2 0.525468 0.502950 0.158122
Si Si3 0.132656 0.534310 0.956566
Si Si4 0.735540 0.054078 0.998403
Si Si5 0.093840 0.853986 0.172268
Si Si6 0.806849 0.658833 0.691073
Si Si7 0.384020 0.415182 0.532482
Si Si8 0.466836 0.821987 0.516065
O O1 0.701418 0.041708 0.865724
O O2 0.472308 0.134884 0.691727
O O3 0.173773 0.294056 0.014358
O O4 0.500000 0.000000 0.000000
O O5 0.773925 0.437116 0.047675
O O6 0.535061 0.418317 0.342214
O O7 0.260682 0.689937 0.241864
O O8 0.500000 0.500000 0.000000
O O9 0.323111 0.437121 0.743341
O O10 0.138684 0.448757 0.139113
O O11 0.730647 0.154058 0.934899
O O12 0.461185 0.159671 0.200904
O O13 0.003104 0.891821 0.030945
O O14 0.816629 0.013994 0.331280
O O15 0.702987 0.689236 0.577314
O O16 0.083303 0.568293 0.553504
O O17 0.539303 0.256637 0.500736
#
# Coordination Sequence:
#
# PCOD9035711 Si02
#       8
#     2   2   2   2   2   2   2   2
#     4  12  28  44  72 105 150 193 243 304 369 433
#     4  12  29  46  73 107 147 195 246 306 362 431
#     4  12  25  48  71 104 148 189 244 304 363 430
#     4  10  22  46  71 101 140 197 239 296 367 436
#     4  10  25  45  73 101 150 191 240 297 366 438
#     4  11  21  44  76 101 140 184 250 293 358 431
#     4  12  25  43  73 108 143 189 244 303 363 432
#     4  11  26  43  72 111 139 193 244 294 368 443
#
# _framework density 22.874977999999999
#
# number of rings (size 3 to 8) (size 9 to 14) (size 15 to 20)
#    0.000    0.750    3.750    2.625    8.750    0.500 
#    0.000    2.500    0.000    0.000    0.000    0.000 
#    0.000    0.000    0.000    0.000    0.000    0.000 
#
# Total GULP energy -89516.741754 kJ/mol
# GULP energy per Si atom -5594.796360 kJ/mol
# Density = 2.282291 g / cm^3
# Si number density = 22.874978 Si / 1000 Ang^3
#
#
#
# Elastic Constant Matrix: (Units=GPa)
#
#
# Indices 1 2 3 4 5 6 
#
# 1 124.0795 18.3193 23.2888 -11.7100 9.8263 -16.9187
# 2 18.3193 94.3777 22.2656 -16.0972 0.6319 -2.3836
# 3 23.2888 22.2656 80.8457 -16.2027 11.7620 6.2184
# 4 -11.7100 -16.0972 -16.2027 44.5262 -0.5045 -6.6538
# 5 9.8263 0.6319 11.7620 -0.5045 38.6482 -2.2504
# 6 -16.9187 -2.3836 6.2184 -6.6538 -2.2504 24.4828
#
#
#
# Elastic Compliance Matrix: (Units=1/GPa)
#
#
# Indices 1 2 3 4 5 6 
#
# 1 0.010126 -0.000669 -0.002648 0.002671 -0.001244 0.008217
# 2 -0.000669 0.012035 -0.002744 0.003556 0.000998 0.002464
# 3 -0.002648 -0.002744 0.015564 0.003089 -0.004305 -0.005607
# 4 0.002671 0.003556 0.003089 0.026851 -0.000824 0.008629
# 5 -0.001244 0.000998 -0.004305 -0.000824 0.027628 0.002646
# 6 0.008217 0.002464 -0.005607 0.008629 0.002646 0.050776
#
#
# Mechanical properties :
#
#
# Convention : Reuss Voigt Hill
#
# Bulk Modulus (GPa) = 39.05837 47.45003 43.25420
# Shear Modulus (GPa) = 30.55540 37.22671 33.89106
#
# Velocity S-wave (km/s) = 3.65877 4.03848 3.85330
# Velocity P-wave (km/s) = 5.91274 6.52181 6.22473
#
# Compressibility (1/GPa) = 0.02560271
#
# Stress axis : x y z
#
# Youngs Moduli (GPa) = 98.75307 83.09068 64.24944
#
# Poissons Ratio (x) = 0.05561 0.17015
# Poissons Ratio (y) = 0.06610 0.17629
# Poissons Ratio (z) = 0.26153 0.22799
#
# Static dielectric constant tensor:
#      x y z
#    x 1.896900 -0.033300 0.051870 
#    y -0.033300 1.855000 0.033290 
#    z 0.051870 0.033290 1.877550 
# 
# From -- ./inp_files/279206.got.cif
#   From: 2010.05.17/outbox.cif.g08.bks.cpg/sg2_140_cif.got.tgz:279206.got - 2010.06.03 11:33:40.
