data_PCOD9035991
_publ_section_title
;
Structure prediction by ZEFSAII (Michael W. Deem and Ramdas Pophale) SiO2 
 PCOD9035991
Probable space group: P -1
;
_chemical_formula_sum "Si O2"
_cell_formula_units_Z 16
_cell_length_a 12.335535
_cell_length_b 8.490750
_cell_length_c 11.339927
_cell_angle_alpha 101.277943
_cell_angle_beta 124.997824
_cell_angle_gamma 46.828888
_cell_volume 669.965487
_symmetry_space_group_name_H-M "P -1"
_symmetry_group_IT_number 2
_symmetry_cell_setting 'triclinic'
loop_
_space_group_symop_operation_xyz
x,y,z
-x,-y,-z
loop_
_atom_site_type_symbol
_atom_site_label
_atom_site_fract_x
_atom_site_fract_y
_atom_site_fract_z
Si Si1 0.458503 0.487382 0.821239
Si Si2 0.200705 0.240537 0.569122
Si Si3 0.737085 0.757830 0.666357
Si Si4 0.040705 0.289716 0.862602
Si Si5 0.529549 0.247926 0.606013
Si Si6 0.184695 0.760138 0.135882
Si Si7 0.866178 0.994777 0.349853
Si Si8 0.477971 0.898161 0.084778
O O1 0.405998 0.436557 0.658943
O O2 0.659863 0.388478 0.892668
O O3 0.300236 0.757228 0.774774
O O4 0.481022 0.331460 0.912734
O O5 0.238432 0.217881 0.451543
O O6 0.000000 0.500000 0.500000
O O7 0.198900 0.064700 0.594791
O O8 0.364305 0.176903 0.738870
O O9 0.602435 0.715050 0.571800
O O10 0.939644 0.545730 0.814273
O O11 0.634562 0.001248 0.688527
O O12 0.900982 0.320288 0.868032
O O13 0.045394 0.189807 0.725902
O O14 0.257332 0.108497 0.008949
O O15 0.698935 0.230725 0.694135
O O16 0.000000 0.000000 0.000000
O O17 0.000000 0.000000 0.500000
O O18 0.500000 0.000000 0.000000
#
# Coordination Sequence:
#
# PCOD9035991 Si02
#       8
#     2   2   2   2   2   2   2   2
#     4  10  23  46  69  99 141 182 229 287 345 419
#     4  12  23  45  69  98 141 182 230 286 349 412
#     4  11  22  43  71 101 134 177 238 291 337 413
#     4  12  25  44  70 108 138 183 238 285 354 416
#     4   9  22  43  68  95 133 183 226 284 344 402
#     4  10  22  47  67  97 145 184 229 284 346 416
#     4  12  26  42  71 107 139 183 233 291 354 415
#     4  12  23  47  68 101 144 182 233 285 349 419
#
# _framework density 23.881827000000001
#
# number of rings (size 3 to 8) (size 9 to 14) (size 15 to 20)
#    0.750    0.250    5.000    1.500    1.750    3.000 
#    2.250    1.250    0.000    0.000    0.000    0.000 
#    0.000    0.000    0.000    0.000    0.000    0.000 
#
# Total GULP energy -89330.703720 kJ/mol
# GULP energy per Si atom -5583.168983 kJ/mol
# Density = 2.382747 g / cm^3
# Si number density = 23.881827 Si / 1000 Ang^3
#
#
#
# Elastic Constant Matrix: (Units=GPa)
#
#
# Indices 1 2 3 4 5 6 
#
# 1 163.2242 20.4000 53.4368 -13.5668 0.9605 15.8458
# 2 20.4000 81.8625 14.0487 -36.0504 0.2377 0.2112
# 3 53.4368 14.0487 128.1705 -23.8422 14.7372 10.5747
# 4 -13.5668 -36.0504 -23.8422 41.4865 8.5082 -8.7755
# 5 0.9605 0.2377 14.7372 8.5082 43.9033 -4.0103
# 6 15.8458 0.2112 10.5747 -8.7755 -4.0103 29.2045
#
#
#
# Elastic Compliance Matrix: (Units=1/GPa)
#
#
# Indices 1 2 3 4 5 6 
#
# 1 0.007606 -0.002393 -0.003182 -0.002383 0.001054 -0.003529
# 2 -0.002393 0.022191 0.002764 0.022379 -0.004766 0.006207
# 3 -0.003182 0.002764 0.011115 0.008769 -0.005415 -0.000427
# 4 -0.002383 0.022379 0.008769 0.052878 -0.012148 0.012177
# 5 0.001054 -0.004766 -0.005415 -0.012148 0.027088 0.001493
# 6 -0.003529 0.006207 -0.000427 0.012177 0.001493 0.040129
#
#
# Mechanical properties :
#
#
# Convention : Reuss Voigt Hill
#
# Bulk Modulus (GPa) = 28.33698 61.00312 44.67005
# Shear Modulus (GPa) = 28.02816 41.94364 34.98590
#
# Velocity S-wave (km/s) = 3.42953 4.19537 3.83163
# Velocity P-wave (km/s) = 5.25105 7.00481 6.19035
#
# Compressibility (1/GPa) = 0.03528958
#
# Stress axis : x y z
#
# Youngs Moduli (GPa) = 131.48187 45.06391 89.96970
#
# Poissons Ratio (x) = 0.10783 0.28629
# Poissons Ratio (y) = 0.31461 -0.24869
# Poissons Ratio (z) = 0.41839 -0.12456
#
# Static dielectric constant tensor:
#      x y z
#    x 1.985280 0.035440 0.016110 
#    y 0.035440 1.947060 0.092250 
#    z 0.016110 0.092250 1.988230 
# 
# From -- ./inp_files/419467.got.cif
#   From: 2010.05.17/outbox.cif.g08.bks.cpg/sg2_210_cif.got.tgz:419467.got - 2010.06.03 11:33:40.
