data_PCOD9035402
_publ_section_title
;
Structure prediction by ZEFSAII (Michael W. Deem and Ramdas Pophale) SiO2 
 PCOD9035402
Probable space group: P -1
;
_chemical_formula_sum "Si O2"
_cell_formula_units_Z 16
_cell_length_a 18.427035
_cell_length_b 24.690144
_cell_length_c 6.431719
_cell_angle_alpha 69.616996
_cell_angle_beta 100.302996
_cell_angle_gamma 160.324752
_cell_volume 813.967596
_symmetry_space_group_name_H-M "P -1"
_symmetry_group_IT_number 2
_symmetry_cell_setting 'triclinic'
loop_
_space_group_symop_operation_xyz
x,y,z
-x,-y,-z
loop_
_atom_site_type_symbol
_atom_site_label
_atom_site_fract_x
_atom_site_fract_y
_atom_site_fract_z
Si Si1 0.435271 0.548597 0.930054
Si Si2 0.215948 0.533529 0.242696
Si Si3 0.047582 0.281432 0.415182
Si Si4 0.080633 0.577619 0.683917
Si Si5 0.537094 0.845224 0.658954
Si Si6 0.049645 0.087698 0.070226
Si Si7 0.297545 0.381054 0.690072
Si Si8 0.425381 0.233015 0.511053
O O1 0.684375 0.725251 0.947677
O O2 0.421516 0.491465 0.819558
O O3 0.446511 0.622368 0.754426
O O4 0.189601 0.359680 0.189189
O O5 0.089450 0.381076 0.296898
O O6 0.398122 0.650656 0.363201
O O7 0.005512 0.420531 0.359133
O O8 0.385409 0.694306 0.950492
O O9 0.197760 0.366180 0.568549
O O10 0.771205 0.053560 0.587682
O O11 0.352603 0.755107 0.591536
O O12 0.000000 0.500000 0.500000
O O13 0.000000 0.500000 0.000000
O O14 0.619968 0.859736 0.513181
O O15 0.074817 0.169833 0.872743
O O16 0.827346 0.926625 0.330973
O O17 0.000000 0.000000 0.000000
O O18 0.500000 0.500000 0.500000
#
# Coordination Sequence:
#
# PCOD9035402 Si02
#       8
#     2   2   2   2   2   2   2   2
#     4  12  25  44  63  93 136 182 224 286 349 399
#     4  11  23  47  70  96 144 175 226 289 353 419
#     4  12  25  43  69  99 135 180 233 284 343 415
#     4  10  22  45  76 107 145 188 230 294 367 432
#     4  11  25  42  72 104 132 180 234 278 354 423
#     4  12  26  42  64  94 132 181 234 284 343 407
#     4  12  25  42  62  87 133 178 230 280 342 407
#     4  12  23  41  68  94 133 179 230 285 342 421
#
# _framework density 19.656804999999999
#
# number of rings (size 3 to 8) (size 9 to 14) (size 15 to 20)
#    0.000    0.500    5.000    3.750    3.500    0.500 
#    0.000    0.000    0.000    3.750    0.000    0.000 
#    0.000    0.000    0.000    0.000    0.000    0.000 
#
# Total GULP energy -89169.474828 kJ/mol
# GULP energy per Si atom -5573.092177 kJ/mol
# Density = 1.961206 g / cm^3
# Si number density = 19.656805 Si / 1000 Ang^3
#
#
#
# Elastic Constant Matrix: (Units=GPa)
#
#
# Indices 1 2 3 4 5 6 
#
# 1 135.0576 69.6807 34.2156 -0.2232 -13.9370 -5.8474
# 2 69.6807 94.5824 38.1229 -0.4393 4.2483 -4.5471
# 3 34.2156 38.1229 61.6432 -1.8389 2.5953 -7.1226
# 4 -0.2232 -0.4393 -1.8389 24.6309 -6.7617 3.5701
# 5 -13.9370 4.2483 2.5953 -6.7617 32.9138 6.7085
# 6 -5.8474 -4.5471 -7.1226 3.5701 6.7085 42.0586
#
#
#
# Elastic Compliance Matrix: (Units=1/GPa)
#
#
# Indices 1 2 3 4 5 6 
#
# 1 0.013648 -0.009638 -0.001985 0.002072 0.007788 -0.000899
# 2 -0.009638 0.020950 -0.007271 -0.002289 -0.006883 0.000986
# 3 -0.001985 -0.007271 0.022275 0.000481 -0.002174 0.003016
# 4 0.002072 -0.002289 0.000481 0.044537 0.011401 -0.005477
# 5 0.007788 -0.006883 -0.002174 0.011401 0.038538 -0.007144
# 6 -0.000899 0.000986 0.003016 -0.005477 -0.007144 0.025873
#
#
# Mechanical properties :
#
#
# Convention : Reuss Voigt Hill
#
# Bulk Modulus (GPa) = 52.39710 63.92463 58.16086
# Shear Modulus (GPa) = 23.81269 29.87157 26.84213
#
# Velocity S-wave (km/s) = 3.48432 3.90251 3.69933
# Velocity P-wave (km/s) = 6.54990 7.27303 6.92092
#
# Compressibility (1/GPa) = 0.01908502
#
# Stress axis : x y z
#
# Youngs Moduli (GPa) = 73.27124 47.73230 44.89261
#
# Poissons Ratio (x) = 0.46005 0.08910
# Poissons Ratio (y) = 0.70620 0.32643
# Poissons Ratio (z) = 0.14542 0.34708
#
# Static dielectric constant tensor:
#      x y z
#    x 1.667600 -0.004320 0.014720 
#    y -0.004320 1.682150 0.023330 
#    z 0.014720 0.023330 1.830930 
# 
# From -- ./inp_files/42167.got.cif
#   From: 2010.05.17/outbox.cif.g08.bks.cpg/sg2_22_cif.got.tgz:42167.got - 2010.06.03 11:33:40.
