data_PCOD9035709
_publ_section_title
;
Structure prediction by ZEFSAII (Michael W. Deem and Ramdas Pophale) SiO2 
 PCOD9035709
Probable space group: P -1
;
_chemical_formula_sum "Si O2"
_cell_formula_units_Z 14
_cell_length_a 9.239224
_cell_length_b 15.223593
_cell_length_c 8.781919
_cell_angle_alpha 39.201040
_cell_angle_beta 102.881522
_cell_angle_gamma 122.158228
_cell_volume 618.082325
_symmetry_space_group_name_H-M "P -1"
_symmetry_group_IT_number 2
_symmetry_cell_setting 'triclinic'
loop_
_space_group_symop_operation_xyz
x,y,z
-x,-y,-z
loop_
_atom_site_type_symbol
_atom_site_label
_atom_site_fract_x
_atom_site_fract_y
_atom_site_fract_z
Si Si1 0.575385 0.715842 0.871501
Si Si2 0.793692 0.064183 0.610370
Si Si3 0.055954 0.875169 0.123473
Si Si4 0.181868 0.129107 0.578320
Si Si5 0.201151 0.638526 0.927579
Si Si6 0.487833 0.575350 0.555108
Si Si7 0.835714 0.480531 0.576673
O O1 0.705736 0.808723 0.633914
O O2 0.362344 0.631343 0.905178
O O3 0.646357 0.864960 0.812220
O O4 0.590674 0.571998 0.138770
O O5 0.809148 0.103826 0.740711
O O6 0.752886 0.178339 0.350726
O O7 0.994315 0.114123 0.542780
O O8 0.897384 0.675405 0.345911
O O9 0.132736 0.950161 0.873355
O O10 0.000000 0.000000 0.000000
O O11 0.318646 0.269637 0.545458
O O12 0.194284 0.600230 0.156066
O O13 0.000000 0.500000 0.000000
O O14 0.500000 0.500000 0.500000
O O15 0.348527 0.623301 0.425096
O O16 0.000000 0.500000 0.500000
#
# Coordination Sequence:
#
# PCOD9035709 Si02
#       7
#     2   2   2   2   2   2   2
#     4  12  26  43  72 104 136 184 241 292 347 422
#     4  11  23  45  70  99 141 183 230 290 360 418
#     4  10  22  46  71 100 135 189 233 281 352 418
#     4  11  25  42  74 103 136 179 242 298 339 418
#     4  12  26  47  69  98 147 185 231 289 364 414
#     4  12  23  46  69 101 140 185 241 282 353 427
#     4  12  28  45  73 106 142 189 234 298 351 418
#
# _framework density 22.650703
#
# number of rings (size 3 to 8) (size 9 to 14) (size 15 to 20)
#    0.000    0.571    2.857    6.429    6.000    0.000 
#    0.000    1.429    0.000    0.000    0.000    0.000 
#    0.000    0.000    0.000    0.000    0.000    0.000 
#
# Total GULP energy -78356.753169 kJ/mol
# GULP energy per Si atom -5596.910941 kJ/mol
# Density = 2.259915 g / cm^3
# Si number density = 22.650703 Si / 1000 Ang^3
#
#
#
# Elastic Constant Matrix: (Units=GPa)
#
#
# Indices 1 2 3 4 5 6 
#
# 1 103.9592 13.4385 21.6899 30.5829 -2.1548 17.2608
# 2 13.4385 59.5705 9.4733 -0.7969 4.0564 23.3994
# 3 21.6899 9.4733 157.7860 40.2347 10.5695 7.5783
# 4 30.5829 -0.7969 40.2347 41.6182 -7.6368 -2.9247
# 5 -2.1548 4.0564 10.5695 -7.6368 30.9052 5.0063
# 6 17.2608 23.3994 7.5783 -2.9247 5.0063 32.2400
#
#
#
# Elastic Compliance Matrix: (Units=1/GPa)
#
#
# Indices 1 2 3 4 5 6 
#
# 1 0.014773 -0.000062 0.002036 -0.013766 -0.001545 -0.009351
# 2 -0.000062 0.023540 -0.000516 -0.000237 -0.000236 -0.016916
# 3 0.002036 -0.000516 0.009718 -0.012155 -0.005594 -0.003234
# 4 -0.013766 -0.000237 -0.012155 0.049233 0.013321 0.012797
# 5 -0.001545 -0.000236 -0.005594 0.013321 0.037867 -0.002359
# 6 -0.009351 -0.016916 -0.003234 0.012797 -0.002359 0.050588
#
#
# Mechanical properties :
#
#
# Convention : Reuss Voigt Hill
#
# Bulk Modulus (GPa) = 19.62850 45.61324 32.62087
# Shear Modulus (GPa) = 25.02671 39.40029 32.21350
#
# Velocity S-wave (km/s) = 3.32761 4.17522 3.77528
# Velocity P-wave (km/s) = 4.84236 6.58974 5.78244
#
# Compressibility (1/GPa) = 0.05094634
#
# Stress axis : x y z
#
# Youngs Moduli (GPa) = 67.69265 42.48047 102.89927
#
# Poissons Ratio (x) = 0.00263 -0.20948
# Poissons Ratio (y) = 0.00420 0.05312
# Poissons Ratio (z) = -0.13781 0.02193
#
# Static dielectric constant tensor:
#      x y z
#    x 1.875320 -0.017390 -0.008890 
#    y -0.017390 1.861050 0.012990 
#    z -0.008890 0.012990 1.844790 
# 
# From -- ./inp_files/158541.got.cif
#   From: 2010.05.17/outbox.cif.g08.bks.cpg/sg2_80_cif.got.tgz:158541.got - 2010.06.03 11:33:40.
