data_PCOD9035075
_publ_section_title
;
Structure prediction by ZEFSAII (Michael W. Deem and Ramdas Pophale) SiO2 
 PCOD9035075
Probable space group: P -1
;
_chemical_formula_sum "Si O2"
_cell_formula_units_Z 14
_cell_length_a 8.981190
_cell_length_b 9.043169
_cell_length_c 21.958352
_cell_angle_alpha 151.470809
_cell_angle_beta 132.926810
_cell_angle_gamma 53.073953
_cell_volume 623.674790
_symmetry_space_group_name_H-M "P -1"
_symmetry_group_IT_number 2
_symmetry_cell_setting 'triclinic'
loop_
_space_group_symop_operation_xyz
x,y,z
-x,-y,-z
loop_
_atom_site_type_symbol
_atom_site_label
_atom_site_fract_x
_atom_site_fract_y
_atom_site_fract_z
Si Si1 0.468953 0.843658 0.638866
Si Si2 0.394545 0.090956 0.171497
Si Si3 0.402503 0.597564 0.199211
Si Si4 0.006589 0.958416 0.559762
Si Si5 0.272872 0.622408 0.702748
Si Si6 0.263726 0.297289 0.928450
Si Si7 0.082983 0.505146 0.179297
O O1 0.500000 0.500000 0.500000
O O2 0.617845 0.920052 0.763787
O O3 0.241275 0.896250 0.618860
O O4 0.505003 0.081218 0.680468
O O5 0.557946 0.366489 0.299866
O O6 0.189119 0.188604 0.116318
O O7 0.514433 0.798553 0.070870
O O8 0.586374 0.387599 0.201022
O O9 0.240393 0.639039 0.222269
O O10 0.295210 0.448061 0.057016
O O11 0.872479 0.668995 0.439792
O O12 0.936340 0.267761 0.686481
O O13 0.000000 0.000000 0.500000
O O14 0.163971 0.955701 0.786412
O O15 0.130437 0.494567 0.915664
#
# Coordination Sequence:
#
# PCOD9035075 Si02
#       7
#     2   2   2   2   2   2   2
#     4  12  26  42  64 102 138 172 222 279 338 389
#     4   9  23  42  65  99 130 180 219 273 329 396
#     4  11  24  43  71  97 137 178 217 280 327 401
#     4  12  23  43  67  99 134 171 225 278 334 388
#     4   9  22  40  70  94 129 180 217 272 328 396
#     4  10  22  45  70  98 134 177 229 264 332 395
#     4  11  24  43  70  97 133 177 226 272 330 397
#
# _framework density 22.447595
#
# number of rings (size 3 to 8) (size 9 to 14) (size 15 to 20)
#    0.857    0.571    2.857    1.714    4.000    2.857 
#    0.000    0.714    0.000    0.000    0.000    0.000 
#    0.000    0.000    0.000    0.000    0.000    0.000 
#
# Total GULP energy -78230.624552 kJ/mol
# GULP energy per Si atom -5587.901754 kJ/mol
# Density = 2.239650 g / cm^3
# Si number density = 22.447595 Si / 1000 Ang^3
#
#
#
# Elastic Constant Matrix: (Units=GPa)
#
#
# Indices 1 2 3 4 5 6 
#
# 1 96.6501 32.0856 27.4955 2.1153 -4.0605 -3.2669
# 2 32.0856 165.3767 11.1658 -13.4980 -6.9929 -10.1782
# 3 27.4955 11.1658 38.1639 -10.8121 -9.4272 0.0569
# 4 2.1153 -13.4980 -10.8121 29.8460 6.8995 -2.3842
# 5 -4.0605 -6.9929 -9.4272 6.8995 45.0162 -2.4769
# 6 -3.2669 -10.1782 0.0569 -2.3842 -2.4769 36.1417
#
#
#
# Elastic Compliance Matrix: (Units=1/GPa)
#
#
# Indices 1 2 3 4 5 6 
#
# 1 0.014663 -0.002582 -0.011736 -0.006316 -0.000559 0.000162
# 2 -0.002582 0.006930 0.001029 0.003711 0.000601 0.002003
# 3 -0.011736 0.001029 0.039765 0.014533 0.005228 0.000483
# 4 -0.006316 0.003711 0.014533 0.041876 -0.003203 0.002994
# 5 -0.000559 0.000601 0.005228 -0.003203 0.023928 0.001539
# 6 0.000162 0.002003 0.000483 0.002994 0.001539 0.028550
#
#
# Mechanical properties :
#
#
# Convention : Reuss Voigt Hill
#
# Bulk Modulus (GPa) = 28.75222 49.07607 38.91414
# Shear Modulus (GPa) = 25.78902 37.49703 31.64302
#
# Velocity S-wave (km/s) = 3.39315 4.09152 3.75859
# Velocity P-wave (km/s) = 5.30921 6.65061 6.01741
#
# Compressibility (1/GPa) = 0.03477993
#
# Stress axis : x y z
#
# Youngs Moduli (GPa) = 68.20057 144.30626 25.14771
#
# Poissons Ratio (x) = 0.37254 0.29514
# Poissons Ratio (y) = 0.17607 -0.02588
# Poissons Ratio (z) = 0.80042 -0.14851
#
# Static dielectric constant tensor:
#      x y z
#    x 1.827050 -0.008880 0.039370 
#    y -0.008880 1.857790 -0.013150 
#    z 0.039370 -0.013150 1.797070 
# 
# From -- ./inp_files/237015.got.cif
#   From: 2010.05.17/outbox.cif.g08.bks.cpg/sg2_119_cif.got.tgz:237015.got - 2010.06.03 11:33:40.
