data_PCOD9035382
_publ_section_title
;
Structure prediction by ZEFSAII (Michael W. Deem and Ramdas Pophale) SiO2 
 PCOD9035382
Probable space group: P -1
;
_chemical_formula_sum "Si O2"
_cell_formula_units_Z 12
_cell_length_a 7.888221
_cell_length_b 11.329897
_cell_length_c 7.284975
_cell_angle_alpha 87.127945
_cell_angle_beta 78.778762
_cell_angle_gamma 132.607664
_cell_volume 454.881867
_symmetry_space_group_name_H-M "P -1"
_symmetry_group_IT_number 2
_symmetry_cell_setting 'triclinic'
loop_
_space_group_symop_operation_xyz
x,y,z
-x,-y,-z
loop_
_atom_site_type_symbol
_atom_site_label
_atom_site_fract_x
_atom_site_fract_y
_atom_site_fract_z
Si Si1 0.524112 0.370651 0.034147
Si Si2 0.995447 0.429686 0.203709
Si Si3 0.244115 0.924784 0.641269
Si Si4 0.631759 0.410567 0.442198
Si Si5 0.306548 0.017501 0.013192
Si Si6 0.891020 0.778056 0.395250
O O1 0.720738 0.431591 0.830794
O O2 0.500000 0.500000 0.000000
O O3 0.597024 0.408315 0.229199
O O4 0.358811 0.173242 0.074263
O O5 0.901571 0.252706 0.217998
O O6 0.819049 0.393597 0.399416
O O7 0.000000 0.500000 0.000000
O O8 0.069810 0.889750 0.520119
O O9 0.500000 0.000000 0.500000
O O10 0.288570 0.025436 0.799994
O O11 0.223974 0.406380 0.533628
O O12 0.355743 0.267345 0.573669
O O13 0.059060 0.858678 0.175359
O O14 0.500000 0.000000 0.000000
#
# Coordination Sequence:
#
# PCOD9035382 Si02
#       6
#     2   2   2   2   2   2
#     4  11  24  47  79 115 159 206 265 329 393 471
#     4  10  22  45  75 104 153 209 257 313 395 468
#     4  12  26  47  78 118 151 196 273 332 395 470
#     4  10  23  47  72 109 156 214 256 318 396 474
#     4  12  24  49  81 117 158 209 259 333 401 466
#     4  11  25  47  77 113 157 201 266 328 394 467
#
# _framework density 26.380476999999999
#
# number of rings (size 3 to 8) (size 9 to 14) (size 15 to 20)
#    0.000    1.000    1.667    6.000    0.000    1.333 
#    9.000    8.333    0.000    0.000    0.000    0.000 
#    0.000    0.000    0.000    0.000    0.000    0.000 
#
# Total GULP energy -67020.609332 kJ/mol
# GULP energy per Si atom -5585.050778 kJ/mol
# Density = 2.632043 g / cm^3
# Si number density = 26.380477 Si / 1000 Ang^3
#
#
#
# Elastic Constant Matrix: (Units=GPa)
#
#
# Indices 1 2 3 4 5 6 
#
# 1 128.6105 55.0881 68.1871 -8.1799 -34.7972 3.7291
# 2 55.0881 109.3985 29.1397 1.4490 20.4392 10.3934
# 3 68.1871 29.1397 161.6721 -19.7606 -29.9688 9.6816
# 4 -8.1799 1.4490 -19.7606 57.0843 6.3441 2.5188
# 5 -34.7972 20.4392 -29.9688 6.3441 60.0587 -13.9449
# 6 3.7291 10.3934 9.6816 2.5188 -13.9449 40.0182
#
#
#
# Elastic Compliance Matrix: (Units=1/GPa)
#
#
# Indices 1 2 3 4 5 6 
#
# 1 0.018344 -0.011775 -0.003353 -0.000186 0.014673 0.007285
# 2 -0.011775 0.019164 -0.000926 -0.000322 -0.015903 -0.009177
# 3 -0.003353 -0.000926 0.008501 0.002284 0.002165 -0.000893
# 4 -0.000186 -0.000322 0.002284 0.018526 -0.001295 -0.002069
# 5 0.014673 -0.015903 0.002165 -0.001295 0.035165 0.014574
# 6 0.007285 -0.009177 -0.000893 -0.002069 0.014574 0.032118
#
#
# Mechanical properties :
#
#
# Convention : Reuss Voigt Hill
#
# Bulk Modulus (GPa) = 71.93891 78.27896 75.10894
# Shear Modulus (GPa) = 29.66313 47.91666 38.78990
#
# Velocity S-wave (km/s) = 3.35690 4.26651 3.83874
# Velocity P-wave (km/s) = 6.50799 7.34903 6.94126
#
# Compressibility (1/GPa) = 0.01390068
#
# Stress axis : x y z
#
# Youngs Moduli (GPa) = 54.51371 52.18070 117.63941
#
# Poissons Ratio (x) = 0.61443 0.39450
# Poissons Ratio (y) = 0.64190 0.10888
# Poissons Ratio (z) = 0.18281 0.04829
#
# Static dielectric constant tensor:
#      x y z
#    x 2.447140 -0.006400 -0.074650 
#    y -0.006400 2.088410 0.053450 
#    z -0.074650 0.053450 2.007930 
# 
# From -- ./inp_files/177613.got.cif
#   From: 2010.05.17/outbox.cif.g08.bks.cpg/sg2_89_cif.got.tgz:177613.got - 2010.06.03 11:33:40.
