data_PCOD9035620
_publ_section_title
;
Structure prediction by ZEFSAII (Michael W. Deem and Ramdas Pophale) SiO2 
 PCOD9035620
Probable space group: P -1
;
_chemical_formula_sum "Si O2"
_cell_formula_units_Z 15
_cell_length_a 15.545649
_cell_length_b 9.322344
_cell_length_c 15.061586
_cell_angle_alpha 80.601494
_cell_angle_beta 27.631837
_cell_angle_gamma 61.915051
_cell_volume 700.589676
_symmetry_space_group_name_H-M "P -1"
_symmetry_group_IT_number 2
_symmetry_cell_setting 'triclinic'
loop_
_space_group_symop_operation_xyz
x,y,z
-x,-y,-z
loop_
_atom_site_type_symbol
_atom_site_label
_atom_site_fract_x
_atom_site_fract_y
_atom_site_fract_z
Si Si1 0.905619 0.373463 0.291506
Si Si2 0.392460 0.873737 0.185952
Si Si3 0.892993 0.254504 0.508984
Si Si4 0.290655 0.406878 0.235932
Si Si5 0.534333 0.042128 0.175564
Si Si6 0.752475 0.061628 0.268363
Si Si7 0.500000 0.500000 0.500000
Si Si8 0.742821 0.777916 0.407359
O O1 0.863205 0.359759 0.435156
O O2 0.663503 0.458943 0.443720
O O3 0.930780 0.534303 0.244638
O O4 0.167617 0.142527 0.043994
O O5 0.217193 0.845247 0.392608
O O6 0.495280 0.925476 0.159881
O O7 0.610099 0.675649 0.945631
O O8 0.196563 0.072797 0.280188
O O9 0.741738 0.414563 0.713093
O O10 0.000000 0.500000 0.500000
O O11 0.484441 0.211812 0.144712
O O12 0.324091 0.161318 0.434844
O O13 0.611398 0.267794 0.431732
O O14 0.536591 0.114487 0.392669
O O15 0.840174 0.872869 0.264806
O O16 0.000000 0.000000 0.000000
#
# Coordination Sequence:
#
# PCOD9035620 Si02
#       8
#     2   2   2   2   2   2   1   2
#     4  11  23  44  66  97 134 177 223 281 338 403
#     4  11  25  40  64  99 134 176 224 282 331 403
#     4  11  23  43  64  95 138 172 227 277 338 400
#     4  12  22  41  65  92 133 180 221 274 335 399
#     4  12  23  40  66  97 130 176 223 271 338 402
#     4  10  22  46  69  94 130 172 219 280 341 398
#     4  10  24  42  72  98 130 170 220 280 338 394
#     4  10  24  42  65  98 131 170 225 275 335 408
#
# _framework density 21.410533999999998
#
# number of rings (size 3 to 8) (size 9 to 14) (size 15 to 20)
#    0.000    1.067    4.000    2.400    1.867    1.067 
#    2.400    4.000    0.000    0.000    0.000    0.000 
#    0.000    0.000    0.000    0.000    0.000    0.000 
#
# Total GULP energy -83585.569835 kJ/mol
# GULP energy per Si atom -5572.371322 kJ/mol
# Density = 2.136180 g / cm^3
# Si number density = 21.410534 Si / 1000 Ang^3
#
#
#
# Elastic Constant Matrix: (Units=GPa)
#
#
# Indices 1 2 3 4 5 6 
#
# 1 74.1980 25.0890 4.6087 -0.1291 4.9341 14.0620
# 2 25.0890 102.4942 5.2563 3.9262 1.9442 8.3213
# 3 4.6087 5.2563 48.3917 5.1517 4.6557 -0.2916
# 4 -0.1291 3.9262 5.1517 34.4810 3.7045 -1.3333
# 5 4.9341 1.9442 4.6557 3.7045 24.3396 10.1400
# 6 14.0620 8.3213 -0.2916 -1.3333 10.1400 34.5189
#
#
#
# Elastic Compliance Matrix: (Units=1/GPa)
#
#
# Indices 1 2 3 4 5 6 
#
# 1 0.015754 -0.003362 -0.001169 0.000459 -0.000500 -0.005453
# 2 -0.003362 0.010777 -0.000802 -0.001265 0.000799 -0.001519
# 3 -0.001169 -0.000802 0.021562 -0.002599 -0.004262 0.002003
# 4 0.000459 -0.001265 -0.002599 0.030210 -0.005263 0.002809
# 5 -0.000500 0.000799 -0.004262 -0.005263 0.048807 -0.014566
# 6 -0.005453 -0.001519 0.002003 0.002809 -0.014566 0.035961
#
#
# Mechanical properties :
#
#
# Convention : Reuss Voigt Hill
#
# Bulk Modulus (GPa) = 26.71777 32.77688 29.74732
# Shear Modulus (GPa) = 26.85100 31.34323 29.09711
#
# Velocity S-wave (km/s) = 3.54517 3.83027 3.69047
# Velocity P-wave (km/s) = 5.40958 5.90790 5.66422
#
# Compressibility (1/GPa) = 0.03742827
#
# Stress axis : x y z
#
# Youngs Moduli (GPa) = 63.47488 92.78763 46.37794
#
# Poissons Ratio (x) = 0.31194 0.05421
# Poissons Ratio (y) = 0.21339 0.03719
# Poissons Ratio (z) = 0.07419 0.07440
#
# Static dielectric constant tensor:
#      x y z
#    x 1.755180 -0.013940 -0.015610 
#    y -0.013940 1.777590 0.023160 
#    z -0.015610 0.023160 1.818650 
# 
# From -- ./inp_files/348325.got.cif
#   From: 2010.05.17/outbox.cif.g08.bks.cpg/sg2_175_cif.got.tgz:348325.got - 2010.06.03 11:33:40.
