data_PCOD9035174
_publ_section_title
;
Structure prediction by ZEFSAII (Michael W. Deem and Ramdas Pophale) SiO2 
 PCOD9035174
Probable space group: P -1
;
_chemical_formula_sum "Si O2"
_cell_formula_units_Z 16
_cell_length_a 11.147969
_cell_length_b 15.144576
_cell_length_c 9.740917
_cell_angle_alpha 65.358213
_cell_angle_beta 101.523957
_cell_angle_gamma 45.254710
_cell_volume 684.858130
_symmetry_space_group_name_H-M "P -1"
_symmetry_group_IT_number 2
_symmetry_cell_setting 'triclinic'
loop_
_space_group_symop_operation_xyz
x,y,z
-x,-y,-z
loop_
_atom_site_type_symbol
_atom_site_label
_atom_site_fract_x
_atom_site_fract_y
_atom_site_fract_z
Si Si1 0.344239 0.691240 0.470569
Si Si2 0.357683 0.269616 0.370747
Si Si3 0.536299 0.096191 0.801580
Si Si4 0.904444 0.954548 0.663293
Si Si5 0.514465 0.883745 0.908665
Si Si6 0.123773 0.521585 0.906750
Si Si7 0.066740 0.752845 0.567294
Si Si8 0.878895 0.239539 0.881248
O O1 0.264582 0.649580 0.562659
O O2 0.651526 0.477422 0.654277
O O3 0.204850 0.784386 0.230692
O O4 0.239844 0.850091 0.437860
O O5 0.174614 0.306064 0.272513
O O6 0.366010 0.272171 0.535485
O O7 0.664239 0.045207 0.546958
O O8 0.233035 0.443041 0.137854
O O9 0.548423 0.975036 0.837339
O O10 0.829613 0.931312 0.974779
O O11 0.432202 0.174062 0.881297
O O12 0.026144 0.865084 0.599665
O O13 0.114762 0.787254 0.938128
O O14 0.705527 0.682730 0.994222
O O15 0.214037 0.069472 0.682523
O O16 0.151192 0.599962 0.774650
#
# Coordination Sequence:
#
# PCOD9035174 Si02
#       8
#     2   2   2   2   2   2   2   2
#     4  11  25  47  69  98 133 182 230 276 335 391
#     4  10  23  42  67 102 131 178 221 273 334 406
#     4  10  22  45  71  98 138 178 224 276 344 396
#     4  11  25  43  71  97 134 179 230 274 337 395
#     4  11  23  43  69 102 140 174 218 283 342 405
#     4  11  25  42  67 102 140 177 219 277 343 402
#     4  12  25  46  67 103 140 176 222 282 338 406
#     4  10  24  45  70 100 132 175 228 288 323 405
#
# _framework density 23.362504000000001
#
# number of rings (size 3 to 8) (size 9 to 14) (size 15 to 20)
#    0.000    1.250    3.750    0.750    3.500    6.000 
#    9.000    0.000    0.000    0.000    0.000    0.000 
#    0.000    0.000    0.000    0.000    0.000    0.000 
#
# Total GULP energy -89469.616700 kJ/mol
# GULP energy per Si atom -5591.851044 kJ/mol
# Density = 2.330933 g / cm^3
# Si number density = 23.362504 Si / 1000 Ang^3
#
#
#
# Elastic Constant Matrix: (Units=GPa)
#
#
# Indices 1 2 3 4 5 6 
#
# 1 61.0718 -3.2851 20.1567 -10.3361 -8.0065 -3.1752
# 2 -3.2851 120.2385 59.1195 24.2407 10.4035 31.3389
# 3 20.1567 59.1195 193.6195 30.4562 9.8579 13.1443
# 4 -10.3361 24.2407 30.4562 33.5743 2.2782 4.7180
# 5 -8.0065 10.4035 9.8579 2.2782 45.6241 6.7979
# 6 -3.1752 31.3389 13.1443 4.7180 6.7979 34.2464
#
#
#
# Elastic Compliance Matrix: (Units=1/GPa)
#
#
# Indices 1 2 3 4 5 6 
#
# 1 0.019679 -0.000153 -0.003713 0.009092 0.003625 0.001417
# 2 -0.000153 0.013519 -0.002403 -0.006106 -0.000724 -0.010478
# 3 -0.003713 -0.002403 0.007280 -0.005939 -0.001403 0.000158
# 4 0.009092 -0.006106 -0.005939 0.041895 0.001794 0.002582
# 5 0.003625 -0.000724 -0.001403 0.001794 0.023434 -0.003361
# 6 0.001417 -0.010478 0.000158 0.002582 -0.003361 0.039171
#
#
# Mechanical properties :
#
#
# Convention : Reuss Voigt Hill
#
# Bulk Modulus (GPa) = 35.79077 58.54578 47.16827
# Shear Modulus (GPa) = 29.97079 42.61822 36.29451
#
# Velocity S-wave (km/s) = 3.58559 4.27572 3.94577
# Velocity P-wave (km/s) = 5.70043 7.03490 6.40253
#
# Compressibility (1/GPa) = 0.02794017
#
# Stress axis : x y z
#
# Youngs Moduli (GPa) = 50.81537 73.97036 137.36196
#
# Poissons Ratio (x) = 0.01130 0.51002
# Poissons Ratio (y) = 0.00776 0.33012
# Poissons Ratio (z) = 0.18867 0.17777
#
# Static dielectric constant tensor:
#      x y z
#    x 1.904540 0.037970 -0.024980 
#    y 0.037970 1.840530 0.014670 
#    z -0.024980 0.014670 1.871500 
# 
# From -- ./inp_files/272615.got.cif
#   From: 2010.05.17/outbox.cif.g08.bks.cpg/sg2_137_cif.got.tgz:272615.got - 2010.06.03 11:33:40.
