data_PCOD9035250
_publ_section_title
;
Structure prediction by ZEFSAII (Michael W. Deem and Ramdas Pophale) SiO2 
 PCOD9035250
Probable space group: P -1
;
_chemical_formula_sum "Si O2"
_cell_formula_units_Z 15
_cell_length_a 7.171275
_cell_length_b 12.742599
_cell_length_c 8.491009
_cell_angle_alpha 69.418081
_cell_angle_beta 122.935898
_cell_angle_gamma 120.008841
_cell_volume 560.518600
_symmetry_space_group_name_H-M "P -1"
_symmetry_group_IT_number 2
_symmetry_cell_setting 'triclinic'
loop_
_space_group_symop_operation_xyz
x,y,z
-x,-y,-z
loop_
_atom_site_type_symbol
_atom_site_label
_atom_site_fract_x
_atom_site_fract_y
_atom_site_fract_z
Si Si1 0.000000 0.000000 0.500000
Si Si2 0.178931 0.627220 0.443253
Si Si3 0.388850 0.254955 0.590121
Si Si4 0.451479 0.633342 0.066301
Si Si5 0.426046 0.954549 0.167535
Si Si6 0.061338 0.111455 0.146972
Si Si7 0.371255 0.811222 0.706640
Si Si8 0.853539 0.628447 0.006129
O O1 0.866568 0.846685 0.517575
O O2 0.023102 0.992383 0.706021
O O3 0.455056 0.645426 0.519615
O O4 0.213225 0.733271 0.531866
O O5 0.000000 0.500000 0.500000
O O6 0.057311 0.628563 0.219980
O O7 0.408243 0.315411 0.735946
O O8 0.535692 0.166277 0.715108
O O9 0.639403 0.628350 0.023809
O O10 0.340578 0.723977 0.889488
O O11 0.252606 0.497849 0.068740
O O12 0.625130 0.056614 0.315087
O O13 0.145517 0.932835 0.061943
O O14 0.500000 0.000000 0.000000
O O15 0.343712 0.145035 0.228546
O O16 0.055871 0.244283 0.109049
#
# Coordination Sequence:
#
# PCOD9035250 Si02
#       8
#     1   2   2   2   2   2   2   2
#     4  12  24  44  70 102 146 174 230 286 348 400
#     4  12  25  47  70 104 142 178 232 291 345 407
#     4  12  26  45  69 104 143 180 230 293 346 404
#     4  10  22  45  72  98 136 189 232 282 344 416
#     4  12  23  42  68 103 137 179 233 283 345 415
#     4  11  23  44  68  98 139 186 224 285 341 417
#     4  11  23  42  72  99 140 185 229 284 347 410
#     4  10  23  44  72  98 136 184 238 275 351 416
#
# _framework density 26.760933999999999
#
# number of rings (size 3 to 8) (size 9 to 14) (size 15 to 20)
#    0.000    0.800    6.667    0.400    0.000    3.200 
#    2.400    1.333    0.000    0.000    0.000    0.000 
#    0.000    0.000    0.000    0.000    0.000    0.000 
#
# Total GULP energy -83756.319497 kJ/mol
# GULP energy per Si atom -5583.754633 kJ/mol
# Density = 2.670002 g / cm^3
# Si number density = 26.760934 Si / 1000 Ang^3
#
#
#
# Elastic Constant Matrix: (Units=GPa)
#
#
# Indices 1 2 3 4 5 6 
#
# 1 83.8092 34.7788 5.9343 2.2136 2.5427 21.5773
# 2 34.7788 162.9729 55.7230 25.2735 -3.9990 37.1488
# 3 5.9343 55.7230 115.7698 23.7857 3.0159 20.1888
# 4 2.2136 25.2735 23.7857 61.2591 8.9380 -6.8975
# 5 2.5427 -3.9990 3.0159 8.9380 36.8736 7.8576
# 6 21.5773 37.1488 20.1888 -6.8975 7.8576 35.4651
#
#
#
# Elastic Compliance Matrix: (Units=1/GPa)
#
#
# Indices 1 2 3 4 5 6 
#
# 1 0.014758 -0.001363 0.001871 -0.001898 0.001109 -0.009230
# 2 -0.001363 0.010774 -0.002079 -0.005655 0.005262 -0.011538
# 3 0.001871 -0.002079 0.011656 -0.004686 0.001275 -0.006790
# 4 -0.001898 -0.005655 -0.004686 0.023763 -0.009363 0.016443
# 5 0.001109 0.005262 0.001275 -0.009363 0.033208 -0.016091
# 6 -0.009230 -0.011538 -0.006790 0.016443 -0.016091 0.056527
#
#
# Mechanical properties :
#
#
# Convention : Reuss Voigt Hill
#
# Bulk Modulus (GPa) = 29.37307 61.71380 45.54343
# Shear Modulus (GPa) = 30.27036 44.46062 37.36549
#
# Velocity S-wave (km/s) = 3.36689 4.08045 3.74072
# Velocity P-wave (km/s) = 5.11024 6.73137 5.97603
#
# Compressibility (1/GPa) = 0.03404479
#
# Stress axis : x y z
#
# Youngs Moduli (GPa) = 67.75927 92.81581 85.79092
#
# Poissons Ratio (x) = 0.12655 -0.16047
# Poissons Ratio (y) = 0.09238 0.17835
# Poissons Ratio (z) = -0.12674 0.19296
#
# Static dielectric constant tensor:
#      x y z
#    x 2.302820 -0.011720 -0.041520 
#    y -0.011720 2.094630 0.046010 
#    z -0.041520 0.046010 1.943910 
# 
# From -- ./inp_files/186958.got.cif
#   From: 2010.05.17/outbox.cif.g08.bks.cpg/sg2_94_cif.got.tgz:186958.got - 2010.06.03 11:33:40.
