data_PCOD9035283
_publ_section_title
;
Structure prediction by ZEFSAII (Michael W. Deem and Ramdas Pophale) SiO2 
 PCOD9035283
Probable space group: P -1
;
_chemical_formula_sum "Si O2"
_cell_formula_units_Z 16
_cell_length_a 13.822189
_cell_length_b 7.124608
_cell_length_c 12.075199
_cell_angle_alpha 113.136920
_cell_angle_beta 88.176448
_cell_angle_gamma 142.250936
_cell_volume 581.536971
_symmetry_space_group_name_H-M "P -1"
_symmetry_group_IT_number 2
_symmetry_cell_setting 'triclinic'
loop_
_space_group_symop_operation_xyz
x,y,z
-x,-y,-z
loop_
_atom_site_type_symbol
_atom_site_label
_atom_site_fract_x
_atom_site_fract_y
_atom_site_fract_z
Si Si1 0.377953 0.463415 0.735908
Si Si2 0.951028 0.968885 0.120096
Si Si3 0.008558 0.274556 0.473974
Si Si4 0.477462 0.714491 0.250324
Si Si5 0.707550 0.267244 0.598568
Si Si6 0.877536 0.112720 0.854567
Si Si7 0.730573 0.849796 0.553984
Si Si8 0.533799 0.325304 0.991165
O O1 0.395954 0.252361 0.716836
O O2 0.506877 0.789998 0.903051
O O3 0.163516 0.131182 0.677112
O O4 0.393171 0.505864 0.611184
O O5 0.748637 0.680937 0.065611
O O6 0.982821 0.820342 0.153211
O O7 0.110525 0.401356 0.254594
O O8 0.000000 0.000000 0.000000
O O9 0.933444 0.142851 0.571151
O O10 0.000000 0.500000 0.500000
O O11 0.198466 0.529564 0.479416
O O12 0.425901 0.795620 0.362896
O O13 0.281216 0.250397 0.142899
O O14 0.535201 0.908001 0.173196
O O15 0.658375 0.944232 0.540219
O O16 0.763745 0.931561 0.702532
O O17 0.000000 0.500000 0.000000
O O18 0.500000 0.500000 0.000000
#
# Coordination Sequence:
#
# PCOD9035283 Si02
#       8
#     2   2   2   2   2   2   2   2
#     4   9  19  35  55  82 116 149 182 227 287 336
#     4  11  18  33  56  84 104 142 189 236 267 330
#     4   8  16  31  52  81 109 147 178 220 273 327
#     4  10  22  34  56  89 106 148 195 234 277 326
#     4  10  17  32  58  85 111 135 196 232 269 328
#     4  11  23  35  56  86 114 146 188 238 285 331
#     4   9  20  35  55  84 114 152 174 229 291 333
#     4  10  19  34  57  84 108 145 186 237 274 325
#
# _framework density 27.513300000000001
#
# number of rings (size 3 to 8) (size 9 to 14) (size 15 to 20)
#    0.750    1.500    3.750    0.750    0.000    1.000 
#    0.000    5.625    0.000    3.000    0.000    0.000 
#    0.000    0.000    0.000    0.000    0.000    0.000 
#
# Total GULP energy -89078.076429 kJ/mol
# GULP energy per Si atom -5567.379777 kJ/mol
# Density = 2.745068 g / cm^3
# Si number density = 27.513300 Si / 1000 Ang^3
#
#
#
# Elastic Constant Matrix: (Units=GPa)
#
#
# Indices 1 2 3 4 5 6 
#
# 1 153.9736 28.5648 17.0687 -7.2602 1.7167 34.0173
# 2 28.5648 60.2057 21.9850 -10.8508 -1.7573 23.1978
# 3 17.0687 21.9850 201.2874 -21.1775 -7.2262 -24.9765
# 4 -7.2602 -10.8508 -21.1775 43.2045 -8.5123 -1.8238
# 5 1.7167 -1.7573 -7.2262 -8.5123 46.2694 -4.3792
# 6 34.0173 23.1978 -24.9765 -1.8238 -4.3792 53.1479
#
#
#
# Elastic Compliance Matrix: (Units=1/GPa)
#
#
# Indices 1 2 3 4 5 6 
#
# 1 0.008048 -0.001409 -0.001212 -0.000019 -0.001036 -0.005192
# 2 -0.001409 0.023280 -0.003384 0.003506 0.000038 -0.010726
# 3 -0.001212 -0.003384 0.006490 0.002749 0.001962 0.005558
# 4 -0.000019 0.003506 0.002749 0.026512 0.005549 0.001141
# 5 -0.001036 0.000038 0.001962 0.005549 0.023328 0.003681
# 6 -0.005192 -0.010726 0.005558 0.001141 0.003681 0.029775
#
#
# Mechanical properties :
#
#
# Convention : Reuss Voigt Hill
#
# Bulk Modulus (GPa) = 38.74824 61.18933 49.96878
# Shear Modulus (GPa) = 36.22029 51.71423 43.96726
#
# Velocity S-wave (km/s) = 3.63225 4.34015 4.00188
# Velocity P-wave (km/s) = 5.63072 6.88506 6.28924
#
# Compressibility (1/GPa) = 0.02580762
#
# Stress axis : x y z
#
# Youngs Moduli (GPa) = 124.25380 42.95586 154.08993
#
# Poissons Ratio (x) = 0.06053 0.18675
# Poissons Ratio (y) = 0.17509 0.52142
# Poissons Ratio (z) = 0.15059 0.14536
#
# Static dielectric constant tensor:
#      x y z
#    x 2.186380 -0.052230 -0.061190 
#    y -0.052230 2.425130 0.048710 
#    z -0.061190 0.048710 2.397360 
# 
# From -- ./inp_files/444888.got.cif
#   From: 2010.05.17/outbox.cif.g08.bks.cpg/sg2_223_cif.got.tgz:444888.got - 2010.06.03 11:33:40.
