data_PCOD9035985
_publ_section_title
;
Structure prediction by ZEFSAII (Michael W. Deem and Ramdas Pophale) SiO2 
 PCOD9035985
Probable space group: P -1
;
_chemical_formula_sum "Si O2"
_cell_formula_units_Z 16
_cell_length_a 14.788760
_cell_length_b 20.612724
_cell_length_c 7.420112
_cell_angle_alpha 117.028428
_cell_angle_beta 74.304456
_cell_angle_gamma 159.370052
_cell_volume 617.587142
_symmetry_space_group_name_H-M "P -1"
_symmetry_group_IT_number 2
_symmetry_cell_setting 'triclinic'
loop_
_space_group_symop_operation_xyz
x,y,z
-x,-y,-z
loop_
_atom_site_type_symbol
_atom_site_label
_atom_site_fract_x
_atom_site_fract_y
_atom_site_fract_z
Si Si1 0.461677 0.445835 0.705527
Si Si2 0.253447 0.940373 0.605707
Si Si3 0.170780 0.009169 0.474538
Si Si4 0.652795 0.731103 0.821721
Si Si5 0.790529 0.507893 0.794970
Si Si6 0.218145 0.519796 0.647632
Si Si7 0.900401 0.426871 0.757422
Si Si8 0.887542 0.127177 0.993979
O O1 0.499945 0.562193 0.828537
O O2 0.407756 0.361892 0.442706
O O3 0.782639 0.658854 0.870496
O O4 0.153119 0.198523 0.654860
O O5 0.123185 0.914811 0.539930
O O6 0.052272 0.721854 0.418794
O O7 0.266921 0.969388 0.851481
O O8 0.561818 0.153821 0.609597
O O9 0.442989 0.257153 0.714463
O O10 0.266832 0.041982 0.275037
O O11 0.493846 0.692038 0.829567
O O12 0.000000 0.000000 0.000000
O O13 0.775115 0.507117 0.588504
O O14 0.896672 0.505450 0.784058
O O15 0.040611 0.749558 0.013311
O O16 0.121903 0.531970 0.686156
O O17 0.000000 0.500000 0.000000
#
# Coordination Sequence:
#
# PCOD9035985 Si02
#       8
#     2   2   2   2   2   2   2   2
#     4  11  22  43  64 106 141 184 243 284 343 433
#     4  10  22  47  67 100 138 182 232 293 343 428
#     4  11  24  41  71 101 143 185 234 289 351 415
#     4  11  24  41  75 105 142 192 232 289 357 415
#     4  10  25  46  65 104 140 180 238 295 339 429
#     4  11  22  48  68  97 143 183 230 293 353 407
#     4  11  26  41  73 103 134 182 238 290 358 423
#     4  11  24  44  72  99 148 186 232 291 358 408
#
# _framework density 25.907273
#
# number of rings (size 3 to 8) (size 9 to 14) (size 15 to 20)
#    0.000    1.250    3.750    1.875    5.250    3.500 
#    0.000    1.250    0.000    0.000    0.000    0.000 
#    0.000    0.000    0.000    0.000    0.000    0.000 
#
# Total GULP energy -89404.217915 kJ/mol
# GULP energy per Si atom -5587.763620 kJ/mol
# Density = 2.584831 g / cm^3
# Si number density = 25.907273 Si / 1000 Ang^3
#
#
#
# Elastic Constant Matrix: (Units=GPa)
#
#
# Indices 1 2 3 4 5 6 
#
# 1 141.4122 35.8389 11.9937 22.5057 4.4992 5.3708
# 2 35.8389 68.8278 5.9851 9.8801 -2.6170 9.8643
# 3 11.9937 5.9851 94.5095 5.7732 4.0472 -1.0635
# 4 22.5057 9.8801 5.7732 43.7315 -3.0474 3.3237
# 5 4.4992 -2.6170 4.0472 -3.0474 32.1253 1.6096
# 6 5.3708 9.8643 -1.0635 3.3237 1.6096 39.1038
#
#
#
# Elastic Compliance Matrix: (Units=1/GPa)
#
#
# Indices 1 2 3 4 5 6 
#
# 1 0.008794 -0.004103 -0.000550 -0.003670 -0.001855 0.000201
# 2 -0.004103 0.017546 -0.000645 -0.001324 0.002153 -0.003856
# 3 -0.000550 -0.000645 0.010834 -0.001157 -0.001485 0.000692
# 4 -0.003670 -0.001324 -0.001157 0.025533 0.003049 -0.001489
# 5 -0.001855 0.002153 -0.001485 0.003049 0.032135 -0.001911
# 6 0.000201 -0.003856 0.000692 -0.001489 -0.001911 0.026742
#
#
# Mechanical properties :
#
#
# Convention : Reuss Voigt Hill
#
# Bulk Modulus (GPa) = 37.62769 45.82055 41.72412
# Shear Modulus (GPa) = 35.45072 39.72090 37.58581
#
# Velocity S-wave (km/s) = 3.70316 3.91985 3.81305
# Velocity P-wave (km/s) = 5.73062 6.18156 5.96036
#
# Compressibility (1/GPa) = 0.02657617
#
# Stress axis : x y z
#
# Youngs Moduli (GPa) = 113.71814 56.99174 92.30456
#
# Poissons Ratio (x) = 0.23386 0.05079
# Poissons Ratio (y) = 0.46664 0.05955
# Poissons Ratio (z) = 0.06257 0.03677
#
# Static dielectric constant tensor:
#      x y z
#    x 2.290780 0.078400 -0.152020 
#    y 0.078400 2.192750 -0.026890 
#    z -0.152020 -0.026890 2.159140 
# 
# From -- ./inp_files/319429.got.cif
#   From: 2010.05.17/outbox.cif.g08.bks.cpg/sg2_160_cif.got.tgz:319429.got - 2010.06.03 11:33:40.
