data_PCOD9036101
_publ_section_title
;
Structure prediction by ZEFSAII (Michael W. Deem and Ramdas Pophale) SiO2 
 PCOD9036101
Probable space group: P -1
;
_chemical_formula_sum "Si O2"
_cell_formula_units_Z 16
_cell_length_a 7.143191
_cell_length_b 13.127349
_cell_length_c 9.555046
_cell_angle_alpha 105.552419
_cell_angle_beta 45.347301
_cell_angle_gamma 89.677372
_cell_volume 588.916396
_symmetry_space_group_name_H-M "P -1"
_symmetry_group_IT_number 2
_symmetry_cell_setting 'triclinic'
loop_
_space_group_symop_operation_xyz
x,y,z
-x,-y,-z
loop_
_atom_site_type_symbol
_atom_site_label
_atom_site_fract_x
_atom_site_fract_y
_atom_site_fract_z
Si Si1 0.998817 0.764529 0.193650
Si Si2 0.477630 0.579458 0.171932
Si Si3 0.812200 0.365183 0.380248
Si Si4 0.770967 0.875487 0.893575
Si Si5 0.420706 0.889658 0.523308
Si Si6 0.180211 0.439256 0.745107
Si Si7 0.647834 0.119802 0.117116
Si Si8 0.715316 0.167793 0.699076
O O1 0.700462 0.800498 0.296854
O O2 0.000575 0.645506 0.204934
O O3 0.032417 0.842088 0.333143
O O4 0.216078 0.787953 0.979965
O O5 0.229480 0.592649 0.420325
O O6 0.431175 0.701810 0.182496
O O7 0.500000 0.500000 0.000000
O O8 0.737121 0.544380 0.130261
O O9 0.497124 0.374783 0.503583
O O10 0.900220 0.452028 0.268272
O O11 0.014430 0.242071 0.224051
O O12 0.636198 0.864909 0.810069
O O13 0.207934 0.874609 0.513075
O O14 0.501851 0.887214 0.140016
O O15 0.375646 0.874280 0.702944
O O16 0.500000 0.000000 0.500000
O O17 0.825076 0.994306 0.938008
#
# Coordination Sequence:
#
# PCOD9036101 Si02
#       8
#     2   2   2   2   2   2   2   2
#     4  11  26  50  77 114 165 210 266 338 399 476
#     4  10  22  47  73 112 157 199 269 330 395 481
#     4   9  21  46  86 108 161 216 271 325 405 487
#     4  10  22  50  77 117 159 215 273 328 396 486
#     4  12  25  50  77 116 161 213 272 330 411 467
#     4   9  21  49  77 118 156 211 271 328 408 478
#     4  10  25  48  79 119 161 214 274 326 402 484
#     4  11  25  49  74 115 158 210 269 333 400 483
#
# _framework density 27.168543
#
# number of rings (size 3 to 8) (size 9 to 14) (size 15 to 20)
#    0.750    1.000    2.500    0.000    1.750    4.000 
#   11.250    5.625    0.000    0.000    0.000    1.750 
#    0.000    0.000    0.000    0.000    0.000    0.000 
#
# Total GULP energy -89606.719592 kJ/mol
# GULP energy per Si atom -5600.419974 kJ/mol
# Density = 2.710671 g / cm^3
# Si number density = 27.168543 Si / 1000 Ang^3
#
#
#
# Elastic Constant Matrix: (Units=GPa)
#
#
# Indices 1 2 3 4 5 6 
#
# 1 172.0677 41.9928 55.6942 -8.0338 13.8448 3.6160
# 2 41.9928 198.1571 52.7975 -23.9818 -5.8263 7.5226
# 3 55.6942 52.7975 92.4799 -21.4258 17.9160 7.0896
# 4 -8.0338 -23.9818 -21.4258 64.7975 -9.7480 -2.3467
# 5 13.8448 -5.8263 17.9160 -9.7480 47.4781 4.5804
# 6 3.6160 7.5226 7.0896 -2.3467 4.5804 45.5160
#
#
#
# Elastic Compliance Matrix: (Units=1/GPa)
#
#
# Indices 1 2 3 4 5 6 
#
# 1 0.007309 -0.000582 -0.004105 -0.000785 -0.000834 0.000198
# 2 -0.000582 0.006357 -0.003377 0.001531 0.002602 -0.000661
# 3 -0.004105 -0.003377 0.016955 0.003074 -0.004878 -0.001107
# 4 -0.000785 0.001531 0.003074 0.017341 0.002823 -0.000060
# 5 -0.000834 0.002602 -0.004878 0.002823 0.024228 -0.001897
# 6 0.000198 -0.000661 -0.001107 -0.000060 -0.001897 0.022424
#
#
# Mechanical properties :
#
#
# Convention : Reuss Voigt Hill
#
# Bulk Modulus (GPa) = 69.00115 84.85265 76.92690
# Shear Modulus (GPa) = 43.26309 52.37300 47.81804
#
# Velocity S-wave (km/s) = 3.99481 4.39533 4.19985
# Velocity P-wave (km/s) = 6.83598 7.55370 7.20378
#
# Compressibility (1/GPa) = 0.01449251
#
# Stress axis : x y z
#
# Youngs Moduli (GPa) = 136.82534 157.31593 58.97969
#
# Poissons Ratio (x) = 0.09159 0.24208
# Poissons Ratio (y) = 0.07966 0.19918
# Poissons Ratio (z) = 0.56160 0.53127
#
# Static dielectric constant tensor:
#      x y z
#    x 2.094470 -0.030060 -0.061840 
#    y -0.030060 2.154630 0.043340 
#    z -0.061840 0.043340 2.292650 
# 
# From -- ./inp_files/120761.got.cif
#   From: 2010.05.17/outbox.cif.g08.bks.cpg/sg2_61_cif.got.tgz:120761.got - 2010.06.03 11:33:40.
