data_PCOD9036476
_publ_section_title
;
Structure prediction by ZEFSAII (Michael W. Deem and Ramdas Pophale) SiO2 
 PCOD9036476
Probable space group: P -1
;
_chemical_formula_sum "Si O2"
_cell_formula_units_Z 14
_cell_length_a 8.142873
_cell_length_b 10.200802
_cell_length_c 15.759249
_cell_angle_alpha 44.086590
_cell_angle_beta 97.501405
_cell_angle_gamma 62.926901
_cell_volume 546.851631
_symmetry_space_group_name_H-M "P -1"
_symmetry_group_IT_number 2
_symmetry_cell_setting 'triclinic'
loop_
_space_group_symop_operation_xyz
x,y,z
-x,-y,-z
loop_
_atom_site_type_symbol
_atom_site_label
_atom_site_fract_x
_atom_site_fract_y
_atom_site_fract_z
Si Si1 0.854452 0.149320 0.512998
Si Si2 0.473558 0.235098 0.357825
Si Si3 0.542105 0.902516 0.840937
Si Si4 0.281333 0.055444 0.918030
Si Si5 0.803903 0.305759 0.095260
Si Si6 0.096679 0.100350 0.051603
Si Si7 0.093385 0.302217 0.488598
O O1 0.574427 0.291166 0.409523
O O2 0.846195 0.373351 0.439931
O O3 0.000000 0.000000 0.500000
O O4 0.017811 0.895661 0.715830
O O5 0.174958 0.546632 0.160881
O O6 0.500000 0.000000 0.500000
O O7 0.684643 0.031844 0.388514
O O8 0.435901 0.871794 0.926997
O O9 0.269642 0.196953 0.631878
O O10 0.751928 0.576697 0.958593
O O11 0.696302 0.945724 0.865455
O O12 0.224338 0.950433 0.035088
O O13 0.019331 0.417088 0.701684
O O14 0.500000 0.000000 0.000000
O O15 0.500000 0.500000 0.000000
O O16 0.973975 0.081019 0.127985
#
# Coordination Sequence:
#
# PCOD9036476 Si02
#       7
#     2   2   2   2   2   2   2
#     4  10  23  37  61  97 130 165 204 271 326 377
#     4  11  20  36  64  98 128 163 215 268 314 377
#     4  11  23  40  68  95 129 171 214 267 315 388
#     4  10  24  42  65  92 130 175 218 262 319 387
#     4  12  22  40  65  98 131 159 215 271 328 375
#     4  11  23  40  64  99 125 165 219 265 317 381
#     4  11  21  41  64  94 129 169 215 264 327 376
#
# _framework density 25.601094
#
# number of rings (size 3 to 8) (size 9 to 14) (size 15 to 20)
#    0.000    1.143    4.286    2.571    8.000    0.000 
#    0.000    0.714    3.143    4.286    0.000    0.000 
#    0.000    0.000    0.000    0.000    0.000    0.000 
#
# Total GULP energy -78146.186732 kJ/mol
# GULP energy per Si atom -5581.870481 kJ/mol
# Density = 2.554282 g / cm^3
# Si number density = 25.601094 Si / 1000 Ang^3
#
#
#
# Elastic Constant Matrix: (Units=GPa)
#
#
# Indices 1 2 3 4 5 6 
#
# 1 130.1342 24.8860 52.7102 20.5162 23.9923 -1.2092
# 2 24.8860 93.7012 44.1629 24.8459 12.4305 -15.1528
# 3 52.7102 44.1629 195.8536 28.5777 16.6144 10.2913
# 4 20.5162 24.8459 28.5777 51.0332 0.8455 -6.2273
# 5 23.9923 12.4305 16.6144 0.8455 40.1055 9.4284
# 6 -1.2092 -15.1528 10.2913 -6.2273 9.4284 41.6852
#
#
#
# Elastic Compliance Matrix: (Units=1/GPa)
#
#
# Indices 1 2 3 4 5 6 
#
# 1 0.009887 -0.000075 -0.001887 -0.002601 -0.005423 0.001563
# 2 -0.000075 0.014885 -0.002536 -0.004933 -0.004921 0.006411
# 3 -0.001887 -0.002536 0.006652 -0.002084 -0.000114 -0.002904
# 4 -0.002601 -0.004933 -0.002084 0.024353 0.003061 0.001592
# 5 -0.005423 -0.004921 -0.000114 0.003061 0.031716 -0.008634
# 6 0.001563 0.006411 -0.002904 0.001592 -0.008634 0.029273
#
#
# Mechanical properties :
#
#
# Convention : Reuss Voigt Hill
#
# Bulk Modulus (GPa) = 44.58426 73.68969 59.13698
# Shear Modulus (GPa) = 37.52701 46.42678 41.97689
#
# Velocity S-wave (km/s) = 3.83278 4.26310 4.05365
# Velocity P-wave (km/s) = 6.08603 7.28549 6.71260
#
# Compressibility (1/GPa) = 0.02242944
#
# Stress axis : x y z
#
# Youngs Moduli (GPa) = 101.14011 67.18227 150.33375
#
# Poissons Ratio (x) = 0.00502 0.28363
# Poissons Ratio (y) = 0.00756 0.38123
# Poissons Ratio (z) = 0.19082 0.17037
#
# Static dielectric constant tensor:
#      x y z
#    x 2.210110 -0.175190 0.062590 
#    y -0.175190 2.257190 0.006810 
#    z 0.062590 0.006810 1.957800 
# 
# From -- ./inp_files/167661.got.cif
#   From: 2010.05.17/outbox.cif.g08.bks.cpg/sg2_84_cif.got.tgz:167661.got - 2010.06.03 11:33:40.
