data_PCOD9036898
_publ_section_title
;
Structure prediction by ZEFSAII (Michael W. Deem and Ramdas Pophale) SiO2 
 PCOD9036898
Probable space group: P -1
;
_chemical_formula_sum "Si O2"
_cell_formula_units_Z 16
_cell_length_a 11.146667
_cell_length_b 13.393908
_cell_length_c 8.466317
_cell_angle_alpha 128.890334
_cell_angle_beta 94.805779
_cell_angle_gamma 56.902650
_cell_volume 756.361730
_symmetry_space_group_name_H-M "P -1"
_symmetry_group_IT_number 2
_symmetry_cell_setting 'triclinic'
loop_
_space_group_symop_operation_xyz
x,y,z
-x,-y,-z
loop_
_atom_site_type_symbol
_atom_site_label
_atom_site_fract_x
_atom_site_fract_y
_atom_site_fract_z
Si Si1 0.131358 0.238719 0.988105
Si Si2 0.121489 0.420236 0.581209
Si Si3 0.221590 0.833415 0.176376
Si Si4 0.087232 0.999678 0.857301
Si Si5 0.238962 0.694538 0.368156
Si Si6 0.604946 0.802354 0.837560
Si Si7 0.107630 0.184844 0.571404
Si Si8 0.516386 0.381291 0.250296
O O1 0.144800 0.106302 0.974528
O O2 0.154678 0.186977 0.757273
O O3 0.262786 0.249885 0.070052
O O4 0.955774 0.413464 0.160863
O O5 0.292697 0.310869 0.415809
O O6 0.118928 0.295635 0.564018
O O7 0.000000 0.500000 0.500000
O O8 0.276868 0.742831 0.259509
O O9 0.044565 0.908062 0.202195
O O10 0.211002 0.994446 0.337331
O O11 0.326223 0.713329 0.925978
O O12 0.216406 0.814555 0.624362
O O13 0.000000 0.000000 0.000000
O O14 0.371801 0.505832 0.241136
O O15 0.072112 0.739126 0.376795
O O16 0.502182 0.750366 0.821384
O O17 0.500000 0.000000 0.000000
O O18 0.500000 0.500000 0.500000
#
# Coordination Sequence:
#
# PCOD9036898 Si02
#       8
#     2   2   2   2   2   2   2   2
#     4  11  23  43  68 100 133 173 225 280 341 396
#     4  10  23  39  65  94 130 173 221 276 329 390
#     4  11  23  43  66  99 134 176 222 278 336 402
#     4  11  23  37  71 100 131 172 227 279 334 393
#     4  11  22  42  65 100 133 172 224 274 334 400
#     4  11  27  46  65  98 139 179 225 275 338 405
#     4  11  21  43  70  97 134 172 223 280 339 398
#     4  12  28  44  68  96 139 181 228 273 337 400
#
# _framework density 21.1539
#
# number of rings (size 3 to 8) (size 9 to 14) (size 15 to 20)
#    0.000    1.000    2.500    4.500   14.000    0.000 
#    0.000    5.000    0.000    0.000    0.000    0.000 
#    0.000    0.000    0.000    0.000    0.000    0.000 
#
# Total GULP energy -89445.896014 kJ/mol
# GULP energy per Si atom -5590.368501 kJ/mol
# Density = 2.110575 g / cm^3
# Si number density = 21.153900 Si / 1000 Ang^3
#
#
#
# Elastic Constant Matrix: (Units=GPa)
#
#
# Indices 1 2 3 4 5 6 
#
# 1 43.6578 10.8000 -1.8350 1.0649 1.7795 7.4959
# 2 10.8000 108.7549 16.9398 9.0586 -2.0587 17.9335
# 3 -1.8350 16.9398 96.4260 4.0408 -10.1014 -4.8649
# 4 1.0649 9.0586 4.0408 35.0766 -2.9475 -2.7551
# 5 1.7795 -2.0587 -10.1014 -2.9475 36.2659 4.8947
# 6 7.4959 17.9335 -4.8649 -2.7551 4.8947 37.2230
#
#
#
# Elastic Compliance Matrix: (Units=1/GPa)
#
#
# Indices 1 2 3 4 5 6 
#
# 1 0.024081 -0.001790 0.000536 -0.000691 -0.000666 -0.003880
# 2 -0.001790 0.010834 -0.002023 -0.002883 0.000637 -0.005421
# 3 0.000536 -0.002023 0.011130 -0.000400 0.002664 0.001942
# 4 -0.000691 -0.002883 -0.000400 0.029735 0.001710 0.003452
# 5 -0.000666 0.000637 0.002664 0.001710 0.028998 -0.003511
# 6 -0.003880 -0.005421 0.001942 0.003452 -0.003511 0.031229
#
#
# Mechanical properties :
#
#
# Convention : Reuss Voigt Hill
#
# Bulk Modulus (GPa) = 25.32247 33.40535 29.36391
# Shear Modulus (GPa) = 32.10777 36.57535 34.34156
#
# Velocity S-wave (km/s) = 3.90014 4.16265 4.03353
# Velocity P-wave (km/s) = 5.68138 6.23934 5.96689
#
# Compressibility (1/GPa) = 0.03949062
#
# Stress axis : x y z
#
# Youngs Moduli (GPa) = 41.52638 92.30252 89.84627
#
# Poissons Ratio (x) = 0.16523 -0.04817
# Poissons Ratio (y) = 0.07433 0.18179
# Poissons Ratio (z) = -0.02226 0.18676
#
# Static dielectric constant tensor:
#      x y z
#    x 1.747720 -0.008520 0.015230 
#    y -0.008520 1.777400 -0.007560 
#    z 0.015230 -0.007560 1.793650 
# 
# From -- ./inp_files/187632.got.cif
#   From: 2010.05.17/outbox.cif.g08.bks.cpg/sg2_94_cif.got.tgz:187632.got - 2010.06.03 11:33:40.
