data_PCOD9036303
_publ_section_title
;
Structure prediction by ZEFSAII (Michael W. Deem and Ramdas Pophale) SiO2 
 PCOD9036303
Probable space group: P -1
;
_chemical_formula_sum "Si O2"
_cell_formula_units_Z 16
_cell_length_a 6.223341
_cell_length_b 5.562397
_cell_length_c 22.951600
_cell_angle_alpha 90.141284
_cell_angle_beta 60.776380
_cell_angle_gamma 100.732534
_cell_volume 677.620489
_symmetry_space_group_name_H-M "P -1"
_symmetry_group_IT_number 2
_symmetry_cell_setting 'triclinic'
loop_
_space_group_symop_operation_xyz
x,y,z
-x,-y,-z
loop_
_atom_site_type_symbol
_atom_site_label
_atom_site_fract_x
_atom_site_fract_y
_atom_site_fract_z
Si Si1 0.250798 0.493472 0.071663
Si Si2 0.595789 0.765089 0.515805
Si Si3 0.912388 0.292255 0.603845
Si Si4 0.942064 0.832636 0.285287
Si Si5 0.552515 0.525269 0.707111
Si Si6 0.019455 0.051185 0.928232
Si Si7 0.411117 0.709669 0.173769
Si Si8 0.435097 0.887358 0.656735
O O1 0.333720 0.544933 0.127269
O O2 0.115429 0.719303 0.070113
O O3 0.500000 0.500000 0.000000
O O4 0.091943 0.214841 0.085837
O O5 0.500000 0.500000 0.500000
O O6 0.481892 0.732658 0.595205
O O7 0.892483 0.772892 0.468610
O O8 0.500000 0.000000 0.500000
O O9 0.807187 0.534993 0.634575
O O10 0.013787 0.231521 0.653550
O O11 0.645388 0.130696 0.619256
O O12 0.707060 0.641271 0.285985
O O13 0.188765 0.853348 0.214552
O O14 0.845740 0.082790 0.302720
O O15 0.586405 0.437334 0.766649
O O16 0.505141 0.795826 0.709629
O O17 0.311508 0.132338 0.872784
O O18 0.000000 0.000000 0.000000
#
# Coordination Sequence:
#
# PCOD9036303 Si02
#       8
#     2   2   2   2   2   2   2   2
#     4  12  27  52  83 118 158 204 249 321 387 455
#     4  12  26  44  77 107 142 196 252 316 389 451
#     4  10  23  43  70 103 145 188 249 313 386 439
#     4  10  22  49  66 103 148 196 250 305 378 450
#     4  10  24  47  68 106 145 203 250 314 369 467
#     4  12  27  52  83 120 157 198 261 314 386 460
#     4  11  26  50  75 113 158 203 257 310 390 456
#     4  11  24  44  76 103 149 192 260 310 380 451
#
# _framework density 23.612036
#
# number of rings (size 3 to 8) (size 9 to 14) (size 15 to 20)
#    0.000    1.000    2.500    2.625    3.500    2.500 
#   29.250    0.000    0.000    0.000    0.000    0.000 
#    0.000    0.000    0.000    0.000    0.000    0.000 
#
# Total GULP energy -89307.974920 kJ/mol
# GULP energy per Si atom -5581.748433 kJ/mol
# Density = 2.355829 g / cm^3
# Si number density = 23.612036 Si / 1000 Ang^3
#
#
#
# Elastic Constant Matrix: (Units=GPa)
#
#
# Indices 1 2 3 4 5 6 
#
# 1 127.4253 65.8708 72.4005 18.3324 -19.3286 -17.6196
# 2 65.8708 118.5982 49.6837 10.0399 -8.1470 2.2086
# 3 72.4005 49.6837 160.5662 23.8466 -30.6510 -9.8368
# 4 18.3324 10.0399 23.8466 27.4544 1.7600 7.6403
# 5 -19.3286 -8.1470 -30.6510 1.7600 59.6466 5.9270
# 6 -17.6196 2.2086 -9.8368 7.6403 5.9270 48.6006
#
#
#
# Elastic Compliance Matrix: (Units=1/GPa)
#
#
# Indices 1 2 3 4 5 6 
#
# 1 0.015017 -0.006477 -0.002993 -0.006850 0.002054 0.005959
# 2 -0.006477 0.012548 -0.001696 0.002245 -0.000975 -0.003496
# 3 -0.002993 -0.001696 0.009951 -0.006718 0.003954 0.001580
# 4 -0.006850 0.002245 -0.006718 0.049447 -0.005730 -0.011020
# 5 0.002054 -0.000975 0.003954 -0.005730 0.019487 0.000113
# 6 0.005959 -0.003496 0.001580 -0.011020 0.000113 0.024934
#
#
# Mechanical properties :
#
#
# Convention : Reuss Voigt Hill
#
# Bulk Modulus (GPa) = 65.85340 86.94439 76.39889
# Shear Modulus (GPa) = 31.49064 41.71597 36.60331
#
# Velocity S-wave (km/s) = 3.65591 4.20780 3.94153
# Velocity P-wave (km/s) = 6.76544 7.77878 7.28974
#
# Compressibility (1/GPa) = 0.01518525
#
# Stress axis : x y z
#
# Youngs Moduli (GPa) = 66.58900 79.69545 100.48751
#
# Poissons Ratio (x) = 0.51620 0.30075
# Poissons Ratio (y) = 0.43131 0.17040
# Poissons Ratio (z) = 0.19929 0.13514
#
# Static dielectric constant tensor:
#      x y z
#    x 1.393610 0.212410 3.020130 
#    y 0.212410 2.053110 -0.462950 
#    z 3.020130 -0.462950 -10.671120 
# 
# From -- ./inp_files/11297.got.cif
#   From: 2010.05.17/outbox.cif.g08.bks.cpg/sg2_6_cif.got.tgz:11297.got - 2010.06.03 11:33:40.
