data_PCOD9036551
_publ_section_title
;
Structure prediction by ZEFSAII (Michael W. Deem and Ramdas Pophale) SiO2 
 PCOD9036551
Probable space group: P -1
;
_chemical_formula_sum "Si O2"
_cell_formula_units_Z 12
_cell_length_a 18.708866
_cell_length_b 5.048339
_cell_length_c 22.509163
_cell_angle_alpha 97.780240
_cell_angle_beta 165.411160
_cell_angle_gamma 76.003173
_cell_volume 475.339324
_symmetry_space_group_name_H-M "P -1"
_symmetry_group_IT_number 2
_symmetry_cell_setting 'triclinic'
loop_
_space_group_symop_operation_xyz
x,y,z
-x,-y,-z
loop_
_atom_site_type_symbol
_atom_site_label
_atom_site_fract_x
_atom_site_fract_y
_atom_site_fract_z
Si Si1 0.808737 0.875671 0.921073
Si Si2 0.123001 0.721133 0.634061
Si Si3 0.992881 0.696271 0.248455
Si Si4 0.868915 0.313087 0.224826
Si Si5 0.486643 0.733511 0.419267
Si Si6 0.159968 0.597575 0.984220
O O1 0.187331 0.730051 0.210155
O O2 0.724850 0.632268 0.875953
O O3 0.737152 0.142576 0.918531
O O4 0.649576 0.021898 0.735475
O O5 0.017928 0.788099 0.620240
O O6 0.000000 0.500000 0.500000
O O7 0.504117 0.560053 0.939312
O O8 0.000000 0.000000 0.500000
O O9 0.051777 0.479075 0.345347
O O10 0.297521 0.584628 0.447892
O O11 0.768245 0.599513 0.023631
O O12 0.888005 0.029852 0.194693
O O13 0.773949 0.764896 0.684113
#
# Coordination Sequence:
#
# PCOD9036551 Si02
#       6
#     2   2   2   2   2   2
#     4  11  21  41  61  86 119 177 213 266 288 372
#     4  11  24  45  73  96 118 167 202 238 306 384
#     4  10  23  41  61  92 133 163 193 268 309 353
#     4  11  23  46  63  94 135 152 200 258 302 367
#     4   9  24  38  62  88 126 162 223 251 317 345
#     4  10  23  38  60  86 125 160 216 255 314 350
#
# _framework density 25.245125999999999
#
# number of rings (size 3 to 8) (size 9 to 14) (size 15 to 20)
#    1.000    0.667    0.000    4.000    0.000    9.333 
#   18.000    0.000    0.000    0.000    0.000    0.000 
#    0.000    0.000    0.000    0.000    0.000    0.000 
#
# Total GULP energy -67159.162851 kJ/mol
# GULP energy per Si atom -5596.596904 kJ/mol
# Density = 2.518767 g / cm^3
# Si number density = 25.245126 Si / 1000 Ang^3
#
#
#
# Elastic Constant Matrix: (Units=GPa)
#
#
# Indices 1 2 3 4 5 6 
#
# 1 78.9002 24.5605 4.4828 -22.9328 -13.4706 2.5027
# 2 24.5605 121.5315 9.4006 -18.4934 -6.7055 2.6280
# 3 4.4828 9.4006 73.6749 -3.3216 -16.3635 -0.3048
# 4 -22.9328 -18.4934 -3.3216 28.0696 -0.8471 -8.2893
# 5 -13.4706 -6.7055 -16.3635 -0.8471 40.8218 -7.3041
# 6 2.5027 2.6280 -0.3048 -8.2893 -7.3041 32.8295
#
#
#
# Elastic Compliance Matrix: (Units=1/GPa)
#
#
# Indices 1 2 3 4 5 6 
#
# 1 0.018913 -0.001095 0.001487 0.016489 0.007816 0.004562
# 2 -0.001095 0.009388 -0.000603 0.005552 0.001234 0.001003
# 3 0.001487 -0.000603 0.015299 0.003596 0.007056 0.002555
# 4 0.016489 0.005552 0.003596 0.058156 0.011800 0.015641
# 5 0.007816 0.001234 0.007056 0.011800 0.032048 0.009481
# 6 0.004562 0.001003 0.002555 0.015641 0.009481 0.036115
#
#
# Mechanical properties :
#
#
# Convention : Reuss Voigt Hill
#
# Bulk Modulus (GPa) = 23.15990 38.99938 31.07964
# Shear Modulus (GPa) = 27.06603 36.05503 31.56053
#
# Velocity S-wave (km/s) = 3.27789 3.78325 3.53960
# Velocity P-wave (km/s) = 4.84974 5.87927 5.38915
#
# Compressibility (1/GPa) = 0.04317807
#
# Stress axis : x y z
#
# Youngs Moduli (GPa) = 52.87346 106.52418 65.36169
#
# Poissons Ratio (x) = 0.11669 -0.09720
# Poissons Ratio (y) = 0.05792 0.03939
# Poissons Ratio (z) = -0.07863 0.06420
#
# Static dielectric constant tensor:
#      x y z
#    x 2.003220 -0.063060 0.013110 
#    y -0.063060 1.930280 0.006300 
#    z 0.013110 0.006300 2.050740 
# 
# From -- ./inp_files/598844.got.cif
#   From: 2010.05.17/outbox.cif.g08.bks.cpg/sg2_300_cif.got.tgz:598844.got - 2010.06.03 11:33:40.
