data_PCOD9036557
_publ_section_title
;
Structure prediction by ZEFSAII (Michael W. Deem and Ramdas Pophale) SiO2 
 PCOD9036557
Probable space group: P -1
;
_chemical_formula_sum "Si O2"
_cell_formula_units_Z 16
_cell_length_a 12.734945
_cell_length_b 13.209488
_cell_length_c 9.585099
_cell_angle_alpha 57.363498
_cell_angle_beta 48.081163
_cell_angle_gamma 89.847617
_cell_volume 829.623531
_symmetry_space_group_name_H-M "P -1"
_symmetry_group_IT_number 2
_symmetry_cell_setting 'triclinic'
loop_
_space_group_symop_operation_xyz
x,y,z
-x,-y,-z
loop_
_atom_site_type_symbol
_atom_site_label
_atom_site_fract_x
_atom_site_fract_y
_atom_site_fract_z
Si Si1 0.009801 0.378695 0.662636
Si Si2 0.305814 0.809297 0.710653
Si Si3 0.672914 0.437720 0.551733
Si Si4 0.174239 0.527405 0.885533
Si Si5 0.585789 0.635790 0.938282
Si Si6 0.955211 0.718475 0.586541
Si Si7 0.526617 0.881173 0.719706
Si Si8 0.659608 0.145285 0.822760
O O1 0.177330 0.460758 0.547297
O O2 0.019104 0.292053 0.592130
O O3 0.000000 0.500000 0.500000
O O4 0.854950 0.281298 0.976906
O O5 0.291869 0.696690 0.696732
O O6 0.467103 0.861394 0.627909
O O7 0.319006 0.948148 0.530854
O O8 0.732700 0.503308 0.295264
O O9 0.662243 0.286509 0.668906
O O10 0.509940 0.417353 0.787192
O O11 0.121016 0.428711 0.144170
O O12 0.000000 0.500000 0.000000
O O13 0.788744 0.723306 0.725714
O O14 0.554247 0.756048 0.823305
O O15 0.500000 0.500000 0.000000
O O16 0.153142 0.825845 0.386050
O O17 0.384695 0.863898 0.966201
O O18 0.500000 0.000000 0.000000
#
# Coordination Sequence:
#
# PCOD9036557 Si02
#       8
#     2   2   2   2   2   2   2   2
#     4  12  17  36  65  95 117 155 215 260 302 363
#     4  11  20  36  65  93 125 157 210 270 309 355
#     4  11  22  37  61  93 121 160 207 262 306 368
#     4  12  21  35  63  98 123 154 210 271 312 355
#     4  11  23  41  65  90 130 167 208 253 317 383
#     4  12  23  37  65  94 122 166 211 253 315 376
#     4  10  23  38  60  94 122 162 212 262 308 372
#     4  11  21  37  62  86 122 164 212 255 308 366
#
# _framework density 19.285855999999999
#
# number of rings (size 3 to 8) (size 9 to 14) (size 15 to 20)
#    0.000    0.750    7.500    2.250    0.000    0.500 
#    0.000    3.125    0.000    0.000    0.000    0.000 
#    0.000    0.000    0.000    0.000    0.000    0.000 
#
# Total GULP energy -89145.170996 kJ/mol
# GULP energy per Si atom -5571.573187 kJ/mol
# Density = 1.924196 g / cm^3
# Si number density = 19.285856 Si / 1000 Ang^3
#
#
#
# Elastic Constant Matrix: (Units=GPa)
#
#
# Indices 1 2 3 4 5 6 
#
# 1 62.9026 43.4520 19.7667 -0.2521 -16.7687 7.7087
# 2 43.4520 63.4316 33.7804 8.4120 -9.0847 11.4421
# 3 19.7667 33.7804 105.6043 15.6327 -7.2270 -3.3880
# 4 -0.2521 8.4120 15.6327 42.4189 1.7861 0.7597
# 5 -16.7687 -9.0847 -7.2270 1.7861 40.5424 2.4014
# 6 7.7087 11.4421 -3.3880 0.7597 2.4014 31.0312
#
#
#
# Elastic Compliance Matrix: (Units=1/GPa)
#
#
# Indices 1 2 3 4 5 6 
#
# 1 0.033838 -0.022826 0.000963 0.004010 0.008916 -0.000672
# 2 -0.022826 0.037237 -0.007353 -0.004585 -0.001695 -0.008619
# 3 0.000963 -0.007353 0.012292 -0.003171 0.000855 0.003825
# 4 0.004010 -0.004585 -0.003171 0.025724 -0.001056 -0.000200
# 5 0.008916 -0.001695 0.000855 -0.001056 0.028389 -0.003668
# 6 -0.000672 -0.008619 0.003825 -0.000200 -0.003668 0.036277
#
#
# Mechanical properties :
#
#
# Convention : Reuss Voigt Hill
#
# Bulk Modulus (GPa) = 40.10426 47.32629 43.71527
# Shear Modulus (GPa) = 20.78997 31.79448 26.29222
#
# Velocity S-wave (km/s) = 3.28684 4.06469 3.69628
# Velocity P-wave (km/s) = 5.93668 6.82800 6.39788
#
# Compressibility (1/GPa) = 0.02493501
#
# Stress axis : x y z
#
# Youngs Moduli (GPa) = 29.55243 26.85499 81.35650
#
# Poissons Ratio (x) = 0.61300 -0.07834
# Poissons Ratio (y) = 0.67457 0.59818
# Poissons Ratio (z) = -0.02846 0.19745
#
# Static dielectric constant tensor:
#      x y z
#    x 1.694310 0.012670 -0.021990 
#    y 0.012670 1.723810 0.004050 
#    z -0.021990 0.004050 1.734530 
# 
# From -- ./inp_files/256233.got.cif
#   From: 2010.05.17/outbox.cif.g08.bks.cpg/sg2_129_cif.got.tgz:256233.got - 2010.06.03 11:33:40.
