data_PCOD9036025
_publ_section_title
;
Structure prediction by ZEFSAII (Michael W. Deem and Ramdas Pophale) SiO2 
 PCOD9036025
Probable space group: P -1
;
_chemical_formula_sum "Si O2"
_cell_formula_units_Z 16
_cell_length_a 11.833516
_cell_length_b 12.002289
_cell_length_c 15.432238
_cell_angle_alpha 151.615089
_cell_angle_beta 58.001118
_cell_angle_gamma 102.141760
_cell_volume 682.896345
_symmetry_space_group_name_H-M "P -1"
_symmetry_group_IT_number 2
_symmetry_cell_setting 'triclinic'
loop_
_space_group_symop_operation_xyz
x,y,z
-x,-y,-z
loop_
_atom_site_type_symbol
_atom_site_label
_atom_site_fract_x
_atom_site_fract_y
_atom_site_fract_z
Si Si1 0.307613 0.250967 0.446860
Si Si2 0.835084 0.778016 0.807349
Si Si3 0.561027 0.405640 0.008166
Si Si4 0.687941 0.676034 0.223134
Si Si5 0.342640 0.883625 0.719596
Si Si6 0.853639 0.239964 0.015874
Si Si7 0.229618 0.960824 0.626994
Si Si8 0.339345 0.342975 0.310656
O O1 0.483359 0.199494 0.366602
O O2 0.156377 0.548682 0.762775
O O3 0.254097 0.330815 0.423084
O O4 0.352898 0.937518 0.240220
O O5 0.736108 0.640926 0.740542
O O6 0.000000 0.500000 0.500000
O O7 0.803955 0.895764 0.998404
O O8 0.794783 0.059757 0.959593
O O9 0.700887 0.455159 0.997792
O O10 0.394646 0.641954 0.299915
O O11 0.500000 0.500000 0.000000
O O12 0.721616 0.491361 0.170355
O O13 0.500000 0.000000 0.500000
O O14 0.805333 0.773081 0.236689
O O15 0.287380 0.007953 0.729163
O O16 0.366116 0.579082 0.486957
O O17 0.050597 0.020296 0.751706
O O18 0.500000 0.000000 0.000000
#
# Coordination Sequence:
#
# PCOD9036025 Si02
#       8
#     2   2   2   2   2   2   2   2
#     4  12  23  41  69 102 140 186 244 297 348 421
#     4  12  28  45  70 104 152 195 240 296 363 426
#     4  11  23  44  72 102 136 188 242 290 359 435
#     4  10  22  47  70 100 137 183 234 295 356 424
#     4  12  25  46  69 103 147 194 243 292 358 429
#     4  12  25  45  71 106 143 187 240 299 358 423
#     4  11  25  44  73 101 145 188 233 299 365 425
#     4  12  23  42  66  99 135 189 248 289 346 420
#
# _framework density 23.429617
#
# number of rings (size 3 to 8) (size 9 to 14) (size 15 to 20)
#    0.000    0.500    2.500    7.500    3.500    1.000 
#    0.000    1.250    0.000    0.000    0.000    0.000 
#    0.000    0.000    0.000    0.000    0.000    0.000 
#
# Total GULP energy -89112.908166 kJ/mol
# GULP energy per Si atom -5569.556760 kJ/mol
# Density = 2.337629 g / cm^3
# Si number density = 23.429617 Si / 1000 Ang^3
#
#
#
# Elastic Constant Matrix: (Units=GPa)
#
#
# Indices 1 2 3 4 5 6 
#
# 1 60.0159 9.4556 23.2080 1.2646 23.0029 2.4859
# 2 9.4556 116.8335 32.8201 22.0277 15.8138 -9.1110
# 3 23.2080 32.8201 148.0968 6.5837 20.8083 2.3947
# 4 1.2646 22.0277 6.5837 49.7787 8.6462 16.5157
# 5 23.0029 15.8138 20.8083 8.6462 44.3669 -1.9070
# 6 2.4859 -9.1110 2.3947 16.5157 -1.9070 36.8157
#
#
#
# Elastic Compliance Matrix: (Units=1/GPa)
#
#
# Indices 1 2 3 4 5 6 
#
# 1 0.021723 -0.000596 -0.001814 0.002977 -0.010926 -0.003398
# 2 -0.000596 0.010933 -0.001974 -0.006208 -0.001212 0.005596
# 3 -0.001814 -0.001974 0.007772 0.000704 -0.002194 -0.001301
# 4 0.002977 -0.006208 0.000704 0.028646 -0.005886 -0.014939
# 5 -0.010926 -0.001212 -0.002194 -0.005886 0.031019 0.004828
# 6 -0.003398 0.005596 -0.001301 -0.014939 0.004828 0.035813
#
#
# Mechanical properties :
#
#
# Convention : Reuss Voigt Hill
#
# Bulk Modulus (GPa) = 31.58528 50.65708 41.12118
# Shear Modulus (GPa) = 32.21068 43.48974 37.85021
#
# Velocity S-wave (km/s) = 3.71183 4.31302 4.02367
# Velocity P-wave (km/s) = 5.64628 6.81695 6.25904
#
# Compressibility (1/GPa) = 0.03166031
#
# Stress axis : x y z
#
# Youngs Moduli (GPa) = 46.03335 91.46827 128.66547
#
# Poissons Ratio (x) = 0.05449 0.23346
# Poissons Ratio (y) = 0.02742 0.25395
# Poissons Ratio (z) = 0.08353 0.18053
#
# Static dielectric constant tensor:
#      x y z
#    x 1.988190 0.003220 -0.055720 
#    y 0.003220 1.995890 -0.022100 
#    z -0.055720 -0.022100 1.820540 
# 
# From -- ./inp_files/519945.got.cif
#   From: 2010.05.17/outbox.cif.g08.bks.cpg/sg2_260_cif.got.tgz:519945.got - 2010.06.03 11:33:40.
