data_PCOD9036673
_publ_section_title
;
Structure prediction by ZEFSAII (Michael W. Deem and Ramdas Pophale) SiO2 
 PCOD9036673
Probable space group: P -1
;
_chemical_formula_sum "Si O2"
_cell_formula_units_Z 16
_cell_length_a 9.117508
_cell_length_b 7.678389
_cell_length_c 13.674916
_cell_angle_alpha 133.321056
_cell_angle_beta 120.683678
_cell_angle_gamma 71.801291
_cell_volume 597.887846
_symmetry_space_group_name_H-M "P -1"
_symmetry_group_IT_number 2
_symmetry_cell_setting 'triclinic'
loop_
_space_group_symop_operation_xyz
x,y,z
-x,-y,-z
loop_
_atom_site_type_symbol
_atom_site_label
_atom_site_fract_x
_atom_site_fract_y
_atom_site_fract_z
Si Si1 0.970344 0.238513 0.783267
Si Si2 0.454097 0.827393 0.122182
Si Si3 0.995023 0.712127 0.500775
Si Si4 0.560397 0.242763 0.668248
Si Si5 0.925799 0.054507 0.890179
Si Si6 0.107472 0.446498 0.282120
Si Si7 0.680782 0.575398 0.196652
Si Si8 0.522504 0.629883 0.662103
O O1 0.763618 0.249240 0.728651
O O2 0.016365 0.457161 0.807588
O O3 0.999527 0.982977 0.644078
O O4 0.025155 0.222315 0.908723
O O5 0.639234 0.684043 0.118405
O O6 0.266440 0.873637 0.130914
O O7 0.528918 0.103223 0.245295
O O8 0.363961 0.702721 0.943344
O O9 0.829825 0.654318 0.351474
O O10 0.000000 0.500000 0.500000
O O11 0.141987 0.668938 0.453286
O O12 0.484373 0.273351 0.763469
O O13 0.464559 0.449794 0.658552
O O14 0.500000 0.000000 0.500000
O O15 0.934655 0.779998 0.749299
O O16 0.000000 0.000000 0.000000
O O17 0.273438 0.365769 0.254262
O O18 0.500000 0.500000 0.500000
#
# Coordination Sequence:
#
# PCOD9036673 Si02
#       8
#     2   2   2   2   2   2   2   2
#     4  11  23  41  66  93 129 171 221 275 330 392
#     4  10  23  42  62  97 131 173 218 269 335 396
#     4  12  24  40  66  98 132 175 222 276 340 391
#     4  11  21  39  66  94 119 166 219 266 325 390
#     4  11  22  42  69  92 132 174 221 272 336 403
#     4  10  24  42  61  98 132 164 224 276 329 402
#     4  11  23  40  68  92 132 175 216 272 333 402
#     4  10  23  38  67  93 127 168 216 276 322 386
#
# _framework density 26.760871000000002
#
# number of rings (size 3 to 8) (size 9 to 14) (size 15 to 20)
#    0.000    1.250    3.750    1.875    5.250    1.000 
#    0.000    0.000    0.000    0.000    0.000    0.000 
#    0.000    0.000    0.000    0.000    0.000    0.000 
#
# Total GULP energy -89099.671324 kJ/mol
# GULP energy per Si atom -5568.729458 kJ/mol
# Density = 2.669996 g / cm^3
# Si number density = 26.760871 Si / 1000 Ang^3
#
#
#
# Elastic Constant Matrix: (Units=GPa)
#
#
# Indices 1 2 3 4 5 6 
#
# 1 39.9423 32.8103 6.9636 0.4877 -6.2685 -3.3551
# 2 32.8103 124.2044 30.1261 -16.7819 3.0621 -2.5449
# 3 6.9636 30.1261 126.9550 11.6725 -0.4476 -15.8891
# 4 0.4877 -16.7819 11.6725 42.7529 -8.0055 -1.0153
# 5 -6.2685 3.0621 -0.4476 -8.0055 42.1100 -0.8590
# 6 -3.3551 -2.5449 -15.8891 -1.0153 -0.8590 43.8839
#
#
#
# Elastic Compliance Matrix: (Units=1/GPa)
#
#
# Indices 1 2 3 4 5 6 
#
# 1 0.033939 -0.009785 0.001107 -0.003506 0.005159 0.002448
# 2 -0.009785 0.012095 -0.002961 0.005388 -0.001364 -0.001021
# 3 0.001107 -0.002961 0.009252 -0.003654 -0.000151 0.003175
# 4 -0.003506 0.005388 -0.003654 0.027322 0.004230 -0.000564
# 5 0.005159 -0.001364 -0.000151 0.004230 0.025435 0.000856
# 6 0.002448 -0.001021 0.003175 -0.000564 0.000856 0.024069
#
#
# Mechanical properties :
#
#
# Convention : Reuss Voigt Hill
#
# Bulk Modulus (GPa) = 31.24258 47.87796 39.56027
# Shear Modulus (GPa) = 30.11016 40.49612 35.30314
#
# Velocity S-wave (km/s) = 3.35797 3.89428 3.63603
# Velocity P-wave (km/s) = 5.17056 6.17661 5.69584
#
# Compressibility (1/GPa) = 0.03200760
#
# Stress axis : x y z
#
# Youngs Moduli (GPa) = 29.46497 82.67863 108.08922
#
# Poissons Ratio (x) = 0.80898 -0.11968
# Poissons Ratio (y) = 0.28830 0.32010
# Poissons Ratio (z) = -0.03262 0.24484
#
# Static dielectric constant tensor:
#      x y z
#    x 2.711510 0.357170 -0.020740 
#    y 0.357170 2.664880 0.028800 
#    z -0.020740 0.028800 2.359650 
# 
# From -- ./inp_files/516430.got.cif
#   From: 2010.05.17/outbox.cif.g08.bks.cpg/sg2_259_cif.got.tgz:516430.got - 2010.06.03 11:33:40.
