data_PCOD9036194
_publ_section_title
;
Structure prediction by ZEFSAII (Michael W. Deem and Ramdas Pophale) SiO2 
 PCOD9036194
Probable space group: P -1
;
_chemical_formula_sum "Si O2"
_cell_formula_units_Z 16
_cell_length_a 14.269091
_cell_length_b 5.373606
_cell_length_c 14.969405
_cell_angle_alpha 66.854718
_cell_angle_beta 141.920253
_cell_angle_gamma 113.700098
_cell_volume 642.209827
_symmetry_space_group_name_H-M "P -1"
_symmetry_group_IT_number 2
_symmetry_cell_setting 'triclinic'
loop_
_space_group_symop_operation_xyz
x,y,z
-x,-y,-z
loop_
_atom_site_type_symbol
_atom_site_label
_atom_site_fract_x
_atom_site_fract_y
_atom_site_fract_z
Si Si1 0.743702 0.585520 0.210664
Si Si2 0.451309 0.696072 0.576278
Si Si3 0.888870 0.019482 0.995561
Si Si4 0.564923 0.713987 0.220681
Si Si5 0.246804 0.555905 0.958090
Si Si6 0.135598 0.897198 0.556689
Si Si7 0.644424 0.290907 0.680067
Si Si8 0.985924 0.089860 0.254491
O O1 0.606289 0.620958 0.166851
O O2 0.705014 0.440674 0.108653
O O3 0.854510 0.418241 0.372829
O O4 0.839914 0.874793 0.211677
O O5 0.407551 0.518718 0.655825
O O6 0.574970 0.540732 0.637785
O O7 0.318695 0.666712 0.404326
O O8 0.520709 0.005077 0.616472
O O9 0.784411 0.239235 0.854616
O O10 0.771466 0.739624 0.967516
O O11 0.990004 0.072289 0.153718
O O12 0.000000 0.000000 0.000000
O O13 0.694259 0.967692 0.303440
O O14 0.386338 0.748333 0.085820
O O15 0.074929 0.626039 0.816022
O O16 0.000000 0.000000 0.500000
O O17 0.117238 0.004878 0.427025
#
# Coordination Sequence:
#
# PCOD9036194 Si02
#       8
#     2   2   2   2   2   2   2   2
#     4  11  24  42  72  98 141 180 238 288 359 426
#     4  10  23  43  75 102 143 184 237 301 368 425
#     4  11  26  45  73  99 139 185 240 296 360 430
#     4  12  25  40  72 105 139 184 233 298 351 437
#     4  11  24  46  68 104 138 183 233 291 361 427
#     4  12  25  45  65  98 140 187 232 286 355 429
#     4  10  22  48  69 104 144 185 237 303 362 431
#     4  11  25  47  71  95 144 183 235 294 356 436
#
# _framework density 24.913978
#
# number of rings (size 3 to 8) (size 9 to 14) (size 15 to 20)
#    0.000    1.000    3.750    1.500    1.750    6.500 
#    4.500    0.000    0.000    0.000    0.000    0.000 
#    0.000    0.000    0.000    0.000    0.000    0.000 
#
# Total GULP energy -89431.605931 kJ/mol
# GULP energy per Si atom -5589.475371 kJ/mol
# Density = 2.485727 g / cm^3
# Si number density = 24.913978 Si / 1000 Ang^3
#
#
#
# Elastic Constant Matrix: (Units=GPa)
#
#
# Indices 1 2 3 4 5 6 
#
# 1 101.8743 5.9417 42.9990 3.8289 -35.2350 -1.3983
# 2 5.9417 41.3517 20.5949 -14.4221 -1.5858 -3.4936
# 3 42.9990 20.5949 140.6622 -4.3430 -12.2436 2.7113
# 4 3.8289 -14.4221 -4.3430 39.4739 -0.7081 -0.8528
# 5 -35.2350 -1.5858 -12.2436 -0.7081 46.4081 -6.7672
# 6 -1.3983 -3.4936 2.7113 -0.8528 -6.7672 25.4910
#
#
#
# Elastic Compliance Matrix: (Units=1/GPa)
#
#
# Indices 1 2 3 4 5 6 
#
# 1 0.015492 -0.000092 -0.003869 -0.001668 0.011325 0.004199
# 2 -0.000092 0.030499 -0.004133 0.010824 0.000804 0.005190
# 3 -0.003869 -0.004133 0.008838 -0.000224 -0.001042 -0.002003
# 4 -0.001668 0.010824 -0.000224 0.029473 -0.000162 0.002359
# 5 0.011325 0.000804 -0.001042 -0.000162 0.031227 0.009127
# 6 0.004199 0.005190 -0.002003 0.002359 0.009127 0.042886
#
#
# Mechanical properties :
#
#
# Convention : Reuss Voigt Hill
#
# Bulk Modulus (GPa) = 25.87949 46.99549 36.43749
# Shear Modulus (GPa) = 26.66916 36.56478 31.61697
#
# Velocity S-wave (km/s) = 3.27532 3.83514 3.56623
# Velocity P-wave (km/s) = 4.97129 6.20605 5.62267
#
# Compressibility (1/GPa) = 0.03864064
#
# Stress axis : x y z
#
# Youngs Moduli (GPa) = 64.55118 32.78818 113.14749
#
# Poissons Ratio (x) = 0.00301 0.43776
# Poissons Ratio (y) = 0.00592 0.46767
# Poissons Ratio (z) = 0.24974 0.13552
#
# Static dielectric constant tensor:
#      x y z
#    x 2.159270 -0.179490 -0.216170 
#    y -0.179490 2.187230 0.213900 
#    z -0.216170 0.213900 2.220340 
# 
# From -- ./inp_files/98635.got.cif
#   From: 2010.05.17/outbox.cif.g08.bks.cpg/sg2_50_cif.got.tgz:98635.got - 2010.06.03 11:33:40.
