data_PCOD9036023
_publ_section_title
;
Structure prediction by ZEFSAII (Michael W. Deem and Ramdas Pophale) SiO2 
 PCOD9036023
Probable space group: P -1
;
_chemical_formula_sum "Si O2"
_cell_formula_units_Z 15
_cell_length_a 8.789615
_cell_length_b 9.060237
_cell_length_c 11.115271
_cell_angle_alpha 120.609423
_cell_angle_beta 112.879920
_cell_angle_gamma 48.904101
_cell_volume 572.124915
_symmetry_space_group_name_H-M "P -1"
_symmetry_group_IT_number 2
_symmetry_cell_setting 'triclinic'
loop_
_space_group_symop_operation_xyz
x,y,z
-x,-y,-z
loop_
_atom_site_type_symbol
_atom_site_label
_atom_site_fract_x
_atom_site_fract_y
_atom_site_fract_z
Si Si1 0.500000 0.500000 0.000000
Si Si2 0.352012 0.193572 0.699633
Si Si3 0.375855 0.682127 0.256144
Si Si4 0.761365 0.389249 0.610454
Si Si5 0.800770 0.035179 0.010179
Si Si6 0.085255 0.275780 0.870601
Si Si7 0.753131 0.779748 0.693969
Si Si8 0.939602 0.831169 0.573529
O O1 0.685115 0.388858 0.908914
O O2 0.625531 0.279665 0.034039
O O3 0.432559 0.338355 0.761497
O O4 0.272539 0.220274 0.820614
O O5 0.176098 0.231237 0.576122
O O6 0.546480 0.957723 0.637732
O O7 0.426833 0.571842 0.355872
O O8 0.212721 0.925321 0.339111
O O9 0.735940 0.592789 0.637208
O O10 0.916059 0.314303 0.739331
O O11 0.867421 0.223083 0.465677
O O12 0.752785 0.895020 0.859236
O O13 0.843056 0.926327 0.108299
O O14 0.000000 0.000000 0.000000
O O15 0.000000 0.500000 0.000000
O O16 0.950981 0.717640 0.653137
#
# Coordination Sequence:
#
# PCOD9036023 Si02
#       8
#     1   2   2   2   2   2   2   2
#     4  12  26  44  72 106 146 190 234 306 366 426
#     4  10  24  44  71  98 142 191 234 303 361 435
#     4  11  23  41  70 100 138 186 236 292 357 427
#     4  11  24  41  73 101 142 186 238 300 362 434
#     4  12  27  45  73 108 150 191 247 301 368 440
#     4  11  25  44  68 104 146 185 240 296 365 437
#     4  11  22  43  69 104 139 190 236 297 370 430
#     4  10  22  47  69  98 143 191 240 296 362 437
#
# _framework density 26.218048
#
# number of rings (size 3 to 8) (size 9 to 14) (size 15 to 20)
#    0.000    1.067    4.000    3.200    5.600    0.533 
#    0.000    4.000    0.000    0.000    0.000    0.000 
#    0.000    0.000    0.000    0.000    0.000    0.000 
#
# Total GULP energy -83701.343946 kJ/mol
# GULP energy per Si atom -5580.089596 kJ/mol
# Density = 2.615837 g / cm^3
# Si number density = 26.218048 Si / 1000 Ang^3
#
#
#
# Elastic Constant Matrix: (Units=GPa)
#
#
# Indices 1 2 3 4 5 6 
#
# 1 98.7836 19.6741 19.5259 -4.2339 -36.6302 20.2741
# 2 19.6741 104.8957 45.3431 13.5319 -15.7348 6.0272
# 3 19.5259 45.3431 83.4041 3.0733 -36.5425 6.0714
# 4 -4.2339 13.5319 3.0733 29.8543 -3.4209 4.5133
# 5 -36.6302 -15.7348 -36.5425 -3.4209 67.5052 -14.2480
# 6 20.2741 6.0272 6.0714 4.5133 -14.2480 39.2734
#
#
#
# Elastic Compliance Matrix: (Units=1/GPa)
#
#
# Indices 1 2 3 4 5 6 
#
# 1 0.014197 -0.002463 0.001272 0.004575 0.006964 -0.005147
# 2 -0.002463 0.013776 -0.007866 -0.006106 -0.002670 0.000106
# 3 0.001272 -0.007866 0.020245 0.002703 0.010118 0.000781
# 4 0.004575 -0.006106 0.002703 0.037771 0.003391 -0.004953
# 5 0.006964 -0.002670 0.010118 0.003391 0.024403 0.003714
# 6 -0.005147 0.000106 0.000781 -0.004953 0.003714 0.029899
#
#
# Mechanical properties :
#
#
# Convention : Reuss Voigt Hill
#
# Bulk Modulus (GPa) = 33.21585 50.68551 41.95068
# Shear Modulus (GPa) = 29.68449 40.82927 35.25688
#
# Velocity S-wave (km/s) = 3.36849 3.95054 3.67107
# Velocity P-wave (km/s) = 5.27499 6.33903 5.83133
#
# Compressibility (1/GPa) = 0.03010611
#
# Stress axis : x y z
#
# Youngs Moduli (GPa) = 70.43865 72.58860 49.39570
#
# Poissons Ratio (x) = 0.17875 -0.06285
# Poissons Ratio (y) = 0.17346 0.38853
# Poissons Ratio (z) = -0.08962 0.57095
#
# Static dielectric constant tensor:
#      x y z
#    x 2.339960 0.006260 -0.122310 
#    y 0.006260 2.068770 -0.014270 
#    z -0.122310 -0.014270 1.844780 
# 
# From -- ./inp_files/380010.got.cif
#   From: 2010.05.17/outbox.cif.g08.bks.cpg/sg2_191_cif.got.tgz:380010.got - 2010.06.03 11:33:40.
