data_PCOD9036830
_publ_section_title
;
Structure prediction by ZEFSAII (Michael W. Deem and Ramdas Pophale) SiO2 
 PCOD9036830
Probable space group: P -1
;
_chemical_formula_sum "Si O2"
_cell_formula_units_Z 16
_cell_length_a 7.253130
_cell_length_b 21.042013
_cell_length_c 8.303145
_cell_angle_alpha 35.963500
_cell_angle_beta 124.686498
_cell_angle_gamma 120.644884
_cell_volume 608.772336
_symmetry_space_group_name_H-M "P -1"
_symmetry_group_IT_number 2
_symmetry_cell_setting 'triclinic'
loop_
_space_group_symop_operation_xyz
x,y,z
-x,-y,-z
loop_
_atom_site_type_symbol
_atom_site_label
_atom_site_fract_x
_atom_site_fract_y
_atom_site_fract_z
Si Si1 0.206378 0.030592 0.373981
Si Si2 0.981618 0.815136 0.804897
Si Si3 0.418073 0.561194 0.594589
Si Si4 0.275929 0.246267 0.480317
Si Si5 0.475830 0.356583 0.875837
Si Si6 0.929441 0.347835 0.601003
Si Si7 0.614769 0.974396 0.877360
Si Si8 0.199273 0.785171 0.507019
O O1 0.072293 0.124122 0.182806
O O2 0.313783 0.059788 0.196824
O O3 0.370920 0.010833 0.645176
O O4 0.073551 0.912117 0.534612
O O5 0.777498 0.750634 0.741427
O O6 0.142329 0.730222 0.121093
O O7 0.577326 0.650371 0.588688
O O8 0.522343 0.448081 0.848887
O O9 0.410511 0.602319 0.320620
O O10 0.188220 0.547242 0.615631
O O11 0.036177 0.239107 0.467096
O O12 0.378865 0.131572 0.795654
O O13 0.202647 0.352843 0.719217
O O14 0.596578 0.250939 0.206388
O O15 0.825628 0.289109 0.511635
O O16 0.762048 0.085054 0.775885
#
# Coordination Sequence:
#
# PCOD9036830 Si02
#       8
#     2   2   2   2   2   2   2   2
#     4  10  23  39  63  93 145 197 232 293 346 421
#     4  11  24  41  63 103 144 190 240 291 351 431
#     4  11  27  50  78 106 143 190 242 304 358 433
#     4  12  25  44  70 108 149 192 240 296 362 428
#     4  11  27  54  75 106 144 189 244 300 367 423
#     4  12  26  48  75 109 145 187 243 301 363 426
#     4  11  24  41  67 102 142 194 237 287 360 428
#     4  12  26  45  75 107 145 193 236 297 363 428
#
# _framework density 26.282402000000001
#
# number of rings (size 3 to 8) (size 9 to 14) (size 15 to 20)
#    0.000    0.750    2.500    3.750   10.500    1.500 
#    2.250    0.000    0.000    0.000    0.000    0.000 
#    0.000    0.000    0.000    0.000    0.000    0.000 
#
# Total GULP energy -89592.270147 kJ/mol
# GULP energy per Si atom -5599.516884 kJ/mol
# Density = 2.622258 g / cm^3
# Si number density = 26.282402 Si / 1000 Ang^3
#
#
#
# Elastic Constant Matrix: (Units=GPa)
#
#
# Indices 1 2 3 4 5 6 
#
# 1 98.0838 18.5602 2.7448 -1.2615 16.0830 -4.4752
# 2 18.5602 130.3301 20.2423 11.2880 0.0229 6.7332
# 3 2.7448 20.2423 86.4342 3.3214 1.8052 -5.3096
# 4 -1.2615 11.2880 3.3214 36.6383 -0.1029 0.9484
# 5 16.0830 0.0229 1.8052 -0.1029 29.6571 2.5739
# 6 -4.4752 6.7332 -5.3096 0.9484 2.5739 44.8790
#
#
#
# Elastic Compliance Matrix: (Units=1/GPa)
#
#
# Indices 1 2 3 4 5 6 
#
# 1 0.011708 -0.001883 0.000284 0.000891 -0.006522 0.001839
# 2 -0.001883 0.008552 -0.001981 -0.002472 0.001276 -0.001726
# 3 0.000284 -0.001981 0.012180 -0.000535 -0.001055 0.001838
# 4 0.000891 -0.002472 -0.000535 0.028138 -0.000336 -0.000179
# 5 -0.006522 0.001276 -0.001055 -0.000336 0.037588 -0.003115
# 6 0.001839 -0.001726 0.001838 -0.000179 -0.003115 0.023124
#
#
# Mechanical properties :
#
#
# Convention : Reuss Voigt Hill
#
# Bulk Modulus (GPa) = 39.55481 44.21587 41.88534
# Shear Modulus (GPa) = 36.52944 40.45493 38.49219
#
# Velocity S-wave (km/s) = 3.73216 3.92757 3.83111
# Velocity P-wave (km/s) = 5.80126 6.11781 5.96164
#
# Compressibility (1/GPa) = 0.02528137
#
# Stress axis : x y z
#
# Youngs Moduli (GPa) = 85.40881 116.93778 82.10287
#
# Poissons Ratio (x) = 0.22014 -0.02331
# Poissons Ratio (y) = 0.16079 0.16262
# Poissons Ratio (z) = -0.02425 0.23161
#
# Static dielectric constant tensor:
#      x y z
#    x 2.107770 0.089930 0.010550 
#    y 0.089930 2.024160 -0.010980 
#    z 0.010550 -0.010980 2.025690 
# 
# From -- ./inp_files/223078.got.cif
#   From: 2010.05.17/outbox.cif.g08.bks.cpg/sg2_112_cif.got.tgz:223078.got - 2010.06.03 11:33:40.
