data_PCOD9036196
_publ_section_title
;
Structure prediction by ZEFSAII (Michael W. Deem and Ramdas Pophale) SiO2 
 PCOD9036196
Probable space group: P -1
;
_chemical_formula_sum "Si O2"
_cell_formula_units_Z 14
_cell_length_a 9.627895
_cell_length_b 5.256811
_cell_length_c 24.021696
_cell_angle_alpha 127.195853
_cell_angle_beta 142.313982
_cell_angle_gamma 49.396827
_cell_volume 553.711679
_symmetry_space_group_name_H-M "P -1"
_symmetry_group_IT_number 2
_symmetry_cell_setting 'triclinic'
loop_
_space_group_symop_operation_xyz
x,y,z
-x,-y,-z
loop_
_atom_site_type_symbol
_atom_site_label
_atom_site_fract_x
_atom_site_fract_y
_atom_site_fract_z
Si Si1 0.090301 0.484067 0.463003
Si Si2 0.227585 0.522088 0.797575
Si Si3 0.598355 0.037792 0.371544
Si Si4 0.536963 0.787736 0.849589
Si Si5 0.757290 0.192704 0.046528
Si Si6 0.224527 0.067244 0.347701
Si Si7 0.205176 0.403681 0.205642
O O1 0.288156 0.666279 0.546156
O O2 0.198447 0.146929 0.415321
O O3 0.000000 0.500000 0.500000
O O4 0.831814 0.717237 0.385650
O O5 0.401162 0.593688 0.816773
O O6 0.198921 0.811271 0.874249
O O7 0.962695 0.600571 0.698497
O O8 0.352314 0.148172 0.814066
O O9 0.478047 0.989915 0.385517
O O10 0.398204 0.142827 0.273715
O O11 0.668404 0.578302 0.810025
O O12 0.721704 0.881693 0.961776
O O13 0.978536 0.289929 0.106116
O O14 0.500000 0.500000 0.000000
O O15 0.136647 0.757715 0.263410
#
# Coordination Sequence:
#
# PCOD9036196 Si02
#       7
#     2   2   2   2   2   2   2
#     4  11  27  50  76 105 147 191 244 317 383 456
#     4  11  24  46  75 108 152 202 253 314 378 440
#     4  11  26  48  73 107 148 189 253 302 388 454
#     4  11  26  44  75 108 156 203 257 314 373 441
#     4  10  22  48  69 108 150 203 252 309 374 441
#     4  12  26  45  75 108 150 195 248 312 380 457
#     4  12  26  45  72 112 148 197 256 310 373 454
#
# _framework density 25.283913999999999
#
# number of rings (size 3 to 8) (size 9 to 14) (size 15 to 20)
#    0.000    0.857    1.429    4.714    6.000    5.714 
#    0.000    4.286    0.000    0.000    0.000    0.000 
#    0.000    0.000    0.000    0.000    0.000    0.000 
#
# Total GULP energy -78463.431447 kJ/mol
# GULP energy per Si atom -5604.530818 kJ/mol
# Density = 2.522637 g / cm^3
# Si number density = 25.283914 Si / 1000 Ang^3
#
#
#
# Elastic Constant Matrix: (Units=GPa)
#
#
# Indices 1 2 3 4 5 6 
#
# 1 160.8955 24.3220 26.0563 15.0241 -2.6526 -16.5362
# 2 24.3220 61.3500 7.1582 8.2383 -8.2893 -16.6873
# 3 26.0563 7.1582 57.6829 -0.9775 2.1604 -17.2528
# 4 15.0241 8.2383 -0.9775 46.9366 -10.9511 -10.8917
# 5 -2.6526 -8.2893 2.1604 -10.9511 53.8835 8.3173
# 6 -16.5362 -16.6873 -17.2528 -10.8917 8.3173 39.7563
#
#
#
# Elastic Compliance Matrix: (Units=1/GPa)
#
#
# Indices 1 2 3 4 5 6 
#
# 1 0.007237 -0.002214 -0.002914 -0.001985 -0.000323 0.000340
# 2 -0.002214 0.019300 0.000600 -0.000682 0.001630 0.006912
# 3 -0.002914 0.000600 0.021575 0.003096 -0.001772 0.009621
# 4 -0.001985 -0.000682 0.003096 0.024412 0.003686 0.006148
# 5 -0.000323 0.001630 -0.001772 0.003686 0.020142 -0.003423
# 6 0.000340 0.006912 0.009621 0.006148 -0.003423 0.034772
#
#
# Mechanical properties :
#
#
# Convention : Reuss Voigt Hill
#
# Bulk Modulus (GPa) = 25.60482 43.88906 34.74694
# Shear Modulus (GPa) = 33.44249 42.94140 38.19195
#
# Velocity S-wave (km/s) = 3.64081 4.12560 3.89076
# Velocity P-wave (km/s) = 5.27474 6.33169 5.82723
#
# Compressibility (1/GPa) = 0.03905514
#
# Stress axis : x y z
#
# Youngs Moduli (GPa) = 138.18366 51.81464 46.35091
#
# Poissons Ratio (x) = 0.11470 0.13507
# Poissons Ratio (y) = 0.30588 -0.02780
# Poissons Ratio (z) = 0.40268 -0.03108
#
# Static dielectric constant tensor:
#      x y z
#    x 1.963620 0.008930 -0.038260 
#    y 0.008930 2.066380 -0.065600 
#    z -0.038260 -0.065600 2.020320 
# 
# From -- ./inp_files/605914.got.cif
#   From: 2010.05.17/outbox.cif.g08.bks.cpg/sg2_303_cif.got.tgz:605914.got - 2010.06.03 11:33:40.
