data_PCOD9036022
_publ_section_title
;
Structure prediction by ZEFSAII (Michael W. Deem and Ramdas Pophale) SiO2 
 PCOD9036022
Probable space group: P -1
;
_chemical_formula_sum "Si O2"
_cell_formula_units_Z 14
_cell_length_a 11.254773
_cell_length_b 11.910348
_cell_length_c 9.153545
_cell_angle_alpha 96.332338
_cell_angle_beta 41.429422
_cell_angle_gamma 121.182482
_cell_volume 605.146081
_symmetry_space_group_name_H-M "P -1"
_symmetry_group_IT_number 2
_symmetry_cell_setting 'triclinic'
loop_
_space_group_symop_operation_xyz
x,y,z
-x,-y,-z
loop_
_atom_site_type_symbol
_atom_site_label
_atom_site_fract_x
_atom_site_fract_y
_atom_site_fract_z
Si Si1 0.806926 0.896763 0.538533
Si Si2 0.643154 0.673452 0.874093
Si Si3 0.714423 0.834514 0.306890
Si Si4 0.878785 0.143109 0.133440
Si Si5 0.186062 0.863770 0.481909
Si Si6 0.209632 0.660269 0.904687
Si Si7 0.773797 0.342643 0.758797
O O1 0.688959 0.731018 0.672993
O O2 0.886962 0.917086 0.303114
O O3 0.673797 0.962676 0.663142
O O4 0.000000 0.000000 0.500000
O O5 0.901410 0.770413 0.720266
O O6 0.500000 0.500000 0.000000
O O7 0.466583 0.699439 0.088727
O O8 0.453529 0.721522 0.605377
O O9 0.740473 0.965353 0.220664
O O10 0.839966 0.779788 0.107128
O O11 0.784420 0.151147 0.377590
O O12 0.835849 0.225652 0.071305
O O13 0.231489 0.786048 0.313543
O O14 0.211370 0.641792 0.076307
O O15 0.000000 0.500000 0.000000
O O16 0.000000 0.500000 0.500000
#
# Coordination Sequence:
#
# PCOD9036022 Si02
#       7
#     2   2   2   2   2   2   2
#     4   9  20  39  66 100 127 166 224 271 335 394
#     4  11  22  40  67  90 133 175 218 276 331 386
#     4  10  22  47  69  98 139 176 229 281 338 405
#     4  10  24  44  73  99 136 180 223 282 345 406
#     4  10  23  43  66 100 134 168 225 279 334 406
#     4  12  27  43  69 100 140 182 228 277 342 418
#     4  12  25  42  67  98 137 177 225 283 333 396
#
# _framework density 23.134910000000001
#
# number of rings (size 3 to 8) (size 9 to 14) (size 15 to 20)
#    0.000    1.429    2.857    1.286    4.000    3.429 
#    0.000    0.000    0.000    0.000    0.000    0.000 
#    0.000    0.000    0.000    0.000    0.000    0.000 
#
# Total GULP energy -78045.365289 kJ/mol
# GULP energy per Si atom -5574.668949 kJ/mol
# Density = 2.308225 g / cm^3
# Si number density = 23.134910 Si / 1000 Ang^3
#
#
#
# Elastic Constant Matrix: (Units=GPa)
#
#
# Indices 1 2 3 4 5 6 
#
# 1 97.5518 38.3187 49.5080 -1.2709 -8.2307 -18.5550
# 2 38.3187 83.1963 45.2979 -9.5017 24.0837 -11.1845
# 3 49.5080 45.2979 142.9675 0.4637 -10.2121 -3.9191
# 4 -1.2709 -9.5017 0.4637 42.3135 -3.8608 7.0462
# 5 -8.2307 24.0837 -10.2121 -3.8608 37.1027 -7.3028
# 6 -18.5550 -11.1845 -3.9191 7.0462 -7.3028 31.8308
#
#
#
# Elastic Compliance Matrix: (Units=1/GPa)
#
#
# Indices 1 2 3 4 5 6 
#
# 1 0.017666 -0.008995 -0.002216 -0.002110 0.010862 0.009824
# 2 -0.008995 0.025915 -0.006663 0.004169 -0.020736 -0.002638
# 3 -0.002216 -0.006663 0.010318 -0.000977 0.006440 -0.000669
# 4 -0.002110 0.004169 -0.000977 0.025326 -0.001978 -0.005945
# 5 0.010862 -0.020736 0.006440 -0.001978 0.046545 0.010955
# 6 0.009824 -0.002638 -0.000669 -0.005945 0.010955 0.039963
#
#
# Mechanical properties :
#
#
# Convention : Reuss Voigt Hill
#
# Bulk Modulus (GPa) = 55.09194 65.55165 60.32179
# Shear Modulus (GPa) = 24.09287 34.95547 29.52417
#
# Velocity S-wave (km/s) = 3.23059 3.89130 3.57623
# Velocity P-wave (km/s) = 6.14659 6.97034 6.57139
#
# Compressibility (1/GPa) = 0.01815148
#
# Stress axis : x y z
#
# Youngs Moduli (GPa) = 56.60538 38.58800 96.91974
#
# Poissons Ratio (x) = 0.34710 0.21474
# Poissons Ratio (y) = 0.50917 0.64578
# Poissons Ratio (z) = 0.12542 0.25711
#
# Static dielectric constant tensor:
#      x y z
#    x 1.926550 0.018900 -0.052000 
#    y 0.018900 1.987700 0.019410 
#    z -0.052000 0.019410 1.985200 
# 
# From -- ./inp_files/258433.got.cif
#   From: 2010.05.17/outbox.cif.g08.bks.cpg/sg2_130_cif.got.tgz:258433.got - 2010.06.03 11:33:40.
