data_PCOD9036696
_publ_section_title
;
Structure prediction by ZEFSAII (Michael W. Deem and Ramdas Pophale) SiO2 
 PCOD9036696
Probable space group: P -1
;
_chemical_formula_sum "Si O2"
_cell_formula_units_Z 16
_cell_length_a 7.920984
_cell_length_b 9.117397
_cell_length_c 15.025985
_cell_angle_alpha 111.189932
_cell_angle_beta 139.848794
_cell_angle_gamma 85.084964
_cell_volume 618.753219
_symmetry_space_group_name_H-M "P -1"
_symmetry_group_IT_number 2
_symmetry_cell_setting 'triclinic'
loop_
_space_group_symop_operation_xyz
x,y,z
-x,-y,-z
loop_
_atom_site_type_symbol
_atom_site_label
_atom_site_fract_x
_atom_site_fract_y
_atom_site_fract_z
Si Si1 0.308085 0.347289 0.622902
Si Si2 0.094790 0.527491 0.713588
Si Si3 0.566624 0.848857 0.945775
Si Si4 0.721962 0.271597 0.906483
Si Si5 0.796673 0.982807 0.596749
Si Si6 0.127421 0.031157 0.171781
Si Si7 0.266462 0.401668 0.266198
Si Si8 0.723075 0.706202 0.142651
O O1 0.084295 0.400548 0.601425
O O2 0.562728 0.356769 0.794255
O O3 0.205061 0.163991 0.501791
O O4 0.453176 0.473308 0.630889
O O5 0.263808 0.463300 0.845832
O O6 0.838767 0.540477 0.671196
O O7 0.275946 0.704545 0.783187
O O8 0.715916 0.740527 0.042397
O O9 0.805713 0.945647 0.994197
O O10 0.500000 0.000000 0.000000
O O11 0.521134 0.235187 0.902591
O O12 0.730873 0.105090 0.825796
O O13 0.019220 0.377216 0.088028
O O14 0.894880 0.950214 0.726775
O O15 0.500000 0.000000 0.500000
O O16 0.994644 0.158145 0.681359
O O17 0.275147 0.216932 0.241739
#
# Coordination Sequence:
#
# PCOD9036696 Si02
#       8
#     2   2   2   2   2   2   2   2
#     4  11  26  42  67  99 135 180 228 272 324 397
#     4  11  23  40  66 101 132 173 215 274 337 398
#     4  11  20  39  63  96 136 167 212 271 339 399
#     4  11  22  41  67 104 128 172 221 276 344 399
#     4  11  23  48  67  94 132 180 234 270 321 397
#     4  11  24  41  70  95 132 182 218 275 338 394
#     4  12  24  43  67 101 140 168 219 281 342 398
#     4  10  23  38  68  94 130 168 221 274 326 392
#
# _framework density 25.858450999999999
#
# number of rings (size 3 to 8) (size 9 to 14) (size 15 to 20)
#    0.000    1.000    3.750    2.625    3.500    3.500 
#    2.250    0.625    0.000    0.000    0.000    0.000 
#    0.000    0.000    0.000    0.000    0.000    0.000 
#
# Total GULP energy -89507.576811 kJ/mol
# GULP energy per Si atom -5594.223551 kJ/mol
# Density = 2.579960 g / cm^3
# Si number density = 25.858451 Si / 1000 Ang^3
#
#
#
# Elastic Constant Matrix: (Units=GPa)
#
#
# Indices 1 2 3 4 5 6 
#
# 1 103.3478 33.5488 17.9443 22.3028 -13.6213 -38.8758
# 2 33.5488 97.8275 13.1419 15.2914 -4.3160 -9.2908
# 3 17.9443 13.1419 45.4761 3.3674 -18.7332 -9.0415
# 4 22.3028 15.2914 3.3674 41.5364 0.2734 -8.1810
# 5 -13.6213 -4.3160 -18.7332 0.2734 45.6412 12.0125
# 6 -38.8758 -9.2908 -9.0415 -8.1810 12.0125 52.8954
#
#
#
# Elastic Compliance Matrix: (Units=1/GPa)
#
#
# Indices 1 2 3 4 5 6 
#
# 1 0.016205 -0.003392 -0.002719 -0.005300 0.000842 0.009838
# 2 -0.003392 0.011985 -0.002374 -0.002606 -0.000556 -0.001070
# 3 -0.002719 -0.002374 0.028068 -0.000011 0.010485 0.000000
# 4 -0.005300 -0.002606 -0.000011 0.027985 -0.002120 0.000455
# 5 0.000842 -0.000556 0.010485 -0.002120 0.027549 -0.004271
# 6 0.009838 -0.001070 0.000000 0.000455 -0.004271 0.026988
#
#
# Mechanical properties :
#
#
# Convention : Reuss Voigt Hill
#
# Bulk Modulus (GPa) = 25.45261 41.76906 33.61084
# Shear Modulus (GPa) = 29.61279 40.14903 34.88091
#
# Velocity S-wave (km/s) = 3.38773 3.94464 3.67675
# Velocity P-wave (km/s) = 5.01665 6.07741 5.57233
#
# Compressibility (1/GPa) = 0.03928870
#
# Stress axis : x y z
#
# Youngs Moduli (GPa) = 61.71025 83.43494 35.62757
#
# Poissons Ratio (x) = 0.28302 0.09686
# Poissons Ratio (y) = 0.20933 0.08458
# Poissons Ratio (z) = 0.16777 0.19808
#
# Static dielectric constant tensor:
#      x y z
#    x 2.020660 0.040870 -0.018380 
#    y 0.040870 2.014150 -0.086830 
#    z -0.018380 -0.086830 2.175680 
# 
# From -- ./inp_files/238723.got.cif
#   From: 2010.05.17/outbox.cif.g08.bks.cpg/sg2_120_cif.got.tgz:238723.got - 2010.06.03 11:33:40.
