data_PCOD9036380
_publ_section_title
;
Structure prediction by ZEFSAII (Michael W. Deem and Ramdas Pophale) SiO2 
 PCOD9036380
Probable space group: P -1
;
_chemical_formula_sum "Si O2"
_cell_formula_units_Z 14
_cell_length_a 10.091585
_cell_length_b 11.529920
_cell_length_c 9.785224
_cell_angle_alpha 69.632246
_cell_angle_beta 138.194483
_cell_angle_gamma 123.389501
_cell_volume 629.734386
_symmetry_space_group_name_H-M "P -1"
_symmetry_group_IT_number 2
_symmetry_cell_setting 'triclinic'
loop_
_space_group_symop_operation_xyz
x,y,z
-x,-y,-z
loop_
_atom_site_type_symbol
_atom_site_label
_atom_site_fract_x
_atom_site_fract_y
_atom_site_fract_z
Si Si1 0.154585 0.527246 0.473055
Si Si2 0.332680 0.992207 0.199195
Si Si3 0.646173 0.765771 0.702998
Si Si4 0.260192 0.031107 0.541864
Si Si5 0.022661 0.312124 0.875552
Si Si6 0.733801 0.904577 0.176289
Si Si7 0.678039 0.631906 0.170995
O O1 0.392117 0.667529 0.594744
O O2 0.236717 0.410532 0.608134
O O3 0.000000 0.500000 0.500000
O O4 0.024172 0.555145 0.235769
O O5 0.196787 0.831298 0.202734
O O6 0.270293 0.094521 0.197408
O O7 0.595580 0.034615 0.391648
O O8 0.277138 0.006406 0.994468
O O9 0.677657 0.825164 0.550174
O O10 0.791177 0.685087 0.877399
O O11 0.993793 0.937507 0.373726
O O12 0.331182 0.060946 0.741835
O O13 0.118658 0.297637 0.808617
O O14 0.590801 0.742222 0.093432
O O15 0.500000 0.500000 0.000000
#
# Coordination Sequence:
#
# PCOD9036380 Si02
#       7
#     2   2   2   2   2   2   2
#     4  10  23  35  58  92 122 155 204 263 302 357
#     4  12  22  37  67  93 122 160 212 264 305 366
#     4  12  21  38  63  95 123 159 209 261 308 361
#     4  11  25  39  63  95 130 164 199 257 326 369
#     4  11  21  36  62  91 123 153 209 267 303 355
#     4  11  24  43  61  93 131 165 201 255 319 376
#     4  11  21  41  64  91 124 165 212 255 303 367
#
# _framework density 22.231594000000001
#
# number of rings (size 3 to 8) (size 9 to 14) (size 15 to 20)
#    0.000    0.857    5.714    2.143    4.000    0.000 
#    0.000    0.714    0.000    1.714    0.000    0.000 
#    0.000    0.000    0.000    0.000    0.000    0.000 
#
# Total GULP energy -78142.734417 kJ/mol
# GULP energy per Si atom -5581.623887 kJ/mol
# Density = 2.218099 g / cm^3
# Si number density = 22.231594 Si / 1000 Ang^3
#
#
#
# Elastic Constant Matrix: (Units=GPa)
#
#
# Indices 1 2 3 4 5 6 
#
# 1 50.5828 21.6921 14.1183 5.7413 -1.7165 16.2042
# 2 21.6921 69.4169 19.3178 -17.0117 -10.8627 17.7725
# 3 14.1183 19.3178 98.2674 -29.0890 -8.5342 3.8923
# 4 5.7413 -17.0117 -29.0890 43.2524 13.3501 1.7515
# 5 -1.7165 -10.8627 -8.5342 13.3501 39.8367 -9.0744
# 6 16.2042 17.7725 3.8923 1.7515 -9.0744 21.4414
#
#
#
# Elastic Compliance Matrix: (Units=1/GPa)
#
#
# Indices 1 2 3 4 5 6 
#
# 1 0.030198 -0.006019 -0.005166 -0.008349 -0.002592 -0.017310
# 2 -0.006019 0.022747 0.000120 0.010851 -0.001254 -0.015745
# 3 -0.005166 0.000120 0.013865 0.010237 -0.000606 0.000196
# 4 -0.008349 0.010851 0.010237 0.039360 -0.011250 -0.012519
# 5 -0.002592 -0.001254 -0.000606 -0.011250 0.032323 0.017707
# 6 -0.017310 -0.015745 0.000196 -0.012519 0.017707 0.081252
#
#
# Mechanical properties :
#
#
# Convention : Reuss Voigt Hill
#
# Bulk Modulus (GPa) = 22.38173 36.50262 29.44218
# Shear Modulus (GPa) = 19.47281 31.78202 25.62741
#
# Velocity S-wave (km/s) = 2.96278 3.78509 3.39890
# Velocity P-wave (km/s) = 4.66835 5.96301 5.35495
#
# Compressibility (1/GPa) = 0.04467930
#
# Stress axis : x y z
#
# Youngs Moduli (GPa) = 33.11532 43.96135 72.12444
#
# Poissons Ratio (x) = 0.26458 0.37262
# Poissons Ratio (y) = 0.19931 -0.00864
# Poissons Ratio (z) = 0.17109 -0.00527
#
# Static dielectric constant tensor:
#      x y z
#    x 1.801350 0.001640 0.050940 
#    y 0.001640 1.821000 -0.021510 
#    z 0.050940 -0.021510 1.892090 
# 
# From -- ./inp_files/186217.got.cif
#   From: 2010.05.17/outbox.cif.g08.bks.cpg/sg2_94_cif.got.tgz:186217.got - 2010.06.03 11:33:40.
