data_PCOD9036767
_publ_section_title
;
Structure prediction by ZEFSAII (Michael W. Deem and Ramdas Pophale) SiO2 
 PCOD9036767
Probable space group: P -1
;
_chemical_formula_sum "Si O2"
_cell_formula_units_Z 14
_cell_length_a 7.572719
_cell_length_b 18.044668
_cell_length_c 21.447361
_cell_angle_alpha 159.008590
_cell_angle_beta 149.815890
_cell_angle_gamma 39.203985
_cell_volume 519.376652
_symmetry_space_group_name_H-M "P -1"
_symmetry_group_IT_number 2
_symmetry_cell_setting 'triclinic'
loop_
_space_group_symop_operation_xyz
x,y,z
-x,-y,-z
loop_
_atom_site_type_symbol
_atom_site_label
_atom_site_fract_x
_atom_site_fract_y
_atom_site_fract_z
Si Si1 0.355234 0.358422 0.996262
Si Si2 0.370425 0.260119 0.789373
Si Si3 0.086110 0.246924 0.127103
Si Si4 0.619123 0.582383 0.520191
Si Si5 0.187847 0.799690 0.778507
Si Si6 0.752756 0.823079 0.444997
Si Si7 0.882339 0.828319 0.096675
O O1 0.533208 0.603464 0.231874
O O2 0.674432 0.228228 0.000114
O O3 0.196732 0.262228 0.806125
O O4 0.140501 0.320765 0.965710
O O5 0.126107 0.184183 0.595735
O O6 0.753671 0.178303 0.837262
O O7 0.500000 0.500000 0.000000
O O8 0.210438 0.469536 0.304083
O O9 0.277357 0.289545 0.285371
O O10 0.195955 0.047719 0.970248
O O11 0.791978 0.367805 0.401555
O O12 0.800840 0.718999 0.627147
O O13 0.502296 0.770103 0.900225
O O14 0.500000 0.000000 0.500000
O O15 0.058645 0.934854 0.672214
#
# Coordination Sequence:
#
# PCOD9036767 Si02
#       7
#     2   2   2   2   2   2   2
#     4  11  23  41  67  95 126 169 220 257 328 393
#     4   9  21  43  64  91 124 159 211 272 325 383
#     4  11  23  40  64  94 133 176 210 267 317 385
#     4  10  23  39  61  88 134 178 211 265 314 371
#     4  11  23  41  61  95 136 170 219 261 318 385
#     4   9  22  42  63  90 124 160 209 275 326 377
#     4  11  23  40  67  94 126 173 209 267 324 387
#
# _framework density 26.955389
#
# number of rings (size 3 to 8) (size 9 to 14) (size 15 to 20)
#    0.000    1.714    1.429    1.714    4.000    5.714 
#    2.571    4.286    0.000    0.000    0.000    0.000 
#    0.000    0.000    0.000    0.000    0.000    0.000 
#
# Total GULP energy -78210.284966 kJ/mol
# GULP energy per Si atom -5586.448926 kJ/mol
# Density = 2.689404 g / cm^3
# Si number density = 26.955389 Si / 1000 Ang^3
#
#
#
# Elastic Constant Matrix: (Units=GPa)
#
#
# Indices 1 2 3 4 5 6 
#
# 1 123.1186 26.3172 18.4567 8.3858 -5.7502 12.4516
# 2 26.3172 102.5149 21.4205 6.0823 -10.7494 -14.1740
# 3 18.4567 21.4205 92.9504 25.7989 -14.1550 6.8531
# 4 8.3858 6.0823 25.7989 37.0698 2.0411 11.4386
# 5 -5.7502 -10.7494 -14.1550 2.0411 44.6095 9.8022
# 6 12.4516 -14.1740 6.8531 11.4386 9.8022 42.1664
#
#
#
# Elastic Compliance Matrix: (Units=1/GPa)
#
#
# Indices 1 2 3 4 5 6 
#
# 1 0.009227 -0.002601 -0.000776 -0.000033 0.001137 -0.003728
# 2 -0.002601 0.011754 -0.002019 -0.001615 0.000764 0.005308
# 3 -0.000776 -0.002019 0.014924 -0.009725 0.004896 -0.001375
# 4 -0.000033 -0.001615 -0.009725 0.036710 -0.003373 -0.008127
# 5 0.001137 0.000764 0.004896 -0.003373 0.025763 -0.005949
# 6 -0.003728 0.005308 -0.001375 -0.008127 -0.005949 0.030412
#
#
# Mechanical properties :
#
#
# Convention : Reuss Voigt Hill
#
# Bulk Modulus (GPa) = 39.81862 50.10807 44.96334
# Shear Modulus (GPa) = 33.79492 41.59511 37.69501
#
# Velocity S-wave (km/s) = 3.54465 3.93250 3.74361
# Velocity P-wave (km/s) = 5.61755 6.26491 5.95004
#
# Compressibility (1/GPa) = 0.02511388
#
# Stress axis : x y z
#
# Youngs Moduli (GPa) = 108.37877 85.07714 67.00659
#
# Poissons Ratio (x) = 0.22128 0.05196
# Poissons Ratio (y) = 0.28189 0.13529
# Poissons Ratio (z) = 0.08405 0.17177
#
# Static dielectric constant tensor:
#      x y z
#    x 2.256340 -0.046880 0.027080 
#    y -0.046880 2.125460 -0.042410 
#    z 0.027080 -0.042410 2.150060 
# 
# From -- ./inp_files/608678.got.cif
#   From: 2010.05.17/outbox.cif.g08.bks.cpg/sg2_305_cif.got.tgz:608678.got - 2010.06.03 11:33:40.
