data_PCOD9036224
_publ_section_title
;
Structure prediction by ZEFSAII (Michael W. Deem and Ramdas Pophale) SiO2 
 PCOD9036224
Probable space group: P -1
;
_chemical_formula_sum "Si O2"
_cell_formula_units_Z 10
_cell_length_a 15.497148
_cell_length_b 7.905666
_cell_length_c 5.369712
_cell_angle_alpha 58.764580
_cell_angle_beta 126.537589
_cell_angle_gamma 127.129721
_cell_volume 408.199740
_symmetry_space_group_name_H-M "P -1"
_symmetry_group_IT_number 2
_symmetry_cell_setting 'triclinic'
loop_
_space_group_symop_operation_xyz
x,y,z
-x,-y,-z
loop_
_atom_site_type_symbol
_atom_site_label
_atom_site_fract_x
_atom_site_fract_y
_atom_site_fract_z
Si Si1 0.970595 0.095398 0.629274
Si Si2 0.744895 0.993347 0.583977
Si Si3 0.694382 0.610436 0.178329
Si Si4 0.523780 0.697193 0.199890
Si Si5 0.114164 0.527067 0.332444
O O1 0.051813 0.355267 0.578413
O O2 0.831256 0.033752 0.462620
O O3 0.000000 0.000000 0.500000
O O4 0.000000 0.000000 0.000000
O O5 0.608598 0.917093 0.321899
O O6 0.808805 0.221779 0.661696
O O7 0.744249 0.796371 0.907902
O O8 0.609991 0.678052 0.150558
O O9 0.793211 0.566325 0.533966
O O10 0.606022 0.376277 0.083175
O O11 0.500000 0.500000 0.500000
O O12 0.000000 0.500000 0.000000
#
# Coordination Sequence:
#
# PCOD9036224 Si02
#       5
#     2   2   2   2   2
#     4  12  25  47  74 102 151 205 243 304 371 442
#     4  11  24  43  71 105 143 188 248 304 366 438
#     4  10  22  48  72 101 144 189 243 305 370 436
#     4   9  21  44  75  99 135 192 244 303 371 434
#     4  12  27  44  72 111 149 194 245 301 372 445
#
# _framework density 24.497810000000001
#
# number of rings (size 3 to 8) (size 9 to 14) (size 15 to 20)
#    0.000    1.200    2.000    3.000    2.800    0.800 
#    7.200    9.000    0.000    0.000    0.000    0.000 
#    0.000    0.000    0.000    0.000    0.000    0.000 
#
# Total GULP energy -55868.193214 kJ/mol
# GULP energy per Si atom -5586.819321 kJ/mol
# Density = 2.444205 g / cm^3
# Si number density = 24.497810 Si / 1000 Ang^3
#
#
#
# Elastic Constant Matrix: (Units=GPa)
#
#
# Indices 1 2 3 4 5 6 
#
# 1 69.6838 26.1367 18.8792 -19.7172 -11.2333 7.8487
# 2 26.1367 226.9864 45.6879 10.6565 13.3306 11.6675
# 3 18.8792 45.6879 110.2121 9.4679 15.4233 6.3156
# 4 -19.7172 10.6565 9.4679 37.4180 9.7877 1.5660
# 5 -11.2333 13.3306 15.4233 9.7877 41.0441 2.2803
# 6 7.8487 11.6675 6.3156 1.5660 2.2803 44.4864
#
#
#
# Elastic Compliance Matrix: (Units=1/GPa)
#
#
# Indices 1 2 3 4 5 6 
#
# 1 0.020771 -0.002240 -0.004187 0.011348 0.005455 -0.003162
# 2 -0.002240 0.005136 -0.001365 -0.001939 -0.001271 -0.000625
# 3 -0.004187 -0.001365 0.011243 -0.003593 -0.004061 -0.000165
# 4 0.011348 -0.001939 -0.003593 0.035080 -0.003166 -0.002056
# 5 0.005455 -0.001271 -0.004061 -0.003166 0.028629 -0.001409
# 6 -0.003162 -0.000625 -0.000165 -0.002056 -0.001409 0.023368
#
#
# Mechanical properties :
#
#
# Convention : Reuss Voigt Hill
#
# Bulk Modulus (GPa) = 46.36689 65.36553 55.86621
# Shear Modulus (GPa) = 34.01349 45.66826 39.84087
#
# Velocity S-wave (km/s) = 3.73021 4.32230 4.03712
# Velocity P-wave (km/s) = 6.12541 7.18678 6.67722
#
# Compressibility (1/GPa) = 0.02156711
#
# Stress axis : x y z
#
# Youngs Moduli (GPa) = 48.14324 194.70365 88.94426
#
# Poissons Ratio (x) = 0.43607 0.37239
# Poissons Ratio (y) = 0.10782 0.12143
# Poissons Ratio (z) = 0.20156 0.26582
#
# Static dielectric constant tensor:
#      x y z
#    x 2.081720 0.009700 0.059610 
#    y 0.009700 2.050060 0.083820 
#    z 0.059610 0.083820 1.991370 
# 
# From -- ./inp_files/74179.got.cif
#   From: 2010.05.17/outbox.cif.g08.bks.cpg/sg2_38_cif.got.tgz:74179.got - 2010.06.03 11:33:40.
