data_PCOD9036410
_publ_section_title
;
Structure prediction by ZEFSAII (Michael W. Deem and Ramdas Pophale) SiO2 
 PCOD9036410
Probable space group: P -1
;
_chemical_formula_sum "Si O2"
_cell_formula_units_Z 14
_cell_length_a 15.838556
_cell_length_b 4.921823
_cell_length_c 14.477593
_cell_angle_alpha 61.819066
_cell_angle_beta 146.690908
_cell_angle_gamma 119.727075
_cell_volume 534.235229
_symmetry_space_group_name_H-M "P -1"
_symmetry_group_IT_number 2
_symmetry_cell_setting 'triclinic'
loop_
_space_group_symop_operation_xyz
x,y,z
-x,-y,-z
loop_
_atom_site_type_symbol
_atom_site_label
_atom_site_fract_x
_atom_site_fract_y
_atom_site_fract_z
Si Si1 0.179635 0.852326 0.786287
Si Si2 0.780012 0.358149 0.966402
Si Si3 0.512440 0.369199 0.323359
Si Si4 0.981152 0.979779 0.095229
Si Si5 0.444001 0.623997 0.022084
Si Si6 0.290557 0.079629 0.481615
Si Si7 0.102480 0.852515 0.517317
O O1 0.279221 0.900695 0.966119
O O2 0.180046 0.006951 0.658929
O O3 0.254258 0.563328 0.863233
O O4 0.014019 0.921619 0.655925
O O5 0.909777 0.609097 0.101072
O O6 0.861316 0.192334 0.988250
O O7 0.648333 0.558992 0.791299
O O8 0.503768 0.495526 0.190857
O O9 0.561374 0.035152 0.410576
O O10 0.649989 0.581320 0.473627
O O11 0.146985 0.072465 0.282581
O O12 0.000000 0.000000 0.000000
O O13 0.500000 0.500000 0.000000
O O14 0.500000 0.000000 0.000000
O O15 0.223184 0.857182 0.543318
O O16 0.000000 0.500000 0.500000
#
# Coordination Sequence:
#
# PCOD9036410 Si02
#       7
#     2   2   2   2   2   2   2
#     4  10  23  36  60  92 129 180 226 266 329 394
#     4  11  24  48  70 102 140 180 224 281 347 421
#     4  11  25  43  69  99 140 185 223 286 348 399
#     4  12  26  48  77 103 132 176 229 288 355 422
#     4  11  23  38  57  88 133 185 231 266 318 396
#     4  12  25  45  68 103 139 178 237 289 338 407
#     4  11  23  36  61  94 136 181 228 280 330 384
#
# _framework density 26.205687000000001
#
# number of rings (size 3 to 8) (size 9 to 14) (size 15 to 20)
#    0.000    0.857    1.429    5.571    8.000    2.286 
#    0.000    4.286    0.000    0.000    0.000    0.000 
#    0.000    0.000    0.000    0.000    0.000    0.000 
#
# Total GULP energy -78150.224815 kJ/mol
# GULP energy per Si atom -5582.158915 kJ/mol
# Density = 2.614604 g / cm^3
# Si number density = 26.205687 Si / 1000 Ang^3
#
#
#
# Elastic Constant Matrix: (Units=GPa)
#
#
# Indices 1 2 3 4 5 6 
#
# 1 160.1323 21.4675 49.3406 -15.0223 15.6735 -44.1147
# 2 21.4675 84.7789 12.9758 -1.1946 12.1806 -34.4917
# 3 49.3406 12.9758 107.8801 1.0322 12.2794 -20.6797
# 4 -15.0223 -1.1946 1.0322 39.2277 -25.7903 8.0775
# 5 15.6735 12.1806 12.2794 -25.7903 42.7266 -10.6581
# 6 -44.1147 -34.4917 -20.6797 8.0775 -10.6581 45.4913
#
#
#
# Elastic Compliance Matrix: (Units=1/GPa)
#
#
# Indices 1 2 3 4 5 6 
#
# 1 0.009534 0.001591 -0.002934 0.002261 0.000458 0.008823
# 2 0.001591 0.018288 0.000725 -0.005718 -0.005605 0.015440
# 3 -0.002934 0.000725 0.011671 -0.005237 -0.004952 0.002780
# 4 0.002261 -0.005718 -0.005237 0.046572 0.028916 -0.006018
# 5 0.000458 -0.005605 -0.004952 0.028916 0.043460 -0.001009
# 6 0.008823 0.015440 0.002780 -0.006018 -0.001009 0.044341
#
#
# Mechanical properties :
#
#
# Convention : Reuss Voigt Hill
#
# Bulk Modulus (GPa) = 26.13940 57.81769 41.97854
# Shear Modulus (GPa) = 26.61645 43.42294 35.01969
#
# Velocity S-wave (km/s) = 3.19042 4.07505 3.65956
# Velocity P-wave (km/s) = 4.85470 6.65224 5.82325
#
# Compressibility (1/GPa) = 0.03825643
#
# Stress axis : x y z
#
# Youngs Moduli (GPa) = 104.89172 54.68019 85.68309
#
# Poissons Ratio (x) = -0.08698 0.25141
# Poissons Ratio (y) = -0.16685 -0.06214
# Poissons Ratio (z) = 0.30777 -0.03966
#
# Static dielectric constant tensor:
#      x y z
#    x 0.125310 -0.786790 -0.558860 
#    y -0.786790 1.893330 -0.253900 
#    z -0.558860 -0.253900 1.920740 
# 
# From -- ./inp_files/322805.got.cif
#   From: 2010.05.17/outbox.cif.g08.bks.cpg/sg2_162_cif.got.tgz:322805.got - 2010.06.03 11:33:40.
