data_PCOD9036789
_publ_section_title
;
Structure prediction by ZEFSAII (Michael W. Deem and Ramdas Pophale) SiO2 
 PCOD9036789
Probable space group: P -1
;
_chemical_formula_sum "Si O2"
_cell_formula_units_Z 15
_cell_length_a 14.161401
_cell_length_b 7.098976
_cell_length_c 8.995103
_cell_angle_alpha 104.923717
_cell_angle_beta 107.007453
_cell_angle_gamma 128.046924
_cell_volume 554.087154
_symmetry_space_group_name_H-M "P -1"
_symmetry_group_IT_number 2
_symmetry_cell_setting 'triclinic'
loop_
_space_group_symop_operation_xyz
x,y,z
-x,-y,-z
loop_
_atom_site_type_symbol
_atom_site_label
_atom_site_fract_x
_atom_site_fract_y
_atom_site_fract_z
Si Si1 0.988252 0.690211 0.115736
Si Si2 0.627047 0.646560 0.212768
Si Si3 0.121498 0.570408 0.671432
Si Si4 0.204183 0.096795 0.920184
Si Si5 0.320829 0.736612 0.231140
Si Si6 0.580527 0.713922 0.718761
Si Si7 0.358762 0.888335 0.617794
Si Si8 0.000000 0.000000 0.000000
O O1 0.959296 0.641812 0.266273
O O2 0.101469 0.015383 0.175323
O O3 0.844171 0.591172 0.948355
O O4 0.000000 0.500000 0.000000
O O5 0.759431 0.759284 0.194776
O O6 0.550354 0.407042 0.255388
O O7 0.670324 0.919630 0.360420
O O8 0.500000 0.500000 0.000000
O O9 0.240936 0.641002 0.635615
O O10 0.000000 0.500000 0.500000
O O11 0.216464 0.883867 0.854358
O O12 0.331777 0.313657 0.146499
O O13 0.043553 0.901340 0.870309
O O14 0.337707 0.761310 0.420497
O O15 0.319692 0.961437 0.226909
O O16 0.462632 0.869252 0.231716
O O17 0.500000 0.500000 0.500000
#
# Coordination Sequence:
#
# PCOD9036789 Si02
#       8
#     2   2   2   2   2   2   2   1
#     4  12  25  46  70 102 137 186 232 289 352 411
#     4   9  20  37  60  87 132 167 209 266 336 399
#     4  11  23  46  71  94 142 189 229 284 355 412
#     4  10  23  43  63  98 130 180 226 281 345 407
#     4  11  23  40  67  97 135 174 229 288 339 408
#     4  11  20  39  66  99 132 174 219 280 348 410
#     4  10  23  39  62 101 132 178 221 280 346 410
#     4  12  26  44  76  96 134 182 240 288 338 418
#
# _framework density 27.071553000000002
#
# number of rings (size 3 to 8) (size 9 to 14) (size 15 to 20)
#    0.000    1.333    4.000    0.800    3.733    1.600 
#    0.000    0.667    0.000    0.000    0.000    0.000 
#    0.000    0.000    0.000    0.000    0.000    0.000 
#
# Total GULP energy -83661.038796 kJ/mol
# GULP energy per Si atom -5577.402586 kJ/mol
# Density = 2.700994 g / cm^3
# Si number density = 27.071553 Si / 1000 Ang^3
#
#
#
# Elastic Constant Matrix: (Units=GPa)
#
#
# Indices 1 2 3 4 5 6 
#
# 1 144.0322 35.4108 21.4884 -27.0013 -3.7617 43.0112
# 2 35.4108 147.1640 25.9536 -42.0229 -13.8250 31.2236
# 3 21.4884 25.9536 94.2245 -17.1256 -4.6187 18.1924
# 4 -27.0013 -42.0229 -17.1256 52.0681 12.2783 -15.3836
# 5 -3.7617 -13.8250 -4.6187 12.2783 30.8757 -10.8070
# 6 43.0112 31.2236 18.1924 -15.3836 -10.8070 67.5121
#
#
#
# Elastic Compliance Matrix: (Units=1/GPa)
#
#
# Indices 1 2 3 4 5 6 
#
# 1 0.009213 -0.000267 -0.000519 0.003385 -0.002238 -0.005193
# 2 -0.000267 0.009378 -0.000888 0.006267 0.000706 -0.002387
# 3 -0.000519 -0.000888 0.011768 0.002390 -0.000329 -0.001938
# 4 0.003385 0.006267 0.002390 0.028538 -0.007936 -0.000466
# 5 -0.002238 0.000706 -0.000329 -0.007936 0.037418 0.005369
# 6 -0.005193 -0.002387 -0.001938 -0.000466 0.005369 0.020500
#
#
# Mechanical properties :
#
#
# Convention : Reuss Voigt Hill
#
# Bulk Modulus (GPa) = 37.02249 61.23625 49.12937
# Shear Modulus (GPa) = 38.70947 50.26237 44.48592
#
# Velocity S-wave (km/s) = 3.78550 4.31356 4.05813
# Velocity P-wave (km/s) = 5.72819 6.89045 6.33603
#
# Compressibility (1/GPa) = 0.02701061
#
# Stress axis : x y z
#
# Youngs Moduli (GPa) = 108.54402 106.63021 84.97390
#
# Poissons Ratio (x) = 0.02849 0.04413
# Poissons Ratio (y) = 0.02901 0.07544
# Poissons Ratio (z) = 0.05637 0.09467
#
# Static dielectric constant tensor:
#      x y z
#    x 2.188310 -0.108190 -0.029910 
#    y -0.108190 1.276220 -0.085560 
#    z -0.029910 -0.085560 2.165030 
# 
# From -- ./inp_files/299269.got.cif
#   From: 2010.05.17/outbox.cif.g08.bks.cpg/sg2_150_cif.got.tgz:299269.got - 2010.06.03 11:33:40.
