data_PCOD9036847
_publ_section_title
;
Structure prediction by ZEFSAII (Michael W. Deem and Ramdas Pophale) SiO2 
 PCOD9036847
Probable space group: P -1
;
_chemical_formula_sum "Si O2"
_cell_formula_units_Z 16
_cell_length_a 9.100137
_cell_length_b 13.458348
_cell_length_c 15.913756
_cell_angle_alpha 54.338162
_cell_angle_beta 40.255677
_cell_angle_gamma 86.506788
_cell_volume 697.817180
_symmetry_space_group_name_H-M "P -1"
_symmetry_group_IT_number 2
_symmetry_cell_setting 'triclinic'
loop_
_space_group_symop_operation_xyz
x,y,z
-x,-y,-z
loop_
_atom_site_type_symbol
_atom_site_label
_atom_site_fract_x
_atom_site_fract_y
_atom_site_fract_z
Si Si1 0.757093 0.314416 0.946344
Si Si2 0.377905 0.608339 0.764622
Si Si3 0.172643 0.108453 0.689658
Si Si4 0.779312 0.194674 0.824377
Si Si5 0.715124 0.247653 0.520333
Si Si6 0.527922 0.251479 0.775651
Si Si7 0.645079 0.562719 0.309772
Si Si8 0.325767 0.329362 0.217990
O O1 0.666997 0.224130 0.940249
O O2 0.028252 0.533753 0.707453
O O3 0.958337 0.285706 0.918955
O O4 0.454915 0.252528 0.161257
O O5 0.647501 0.816880 0.515949
O O6 0.354728 0.525715 0.728260
O O7 0.533051 0.605849 0.780422
O O8 0.000000 0.500000 0.000000
O O9 0.439649 0.160313 0.612704
O O10 0.061516 0.204954 0.715391
O O11 0.826468 0.900305 0.947824
O O12 0.817876 0.310305 0.677495
O O13 0.500000 0.000000 0.000000
O O14 0.532426 0.177233 0.724110
O O15 0.940083 0.214689 0.436143
O O16 0.537338 0.391571 0.669782
O O17 0.500000 0.500000 0.500000
O O18 0.500000 0.500000 0.000000
#
# Coordination Sequence:
#
# PCOD9036847 Si02
#       8
#     2   2   2   2   2   2   2   2
#     4  11  21  41  65  99 143 176 232 293 345 410
#     4  12  22  43  71 100 144 181 230 293 350 416
#     4  11  23  44  68  97 140 181 229 287 357 410
#     4  10  24  42  66  97 135 180 230 291 352 408
#     4  11  21  38  66 102 134 182 231 285 343 414
#     4  11  24  40  67  99 137 185 230 288 352 410
#     4  12  23  41  70 109 137 179 238 291 339 413
#     4  10  23  39  64 106 138 181 231 286 351 417
#
# _framework density 22.928642
#
# number of rings (size 3 to 8) (size 9 to 14) (size 15 to 20)
#    0.000    1.000    3.750    3.375    3.500    1.500 
#    0.000    0.625    2.750    6.750    0.000    0.000 
#    0.000    0.000    0.000    0.000    0.000    0.000 
#
# Total GULP energy -89225.224479 kJ/mol
# GULP energy per Si atom -5576.576530 kJ/mol
# Density = 2.287646 g / cm^3
# Si number density = 22.928642 Si / 1000 Ang^3
#
#
#
# Elastic Constant Matrix: (Units=GPa)
#
#
# Indices 1 2 3 4 5 6 
#
# 1 206.1150 37.4909 48.4443 15.5030 -12.2426 7.7183
# 2 37.4909 59.5119 16.0099 22.2323 -7.5637 6.2970
# 3 48.4443 16.0099 110.3850 26.1566 -9.3833 -2.3620
# 4 15.5030 22.2323 26.1566 35.4759 -10.5015 -2.6480
# 5 -12.2426 -7.5637 -9.3833 -10.5015 46.9761 11.6305
# 6 7.7183 6.2970 -2.3620 -2.6480 11.6305 38.0430
#
#
#
# Elastic Compliance Matrix: (Units=1/GPa)
#
#
# Indices 1 2 3 4 5 6 
#
# 1 0.006051 -0.003502 -0.002457 0.001623 0.001142 -0.001036
# 2 -0.003502 0.024940 0.001527 -0.015231 0.001177 -0.004743
# 3 -0.002457 0.001527 0.011983 -0.008702 -0.000045 0.000398
# 4 0.001623 -0.015231 -0.008702 0.045329 0.005599 0.003095
# 5 0.001142 0.001177 -0.000045 0.005599 0.024913 -0.007656
# 6 -0.001036 -0.004743 0.000398 0.003095 -0.007656 0.029862
#
#
# Mechanical properties :
#
#
# Convention : Reuss Voigt Hill
#
# Bulk Modulus (GPa) = 29.31721 64.43357 46.87539
# Shear Modulus (GPa) = 30.61640 42.37012 36.49326
#
# Velocity S-wave (km/s) = 3.65813 4.30340 3.99382
# Velocity P-wave (km/s) = 5.53684 7.27015 6.46188
#
# Compressibility (1/GPa) = 0.03410966
#
# Stress axis : x y z
#
# Youngs Moduli (GPa) = 165.26751 40.09582 83.45319
#
# Poissons Ratio (x) = 0.14043 0.20506
# Poissons Ratio (y) = 0.57882 -0.12747
# Poissons Ratio (z) = 0.40610 -0.06125
#
# Static dielectric constant tensor:
#      x y z
#    x 1.873650 -0.059790 -0.006580 
#    y -0.059790 1.984910 -0.115640 
#    z -0.006580 -0.115640 1.959030 
# 
# From -- ./inp_files/504051.got.cif
#   From: 2010.05.17/outbox.cif.g08.bks.cpg/sg2_253_cif.got.tgz:504051.got - 2010.06.03 11:33:40.
