data_PCOD9036149
_publ_section_title
;
Structure prediction by ZEFSAII (Michael W. Deem and Ramdas Pophale) SiO2 
 PCOD9036149
Probable space group: P -1
;
_chemical_formula_sum "Si O2"
_cell_formula_units_Z 16
_cell_length_a 6.747005
_cell_length_b 17.935498
_cell_length_c 14.176011
_cell_angle_alpha 28.636454
_cell_angle_beta 77.945034
_cell_angle_gamma 61.644644
_cell_volume 629.389205
_symmetry_space_group_name_H-M "P -1"
_symmetry_group_IT_number 2
_symmetry_cell_setting 'triclinic'
loop_
_space_group_symop_operation_xyz
x,y,z
-x,-y,-z
loop_
_atom_site_type_symbol
_atom_site_label
_atom_site_fract_x
_atom_site_fract_y
_atom_site_fract_z
Si Si1 0.254861 0.782256 0.132125
Si Si2 0.593482 0.934913 0.247071
Si Si3 0.306994 0.840569 0.261622
Si Si4 0.082418 0.694952 0.587179
Si Si5 0.549013 0.632489 0.791087
Si Si6 0.374376 0.615214 0.109229
Si Si7 0.210885 0.207089 0.308041
Si Si8 0.134631 0.075070 0.279912
O O1 0.351168 0.715937 0.302719
O O2 0.326269 0.633137 0.205706
O O3 0.356047 0.908125 0.955187
O O4 0.943344 0.937543 0.988878
O O5 0.342148 0.041209 0.221346
O O6 0.530134 0.851182 0.259637
O O7 0.850454 0.754810 0.475786
O O8 0.211851 0.779360 0.426167
O O9 0.329432 0.466731 0.836218
O O10 0.947185 0.793137 0.590385
O O11 0.629610 0.538904 0.782221
O O12 0.741580 0.643879 0.821361
O O13 0.289665 0.859403 0.552000
O O14 0.139554 0.824891 0.854495
O O15 0.500000 0.500000 0.000000
O O16 0.089798 0.222716 0.202623
O O17 0.500000 0.000000 0.500000
#
# Coordination Sequence:
#
# PCOD9036149 Si02
#       8
#     2   2   2   2   2   2   2   2
#     4  10  24  43  77 115 154 200 257 328 388 461
#     4  11  21  46  78 108 151 205 258 317 383 466
#     4  10  22  47  76 114 151 199 264 322 389 457
#     4  11  25  44  78 109 156 197 259 325 374 467
#     4  11  27  47  74 113 154 200 261 324 377 463
#     4  12  28  46  75 115 158 201 259 318 401 445
#     4  10  23  49  79 113 151 211 261 310 388 467
#     4  11  25  50  79 107 158 212 260 311 391 465
#
# _framework density 25.421472000000001
#
# number of rings (size 3 to 8) (size 9 to 14) (size 15 to 20)
#    0.000    1.250    3.750    1.125    5.250    3.500 
#    0.000    0.625    0.000    0.750    0.000    0.000 
#    0.000    0.000    0.000    0.000    0.000    0.000 
#
# Total GULP energy -89561.756484 kJ/mol
# GULP energy per Si atom -5597.609780 kJ/mol
# Density = 2.536361 g / cm^3
# Si number density = 25.421472 Si / 1000 Ang^3
#
#
#
# Elastic Constant Matrix: (Units=GPa)
#
#
# Indices 1 2 3 4 5 6 
#
# 1 157.8361 57.5662 57.7232 5.3112 30.3324 18.0517
# 2 57.5662 193.1614 45.2354 0.1527 16.7067 28.1680
# 3 57.7232 45.2354 109.2561 6.0160 14.4615 2.1857
# 4 5.3112 0.1527 6.0160 45.3374 3.5626 8.9771
# 5 30.3324 16.7067 14.4615 3.5626 59.2119 -2.5084
# 6 18.0517 28.1680 2.1857 8.9771 -2.5084 54.7651
#
#
#
# Elastic Compliance Matrix: (Units=1/GPa)
#
#
# Indices 1 2 3 4 5 6 
#
# 1 0.009108 -0.001156 -0.003830 0.000207 -0.003520 -0.002450
# 2 -0.001156 0.006516 -0.001956 0.001065 -0.000965 -0.003111
# 3 -0.003830 -0.001956 0.012063 -0.001526 -0.000255 0.002025
# 4 0.000207 0.001065 -0.001526 0.023238 -0.001620 -0.004438
# 5 -0.003520 -0.000965 -0.000255 -0.001620 0.019243 0.002814
# 6 -0.002450 -0.003111 0.002025 -0.004438 0.002814 0.021443
#
#
# Mechanical properties :
#
#
# Convention : Reuss Voigt Hill
#
# Bulk Modulus (GPa) = 72.44327 86.81147 79.62737
# Shear Modulus (GPa) = 45.41580 51.84480 48.63030
#
# Velocity S-wave (km/s) = 4.23130 4.52088 4.37849
# Velocity P-wave (km/s) = 7.24090 7.84055 7.54668
#
# Compressibility (1/GPa) = 0.01380390
#
# Stress axis : x y z
#
# Youngs Moduli (GPa) = 109.79889 153.47456 82.89705
#
# Poissons Ratio (x) = 0.17739 0.31747
# Poissons Ratio (y) = 0.12691 0.16213
# Poissons Ratio (z) = 0.42049 0.30016
#
# Static dielectric constant tensor:
#      x y z
#    x 2.001120 0.001490 0.009010 
#    y 0.001490 2.031170 -0.011040 
#    z 0.009010 -0.011040 2.083270 
# 
# From -- ./inp_files/80210.got.cif
#   From: 2010.05.17/outbox.cif.g08.bks.cpg/sg2_41_cif.got.tgz:80210.got - 2010.06.03 11:33:40.
