data_PCOD9037771
_publ_section_title
;
Structure prediction by ZEFSAII (Michael W. Deem and Ramdas Pophale) SiO2 
 PCOD9037771
Probable space group: P -1
;
_chemical_formula_sum "Si O2"
_cell_formula_units_Z 12
_cell_length_a 6.846549
_cell_length_b 7.250776
_cell_length_c 16.475923
_cell_angle_alpha 140.205296
_cell_angle_beta 60.494919
_cell_angle_gamma 117.813008
_cell_volume 449.858981
_symmetry_space_group_name_H-M "P -1"
_symmetry_group_IT_number 2
_symmetry_cell_setting 'triclinic'
loop_
_space_group_symop_operation_xyz
x,y,z
-x,-y,-z
loop_
_atom_site_type_symbol
_atom_site_label
_atom_site_fract_x
_atom_site_fract_y
_atom_site_fract_z
Si Si1 0.453556 0.585947 0.260473
Si Si2 0.194740 0.219482 0.308417
Si Si3 0.299910 0.683980 0.014926
Si Si4 0.208036 0.111788 0.936814
Si Si5 0.063716 0.553455 0.682678
Si Si6 0.357461 0.181791 0.437009
O O1 0.405638 0.464215 0.319336
O O2 0.194471 0.499482 0.247741
O O3 0.491685 0.930942 0.356155
O O4 0.636067 0.421346 0.122942
O O5 0.235673 0.098786 0.346996
O O6 0.980638 0.370943 0.377530
O O7 0.183645 0.959195 0.155630
O O8 0.551606 0.790898 0.036588
O O9 0.176128 0.398676 0.989869
O O10 0.214858 0.833176 0.784422
O O11 0.000000 0.000000 0.000000
O O12 0.172312 0.262353 0.566001
O O13 0.500000 0.500000 0.500000
#
# Coordination Sequence:
#
# PCOD9037771 Si02
#       6
#     2   2   2   2   2   2
#     4  10  23  41  66  93 131 170 218 271 320 387
#     4  10  24  40  67  94 132 174 216 273 325 390
#     4  11  21  41  67  97 138 167 220 271 323 393
#     4  11  21  39  66 101 130 176 219 263 330 386
#     4  10  23  41  62  96 129 171 221 266 326 386
#     4  12  23  43  65  92 132 176 221 269 329 390
#
# _framework density 26.675027
#
# number of rings (size 3 to 8) (size 9 to 14) (size 15 to 20)
#    1.000    0.333    1.667    5.500    0.000    1.333 
#    0.000    1.667    0.000    0.000    0.000    0.000 
#    0.000    0.000    0.000    0.000    0.000    0.000 
#
# Total GULP energy -67107.442345 kJ/mol
# GULP energy per Si atom -5592.286862 kJ/mol
# Density = 2.661431 g / cm^3
# Si number density = 26.675027 Si / 1000 Ang^3
#
#
#
# Elastic Constant Matrix: (Units=GPa)
#
#
# Indices 1 2 3 4 5 6 
#
# 1 61.8970 13.8203 16.0346 1.3147 -0.7169 0.8741
# 2 13.8203 150.2648 29.4582 21.7953 9.6506 6.0840
# 3 16.0346 29.4582 120.6013 13.6498 -4.1401 -2.1301
# 4 1.3147 21.7953 13.6498 44.1543 1.0577 -1.7282
# 5 -0.7169 9.6506 -4.1401 1.0577 34.0596 3.9297
# 6 0.8741 6.0840 -2.1301 -1.7282 3.9297 41.9543
#
#
#
# Elastic Compliance Matrix: (Units=1/GPa)
#
#
# Indices 1 2 3 4 5 6 
#
# 1 0.016959 -0.001292 -0.002010 0.000731 0.000489 -0.000284
# 2 -0.001292 0.007719 -0.001431 -0.003321 -0.002158 -0.001100
# 3 -0.002010 -0.001431 0.009206 -0.002096 0.001491 0.000491
# 4 0.000731 -0.003321 -0.002096 0.024974 -0.000237 0.001411
# 5 0.000489 -0.002158 0.001491 -0.000237 0.030457 -0.002484
# 6 -0.000284 -0.001100 0.000491 0.001411 -0.002484 0.024317
#
#
# Mechanical properties :
#
#
# Convention : Reuss Voigt Hill
#
# Bulk Modulus (GPa) = 40.95458 50.15438 45.55448
# Shear Modulus (GPa) = 38.09874 42.26363 40.18118
#
# Velocity S-wave (km/s) = 3.78333 3.98476 3.88535
# Velocity P-wave (km/s) = 5.87122 6.32565 6.10267
#
# Compressibility (1/GPa) = 0.02441730
#
# Stress axis : x y z
#
# Youngs Moduli (GPa) = 58.96509 129.54827 108.62744
#
# Poissons Ratio (x) = 0.16733 0.21838
# Poissons Ratio (y) = 0.07616 0.15549
# Poissons Ratio (z) = 0.11854 0.18544
#
# Static dielectric constant tensor:
#      x y z
#    x 2.128920 0.045880 -0.019210 
#    y 0.045880 2.086200 -0.062910 
#    z -0.019210 -0.062910 2.123930 
# 
# From -- ./inp_files/586419.got.cif
#   From: 2010.05.17/outbox.cif.g08.bks.cpg/sg2_294_cif.got.tgz:586419.got - 2010.06.03 11:33:40.
