data_PCOD9037789
_publ_section_title
;
Structure prediction by ZEFSAII (Michael W. Deem and Ramdas Pophale) SiO2 
 PCOD9037789
Probable space group: P -1
;
_chemical_formula_sum "Si O2"
_cell_formula_units_Z 14
_cell_length_a 10.345530
_cell_length_b 13.136337
_cell_length_c 8.404823
_cell_angle_alpha 63.163300
_cell_angle_beta 93.576607
_cell_angle_gamma 44.593843
_cell_volume 565.497586
_symmetry_space_group_name_H-M "P -1"
_symmetry_group_IT_number 2
_symmetry_cell_setting 'triclinic'
loop_
_space_group_symop_operation_xyz
x,y,z
-x,-y,-z
loop_
_atom_site_type_symbol
_atom_site_label
_atom_site_fract_x
_atom_site_fract_y
_atom_site_fract_z
Si Si1 0.602346 0.828407 0.745315
Si Si2 0.921326 0.407429 0.023991
Si Si3 0.948427 0.909883 0.926862
Si Si4 0.896539 0.381530 0.412843
Si Si5 0.826354 0.180456 0.488200
Si Si6 0.454041 0.596521 0.261800
Si Si7 0.303865 0.065012 0.858181
O O1 0.693897 0.647387 0.793318
O O2 0.424078 0.932999 0.797983
O O3 0.500000 0.000000 0.500000
O O4 0.840859 0.702957 0.927650
O O5 0.940844 0.269988 0.048000
O O6 0.931258 0.392177 0.227140
O O7 0.796902 0.103247 0.669308
O O8 0.181121 0.807712 0.069150
O O9 0.800633 0.950589 0.017337
O O10 0.620731 0.585259 0.282928
O O11 0.944669 0.208892 0.545980
O O12 0.076437 0.300906 0.608480
O O13 0.000000 0.000000 0.500000
O O14 0.576144 0.422498 0.262330
O O15 0.500000 0.500000 0.500000
O O16 0.500000 0.000000 0.000000
#
# Coordination Sequence:
#
# PCOD9037789 Si02
#       7
#     2   2   2   2   2   2   2
#     4  11  25  47  70  99 140 189 232 289 354 412
#     4  11  24  44  73 102 137 184 237 289 351 419
#     4  12  23  45  73 105 140 185 237 283 350 419
#     4  10  23  44  69 104 142 179 232 287 351 414
#     4  10  23  42  71 106 141 185 232 283 350 419
#     4  10  23  41  63 101 144 181 223 280 348 413
#     4  12  25  45  73 103 138 187 242 291 349 412
#
# _framework density 24.756955999999999
#
# number of rings (size 3 to 8) (size 9 to 14) (size 15 to 20)
#    0.857    0.286    5.714    0.000    0.000    9.143 
#    0.000    1.429    0.000    0.000    0.000    0.000 
#    0.000    0.000    0.000    0.000    0.000    0.000 
#
# Total GULP energy -78202.522394 kJ/mol
# GULP energy per Si atom -5585.894457 kJ/mol
# Density = 2.470061 g / cm^3
# Si number density = 24.756956 Si / 1000 Ang^3
#
#
#
# Elastic Constant Matrix: (Units=GPa)
#
#
# Indices 1 2 3 4 5 6 
#
# 1 97.7227 34.1081 48.0459 -8.5263 10.4928 -30.9470
# 2 34.1081 127.5790 61.4304 -23.3939 -1.9706 -27.3232
# 3 48.0459 61.4304 112.8559 -11.9331 -14.2167 -14.3928
# 4 -8.5263 -23.3939 -11.9331 46.4913 -9.6839 -11.3134
# 5 10.4928 -1.9706 -14.2167 -9.6839 44.3703 -8.7265
# 6 -30.9470 -27.3232 -14.3928 -11.3134 -8.7265 60.2135
#
#
#
# Elastic Compliance Matrix: (Units=1/GPa)
#
#
# Indices 1 2 3 4 5 6 
#
# 1 0.016043 0.000763 -0.006603 0.002483 -0.003976 0.006903
# 2 0.000763 0.013109 -0.005690 0.007162 0.001427 0.006533
# 3 -0.006603 -0.005690 0.015499 0.000913 0.006239 -0.001195
# 4 0.002483 0.007162 0.000913 0.030549 0.009010 0.011790
# 5 -0.003976 0.001427 0.006239 0.009010 0.028676 0.005944
# 6 0.006903 0.006533 -0.001195 0.011790 0.005944 0.025911
#
#
# Mechanical properties :
#
#
# Convention : Reuss Voigt Hill
#
# Bulk Modulus (GPa) = 46.31685 69.48071 57.89878
# Shear Modulus (GPa) = 31.24153 43.18657 37.21405
#
# Velocity S-wave (km/s) = 3.55622 4.18116 3.88129
# Velocity P-wave (km/s) = 5.96754 7.17185 6.59723
#
# Compressibility (1/GPa) = 0.02159041
#
# Stress axis : x y z
#
# Youngs Moduli (GPa) = 62.33249 76.28583 64.51963
#
# Poissons Ratio (x) = -0.05818 0.42603
# Poissons Ratio (y) = -0.04754 0.36711
# Poissons Ratio (z) = 0.41158 0.43405
#
# Static dielectric constant tensor:
#      x y z
#    x 2.028360 0.032160 0.038240 
#    y 0.032160 2.061870 -0.020730 
#    z 0.038240 -0.020730 1.965260 
# 
# From -- ./inp_files/279008.got.cif
#   From: 2010.05.17/outbox.cif.g08.bks.cpg/sg2_140_cif.got.tgz:279008.got - 2010.06.03 11:33:40.
