data_PCOD9037940
_publ_section_title
;
Structure prediction by ZEFSAII (Michael W. Deem and Ramdas Pophale) SiO2 
 PCOD9037940
Probable space group: P -1
;
_chemical_formula_sum "Si O2"
_cell_formula_units_Z 16
_cell_length_a 15.156628
_cell_length_b 5.249167
_cell_length_c 9.724451
_cell_angle_alpha 78.025515
_cell_angle_beta 82.869161
_cell_angle_gamma 112.245454
_cell_volume 682.731510
_symmetry_space_group_name_H-M "P -1"
_symmetry_group_IT_number 2
_symmetry_cell_setting 'triclinic'
loop_
_space_group_symop_operation_xyz
x,y,z
-x,-y,-z
loop_
_atom_site_type_symbol
_atom_site_label
_atom_site_fract_x
_atom_site_fract_y
_atom_site_fract_z
Si Si1 0.186548 0.778679 0.052413
Si Si2 0.265377 0.984167 0.310234
Si Si3 0.993218 0.753215 0.134464
Si Si4 0.572271 0.185000 0.648473
Si Si5 0.782052 0.591976 0.133571
Si Si6 0.456502 0.549866 0.145479
Si Si7 0.586220 0.414068 0.348977
Si Si8 0.051862 0.840893 0.421409
O O1 0.223432 0.811731 0.196850
O O2 0.067693 0.613361 0.093088
O O3 0.236442 0.618434 0.969482
O O4 0.204146 0.093427 0.956948
O O5 0.328146 0.851100 0.395317
O O6 0.168988 0.971549 0.406157
O O7 0.350093 0.291918 0.218250
O O8 0.877490 0.574057 0.184915
O O9 0.033916 0.883196 0.260271
O O10 0.000000 0.000000 0.000000
O O11 0.563697 0.189254 0.816715
O O12 0.583831 0.439722 0.511409
O O13 0.478842 0.912701 0.646394
O O14 0.694412 0.498809 0.266274
O O15 0.536078 0.569629 0.245295
O O16 0.500000 0.500000 0.000000
O O17 0.000000 0.500000 0.500000
O O18 0.000000 0.000000 0.500000
#
# Coordination Sequence:
#
# PCOD9037940 Si02
#       8
#     2   2   2   2   2   2   2   2
#     4  10  23  41  65 100 136 170 224 285 338 404
#     4  10  25  41  68  99 136 184 221 290 354 408
#     4   9  22  45  67 101 137 184 226 288 350 411
#     4  10  24  45  63  92 140 172 227 282 350 412
#     4  11  23  39  70  96 132 176 231 275 338 408
#     4  11  24  41  70  98 133 179 237 287 352 415
#     4  10  24  41  62  97 128 181 222 283 341 408
#     4  11  27  46  72 106 146 184 238 289 351 428
#
# _framework density 23.435274
#
# number of rings (size 3 to 8) (size 9 to 14) (size 15 to 20)
#    0.000    1.750    0.000    1.500   10.500    8.000 
#    0.000    0.000    0.000    0.000    0.000    0.000 
#    0.000    0.000    0.000    0.000    0.000    0.000 
#
# Total GULP energy -89278.933875 kJ/mol
# GULP energy per Si atom -5579.933367 kJ/mol
# Density = 2.338193 g / cm^3
# Si number density = 23.435274 Si / 1000 Ang^3
#
#
#
# Elastic Constant Matrix: (Units=GPa)
#
#
# Indices 1 2 3 4 5 6 
#
# 1 -173.9601 64.5995 89.2215 -147.2258 -201.1165 132.3117
# 2 64.5995 57.0930 9.4293 24.8530 14.3706 -29.4873
# 3 89.2215 9.4293 100.0896 30.8185 -1.5508 -21.3523
# 4 -147.2258 24.8530 30.8185 -28.9941 -83.0511 48.8013
# 5 -201.1165 14.3706 -1.5508 -83.0511 -57.4276 76.9135
# 6 132.3117 -29.4873 -21.3523 48.8013 76.9135 -17.7496
#
#
#
# Elastic Compliance Matrix: (Units=1/GPa)
#
#
# Indices 1 2 3 4 5 6 
#
# 1 0.004018 0.000168 -0.001922 -0.003144 -0.004544 0.003648
# 2 0.000168 0.017079 -0.001519 0.001662 0.005503 0.003120
# 3 -0.001922 -0.001519 0.012388 -0.002623 0.007414 -0.001788
# 4 -0.003144 0.001662 -0.002623 0.026068 -0.008104 0.013512
# 5 -0.004544 0.005503 0.007414 -0.008104 0.018320 0.005169
# 6 0.003648 0.003120 -0.001788 0.013512 0.005169 0.027370
#
#
# Mechanical properties :
#
#
# Convention : Reuss Voigt Hill
#
# Bulk Modulus (GPa) = 37.12002 34.41367 35.76684
# Shear Modulus (GPa) = 41.40110 -32.83610 4.28250
#
# Velocity S-wave (km/s) = 4.20767 -3.74724 1.35327
# Velocity P-wave (km/s) = 6.28329 2.00150 4.21152
#
# Compressibility (1/GPa) = 0.02693964
#
# Stress axis : x y z
#
# Youngs Moduli (GPa) = 248.87009 58.55007 80.72133
#
# Poissons Ratio (x) = -0.00983 0.15511
# Poissons Ratio (y) = -0.04177 0.12265
# Poissons Ratio (z) = 0.47822 0.08896
#
# Static dielectric constant tensor:
#      x y z
#    x 1.940760 -0.024160 -0.013000 
#    y -0.024160 1.973880 -0.000590 
#    z -0.013000 -0.000590 1.910680 
# 
# From -- ./inp_files/109919.got.cif
#   From: 2010.05.17/outbox.cif.g08.bks.cpg/sg2_55_cif.got.tgz:109919.got - 2010.06.03 11:33:40.
