data_PCOD9037457
_publ_section_title
;
Structure prediction by ZEFSAII (Michael W. Deem and Ramdas Pophale) SiO2 
 PCOD9037457
Probable space group: P -1
;
_chemical_formula_sum "Si O2"
_cell_formula_units_Z 12
_cell_length_a 5.638199
_cell_length_b 11.730293
_cell_length_c 13.385017
_cell_angle_alpha 132.753311
_cell_angle_beta 128.152690
_cell_angle_gamma 63.187833
_cell_volume 510.389298
_symmetry_space_group_name_H-M "P -1"
_symmetry_group_IT_number 2
_symmetry_cell_setting 'triclinic'
loop_
_space_group_symop_operation_xyz
x,y,z
-x,-y,-z
loop_
_atom_site_type_symbol
_atom_site_label
_atom_site_fract_x
_atom_site_fract_y
_atom_site_fract_z
Si Si1 0.048016 0.628464 0.282869
Si Si2 0.520651 0.807889 0.156565
Si Si3 0.677288 0.669407 0.915469
Si Si4 0.904036 0.832088 0.906048
Si Si5 0.656993 0.062428 0.477029
Si Si6 0.976059 0.448654 0.350317
O O1 0.092121 0.476322 0.134894
O O2 0.293544 0.754726 0.396990
O O3 0.708351 0.704509 0.224993
O O4 0.092563 0.570957 0.373801
O O5 0.489557 0.982901 0.294334
O O6 0.718962 0.768010 0.085192
O O7 0.188449 0.771406 0.013933
O O8 0.367923 0.581638 0.783979
O O9 0.639226 0.797188 0.892636
O O10 0.864474 0.718486 0.735195
O O11 0.000000 0.000000 0.000000
O O12 0.500000 0.000000 0.500000
O O13 0.000000 0.000000 0.500000
O O14 0.000000 0.500000 0.500000
#
# Coordination Sequence:
#
# PCOD9037457 Si02
#       6
#     2   2   2   2   2   2
#     4  10  23  41  67  99 134 174 223 285 339 407
#     4  10  23  41  66  98 133 170 224 278 342 402
#     4  10  23  40  67  94 130 175 224 276 348 396
#     4  10  24  42  63  95 129 177 224 277 338 406
#     4  10  24  41  64 102 142 178 224 274 350 406
#     4  10  24  43  64  96 131 174 227 275 342 406
#
# _framework density 23.511465000000001
#
# number of rings (size 3 to 8) (size 9 to 14) (size 15 to 20)
#    0.000    2.000    0.000    0.500    9.333   15.333 
#    0.000    0.000    0.000    0.000    0.000    0.000 
#    0.000    0.000    0.000    0.000    0.000    0.000 
#
# Total GULP energy -66875.122363 kJ/mol
# GULP energy per Si atom -5572.926864 kJ/mol
# Density = 2.345795 g / cm^3
# Si number density = 23.511465 Si / 1000 Ang^3
#
#
#
# Elastic Constant Matrix: (Units=GPa)
#
#
# Indices 1 2 3 4 5 6 
#
# 1 79.3966 47.4377 33.7848 16.3397 -8.4980 37.8666
# 2 47.4377 119.4304 52.6436 33.8408 -11.5041 40.7534
# 3 33.7848 52.6436 166.4482 16.8551 -32.6594 29.6930
# 4 16.3397 33.8408 16.8551 31.2889 2.9463 14.6825
# 5 -8.4980 -11.5041 -32.6594 2.9463 43.5628 -4.2357
# 6 37.8666 40.7534 29.6930 14.6825 -4.2357 40.7017
#
#
#
# Elastic Compliance Matrix: (Units=1/GPa)
#
#
# Indices 1 2 3 4 5 6 
#
# 1 0.023447 -0.002358 -0.000158 -0.001001 0.002076 -0.018760
# 2 -0.002358 0.016645 -0.001440 -0.012160 0.002828 -0.008741
# 3 -0.000158 -0.001440 0.008382 -0.001883 0.005684 -0.003255
# 4 -0.001001 -0.012160 -0.001883 0.049452 -0.008576 -0.004251
# 5 0.002076 0.002828 0.005684 -0.008576 0.028673 -0.002833
# 6 -0.018760 -0.008741 -0.003255 -0.004251 -0.002833 0.054387
#
#
# Mechanical properties :
#
#
# Convention : Reuss Voigt Hill
#
# Bulk Modulus (GPa) = 24.65411 70.33413 47.49412
# Shear Modulus (GPa) = 24.70124 38.53796 31.61960
#
# Velocity S-wave (km/s) = 3.24482 4.05299 3.67121
# Velocity P-wave (km/s) = 4.95452 7.20292 6.18180
#
# Compressibility (1/GPa) = 0.04056119
#
# Stress axis : x y z
#
# Youngs Moduli (GPa) = 42.65025 60.07696 119.30275
#
# Poissons Ratio (x) = 0.14168 0.01883
# Poissons Ratio (y) = 0.10058 0.17182
# Poissons Ratio (z) = 0.00673 0.08652
#
# Static dielectric constant tensor:
#      x y z
#    x 2.088220 -0.036690 -0.037240 
#    y -0.036690 1.982470 0.030990 
#    z -0.037240 0.030990 1.921620 
# 
# From -- ./inp_files/59176.got.cif
#   From: 2010.05.17/outbox.cif.g08.bks.cpg/sg2_30_cif.got.tgz:59176.got - 2010.06.03 11:33:40.
