data_PCOD9037168
_publ_section_title
;
Structure prediction by ZEFSAII (Michael W. Deem and Ramdas Pophale) SiO2 
 PCOD9037168
Probable space group: P -1
;
_chemical_formula_sum "Si O2"
_cell_formula_units_Z 16
_cell_length_a 15.414201
_cell_length_b 6.147334
_cell_length_c 12.445815
_cell_angle_alpha 45.646914
_cell_angle_beta 72.456575
_cell_angle_gamma 92.022074
_cell_volume 749.879019
_symmetry_space_group_name_H-M "P -1"
_symmetry_group_IT_number 2
_symmetry_cell_setting 'triclinic'
loop_
_space_group_symop_operation_xyz
x,y,z
-x,-y,-z
loop_
_atom_site_type_symbol
_atom_site_label
_atom_site_fract_x
_atom_site_fract_y
_atom_site_fract_z
Si Si1 0.223753 0.427077 0.611650
Si Si2 0.558195 0.363379 0.610987
Si Si3 0.085280 0.338156 0.895354
Si Si4 0.925694 0.288340 0.515825
Si Si5 0.798182 0.291000 0.090717
Si Si6 0.535828 0.387451 0.853108
Si Si7 0.600298 0.352520 0.067011
Si Si8 0.947413 0.621801 0.775073
O O1 0.338748 0.607209 0.489270
O O2 0.173536 0.437525 0.742002
O O3 0.164828 0.591637 0.501542
O O4 0.208913 0.045393 0.733437
O O5 0.500000 0.500000 0.500000
O O6 0.572634 0.514501 0.675280
O O7 0.487718 0.993998 0.782475
O O8 0.138664 0.391255 0.972420
O O9 0.029874 0.599039 0.833878
O O10 0.000000 0.000000 0.000000
O O11 0.000000 0.500000 0.500000
O O12 0.992102 0.372362 0.355824
O O13 0.907896 0.915720 0.679162
O O14 0.694733 0.302711 0.094515
O O15 0.854268 0.313036 0.949263
O O16 0.439186 0.452739 0.900522
O O17 0.607846 0.496525 0.892842
O O18 0.500000 0.000000 0.000000
#
# Coordination Sequence:
#
# PCOD9037168 Si02
#       8
#     2   2   2   2   2   2   2   2
#     4  11  25  42  65 103 130 178 226 278 353 399
#     4  11  23  42  69 101 141 177 225 286 339 409
#     4  11  24  41  66  96 135 170 225 288 337 403
#     4  10  23  41  64  91 136 171 216 276 340 410
#     4  12  24  39  71  97 128 177 234 274 342 412
#     4   9  22  43  66  92 140 175 223 282 338 397
#     4  10  23  43  68  99 133 180 229 280 340 406
#     4  10  23  40  62  96 126 172 219 271 339 410
#
# _framework density 21.336774999999999
#
# number of rings (size 3 to 8) (size 9 to 14) (size 15 to 20)
#    0.000    1.500    2.500    1.125    5.250    5.500 
#    0.000    0.000    0.000    0.000    0.000    0.000 
#    0.000    0.000    0.000    0.000    0.000    0.000 
#
# Total GULP energy -89080.461077 kJ/mol
# GULP energy per Si atom -5567.528817 kJ/mol
# Density = 2.128821 g / cm^3
# Si number density = 21.336775 Si / 1000 Ang^3
#
#
#
# Elastic Constant Matrix: (Units=GPa)
#
#
# Indices 1 2 3 4 5 6 
#
# 1 207.9315 60.1718 68.0719 1.4398 -0.1979 -31.6604
# 2 60.1718 58.6177 29.9853 6.5968 2.4428 -13.7372
# 3 68.0719 29.9853 100.5611 15.4168 3.6608 0.3242
# 4 1.4398 6.5968 15.4168 26.7542 -4.0095 -0.3900
# 5 -0.1979 2.4428 3.6608 -4.0095 34.5273 -3.3707
# 6 -31.6604 -13.7372 0.3242 -0.3900 -3.3707 32.4727
#
#
#
# Elastic Compliance Matrix: (Units=1/GPa)
#
#
# Indices 1 2 3 4 5 6 
#
# 1 0.009232 -0.005722 -0.005323 0.004413 0.002210 0.006916
# 2 -0.005722 0.026458 -0.003292 -0.004471 -0.001545 0.005432
# 3 -0.005323 -0.003292 0.016004 -0.008709 -0.003207 -0.007179
# 4 0.004413 -0.004471 -0.008709 0.044331 0.006778 0.003734
# 5 0.002210 -0.001545 -0.003207 0.006778 0.030680 0.004799
# 6 0.006916 0.005432 -0.007179 0.003734 0.004799 0.040451
#
#
# Mechanical properties :
#
#
# Convention : Reuss Voigt Hill
#
# Bulk Modulus (GPa) = 43.43796 75.95204 59.69500
# Shear Modulus (GPa) = 24.56966 32.67626 28.62296
#
# Velocity S-wave (km/s) = 3.39708 3.91762 3.66660
# Velocity P-wave (km/s) = 5.98242 7.49251 6.77964
#
# Compressibility (1/GPa) = 0.02302134
#
# Stress axis : x y z
#
# Youngs Moduli (GPa) = 108.31499 37.79551 62.48553
#
# Poissons Ratio (x) = 0.21628 0.33259
# Poissons Ratio (y) = 0.61981 0.20567
# Poissons Ratio (z) = 0.57652 0.12440
#
# Static dielectric constant tensor:
#      x y z
#    x 1.978300 0.093900 0.440930 
#    y 0.093900 1.736000 0.152790 
#    z 0.440930 0.152790 2.509470 
# 
# From -- ./inp_files/441565.got.cif
#   From: 2010.05.17/outbox.cif.g08.bks.cpg/sg2_221_cif.got.tgz:441565.got - 2010.06.03 11:33:40.
