data_PCOD9037621
_publ_section_title
;
Structure prediction by ZEFSAII (Michael W. Deem and Ramdas Pophale) SiO2 
 PCOD9037621
Probable space group: P -1
;
_chemical_formula_sum "Si O2"
_cell_formula_units_Z 16
_cell_length_a 8.978073
_cell_length_b 7.388750
_cell_length_c 14.227467
_cell_angle_alpha 76.254654
_cell_angle_beta 68.075618
_cell_angle_gamma 120.648788
_cell_volume 635.794601
_symmetry_space_group_name_H-M "P -1"
_symmetry_group_IT_number 2
_symmetry_cell_setting 'triclinic'
loop_
_space_group_symop_operation_xyz
x,y,z
-x,-y,-z
loop_
_atom_site_type_symbol
_atom_site_label
_atom_site_fract_x
_atom_site_fract_y
_atom_site_fract_z
Si Si1 0.409337 0.026454 0.683847
Si Si2 0.175852 0.546047 0.382440
Si Si3 0.687304 0.105186 0.869860
Si Si4 0.463043 0.306736 0.317235
Si Si5 0.079713 0.284524 0.857123
Si Si6 0.966044 0.768256 0.917566
Si Si7 0.862779 0.021777 0.413315
Si Si8 0.744941 0.760237 0.810440
O O1 0.606579 0.316779 0.624959
O O2 0.508678 0.894776 0.679675
O O3 0.204106 0.884201 0.819344
O O4 0.300966 0.993812 0.613556
O O5 0.281482 0.750004 0.248397
O O6 0.000000 0.500000 0.500000
O O7 0.030672 0.286470 0.392591
O O8 0.659200 0.871627 0.871320
O O9 0.912340 0.291789 0.848455
O O10 0.500000 0.000000 0.000000
O O11 0.694328 0.545102 0.268501
O O12 0.274159 0.184874 0.450358
O O13 0.409157 0.377878 0.225746
O O14 0.986841 0.005756 0.904351
O O15 0.109159 0.367946 0.948263
O O16 0.800568 0.637205 0.884966
O O17 0.018087 0.010622 0.316245
#
# Coordination Sequence:
#
# PCOD9037621 Si02
#       8
#     2   2   2   2   2   2   2   2
#     4  11  23  42  68  97 134 178 231 279 341 408
#     4  12  24  42  72 100 139 186 227 283 350 403
#     4  11  23  46  69 101 135 177 234 290 334 414
#     4  12  23  41  66 100 135 176 227 286 337 406
#     4  10  23  40  70  92 136 174 226 281 348 401
#     4   9  22  46  61  95 132 178 225 277 343 418
#     4  11  25  45  66 101 144 178 229 281 343 417
#     4  10  23  45  65  95 138 173 223 285 340 404
#
# _framework density 25.165358999999999
#
# number of rings (size 3 to 8) (size 9 to 14) (size 15 to 20)
#    0.000    1.250    2.500    2.250    3.500    1.000 
#    4.500    1.875    0.000    0.000    0.000    0.000 
#    0.000    0.000    0.000    0.000    0.000    0.000 
#
# Total GULP energy -89533.376211 kJ/mol
# GULP energy per Si atom -5595.836013 kJ/mol
# Density = 2.510808 g / cm^3
# Si number density = 25.165359 Si / 1000 Ang^3
#
#
#
# Elastic Constant Matrix: (Units=GPa)
#
#
# Indices 1 2 3 4 5 6 
#
# 1 106.7212 53.0452 34.4539 8.2309 -18.3622 27.1320
# 2 53.0452 86.3710 36.6168 -10.3868 0.0604 25.3073
# 3 34.4539 36.6168 129.9148 15.1224 -27.8884 9.8670
# 4 8.2309 -10.3868 15.1224 40.2125 0.6549 -7.6707
# 5 -18.3622 0.0604 -27.8884 0.6549 33.0969 0.3605
# 6 27.1320 25.3073 9.8670 -7.6707 0.3605 45.2418
#
#
#
# Elastic Compliance Matrix: (Units=1/GPa)
#
#
# Indices 1 2 3 4 5 6 
#
# 1 0.019437 -0.012238 0.002886 -0.009821 0.013511 -0.007213
# 2 -0.012238 0.024520 -0.007699 0.011449 -0.013520 -0.002649
# 3 0.002886 -0.007699 0.012866 -0.007943 0.012631 -0.001677
# 4 -0.009821 0.011449 -0.007943 0.034397 -0.012921 0.007153
# 5 0.013511 -0.013520 0.012631 -0.012921 0.048698 -0.005874
# 6 -0.007213 -0.002649 -0.001677 0.007153 -0.005874 0.029536
#
#
# Mechanical properties :
#
#
# Convention : Reuss Voigt Hill
#
# Bulk Modulus (GPa) = 44.01312 63.47100 53.74206
# Shear Modulus (GPa) = 23.68197 36.96965 30.32581
#
# Velocity S-wave (km/s) = 3.07099 3.83700 3.47517
# Velocity P-wave (km/s) = 5.48654 6.70123 6.12408
#
# Compressibility (1/GPa) = 0.02272050
#
# Stress axis : x y z
#
# Youngs Moduli (GPa) = 51.44780 40.78239 77.72625
#
# Poissons Ratio (x) = 0.49908 -0.22429
# Poissons Ratio (y) = 0.62961 0.59844
# Poissons Ratio (z) = -0.14846 0.31400
#
# Static dielectric constant tensor:
#      x y z
#    x 2.018630 -0.007750 0.035920 
#    y -0.007750 2.082400 0.068510 
#    z 0.035920 0.068510 2.024750 
# 
# From -- ./inp_files/381958.got.cif
#   From: 2010.05.17/outbox.cif.g08.bks.cpg/sg2_191_cif.got.tgz:381958.got - 2010.06.03 11:33:40.
