data_PCOD9037783
_publ_section_title
;
Structure prediction by ZEFSAII (Michael W. Deem and Ramdas Pophale) SiO2 
 PCOD9037783
Probable space group: P -1
;
_chemical_formula_sum "Si O2"
_cell_formula_units_Z 16
_cell_length_a 14.246495
_cell_length_b 9.889918
_cell_length_c 9.506462
_cell_angle_alpha 31.721018
_cell_angle_beta 76.139866
_cell_angle_gamma 67.243549
_cell_volume 638.274303
_symmetry_space_group_name_H-M "P -1"
_symmetry_group_IT_number 2
_symmetry_cell_setting 'triclinic'
loop_
_space_group_symop_operation_xyz
x,y,z
-x,-y,-z
loop_
_atom_site_type_symbol
_atom_site_label
_atom_site_fract_x
_atom_site_fract_y
_atom_site_fract_z
Si Si1 0.584428 0.767609 0.755139
Si Si2 0.088962 0.708836 0.843495
Si Si3 0.254788 0.150842 0.185283
Si Si4 0.398651 0.702807 0.015263
Si Si5 0.797179 0.462738 0.608102
Si Si6 0.377379 0.110734 0.894946
Si Si7 0.194833 0.000428 0.750795
Si Si8 0.106321 0.879888 0.387120
O O1 0.648690 0.902725 0.702755
O O2 0.518909 0.641587 0.994481
O O3 0.500000 0.000000 0.500000
O O4 0.631438 0.547108 0.811660
O O5 0.145507 0.901472 0.723938
O O6 0.065784 0.759721 0.640820
O O7 0.168306 0.398075 0.082025
O O8 0.980048 0.814176 0.871437
O O9 0.210089 0.916709 0.372846
O O10 0.300293 0.204455 0.972125
O O11 0.317043 0.935213 0.742040
O O12 0.376488 0.835732 0.059460
O O13 0.683759 0.645552 0.413307
O O14 0.869959 0.309569 0.587865
O O15 0.841165 0.683008 0.468703
O O16 0.809161 0.207243 0.936657
O O17 0.500000 0.000000 0.000000
#
# Coordination Sequence:
#
# PCOD9037783 Si02
#       8
#     2   2   2   2   2   2   2   2
#     4  11  25  39  67 101 142 193 247 296 370 446
#     4  11  26  47  73 109 141 198 253 312 384 436
#     4  12  24  46  70 106 146 195 247 311 368 448
#     4  10  23  41  62  98 143 187 238 297 359 438
#     4  11  26  49  74 111 150 198 248 312 371 449
#     4  11  23  44  71 104 147 195 246 298 374 446
#     4  11  26  46  78 106 155 192 251 309 375 446
#     4  11  26  47  76 102 148 195 252 317 376 450
#
# _framework density 25.067594
#
# number of rings (size 3 to 8) (size 9 to 14) (size 15 to 20)
#    0.000    1.000    3.750    1.875    7.000    2.000 
#    0.000    5.000    0.000    0.000    0.000    0.000 
#    0.000    0.000    0.000    0.000    0.000    0.000 
#
# Total GULP energy -89155.823004 kJ/mol
# GULP energy per Si atom -5572.238938 kJ/mol
# Density = 2.501054 g / cm^3
# Si number density = 25.067594 Si / 1000 Ang^3
#
#
#
# Elastic Constant Matrix: (Units=GPa)
#
#
# Indices 1 2 3 4 5 6 
#
# 1 70.1827 30.2645 -3.2727 -5.3643 2.8601 22.2285
# 2 30.2645 185.6667 40.2741 -13.0164 -11.1285 18.6964
# 3 -3.2727 40.2741 80.4910 3.6060 -8.2925 3.1395
# 4 -5.3643 -13.0164 3.6060 36.7925 14.2899 -2.1959
# 5 2.8601 -11.1285 -8.2925 14.2899 22.6455 -6.1946
# 6 22.2285 18.6964 3.1395 -2.1959 -6.1946 44.5839
#
#
#
# Elastic Compliance Matrix: (Units=1/GPa)
#
#
# Indices 1 2 3 4 5 6 
#
# 1 0.019182 -0.002673 0.001392 0.004519 -0.008683 -0.009525
# 2 -0.002673 0.006884 -0.003508 0.001979 0.000890 -0.001086
# 3 0.001392 -0.003508 0.015185 -0.005257 0.007097 0.000435
# 4 0.004519 0.001979 -0.005257 0.039554 -0.027747 -0.004620
# 5 -0.008683 0.000890 0.007097 -0.027747 0.068995 0.011676
# 6 -0.009525 -0.001086 0.000435 -0.004620 0.011676 0.028998
#
#
# Mechanical properties :
#
#
# Convention : Reuss Voigt Hill
#
# Bulk Modulus (GPa) = 31.57232 52.31914 41.94573
# Shear Modulus (GPa) = 25.13392 38.74268 31.93830
#
# Velocity S-wave (km/s) = 3.16989 3.93559 3.57331
# Velocity P-wave (km/s) = 5.10097 6.44735 5.81327
#
# Compressibility (1/GPa) = 0.03167332
#
# Stress axis : x y z
#
# Youngs Moduli (GPa) = 52.13182 145.26279 65.85360
#
# Poissons Ratio (x) = 0.38833 -0.09167
# Poissons Ratio (y) = 0.13936 0.23100
# Poissons Ratio (z) = -0.07257 0.50954
#
# Static dielectric constant tensor:
#      x y z
#    x 2.144040 -0.136650 -0.015530 
#    y -0.136650 1.850980 0.137280 
#    z -0.015530 0.137280 2.002920 
# 
# From -- ./inp_files/297264.got.cif
#   From: 2010.05.17/outbox.cif.g08.bks.cpg/sg2_149_cif.got.tgz:297264.got - 2010.06.03 11:33:40.
