data_PCOD9037301
_publ_section_title
;
Structure prediction by ZEFSAII (Michael W. Deem and Ramdas Pophale) SiO2 
 PCOD9037301
Probable space group: P -1
;
_chemical_formula_sum "Si O2"
_cell_formula_units_Z 12
_cell_length_a 11.809058
_cell_length_b 6.782074
_cell_length_c 14.844470
_cell_angle_alpha 80.306770
_cell_angle_beta 144.517304
_cell_angle_gamma 122.883658
_cell_volume 479.523526
_symmetry_space_group_name_H-M "P -1"
_symmetry_group_IT_number 2
_symmetry_cell_setting 'triclinic'
loop_
_space_group_symop_operation_xyz
x,y,z
-x,-y,-z
loop_
_atom_site_type_symbol
_atom_site_label
_atom_site_fract_x
_atom_site_fract_y
_atom_site_fract_z
Si Si1 0.946731 0.354642 0.573610
Si Si2 0.098452 0.315421 0.977916
Si Si3 0.701412 0.866592 0.348675
Si Si4 0.948498 0.793467 0.845937
Si Si5 0.491534 0.888206 0.908879
Si Si6 0.750139 0.337825 0.630183
O O1 0.261918 0.547823 0.791148
O O2 0.000000 0.500000 0.500000
O O3 0.819434 0.406532 0.563558
O O4 0.772510 0.024194 0.478254
O O5 0.432815 0.530314 0.188978
O O6 0.925216 0.001532 0.851464
O O7 0.008047 0.288137 0.024385
O O8 0.011010 0.424693 0.844186
O O9 0.601345 0.992079 0.221930
O O10 0.000000 0.000000 0.500000
O O11 0.272181 0.476897 0.340075
O O12 0.226389 0.994873 0.952519
O O13 0.500000 0.000000 0.000000
O O14 0.500000 0.000000 0.500000
#
# Coordination Sequence:
#
# PCOD9037301 Si02
#       6
#     2   2   2   2   2   2
#     4  10  23  40  65 101 134 183 229 279 351 407
#     4  11  25  45  71 102 138 189 233 286 354 417
#     4  11  23  42  68 102 138 180 236 286 345 424
#     4  11  24  44  71 100 141 183 236 287 350 421
#     4  11  21  42  70  98 138 188 226 289 356 408
#     4  12  25  44  71 101 140 182 233 292 348 419
#
# _framework density 25.024844000000002
#
# number of rings (size 3 to 8) (size 9 to 14) (size 15 to 20)
#    0.000    1.000    3.333    2.500    4.667    2.000 
#    3.000    3.333    0.000    0.000    0.000    0.000 
#    0.000    0.000    0.000    0.000    0.000    0.000 
#
# Total GULP energy -66929.387426 kJ/mol
# GULP energy per Si atom -5577.448952 kJ/mol
# Density = 2.496789 g / cm^3
# Si number density = 25.024844 Si / 1000 Ang^3
#
#
#
# Elastic Constant Matrix: (Units=GPa)
#
#
# Indices 1 2 3 4 5 6 
#
# 1 147.3145 26.2805 41.2340 17.3789 -42.5556 6.0458
# 2 26.2805 70.4734 30.5581 28.3919 -14.7705 -11.0327
# 3 41.2340 30.5581 114.8942 46.7014 -6.7581 -6.7307
# 4 17.3789 28.3919 46.7014 53.1351 -13.3385 -5.5709
# 5 -42.5556 -14.7705 -6.7581 -13.3385 40.8183 11.3923
# 6 6.0458 -11.0327 -6.7307 -5.5709 11.3923 45.4578
#
#
#
# Elastic Compliance Matrix: (Units=1/GPa)
#
#
# Indices 1 2 3 4 5 6 
#
# 1 0.012650 -0.002184 -0.005429 0.004874 0.014802 -0.006129
# 2 -0.002184 0.019474 -0.000677 -0.008497 0.000860 0.003660
# 3 -0.005429 -0.000677 0.016173 -0.013909 -0.008731 0.003436
# 4 0.004874 -0.008497 -0.013909 0.036817 0.012695 -0.003440
# 5 0.014802 0.000860 -0.008731 0.012695 0.046624 -0.013182
# 6 -0.006129 0.003660 0.003436 -0.003440 -0.013182 0.027093
#
#
# Mechanical properties :
#
#
# Convention : Reuss Voigt Hill
#
# Bulk Modulus (GPa) = 31.52762 58.75859 45.14310
# Shear Modulus (GPa) = 26.88408 43.52286 35.20347
#
# Velocity S-wave (km/s) = 3.28120 4.17488 3.75472
# Velocity P-wave (km/s) = 5.19432 6.83890 6.07254
#
# Compressibility (1/GPa) = 0.03171822
#
# Stress axis : x y z
#
# Youngs Moduli (GPa) = 79.05208 51.35043 61.82961
#
# Poissons Ratio (x) = 0.11216 0.33565
# Poissons Ratio (y) = 0.17266 0.04185
# Poissons Ratio (z) = 0.42914 0.03476
#
# Static dielectric constant tensor:
#      x y z
#    x 1.969850 -0.048240 -0.006200 
#    y -0.048240 2.070000 0.052250 
#    z -0.006200 0.052250 2.082000 
# 
# From -- ./inp_files/513295.got.cif
#   From: 2010.05.17/outbox.cif.g08.bks.cpg/sg2_257_cif.got.tgz:513295.got - 2010.06.03 11:33:40.
