data_PCOD9037644
_publ_section_title
;
Structure prediction by ZEFSAII (Michael W. Deem and Ramdas Pophale) SiO2 
 PCOD9037644
Probable space group: P -1
;
_chemical_formula_sum "Si O2"
_cell_formula_units_Z 16
_cell_length_a 11.399468
_cell_length_b 8.439967
_cell_length_c 8.616098
_cell_angle_alpha 73.833235
_cell_angle_beta 112.685540
_cell_angle_gamma 116.343310
_cell_volume 679.610024
_symmetry_space_group_name_H-M "P -1"
_symmetry_group_IT_number 2
_symmetry_cell_setting 'triclinic'
loop_
_space_group_symop_operation_xyz
x,y,z
-x,-y,-z
loop_
_atom_site_type_symbol
_atom_site_label
_atom_site_fract_x
_atom_site_fract_y
_atom_site_fract_z
Si Si1 0.161869 0.561596 0.023589
Si Si2 0.561536 0.669085 0.338328
Si Si3 0.622459 0.596123 0.912218
Si Si4 0.204140 0.462877 0.410931
Si Si5 0.562572 0.060082 0.720444
Si Si6 0.099522 0.822824 0.702050
Si Si7 0.705100 0.928669 0.059382
Si Si8 0.284236 0.815197 0.538511
O O1 0.243262 0.453510 0.011672
O O2 0.217050 0.571015 0.226445
O O3 0.169713 0.701713 0.855225
O O4 0.000000 0.500000 0.000000
O O5 0.455869 0.482999 0.265666
O O6 0.684153 0.623869 0.483157
O O7 0.493781 0.780737 0.374015
O O8 0.616124 0.805448 0.184507
O O9 0.500000 0.500000 0.000000
O O10 0.686003 0.801239 0.937237
O O11 0.219219 0.606430 0.516369
O O12 0.057987 0.297100 0.373764
O O13 0.665277 0.080137 0.625193
O O14 0.427196 0.878143 0.689935
O O15 0.638676 0.063498 0.920312
O O16 0.178982 0.875029 0.565740
O O17 0.144721 0.981111 0.809531
#
# Coordination Sequence:
#
# PCOD9037644 Si02
#       8
#     2   2   2   2   2   2   2   2
#     4  10  24  47  71  99 137 184 231 278 343 414
#     4  11  23  41  69  99 136 176 226 286 343 399
#     4  10  23  40  71 106 131 175 231 290 337 405
#     4  11  25  45  66  99 138 181 227 281 339 413
#     4  11  24  43  70 102 135 176 224 291 347 403
#     4  11  24  45  71  94 136 187 227 275 342 419
#     4  11  23  42  69 100 133 176 230 280 338 407
#     4  11  24  41  67 102 131 173 227 281 343 404
#
# _framework density 23.542914
#
# number of rings (size 3 to 8) (size 9 to 14) (size 15 to 20)
#    0.000    1.250    1.250    3.750    7.000    4.500 
#    0.000    2.500    0.000    0.000    0.000    0.000 
#    0.000    0.000    0.000    0.000    0.000    0.000 
#
# Total GULP energy -89207.431537 kJ/mol
# GULP energy per Si atom -5575.464471 kJ/mol
# Density = 2.348933 g / cm^3
# Si number density = 23.542914 Si / 1000 Ang^3
#
#
#
# Elastic Constant Matrix: (Units=GPa)
#
#
# Indices 1 2 3 4 5 6 
#
# 1 102.7887 52.2221 57.1103 16.0560 14.0987 6.3588
# 2 52.2221 112.8044 43.9911 43.8980 13.8974 7.1269
# 3 57.1103 43.9911 124.2420 10.9577 16.8551 2.2942
# 4 16.0560 43.8980 10.9577 51.2949 9.3152 5.0892
# 5 14.0987 13.8974 16.8551 9.3152 36.8256 -1.1703
# 6 6.3588 7.1269 2.2942 5.0892 -1.1703 34.5620
#
#
#
# Elastic Compliance Matrix: (Units=1/GPa)
#
#
# Indices 1 2 3 4 5 6 
#
# 1 0.015388 -0.005354 -0.004998 0.001357 -0.001979 -0.001662
# 2 -0.005354 0.017217 -0.002504 -0.012435 -0.000174 -0.000574
# 3 -0.004998 -0.002504 0.011455 0.001739 -0.002814 0.000324
# 4 0.001357 -0.012435 0.001739 0.030377 -0.004384 -0.002422
# 5 -0.001979 -0.000174 -0.002814 -0.004384 0.030448 0.002263
# 6 -0.001662 -0.000574 0.000324 -0.002422 0.002263 0.029769
#
#
# Mechanical properties :
#
#
# Convention : Reuss Voigt Hill
#
# Bulk Modulus (GPa) = 54.50275 71.83133 63.16704
# Shear Modulus (GPa) = 30.03325 36.97063 33.50194
#
# Velocity S-wave (km/s) = 3.57554 3.96706 3.77638
# Velocity P-wave (km/s) = 6.34402 7.18056 6.77522
#
# Compressibility (1/GPa) = 0.01834770
#
# Stress axis : x y z
#
# Youngs Moduli (GPa) = 64.98498 58.08333 87.29529
#
# Poissons Ratio (x) = 0.31098 0.43632
# Poissons Ratio (y) = 0.34793 0.21859
# Poissons Ratio (z) = 0.32481 0.14544
#
# Static dielectric constant tensor:
#      x y z
#    x 1.412850 0.045120 0.109660 
#    y 0.045120 2.033870 0.034030 
#    z 0.109660 0.034030 1.955660 
# 
# From -- ./inp_files/243207.got.cif
#   From: 2010.05.17/outbox.cif.g08.bks.cpg/sg2_122_cif.got.tgz:243207.got - 2010.06.03 11:33:40.
