data_PCOD9037478
_publ_section_title
;
Structure prediction by ZEFSAII (Michael W. Deem and Ramdas Pophale) SiO2 
 PCOD9037478
Probable space group: P -1
;
_chemical_formula_sum "Si O2"
_cell_formula_units_Z 16
_cell_length_a 7.119042
_cell_length_b 7.894425
_cell_length_c 18.549333
_cell_angle_alpha 47.600315
_cell_angle_beta 63.397455
_cell_angle_gamma 86.307552
_cell_volume 642.244465
_symmetry_space_group_name_H-M "P -1"
_symmetry_group_IT_number 2
_symmetry_cell_setting 'triclinic'
loop_
_space_group_symop_operation_xyz
x,y,z
-x,-y,-z
loop_
_atom_site_type_symbol
_atom_site_label
_atom_site_fract_x
_atom_site_fract_y
_atom_site_fract_z
Si Si1 0.476390 0.166271 0.320264
Si Si2 0.797336 0.859461 0.852530
Si Si3 0.156875 0.820231 0.107766
Si Si4 0.322196 0.656429 0.908829
Si Si5 0.073891 0.296459 0.323621
Si Si6 0.226822 0.087331 0.612058
Si Si7 0.311685 0.450750 0.376956
Si Si8 0.290337 0.090445 0.863017
O O1 0.648825 0.342553 0.182227
O O2 0.232181 0.132962 0.339855
O O3 0.550863 0.936153 0.384939
O O4 0.461267 0.307277 0.355195
O O5 0.571994 0.772457 0.867876
O O6 0.020880 0.995169 0.729283
O O7 0.786270 0.037577 0.867684
O O8 0.794583 0.606035 0.960581
O O9 0.172006 0.550987 0.189278
O O10 0.898884 0.788136 0.143445
O O11 0.299405 0.993594 0.969981
O O12 0.209400 0.847913 0.897799
O O13 0.098988 0.380617 0.378809
O O14 0.844155 0.119348 0.380380
O O15 0.255457 0.343865 0.496470
O O16 0.473458 0.729362 0.260275
#
# Coordination Sequence:
#
# PCOD9037478 Si02
#       8
#     2   2   2   2   2   2   2   2
#     4  10  23  40  67  98 128 171 213 275 318 382
#     4  11  24  40  68  95 133 170 217 272 327 388
#     4  11  24  42  67 100 131 170 218 273 331 387
#     4  11  23  43  66  98 129 168 218 277 330 381
#     4  10  23  41  66 100 127 173 215 267 325 382
#     4  12  22  44  68  97 134 174 220 262 325 391
#     4  10  23  42  65  98 131 177 214 266 322 388
#     4  11  24  42  67  97 135 170 217 272 328 388
#
# _framework density 24.912631999999999
#
# number of rings (size 3 to 8) (size 9 to 14) (size 15 to 20)
#    0.750    0.500    1.250    4.500    1.750    5.000 
#    0.000    6.250    0.000    0.000    0.000    0.000 
#    0.000    0.000    0.000    0.000    0.000    0.000 
#
# Total GULP energy -89509.238829 kJ/mol
# GULP energy per Si atom -5594.327427 kJ/mol
# Density = 2.485593 g / cm^3
# Si number density = 24.912632 Si / 1000 Ang^3
#
#
#
# Elastic Constant Matrix: (Units=GPa)
#
#
# Indices 1 2 3 4 5 6 
#
# 1 83.3809 22.2092 26.9435 -1.1211 11.4108 1.9042
# 2 22.2092 54.7310 33.5122 0.5788 -9.9769 9.0545
# 3 26.9435 33.5122 181.2459 1.0881 11.4405 10.5710
# 4 -1.1211 0.5788 1.0881 26.6576 2.9531 -2.4307
# 5 11.4108 -9.9769 11.4405 2.9531 21.3824 -0.7225
# 6 1.9042 9.0545 10.5710 -2.4307 -0.7225 18.4177
#
#
#
# Elastic Compliance Matrix: (Units=1/GPa)
#
#
# Indices 1 2 3 4 5 6 
#
# 1 0.016365 -0.009607 0.000014 0.002650 -0.013493 0.002844
# 2 -0.009607 0.031344 -0.005124 -0.004411 0.022725 -0.011166
# 3 0.000014 -0.005124 0.006951 0.000366 -0.006224 -0.001668
# 4 0.002650 -0.004411 0.000366 0.039283 -0.008873 0.006521
# 5 -0.013493 0.022725 -0.006224 -0.008873 0.068969 -0.004670
# 6 0.002844 -0.011166 -0.001668 0.006521 -0.004670 0.061125
#
#
# Mechanical properties :
#
#
# Convention : Reuss Voigt Hill
#
# Bulk Modulus (GPa) = 39.64481 53.85419 46.74950
# Shear Modulus (GPa) = 19.09274 29.07106 24.08190
#
# Velocity S-wave (km/s) = 2.77137 3.41973 3.11248
# Velocity P-wave (km/s) = 5.11750 6.10384 5.63230
#
# Compressibility (1/GPa) = 0.02522398
#
# Stress axis : x y z
#
# Youngs Moduli (GPa) = 61.10609 31.90453 143.87054
#
# Poissons Ratio (x) = 0.30651 -0.00194
# Poissons Ratio (y) = 0.58706 0.73719
# Poissons Ratio (z) = -0.00083 0.16348
#
# Static dielectric constant tensor:
#      x y z
#    x 2.015050 -0.013590 0.024190 
#    y -0.013590 1.927950 0.039440 
#    z 0.024190 0.039440 1.964020 
# 
# From -- ./inp_files/587759.got.cif
#   From: 2010.05.17/outbox.cif.g08.bks.cpg/sg2_294_cif.got.tgz:587759.got - 2010.06.03 11:33:40.
