data_PCOD9037688
_publ_section_title
;
Structure prediction by ZEFSAII (Michael W. Deem and Ramdas Pophale) SiO2 
 PCOD9037688
Probable space group: P -1
;
_chemical_formula_sum "Si O2"
_cell_formula_units_Z 14
_cell_length_a 13.487608
_cell_length_b 9.078666
_cell_length_c 8.250700
_cell_angle_alpha 133.847240
_cell_angle_beta 65.412946
_cell_angle_gamma 87.391395
_cell_volume 570.335218
_symmetry_space_group_name_H-M "P -1"
_symmetry_group_IT_number 2
_symmetry_cell_setting 'triclinic'
loop_
_space_group_symop_operation_xyz
x,y,z
-x,-y,-z
loop_
_atom_site_type_symbol
_atom_site_label
_atom_site_fract_x
_atom_site_fract_y
_atom_site_fract_z
Si Si1 0.225607 0.570473 0.656688
Si Si2 0.663932 0.906758 0.217860
Si Si3 0.797695 0.423431 0.955650
Si Si4 0.363807 0.728612 0.222041
Si Si5 0.980985 0.561310 0.307694
Si Si6 0.885090 0.890527 0.922008
Si Si7 0.473418 0.184990 0.021916
O O1 0.249796 0.592860 0.846903
O O2 0.348585 0.428325 0.350292
O O3 0.153702 0.420060 0.606348
O O4 0.141253 0.842729 0.856314
O O5 0.719868 0.682161 0.126365
O O6 0.657019 0.109736 0.487897
O O7 0.751591 0.899809 0.004842
O O8 0.548950 0.911776 0.206669
O O9 0.760354 0.282802 0.746118
O O10 0.941751 0.375037 0.825284
O O11 0.500000 0.500000 0.000000
O O12 0.402000 0.803903 0.087557
O O13 0.061892 0.282306 0.089533
O O14 0.971508 0.727558 0.592114
O O15 0.500000 0.000000 0.000000
#
# Coordination Sequence:
#
# PCOD9037688 Si02
#       7
#     2   2   2   2   2   2   2
#     4  12  25  45  72 107 139 181 239 287 347 411
#     4  11  24  48  68  98 142 184 227 288 351 407
#     4  11  27  44  70 105 139 187 227 285 352 414
#     4  12  26  44  70  98 140 185 237 278 343 423
#     4  10  23  47  71 103 145 180 229 288 358 407
#     4  10  23  40  75 104 138 179 232 285 350 415
#     4  12  27  45  74 101 143 185 232 293 348 406
#
# _framework density 24.546969000000001
#
# number of rings (size 3 to 8) (size 9 to 14) (size 15 to 20)
#    0.000    0.857    2.857    3.000    4.000    4.571 
#    0.000    0.000    0.000    0.000    0.000    0.000 
#    0.000    0.000    0.000    0.000    0.000    0.000 
#
# Total GULP energy -78119.876022 kJ/mol
# GULP energy per Si atom -5579.991144 kJ/mol
# Density = 2.449110 g / cm^3
# Si number density = 24.546969 Si / 1000 Ang^3
#
#
#
# Elastic Constant Matrix: (Units=GPa)
#
#
# Indices 1 2 3 4 5 6 
#
# 1 81.6369 11.1542 25.9197 -2.5471 16.4236 23.7647
# 2 11.1542 95.3336 39.1428 -1.2161 0.9836 4.4162
# 3 25.9197 39.1428 129.1969 2.3730 16.7198 2.6824
# 4 -2.5471 -1.2161 2.3730 30.5177 -2.4443 0.1755
# 5 16.4236 0.9836 16.7198 -2.4443 29.2001 -4.6383
# 6 23.7647 4.4162 2.6824 0.1755 -4.6383 39.3312
#
#
#
# Elastic Compliance Matrix: (Units=1/GPa)
#
#
# Indices 1 2 3 4 5 6 
#
# 1 0.018944 -0.000749 -0.001839 0.000845 -0.011507 -0.012598
# 2 -0.000749 0.012156 -0.003828 0.000899 0.002216 -0.000394
# 3 -0.001839 -0.003828 0.009878 -0.001441 -0.004561 0.000336
# 4 0.000845 0.000899 -0.001441 0.033233 0.003054 -0.000301
# 5 -0.011507 0.002216 -0.004561 0.003054 0.045475 0.012364
# 6 -0.012598 -0.000394 0.000336 -0.000301 0.012364 0.034518
#
#
# Mechanical properties :
#
#
# Convention : Reuss Voigt Hill
#
# Bulk Modulus (GPa) = 35.52598 50.95563 43.24081
# Shear Modulus (GPa) = 28.34212 35.13985 31.74098
#
# Velocity S-wave (km/s) = 3.40164 3.78767 3.59983
# Velocity P-wave (km/s) = 5.47104 6.31918 5.91034
#
# Compressibility (1/GPa) = 0.02814841
#
# Stress axis : x y z
#
# Youngs Moduli (GPa) = 52.78704 82.26703 101.23128
#
# Poissons Ratio (x) = 0.06158 0.18612
# Poissons Ratio (y) = 0.03951 0.38748
# Poissons Ratio (z) = 0.09705 0.31489
#
# Static dielectric constant tensor:
#      x y z
#    x 2.018080 0.009630 -0.069330 
#    y 0.009630 1.966370 -0.038840 
#    z -0.069330 -0.038840 1.988340 
# 
# From -- ./inp_files/299800.got.cif
#   From: 2010.05.17/outbox.cif.g08.bks.cpg/sg2_150_cif.got.tgz:299800.got - 2010.06.03 11:33:40.
