data_PCOD9037414
_publ_section_title
;
Structure prediction by ZEFSAII (Michael W. Deem and Ramdas Pophale) SiO2 
 PCOD9037414
Probable space group: P -1
;
_chemical_formula_sum "Si O2"
_cell_formula_units_Z 16
_cell_length_a 9.073991
_cell_length_b 13.757170
_cell_length_c 8.353430
_cell_angle_alpha 90.217588
_cell_angle_beta 141.866589
_cell_angle_gamma 83.959357
_cell_volume 635.017104
_symmetry_space_group_name_H-M "P -1"
_symmetry_group_IT_number 2
_symmetry_cell_setting 'triclinic'
loop_
_space_group_symop_operation_xyz
x,y,z
-x,-y,-z
loop_
_atom_site_type_symbol
_atom_site_label
_atom_site_fract_x
_atom_site_fract_y
_atom_site_fract_z
Si Si1 0.258261 0.245895 0.853017
Si Si2 0.555761 0.544902 0.721170
Si Si3 0.211692 0.733185 0.330110
Si Si4 0.235410 0.428985 0.640679
Si Si5 0.378336 0.910179 0.951190
Si Si6 0.974814 0.813795 0.669715
Si Si7 0.933071 0.375120 0.107410
Si Si8 0.510827 0.890517 0.438656
O O1 0.300986 0.354055 0.841457
O O2 0.511727 0.173957 0.084427
O O3 0.033131 0.240332 0.775428
O O4 0.166594 0.209183 0.606483
O O5 0.500000 0.500000 0.500000
O O6 0.434588 0.658613 0.603330
O O7 0.423486 0.495394 0.748022
O O8 0.826426 0.490976 0.993554
O O9 0.335953 0.824372 0.375328
O O10 0.110669 0.670439 0.101454
O O11 0.000000 0.500000 0.500000
O O12 0.174508 0.377709 0.418919
O O13 0.434744 0.897049 0.188258
O O14 0.095593 0.906287 0.720902
O O15 0.500000 0.000000 0.000000
O O16 0.162564 0.712395 0.869266
O O17 0.792728 0.838082 0.664311
O O18 0.500000 0.000000 0.500000
#
# Coordination Sequence:
#
# PCOD9037414 Si02
#       8
#     2   2   2   2   2   2   2   2
#     4  10  24  43  67  95 142 170 225 285 327 408
#     4  10  23  40  66  97 138 173 229 274 330 406
#     4  11  23  46  64 105 135 180 229 283 339 405
#     4  11  22  44  64 100 136 181 220 275 337 395
#     4  11  25  45  70  97 127 178 229 281 346 410
#     4  10  23  46  68  94 131 186 218 277 348 399
#     4  10  23  42  70  92 139 180 220 273 338 400
#     4  11  27  45  70  96 139 175 224 292 339 400
#
# _framework density 25.196171
#
# number of rings (size 3 to 8) (size 9 to 14) (size 15 to 20)
#    0.000    1.500    2.500    0.750   12.250    5.000 
#    2.250    0.000    0.000    0.000    0.000    0.000 
#    0.000    0.000    0.000    0.000    0.000    0.000 
#
# Total GULP energy -89208.902375 kJ/mol
# GULP energy per Si atom -5575.556398 kJ/mol
# Density = 2.513882 g / cm^3
# Si number density = 25.196171 Si / 1000 Ang^3
#
#
#
# Elastic Constant Matrix: (Units=GPa)
#
#
# Indices 1 2 3 4 5 6 
#
# 1 173.0779 74.5906 15.9583 5.5866 16.2981 27.6928
# 2 74.5906 150.4444 11.1727 10.7446 1.3381 19.9805
# 3 15.9583 11.1727 42.6151 6.7550 -10.7051 1.4770
# 4 5.5866 10.7446 6.7550 27.8933 0.5335 -4.3487
# 5 16.2981 1.3381 -10.7051 0.5335 28.8081 5.4733
# 6 27.6928 19.9805 1.4770 -4.3487 5.4733 56.2130
#
#
#
# Elastic Compliance Matrix: (Units=1/GPa)
#
#
# Indices 1 2 3 4 5 6 
#
# 1 0.008563 -0.003650 -0.003630 0.000326 -0.005602 -0.002255
# 2 -0.003650 0.008887 0.000106 -0.003039 0.002090 -0.001802
# 3 -0.003630 0.000106 0.029211 -0.006769 0.013186 -0.000824
# 4 0.000326 -0.003039 -0.006769 0.039384 -0.004152 0.004549
# 5 -0.005602 0.002090 0.013186 -0.004152 0.043306 -0.002868
# 6 -0.002255 -0.001802 -0.000824 0.004549 -0.002868 0.020194
#
#
# Mechanical properties :
#
#
# Convention : Reuss Voigt Hill
#
# Bulk Modulus (GPa) = 30.94754 63.28672 47.11713
# Shear Modulus (GPa) = 28.62632 40.21060 34.41846
#
# Velocity S-wave (km/s) = 3.37432 3.99921 3.69998
# Velocity P-wave (km/s) = 5.24316 6.81887 6.08226
#
# Compressibility (1/GPa) = 0.03231275
#
# Stress axis : x y z
#
# Youngs Moduli (GPa) = 116.77678 112.53009 34.23324
#
# Poissons Ratio (x) = 0.41074 0.12428
# Poissons Ratio (y) = 0.42624 -0.00364
# Poissons Ratio (z) = 0.42395 -0.01195
#
# Static dielectric constant tensor:
#      x y z
#    x 1.986330 -0.061030 0.150180 
#    y -0.061030 2.121250 -0.126270 
#    z 0.150180 -0.126270 2.392310 
# 
# From -- ./inp_files/207234.got.cif
#   From: 2010.05.17/outbox.cif.g08.bks.cpg/sg2_104_cif.got.tgz:207234.got - 2010.06.03 11:33:40.
