data_PCOD9037476
_publ_section_title
;
Structure prediction by ZEFSAII (Michael W. Deem and Ramdas Pophale) SiO2 
 PCOD9037476
Probable space group: P -1
;
_chemical_formula_sum "Si O2"
_cell_formula_units_Z 16
_cell_length_a 19.902595
_cell_length_b 8.380017
_cell_length_c 14.647800
_cell_angle_alpha 59.964530
_cell_angle_beta 159.517864
_cell_angle_gamma 122.383144
_cell_volume 721.902745
_symmetry_space_group_name_H-M "P -1"
_symmetry_group_IT_number 2
_symmetry_cell_setting 'triclinic'
loop_
_space_group_symop_operation_xyz
x,y,z
-x,-y,-z
loop_
_atom_site_type_symbol
_atom_site_label
_atom_site_fract_x
_atom_site_fract_y
_atom_site_fract_z
Si Si1 0.972722 0.699001 0.370377
Si Si2 0.171838 0.372061 0.995961
Si Si3 0.249167 0.292747 0.402836
Si Si4 0.413321 0.737388 0.454898
Si Si5 0.692071 0.919208 0.279783
Si Si6 0.212836 0.106721 0.781221
Si Si7 0.387445 0.795832 0.197071
Si Si8 0.914217 0.171475 0.882272
O O1 0.000000 0.500000 0.500000
O O2 0.798217 0.746480 0.195774
O O3 0.141821 0.887756 0.548294
O O4 0.933464 0.675742 0.220455
O O5 0.353388 0.262551 0.254913
O O6 0.273294 0.592004 0.072862
O O7 0.013429 0.326874 0.889163
O O8 0.313868 0.516847 0.408874
O O9 0.291578 0.218326 0.576913
O O10 0.384863 0.201017 0.533732
O O11 0.027181 0.224910 0.106477
O O12 0.355900 0.800094 0.263827
O O13 0.314245 0.841205 0.379032
O O14 0.694708 0.808532 0.219788
O O15 0.500000 0.000000 0.000000
O O16 0.000000 0.000000 0.500000
O O17 0.316500 0.952774 0.002607
O O18 0.000000 0.000000 0.000000
#
# Coordination Sequence:
#
# PCOD9037476 Si02
#       8
#     2   2   2   2   2   2   2   2
#     4  11  26  45  68  98 138 180 224 285 350 406
#     4  11  23  45  66  99 140 174 225 288 346 401
#     4  11  22  43  68  98 134 170 234 283 337 409
#     4  11  25  42  70  99 132 190 227 278 341 412
#     4  11  23  44  72  99 129 176 230 284 334 408
#     4  10  23  40  67  98 127 180 228 271 341 407
#     4  11  21  43  72  95 132 184 234 276 340 419
#     4  12  26  40  62 101 138 177 222 283 351 401
#
# _framework density 22.163650000000001
#
# number of rings (size 3 to 8) (size 9 to 14) (size 15 to 20)
#    0.000    1.000    3.750    3.375    7.000    2.500 
#    2.250    0.625    0.000    0.000    0.000    0.000 
#    0.000    0.000    0.000    0.000    0.000    0.000 
#
# Total GULP energy -89325.407548 kJ/mol
# GULP energy per Si atom -5582.837972 kJ/mol
# Density = 2.211320 g / cm^3
# Si number density = 22.163650 Si / 1000 Ang^3
#
#
#
# Elastic Constant Matrix: (Units=GPa)
#
#
# Indices 1 2 3 4 5 6 
#
# 1 170.2259 24.9339 53.7950 -16.5372 -8.0320 3.3846
# 2 24.9339 72.4397 20.0613 -15.4579 -6.7225 -0.2269
# 3 53.7950 20.0613 78.1968 -6.3951 -16.6590 1.2131
# 4 -16.5372 -15.4579 -6.3951 25.7231 -0.5152 -0.3066
# 5 -8.0320 -6.7225 -16.6590 -0.5152 40.5060 -14.2198
# 6 3.3846 -0.2269 1.2131 -0.3066 -14.2198 29.3172
#
#
#
# Elastic Compliance Matrix: (Units=1/GPa)
#
#
# Indices 1 2 3 4 5 6 
#
# 1 0.007918 -0.000668 -0.005207 0.003359 -0.001054 -0.001180
# 2 -0.000668 0.016941 -0.002691 0.009144 0.002211 0.001488
# 3 -0.005207 -0.002691 0.018558 -0.000164 0.007333 0.003368
# 4 0.003359 0.009144 -0.000164 0.046578 0.003339 0.001796
# 5 -0.001054 0.002211 0.007333 0.003339 0.033576 0.016156
# 6 -0.001180 0.001488 0.003368 0.001796 0.016156 0.041973
#
#
# Mechanical properties :
#
#
# Convention : Reuss Voigt Hill
#
# Bulk Modulus (GPa) = 38.04589 57.60477 47.82533
# Shear Modulus (GPa) = 26.11840 33.91408 30.01624
#
# Velocity S-wave (km/s) = 3.43656 3.91598 3.68407
# Velocity P-wave (km/s) = 5.74019 6.81862 6.30251
#
# Compressibility (1/GPa) = 0.02628405
#
# Stress axis : x y z
#
# Youngs Moduli (GPa) = 126.29301 59.02928 53.88653
#
# Poissons Ratio (x) = 0.03943 0.28060
# Poissons Ratio (y) = 0.08436 0.14500
# Poissons Ratio (z) = 0.65765 0.15884
#
# Static dielectric constant tensor:
#      x y z
#    x 1.888120 0.033960 0.063890 
#    y 0.033960 1.870750 0.025660 
#    z 0.063890 0.025660 1.848780 
# 
# From -- ./inp_files/428416.got.cif
#   From: 2010.05.17/outbox.cif.g08.bks.cpg/sg2_215_cif.got.tgz:428416.got - 2010.06.03 11:33:40.
