data_PCOD9037914
_publ_section_title
;
Structure prediction by ZEFSAII (Michael W. Deem and Ramdas Pophale) SiO2 
 PCOD9037914
Probable space group: P -1
;
_chemical_formula_sum "Si O2"
_cell_formula_units_Z 10
_cell_length_a 12.997655
_cell_length_b 7.935525
_cell_length_c 5.428417
_cell_angle_alpha 62.192665
_cell_angle_beta 82.453800
_cell_angle_gamma 103.493485
_cell_volume 462.420207
_symmetry_space_group_name_H-M "P -1"
_symmetry_group_IT_number 2
_symmetry_cell_setting 'triclinic'
loop_
_space_group_symop_operation_xyz
x,y,z
-x,-y,-z
loop_
_atom_site_type_symbol
_atom_site_label
_atom_site_fract_x
_atom_site_fract_y
_atom_site_fract_z
Si Si1 0.940286 0.231734 0.438437
Si Si2 0.401677 0.413791 0.282744
Si Si3 0.078532 0.335246 0.817847
Si Si4 0.464834 0.187875 0.809373
Si Si5 0.756267 0.808373 0.870280
O O1 0.900561 0.425157 0.352846
O O2 0.017701 0.243001 0.645917
O O3 0.841065 0.022041 0.617487
O O4 0.003570 0.255212 0.141714
O O5 0.420881 0.219550 0.532585
O O6 0.431270 0.604481 0.327286
O O7 0.284197 0.350304 0.232248
O O8 0.500000 0.500000 0.000000
O O9 0.186788 0.279736 0.874977
O O10 0.357343 0.171467 0.015203
O O11 0.500000 0.000000 0.000000
#
# Coordination Sequence:
#
# PCOD9037914 Si02
#       5
#     2   2   2   2   2
#     4  10  23  41  64  96 132 168 212 266 319 386
#     4   9  22  41  60  90 124 162 211 268 317 383
#     4  10  23  42  62  97 134 165 214 267 316 387
#     4  10  23  42  63  92 128 164 213 270 322 386
#     4  11  23  37  68  90 122 171 210 259 328 379
#
# _framework density 21.625350999999998
#
# number of rings (size 3 to 8) (size 9 to 14) (size 15 to 20)
#    0.000    2.000    0.000    1.200    5.600    9.600 
#    3.600    0.000    0.000    0.000    0.000    0.000 
#    0.000    0.000    0.000    0.000    0.000    0.000 
#
# Total GULP energy -55832.619873 kJ/mol
# GULP energy per Si atom -5583.261987 kJ/mol
# Density = 2.157613 g / cm^3
# Si number density = 21.625351 Si / 1000 Ang^3
#
#
#
# Elastic Constant Matrix: (Units=GPa)
#
#
# Indices 1 2 3 4 5 6 
#
# 1 105.3361 48.5750 39.8890 -22.6039 26.6323 10.8567
# 2 48.5750 77.1099 45.0366 -15.5838 9.7191 30.9081
# 3 39.8890 45.0366 125.7261 -3.0089 27.4800 14.9148
# 4 -22.6039 -15.5838 -3.0089 35.1827 -3.9466 1.6838
# 5 26.6323 9.7191 27.4800 -3.9466 29.5158 -0.1508
# 6 10.8567 30.9081 14.9148 1.6838 -0.1508 41.0562
#
#
#
# Elastic Compliance Matrix: (Units=1/GPa)
#
#
# Indices 1 2 3 4 5 6 
#
# 1 0.018032 -0.009643 0.000399 0.005828 -0.012677 0.002060
# 2 -0.009643 0.032068 -0.007227 0.008985 0.005972 -0.019313
# 3 0.000399 -0.007227 0.012405 -0.003042 -0.009932 0.000917
# 4 0.005828 0.008985 -0.003042 0.036237 -0.000584 -0.008689
# 5 -0.012677 0.005972 -0.009932 -0.000584 0.052535 0.002681
# 6 0.002060 -0.019313 0.000917 -0.008689 0.002681 0.038385
#
#
# Mechanical properties :
#
#
# Convention : Reuss Voigt Hill
#
# Bulk Modulus (GPa) = 33.82460 63.90814 48.86637
# Shear Modulus (GPa) = 21.50912 32.79570 27.15241
#
# Velocity S-wave (km/s) = 3.15719 3.89850 3.54726
# Velocity P-wave (km/s) = 5.38197 7.06265 6.27880
#
# Compressibility (1/GPa) = 0.02956428
#
# Stress axis : x y z
#
# Youngs Moduli (GPa) = 55.45582 31.18327 80.61033
#
# Poissons Ratio (x) = 0.30069 -0.03215
# Poissons Ratio (y) = 0.53474 0.58259
# Poissons Ratio (z) = -0.02212 0.22537
#
# Static dielectric constant tensor:
#      x y z
#    x 1.772820 -0.016420 -0.002950 
#    y -0.016420 1.890870 0.087180 
#    z -0.002950 0.087180 1.823050 
# 
# From -- ./inp_files/18063.got.cif
#   From: 2010.05.17/outbox.cif.g08.bks.cpg/sg2_10_cif.got.tgz:18063.got - 2010.06.03 11:33:40.
