data_PCOD9037500
_publ_section_title
;
Structure prediction by ZEFSAII (Michael W. Deem and Ramdas Pophale) SiO2 
 PCOD9037500
Probable space group: P -1
;
_chemical_formula_sum "Si O2"
_cell_formula_units_Z 14
_cell_length_a 20.956173
_cell_length_b 11.558833
_cell_length_c 5.784361
_cell_angle_alpha 58.564662
_cell_angle_beta 113.902269
_cell_angle_gamma 148.651005
_cell_volume 619.396371
_symmetry_space_group_name_H-M "P -1"
_symmetry_group_IT_number 2
_symmetry_cell_setting 'triclinic'
loop_
_space_group_symop_operation_xyz
x,y,z
-x,-y,-z
loop_
_atom_site_type_symbol
_atom_site_label
_atom_site_fract_x
_atom_site_fract_y
_atom_site_fract_z
Si Si1 0.049954 0.137875 0.186111
Si Si2 0.263117 0.363529 0.022118
Si Si3 0.574094 0.263174 0.482116
Si Si4 0.085219 0.562056 0.249116
Si Si5 0.645589 0.102169 0.831626
Si Si6 0.921655 0.172677 0.788948
Si Si7 0.494580 0.650494 0.333704
O O1 0.190346 0.321020 0.164744
O O2 0.000000 0.000000 0.500000
O O3 0.016407 0.242735 0.020549
O O4 0.000000 0.000000 0.000000
O O5 0.394518 0.526670 0.126461
O O6 0.188789 0.110655 0.102729
O O7 0.300755 0.526159 0.705346
O O8 0.602877 0.181538 0.775312
O O9 0.556500 0.373032 0.479116
O O10 0.446342 0.047057 0.373063
O O11 0.211147 0.689853 0.230113
O O12 0.120151 0.747209 0.270096
O O13 0.996664 0.318508 0.512247
O O14 0.000000 0.500000 0.000000
O O15 0.611487 0.926060 0.140068
O O16 0.500000 0.500000 0.500000
#
# Coordination Sequence:
#
# PCOD9037500 Si02
#       7
#     2   2   2   2   2   2   2
#     4  10  23  40  68 100 137 187 227 291 356 424
#     4  10  24  41  69  98 135 177 230 293 358 423
#     4  10  23  45  70  97 135 181 234 294 360 421
#     4  11  26  41  68  96 137 192 234 291 364 430
#     4  10  24  45  67  95 137 180 234 290 353 432
#     4  10  25  43  63 100 139 182 233 294 358 430
#     4  11  26  38  70 104 129 182 227 292 361 419
#
# _framework density 22.602650000000001
#
# number of rings (size 3 to 8) (size 9 to 14) (size 15 to 20)
#    0.000    1.714    0.000    1.286   14.000    3.429 
#    0.000    0.000    0.000    0.000    0.000    0.000 
#    0.000    0.000    0.000    0.000    0.000    0.000 
#
# Total GULP energy -78078.209236 kJ/mol
# GULP energy per Si atom -5577.014945 kJ/mol
# Density = 2.255121 g / cm^3
# Si number density = 22.602650 Si / 1000 Ang^3
#
#
#
# Elastic Constant Matrix: (Units=GPa)
#
#
# Indices 1 2 3 4 5 6 
#
# 1 108.8179 12.7135 28.9910 -1.5807 -2.9053 10.5768
# 2 12.7135 84.2199 18.1250 -13.8461 -10.0297 8.3950
# 3 28.9910 18.1250 133.2669 -13.8059 0.0408 18.7374
# 4 -1.5807 -13.8461 -13.8059 22.5830 7.0007 -3.1004
# 5 -2.9053 -10.0297 0.0408 7.0007 31.7516 -4.8438
# 6 10.5768 8.3950 18.7374 -3.1004 -4.8438 32.8518
#
#
#
# Elastic Compliance Matrix: (Units=1/GPa)
#
#
# Indices 1 2 3 4 5 6 
#
# 1 0.010010 -0.001095 -0.001928 -0.001608 0.000637 -0.001901
# 2 -0.001095 0.013797 -0.000668 0.006971 0.002451 -0.001773
# 3 -0.001928 -0.000668 0.009146 0.005139 -0.002182 -0.004262
# 4 -0.001608 0.006971 0.005139 0.054636 -0.010078 -0.000524
# 5 0.000637 0.002451 -0.002182 -0.010078 0.035263 0.004661
# 6 -0.001901 -0.001773 -0.004262 -0.000524 0.004661 0.034574
#
#
# Mechanical properties :
#
#
# Convention : Reuss Voigt Hill
#
# Bulk Modulus (GPa) = 39.10535 49.55154 44.32844
# Shear Modulus (GPa) = 28.84640 35.20230 32.02435
#
# Velocity S-wave (km/s) = 3.57633 3.95072 3.76818
# Velocity P-wave (km/s) = 5.86449 6.54075 6.21183
#
# Compressibility (1/GPa) = 0.02557195
#
# Stress axis : x y z
#
# Youngs Moduli (GPa) = 99.90311 72.47714 109.33479
#
# Poissons Ratio (x) = 0.07937 0.21081
# Poissons Ratio (y) = 0.10940 0.07298
# Poissons Ratio (z) = 0.19262 0.04838
#
# Static dielectric constant tensor:
#      x y z
#    x 1.870140 -0.054080 0.018590 
#    y -0.054080 2.112160 -0.072630 
#    z 0.018590 -0.072630 2.073850 
# 
# From -- ./inp_files/71764.got.cif
#   From: 2010.05.17/outbox.cif.g08.bks.cpg/sg2_36_cif.got.tgz:71764.got - 2010.06.03 11:33:40.
