data_PCOD9037837
_publ_section_title
;
Structure prediction by ZEFSAII (Michael W. Deem and Ramdas Pophale) SiO2 
 PCOD9037837
Probable space group: P -1
;
_chemical_formula_sum "Si O2"
_cell_formula_units_Z 16
_cell_length_a 11.530699
_cell_length_b 11.817075
_cell_length_c 5.109155
_cell_angle_alpha 89.881427
_cell_angle_beta 57.718117
_cell_angle_gamma 96.867922
_cell_volume 582.533736
_symmetry_space_group_name_H-M "P -1"
_symmetry_group_IT_number 2
_symmetry_cell_setting 'triclinic'
loop_
_space_group_symop_operation_xyz
x,y,z
-x,-y,-z
loop_
_atom_site_type_symbol
_atom_site_label
_atom_site_fract_x
_atom_site_fract_y
_atom_site_fract_z
Si Si1 0.381290 0.563487 0.769936
Si Si2 0.962128 0.308726 0.152690
Si Si3 0.843197 0.517133 0.375679
Si Si4 0.199787 0.278865 0.254584
Si Si5 0.598096 0.968888 0.646598
Si Si6 0.506378 0.738746 0.966840
Si Si7 0.681038 0.194250 0.376349
Si Si8 0.088449 0.048482 0.641746
O O1 0.500000 0.500000 0.500000
O O2 0.246631 0.498145 0.781372
O O3 0.447047 0.608315 0.969987
O O4 0.356562 0.694044 0.723293
O O5 0.881334 0.395734 0.422560
O O6 0.846450 0.211508 0.187539
O O7 0.089063 0.270825 0.156031
O O8 0.019138 0.396133 0.856316
O O9 0.774833 0.591183 0.668877
O O10 0.356228 0.255367 0.014280
O O11 0.127645 0.186181 0.552668
O O12 0.566730 0.830670 0.670000
O O13 0.759379 0.989323 0.546975
O O14 0.615212 0.064253 0.390255
O O15 0.500000 0.000000 0.000000
O O16 0.383011 0.787253 0.262531
O O17 0.000000 0.000000 0.500000
O O18 0.000000 0.000000 0.000000
#
# Coordination Sequence:
#
# PCOD9037837 Si02
#       8
#     2   2   2   2   2   2   2   2
#     4  11  23  41  62  94 135 173 229 283 352 420
#     4  10  23  41  65  95 134 173 229 279 356 416
#     4  10  23  41  63  96 130 177 229 290 343 425
#     4  11  23  40  71  93 136 177 230 291 359 418
#     4   9  21  48  69 106 140 181 246 295 372 435
#     4  10  23  42  65  99 127 178 226 288 355 423
#     4  10  23  42  68  93 133 174 227 284 357 426
#     4  11  26  48  74 110 147 192 247 307 371 445
#
# _framework density 27.466218999999999
#
# number of rings (size 3 to 8) (size 9 to 14) (size 15 to 20)
#    0.000    1.750    1.250    1.125    5.250    6.000 
#   15.750    0.000    0.000    0.000    0.000    0.000 
#    0.000    0.000    0.000    0.000    0.000    0.000 
#
# Total GULP energy -89319.516422 kJ/mol
# GULP energy per Si atom -5582.469776 kJ/mol
# Density = 2.740370 g / cm^3
# Si number density = 27.466219 Si / 1000 Ang^3
#
#
#
# Elastic Constant Matrix: (Units=GPa)
#
#
# Indices 1 2 3 4 5 6 
#
# 1 117.5766 37.5601 49.7249 -18.5998 -30.3612 0.2416
# 2 37.5601 91.2140 -8.5475 -10.5577 3.7056 16.9714
# 3 49.7249 -8.5475 72.9510 -0.0587 -1.1994 10.4697
# 4 -18.5998 -10.5577 -0.0587 39.6332 -1.1167 -5.7222
# 5 -30.3612 3.7056 -1.1994 -1.1167 44.6815 -9.2111
# 6 0.2416 16.9714 10.4697 -5.7222 -9.2111 59.5502
#
#
#
# Elastic Compliance Matrix: (Units=1/GPa)
#
#
# Indices 1 2 3 4 5 6 
#
# 1 0.040301 -0.022481 -0.032215 0.016472 0.032617 0.018535
# 2 -0.022481 0.024778 0.019929 -0.006527 -0.019882 -0.014177
# 3 -0.032215 0.019929 0.040133 -0.013090 -0.026495 -0.017961
# 4 0.016472 -0.006527 -0.013090 0.032967 0.014155 0.009452
# 5 0.032617 -0.019882 -0.026495 0.014155 0.049805 0.019256
# 6 0.018535 -0.014177 -0.017961 0.009452 0.019256 0.027802
#
#
# Mechanical properties :
#
#
# Convention : Reuss Voigt Hill
#
# Bulk Modulus (GPa) = 28.02812 48.80184 38.41498
# Shear Modulus (GPa) = 16.82306 42.30659 29.56483
#
# Velocity S-wave (km/s) = 2.47756 3.92894 3.28442
# Velocity P-wave (km/s) = 4.29082 6.19586 5.32915
#
# Compressibility (1/GPa) = 0.03567845
#
# Stress axis : x y z
#
# Youngs Moduli (GPa) = 24.81334 40.35852 24.91745
#
# Poissons Ratio (x) = 0.90730 0.80270
# Poissons Ratio (y) = 0.55783 -0.49658
# Poissons Ratio (z) = 0.79935 -0.80431
#
# Static dielectric constant tensor:
#      x y z
#    x 2.264880 -0.075330 0.095050 
#    y -0.075330 2.291050 -0.092050 
#    z 0.095050 -0.092050 2.341710 
# 
# From -- ./inp_files/70334.got.cif
#   From: 2010.05.17/outbox.cif.g08.bks.cpg/sg2_36_cif.got.tgz:70334.got - 2010.06.03 11:33:40.
