data_PCOD9037095
_publ_section_title
;
Structure prediction by ZEFSAII (Michael W. Deem and Ramdas Pophale) SiO2 
 PCOD9037095
Probable space group: P -1
;
_chemical_formula_sum "Si O2"
_cell_formula_units_Z 16
_cell_length_a 20.799278
_cell_length_b 22.402675
_cell_length_c 8.432405
_cell_angle_alpha 136.674584
_cell_angle_beta 42.049449
_cell_angle_gamma 161.803860
_cell_volume 817.211060
_symmetry_space_group_name_H-M "P -1"
_symmetry_group_IT_number 2
_symmetry_cell_setting 'triclinic'
loop_
_space_group_symop_operation_xyz
x,y,z
-x,-y,-z
loop_
_atom_site_type_symbol
_atom_site_label
_atom_site_fract_x
_atom_site_fract_y
_atom_site_fract_z
Si Si1 0.890066 0.791977 0.434053
Si Si2 0.673171 0.766235 0.583543
Si Si3 0.322253 0.883350 0.318509
Si Si4 0.285420 0.524300 0.990369
Si Si5 0.861111 0.411646 0.734831
Si Si6 0.142662 0.421562 0.418353
Si Si7 0.261121 0.711259 0.793978
Si Si8 0.362234 0.448849 0.270128
O O1 0.759023 0.745831 0.461453
O O2 0.795586 0.727693 0.659371
O O3 0.854426 0.663631 0.200594
O O4 0.130251 0.016423 0.409050
O O5 0.525827 0.628220 0.436187
O O6 0.527477 0.692239 0.841578
O O7 0.295786 0.794770 0.340107
O O8 0.112905 0.774662 0.490297
O O9 0.542395 0.112307 0.343949
O O10 0.306456 0.806149 0.046972
O O11 0.248924 0.586347 0.091716
O O12 0.219396 0.476262 0.201525
O O13 0.000000 0.500000 0.500000
O O14 0.037053 0.558894 0.835727
O O15 0.237408 0.589498 0.633441
O O16 0.229156 0.411089 0.340220
O O17 0.500000 0.500000 0.000000
#
# Coordination Sequence:
#
# PCOD9037095 Si02
#       8
#     2   2   2   2   2   2   2   2
#     4  10  23  42  63  90 121 153 195 243 295 356
#     4  10  23  42  63  90 121 153 195 243 295 356
#     4  10  23  40  60  85 121 161 198 245 297 349
#     4  11  22  39  63  87 119 159 198 243 297 345
#     4  11  21  40  60  87 121 155 204 247 288 347
#     4  11  22  40  60  87 122 155 200 246 291 355
#     4  10  23  40  60  85 121 161 198 245 297 349
#     4  11  23  40  67  90 120 156 194 242 298 351
#
# _framework density 19.578786000000001
#
# number of rings (size 3 to 8) (size 9 to 14) (size 15 to 20)
#    0.000    1.500    2.500    4.500    7.000    4.000 
#    0.000    0.000    0.000    0.000    0.000    0.000 
#    0.000    0.000    0.000    0.000    0.000    0.000 
#
# Total GULP energy -89375.362126 kJ/mol
# GULP energy per Si atom -5585.960133 kJ/mol
# Density = 1.953422 g / cm^3
# Si number density = 19.578786 Si / 1000 Ang^3
#
#
#
# Elastic Constant Matrix: (Units=GPa)
#
#
# Indices 1 2 3 4 5 6 
#
# 1 90.2802 28.0681 17.4869 -3.8307 -18.7710 -14.0101
# 2 28.0681 136.2839 16.8308 -23.0685 -9.6462 -9.6979
# 3 17.4869 16.8308 77.9357 -22.3769 -4.3238 -1.7112
# 4 -3.8307 -23.0685 -22.3769 26.1020 -6.1858 1.7807
# 5 -18.7710 -9.6462 -4.3238 -6.1858 33.0597 -4.0087
# 6 -14.0101 -9.6979 -1.7112 1.7807 -4.0087 23.7618
#
#
#
# Elastic Compliance Matrix: (Units=1/GPa)
#
#
# Indices 1 2 3 4 5 6 
#
# 1 0.015476 -0.001432 -0.002242 0.000634 0.009397 0.009916
# 2 -0.001432 0.009811 0.001612 0.010725 0.004662 0.003258
# 3 -0.002242 0.001612 0.018466 0.018106 0.005019 0.000156
# 4 0.000634 0.010725 0.018106 0.067626 0.019019 0.004195
# 5 0.009397 0.004662 0.005019 0.019019 0.042808 0.013601
# 6 0.009916 0.003258 0.000156 0.004195 0.013601 0.051252
#
#
# Mechanical properties :
#
#
# Convention : Reuss Voigt Hill
#
# Bulk Modulus (GPa) = 25.23441 47.69683 36.46562
# Shear Modulus (GPa) = 22.44436 32.72563 27.58499
#
# Velocity S-wave (km/s) = 3.38947 4.09281 3.75763
# Velocity P-wave (km/s) = 5.31363 6.83734 6.12306
#
# Compressibility (1/GPa) = 0.03962844
#
# Stress axis : x y z
#
# Youngs Moduli (GPa) = 64.61719 101.92877 54.15246
#
# Poissons Ratio (x) = 0.14600 0.12142
# Poissons Ratio (y) = 0.09256 -0.08731
# Poissons Ratio (z) = 0.14488 -0.16434
#
# Static dielectric constant tensor:
#      x y z
#    x 1.618180 -0.015030 0.006840 
#    y -0.015030 1.691530 -0.012850 
#    z 0.006840 -0.012850 1.691710 
# 
# From -- ./inp_files/349715.got.cif
#   From: 2010.05.17/outbox.cif.g08.bks.cpg/sg2_175_cif.got.tgz:349715.got - 2010.06.03 11:33:40.
