data_PCOD9037073
_publ_section_title
;
Structure prediction by ZEFSAII (Michael W. Deem and Ramdas Pophale) SiO2 
 PCOD9037073
Probable space group: P -1
;
_chemical_formula_sum "Si O2"
_cell_formula_units_Z 13
_cell_length_a 7.973232
_cell_length_b 9.485265
_cell_length_c 8.918912
_cell_angle_alpha 59.872413
_cell_angle_beta 99.965889
_cell_angle_gamma 99.392447
_cell_volume 572.285853
_symmetry_space_group_name_H-M "P -1"
_symmetry_group_IT_number 2
_symmetry_cell_setting 'triclinic'
loop_
_space_group_symop_operation_xyz
x,y,z
-x,-y,-z
loop_
_atom_site_type_symbol
_atom_site_label
_atom_site_fract_x
_atom_site_fract_y
_atom_site_fract_z
Si Si1 0.696197 0.713925 0.332517
Si Si2 0.691655 0.998133 0.965624
Si Si3 0.066770 0.680231 0.096639
Si Si4 0.581171 0.421477 0.277131
Si Si5 0.000000 0.500000 0.500000
Si Si6 0.757849 0.587137 0.924427
Si Si7 0.436731 0.887258 0.412300
O O1 0.570150 0.571609 0.309016
O O2 0.590860 0.811356 0.384958
O O3 0.849904 0.619182 0.469510
O O4 0.754701 0.841259 0.140987
O O5 0.810997 0.156969 0.946008
O O6 0.665912 0.012761 0.775855
O O7 0.500000 0.000000 0.000000
O O8 0.008401 0.597763 0.288235
O O9 0.167329 0.547878 0.095044
O O10 0.909685 0.709826 0.945733
O O11 0.398994 0.349398 0.223741
O O12 0.669845 0.277712 0.452311
O O13 0.682143 0.492426 0.110937
O O14 0.500000 0.000000 0.500000
#
# Coordination Sequence:
#
# PCOD9037073 Si02
#       7
#     2   2   2   2   1   2   2
#     4  11  24  45  70 105 143 195 240 287 366 433
#     4  10  24  44  72 102 144 188 237 298 366 423
#     4  11  23  44  68 105 144 189 238 293 361 429
#     4  11  22  43  73 103 140 189 247 293 352 432
#     4  12  24  44  68 104 142 194 232 290 354 424
#     4  10  23  39  74 100 140 187 244 294 353 423
#     4  11  25  41  74 110 141 182 245 305 354 422
#
# _framework density 22.715919
#
# number of rings (size 3 to 8) (size 9 to 14) (size 15 to 20)
#    0.000    1.231    1.538    4.154    8.615    0.615 
#    0.000    1.538    0.000    7.385    0.000    0.000 
#    0.000    0.000    0.000    0.000    0.000    0.000 
#
# Total GULP energy -72446.744545 kJ/mol
# GULP energy per Si atom -5572.826503 kJ/mol
# Density = 2.266422 g / cm^3
# Si number density = 22.715919 Si / 1000 Ang^3
#
#
#
# Elastic Constant Matrix: (Units=GPa)
#
#
# Indices 1 2 3 4 5 6 
#
# 1 72.9665 39.4819 26.1874 10.7952 17.0542 -4.2887
# 2 39.4819 155.5418 62.1590 18.5481 -3.5865 8.9227
# 3 26.1874 62.1590 155.0131 -4.3419 13.2689 2.0143
# 4 10.7952 18.5481 -4.3419 33.9255 -11.1034 3.8171
# 5 17.0542 -3.5865 13.2689 -11.1034 36.5735 4.7341
# 6 -4.2887 8.9227 2.0143 3.8171 4.7341 50.3278
#
#
#
# Elastic Compliance Matrix: (Units=1/GPa)
#
#
# Indices 1 2 3 4 5 6 
#
# 1 0.021273 -0.004468 -0.000973 -0.009372 -0.013448 0.004620
# 2 -0.004468 0.009453 -0.003400 -0.002746 0.003677 -0.002058
# 3 -0.000973 -0.003400 0.008229 0.002502 -0.002132 0.000201
# 4 -0.009372 -0.002746 0.002502 0.040075 0.016001 -0.004956
# 5 -0.013448 0.003677 -0.002132 0.016001 0.040476 -0.006734
# 6 0.004620 -0.002058 0.000201 -0.004956 -0.006734 0.021630
#
#
# Mechanical properties :
#
#
# Convention : Reuss Voigt Hill
#
# Bulk Modulus (GPa) = 47.01383 71.01977 59.01680
# Shear Modulus (GPa) = 30.13674 41.21159 35.67416
#
# Velocity S-wave (km/s) = 3.64631 4.26398 3.96719
# Velocity P-wave (km/s) = 6.20232 7.45481 6.85722
#
# Compressibility (1/GPa) = 0.02127034
#
# Stress axis : x y z
#
# Youngs Moduli (GPa) = 47.00709 105.79028 121.52147
#
# Poissons Ratio (x) = 0.47271 0.11830
# Poissons Ratio (y) = 0.21005 0.41323
# Poissons Ratio (z) = 0.04576 0.35974
#
# Static dielectric constant tensor:
#      x y z
#    x 1.627740 -0.315890 0.132860 
#    y -0.315890 1.382610 0.181760 
#    z 0.132860 0.181760 1.774780 
# 
# From -- ./inp_files/156984.got.cif
#   From: 2010.05.17/outbox.cif.g08.bks.cpg/sg2_79_cif.got.tgz:156984.got - 2010.06.03 11:33:40.
