data_PCOD9038838
_publ_section_title
;
Structure prediction by ZEFSAII (Michael W. Deem and Ramdas Pophale) SiO2 
 PCOD9038838
Probable space group: P -1
;
_chemical_formula_sum "Si O2"
_cell_formula_units_Z 16
_cell_length_a 11.915708
_cell_length_b 11.427427
_cell_length_c 14.451623
_cell_angle_alpha 95.635004
_cell_angle_beta 30.101408
_cell_angle_gamma 116.433294
_cell_volume 679.852630
_symmetry_space_group_name_H-M "P -1"
_symmetry_group_IT_number 2
_symmetry_cell_setting 'triclinic'
loop_
_space_group_symop_operation_xyz
x,y,z
-x,-y,-z
loop_
_atom_site_type_symbol
_atom_site_label
_atom_site_fract_x
_atom_site_fract_y
_atom_site_fract_z
Si Si1 0.735650 0.854113 0.605578
Si Si2 0.430447 0.817412 0.640249
Si Si3 0.946361 0.481777 0.684962
Si Si4 0.151420 0.820744 0.203285
Si Si5 0.262031 0.298852 0.680256
Si Si6 0.017555 0.875294 0.941574
Si Si7 0.500330 0.367036 0.835927
Si Si8 0.801263 0.506940 0.978734
O O1 0.622082 0.892141 0.605671
O O2 0.410137 0.688760 0.874523
O O3 0.889874 0.800748 0.440859
O O4 0.000000 0.000000 0.500000
O O5 0.605748 0.780895 0.451192
O O6 0.339557 0.921009 0.698985
O O7 0.062450 0.625032 0.881531
O O8 0.898715 0.330228 0.738516
O O9 0.628136 0.401319 0.850290
O O10 0.242452 0.598798 0.411858
O O11 0.993768 0.574975 0.750145
O O12 0.060600 0.802219 0.158782
O O13 0.500000 0.000000 0.000000
O O14 0.500000 0.500000 0.500000
O O15 0.185663 0.266178 0.841360
O O16 0.844910 0.814055 0.959987
O O17 0.000000 0.000000 0.000000
O O18 0.452492 0.483785 0.850851
#
# Coordination Sequence:
#
# PCOD9038838 Si02
#       8
#     2   2   2   2   2   2   2   2
#     4  11  24  39  61 100 136 168 216 277 341 395
#     4  10  25  42  69  97 134 177 225 284 331 409
#     4  11  22  40  67  91 130 172 213 276 323 391
#     4  11  24  40  64  96 132 168 218 272 331 395
#     4  11  25  43  72 103 130 177 233 276 335 410
#     4  11  26  44  69  98 137 180 226 280 347 398
#     4  10  23  42  63  96 129 172 226 265 327 412
#     4  11  21  41  66  95 127 170 224 268 335 394
#
# _framework density 23.534514000000001
#
# number of rings (size 3 to 8) (size 9 to 14) (size 15 to 20)
#    0.000    1.250    1.250    3.750   12.250    0.500 
#    0.000    0.000    0.000    0.000    0.000    0.000 
#    0.000    0.000    0.000    0.000    0.000    0.000 
#
# Total GULP energy -89312.041909 kJ/mol
# GULP energy per Si atom -5582.002619 kJ/mol
# Density = 2.348095 g / cm^3
# Si number density = 23.534514 Si / 1000 Ang^3
#
#
#
# Elastic Constant Matrix: (Units=GPa)
#
#
# Indices 1 2 3 4 5 6 
#
# 1 113.5504 25.6868 38.7632 -6.0057 -41.9039 18.2745
# 2 25.6868 90.5391 23.0272 17.4710 -11.6917 0.2715
# 3 38.7632 23.0272 62.7015 20.5563 -12.2520 -5.1855
# 4 -6.0057 17.4710 20.5563 35.4361 4.1611 -10.6030
# 5 -41.9039 -11.6917 -12.2520 4.1611 51.3487 -0.6873
# 6 18.2745 0.2715 -5.1855 -10.6030 -0.6873 39.3720
#
#
#
# Elastic Compliance Matrix: (Units=1/GPa)
#
#
# Indices 1 2 3 4 5 6 
#
# 1 0.019621 -0.002400 -0.012136 0.007638 0.011838 -0.008426
# 2 -0.002400 0.013507 -0.001002 -0.006938 0.001427 -0.000955
# 3 -0.012136 -0.001002 0.029474 -0.016995 -0.001657 0.004916
# 4 0.007638 -0.006938 -0.016995 0.045039 -0.002967 0.006342
# 5 0.011838 0.001427 -0.001657 -0.002967 0.029225 -0.006012
# 6 -0.008426 -0.000955 0.004916 0.006342 -0.006012 0.031566
#
#
# Mechanical properties :
#
#
# Convention : Reuss Voigt Hill
#
# Bulk Modulus (GPa) = 31.72087 49.08283 40.40185
# Shear Modulus (GPa) = 23.80739 37.18561 30.49650
#
# Velocity S-wave (km/s) = 3.18401 3.97929 3.60366
# Velocity P-wave (km/s) = 5.19855 6.48182 5.87533
#
# Compressibility (1/GPa) = 0.03152498
#
# Stress axis : x y z
#
# Youngs Moduli (GPa) = 50.96500 74.03762 33.92795
#
# Poissons Ratio (x) = 0.17768 0.41177
# Poissons Ratio (y) = 0.12231 0.03400
# Poissons Ratio (z) = 0.61853 0.07420
#
# Static dielectric constant tensor:
#      x y z
#    x 1.922120 -0.028350 0.029060 
#    y -0.028350 1.966500 -0.028500 
#    z 0.029060 -0.028500 1.961590 
# 
# From -- ./inp_files/399716.got.cif
#   From: 2010.05.17/outbox.cif.g08.bks.cpg/sg2_200_cif.got.tgz:399716.got - 2010.06.03 11:33:40.
