data_PCOD9038107
_publ_section_title
;
Structure prediction by ZEFSAII (Michael W. Deem and Ramdas Pophale) SiO2 
 PCOD9038107
Probable space group: P -1
;
_chemical_formula_sum "Si O2"
_cell_formula_units_Z 15
_cell_length_a 9.428508
_cell_length_b 12.364870
_cell_length_c 16.499764
_cell_angle_alpha 147.143314
_cell_angle_beta 44.399356
_cell_angle_gamma 119.721617
_cell_volume 702.014369
_symmetry_space_group_name_H-M "P -1"
_symmetry_group_IT_number 2
_symmetry_cell_setting 'triclinic'
loop_
_space_group_symop_operation_xyz
x,y,z
-x,-y,-z
loop_
_atom_site_type_symbol
_atom_site_label
_atom_site_fract_x
_atom_site_fract_y
_atom_site_fract_z
Si Si1 0.000172 0.734237 0.485815
Si Si2 0.192260 0.255307 0.096664
Si Si3 0.000000 0.000000 0.500000
Si Si4 0.593372 0.183119 0.544185
Si Si5 0.806135 0.535408 0.042541
Si Si6 0.609622 0.281579 0.862008
Si Si7 0.750687 0.919713 0.857252
Si Si8 0.885527 0.903383 0.135255
O O1 0.063876 0.493224 0.286860
O O2 0.207528 0.783827 0.468898
O O3 0.835225 0.784719 0.658447
O O4 0.927801 0.871703 0.522964
O O5 0.191436 0.197969 0.154788
O O6 0.433499 0.231073 0.956536
O O7 0.107996 0.126554 0.982097
O O8 0.745501 0.096920 0.636773
O O9 0.403696 0.386074 0.768045
O O10 0.500000 0.000000 0.500000
O O11 0.698729 0.105243 0.365388
O O12 0.822146 0.709261 0.080087
O O13 0.800666 0.328302 0.866127
O O14 0.000000 0.500000 0.000000
O O15 0.500000 0.500000 0.000000
O O16 0.892652 0.083221 0.908972
O O17 0.500000 0.000000 0.000000
#
# Coordination Sequence:
#
# PCOD9038107 Si02
#       8
#     2   2   1   2   2   2   2   2
#     4  11  23  43  69  99 131 187 225 279 347 411
#     4  12  23  45  69  94 140 179 235 277 340 410
#     4  12  24  36  68 102 142 164 234 270 348 404
#     4   9  20  38  60  91 137 172 219 261 346 412
#     4  11  22  36  62  98 139 167 218 283 341 405
#     4  12  23  41  64 102 139 180 216 288 344 403
#     4  11  26  46  67  96 133 183 238 279 337 413
#     4  10  23  41  66  95 128 181 226 275 344 402
#
# _framework density 21.367083999999998
#
# number of rings (size 3 to 8) (size 9 to 14) (size 15 to 20)
#    0.000    1.067    4.000    1.600    9.333    0.000 
#    0.000    0.667    0.000    0.000    0.000    0.000 
#    0.000    0.000    0.000    0.000    0.000    0.000 
#
# Total GULP energy -83522.737022 kJ/mol
# GULP energy per Si atom -5568.182468 kJ/mol
# Density = 2.131845 g / cm^3
# Si number density = 21.367084 Si / 1000 Ang^3
#
#
#
# Elastic Constant Matrix: (Units=GPa)
#
#
# Indices 1 2 3 4 5 6 
#
# 1 80.6556 15.2648 24.4485 -13.0358 -0.0234 -2.6465
# 2 15.2648 70.6347 45.9540 -14.7751 4.2239 -16.6913
# 3 24.4485 45.9540 85.7718 -38.4917 -7.5860 -14.1801
# 4 -13.0358 -14.7751 -38.4917 31.7734 1.4940 -1.4211
# 5 -0.0234 4.2239 -7.5860 1.4940 41.2662 -6.9496
# 6 -2.6465 -16.6913 -14.1801 -1.4211 -6.9496 47.8479
#
#
#
# Elastic Compliance Matrix: (Units=1/GPa)
#
#
# Indices 1 2 3 4 5 6 
#
# 1 0.013676 -0.000879 -0.002607 0.002053 -0.000512 -0.000336
# 2 -0.000879 0.024306 -0.016961 -0.009268 -0.004863 0.002422
# 3 -0.002607 -0.016961 0.043621 0.043857 0.009781 0.009590
# 4 0.002053 -0.009268 0.043857 0.081348 0.008341 0.013506
# 5 -0.000512 -0.004863 0.009781 0.008341 0.027129 0.005362
# 6 -0.000336 0.002422 0.009590 0.013506 0.005362 0.025748
#
#
# Mechanical properties :
#
#
# Convention : Reuss Voigt Hill
#
# Bulk Modulus (GPa) = 24.56384 45.37739 34.97062
# Shear Modulus (GPa) = 18.49857 34.27049 26.38453
#
# Velocity S-wave (km/s) = 2.94556 4.00921 3.51781
# Velocity P-wave (km/s) = 4.80515 6.53566 5.73604
#
# Compressibility (1/GPa) = 0.04071025
#
# Stress axis : x y z
#
# Youngs Moduli (GPa) = 73.12320 41.14138 22.92463
#
# Poissons Ratio (x) = 0.03616 0.05976
# Poissons Ratio (y) = 0.06426 0.38882
# Poissons Ratio (z) = 0.19061 0.69780
#
# Static dielectric constant tensor:
#      x y z
#    x 1.734450 0.106530 -0.004280 
#    y 0.106530 1.498540 -0.047610 
#    z -0.004280 -0.047610 1.742050 
# 
# From -- ./inp_files/278125.got.cif
#   From: 2010.05.17/outbox.cif.g08.bks.cpg/sg2_140_cif.got.tgz:278125.got - 2010.06.03 11:33:40.
