data_PCOD9038442
_publ_section_title
;
Structure prediction by ZEFSAII (Michael W. Deem and Ramdas Pophale) SiO2 
 PCOD9038442
Probable space group: P -1
;
_chemical_formula_sum "Si O2"
_cell_formula_units_Z 15
_cell_length_a 17.793334
_cell_length_b 11.715324
_cell_length_c 8.911354
_cell_angle_alpha 67.623512
_cell_angle_beta 145.334660
_cell_angle_gamma 133.425823
_cell_volume 686.378568
_symmetry_space_group_name_H-M "P -1"
_symmetry_group_IT_number 2
_symmetry_cell_setting 'triclinic'
loop_
_space_group_symop_operation_xyz
x,y,z
-x,-y,-z
loop_
_atom_site_type_symbol
_atom_site_label
_atom_site_fract_x
_atom_site_fract_y
_atom_site_fract_z
Si Si1 0.932971 0.709722 0.464404
Si Si2 0.926004 0.569045 0.047537
Si Si3 0.337030 0.417778 0.654412
Si Si4 0.277938 0.741236 0.368792
Si Si5 0.838013 0.799886 0.779872
Si Si6 0.336247 0.283587 0.162712
Si Si7 0.296572 0.005906 0.076206
Si Si8 0.000000 0.500000 0.500000
O O1 0.822068 0.623737 0.484496
O O2 0.806542 0.713762 0.149809
O O3 0.971538 0.604997 0.504934
O O4 0.134315 0.902528 0.738292
O O5 0.143992 0.678217 0.320804
O O6 0.875197 0.482903 0.168562
O O7 0.812008 0.422124 0.804692
O O8 0.909339 0.705530 0.946216
O O9 0.239116 0.238111 0.497306
O O10 0.500000 0.500000 0.000000
O O11 0.458061 0.559925 0.648459
O O12 0.490373 0.849403 0.707882
O O13 0.278507 0.866750 0.208349
O O14 0.676661 0.710775 0.683687
O O15 0.000000 0.000000 0.000000
O O16 0.273919 0.105926 0.099806
#
# Coordination Sequence:
#
# PCOD9038442 Si02
#       8
#     2   2   2   2   2   2   2   1
#     4  11  23  45  65  96 132 180 225 277 341 395
#     4  11  23  44  68  94 132 179 220 281 327 410
#     4  10  24  44  68  97 136 181 221 273 338 415
#     4  10  23  41  69  96 125 176 228 265 347 399
#     4  12  24  42  70 105 136 173 224 284 341 393
#     4  11  23  41  68 101 132 175 226 277 335 396
#     4  11  22  40  69  98 133 170 220 285 332 410
#     4  12  24  42  70  92 132 178 232 272 334 400
#
# _framework density 21.853828
#
# number of rings (size 3 to 8) (size 9 to 14) (size 15 to 20)
#    0.000    1.067    2.667    4.000    3.733    1.067 
#    0.000    3.333    0.000    0.000    0.000    0.000 
#    0.000    0.000    0.000    0.000    0.000    0.000 
#
# Total GULP energy -83573.354584 kJ/mol
# GULP energy per Si atom -5571.556972 kJ/mol
# Density = 2.180409 g / cm^3
# Si number density = 21.853828 Si / 1000 Ang^3
#
#
#
# Elastic Constant Matrix: (Units=GPa)
#
#
# Indices 1 2 3 4 5 6 
#
# 1 126.3460 27.0069 38.7731 22.7061 -13.3229 -41.0691
# 2 27.0069 88.6341 22.8098 9.0973 -1.5585 -40.1353
# 3 38.7731 22.8098 113.0167 14.3868 0.5108 -16.3836
# 4 22.7061 9.0973 14.3868 30.6805 -2.4023 -5.7742
# 5 -13.3229 -1.5585 0.5108 -2.4023 41.3819 2.3937
# 6 -41.0691 -40.1353 -16.3836 -5.7742 2.3937 38.6701
#
#
#
# Elastic Compliance Matrix: (Units=1/GPa)
#
#
# Indices 1 2 3 4 5 6 
#
# 1 0.016089 0.006154 -0.002705 -0.008243 0.003760 0.020865
# 2 0.006154 0.023895 -0.001992 -0.005049 0.000896 0.029682
# 3 -0.002705 -0.001992 0.010383 -0.002527 -0.001172 -0.000846
# 4 -0.008243 -0.005049 -0.002527 0.039657 0.000018 -0.009145
# 5 0.003760 0.000896 -0.001172 0.000018 0.025259 0.002865
# 6 0.020865 0.029682 -0.000846 -0.009145 0.002865 0.076925
#
#
# Mechanical properties :
#
#
# Convention : Reuss Voigt Hill
#
# Bulk Modulus (GPa) = 18.76866 56.13070 37.44968
# Shear Modulus (GPa) = 24.14832 38.10697 31.12765
#
# Velocity S-wave (km/s) = 3.32775 4.18032 3.77816
# Velocity P-wave (km/s) = 4.83447 7.00289 6.01717
#
# Compressibility (1/GPa) = 0.05328030
#
# Stress axis : x y z
#
# Youngs Moduli (GPa) = 62.15245 41.85047 96.31487
#
# Poissons Ratio (x) = -0.25754 0.26052
# Poissons Ratio (y) = -0.38248 0.19188
# Poissons Ratio (z) = 0.16811 0.08338
#
# Static dielectric constant tensor:
#      x y z
#    x 1.800930 0.050900 -0.001710 
#    y 0.050900 1.873020 -0.002460 
#    z -0.001710 -0.002460 1.839860 
# 
# From -- ./inp_files/333305.got.cif
#   From: 2010.05.17/outbox.cif.g08.bks.cpg/sg2_167_cif.got.tgz:333305.got - 2010.06.03 11:33:40.
