data_PCOD9038076
_publ_section_title
;
Structure prediction by ZEFSAII (Michael W. Deem and Ramdas Pophale) SiO2 
 PCOD9038076
Probable space group: P -1
;
_chemical_formula_sum "Si O2"
_cell_formula_units_Z 16
_cell_length_a 11.870670
_cell_length_b 11.282412
_cell_length_c 7.927308
_cell_angle_alpha 57.842238
_cell_angle_beta 120.876607
_cell_angle_gamma 136.521716
_cell_volume 603.591137
_symmetry_space_group_name_H-M "P -1"
_symmetry_group_IT_number 2
_symmetry_cell_setting 'triclinic'
loop_
_space_group_symop_operation_xyz
x,y,z
-x,-y,-z
loop_
_atom_site_type_symbol
_atom_site_label
_atom_site_fract_x
_atom_site_fract_y
_atom_site_fract_z
Si Si1 0.252644 0.902065 0.531092
Si Si2 0.597997 0.737713 0.773014
Si Si3 0.834258 0.109576 0.168812
Si Si4 0.636777 0.493263 0.807344
Si Si5 0.241173 0.257438 0.591555
Si Si6 0.790795 0.508922 0.410843
Si Si7 0.058650 0.658076 0.240377
Si Si8 0.500962 0.857629 0.911903
O O1 0.168939 0.798033 0.371929
O O2 0.419824 0.923271 0.684076
O O3 0.293841 0.092873 0.394598
O O4 0.148018 0.817508 0.686450
O O5 0.644030 0.605702 0.886650
O O6 0.407824 0.630010 0.646751
O O7 0.598815 0.811407 0.899820
O O8 0.847057 0.950462 0.315230
O O9 0.640378 0.004557 0.037217
O O10 0.939132 0.249085 0.994952
O O11 0.442039 0.369893 0.686892
O O12 0.757061 0.643535 0.648168
O O13 0.644970 0.334165 0.971456
O O14 0.169408 0.306726 0.646873
O O15 0.858398 0.438060 0.646030
O O16 0.878368 0.527679 0.288402
#
# Coordination Sequence:
#
# PCOD9038076 Si02
#       8
#     2   2   2   2   2   2   2   2
#     4  12  23  40  64  97 128 158 210 262 307 369
#     4  11  19  39  64  93 127 159 205 264 307 368
#     4  11  23  39  65  93 127 163 205 259 315 366
#     4   9  19  33  58  94 130 153 203 261 311 365
#     4   9  19  38  59  92 122 164 205 255 309 368
#     4  10  23  41  66  84 129 170 204 256 308 364
#     4  11  24  45  62  91 128 171 206 252 309 370
#     4  11  21  34  61  98 122 165 203 255 322 359
#
# _framework density 26.508011
#
# number of rings (size 3 to 8) (size 9 to 14) (size 15 to 20)
#    0.000    1.500    3.750    1.875    3.500    0.500 
#    0.000    4.375    0.000    0.000    0.000    0.000 
#    0.000    0.000    0.000    0.000    0.000    0.000 
#
# Total GULP energy -89652.286346 kJ/mol
# GULP energy per Si atom -5603.267897 kJ/mol
# Density = 2.644768 g / cm^3
# Si number density = 26.508011 Si / 1000 Ang^3
#
#
#
# Elastic Constant Matrix: (Units=GPa)
#
#
# Indices 1 2 3 4 5 6 
#
# 1 54.3534 1.0168 22.0962 -4.9005 -7.5365 -9.7335
# 2 1.0168 73.2950 37.5441 -1.3714 12.0851 0.0112
# 3 22.0962 37.5441 145.6041 -17.7682 -15.7386 8.1549
# 4 -4.9005 -1.3714 -17.7682 56.6332 7.7530 1.5023
# 5 -7.5365 12.0851 -15.7386 7.7530 52.2855 -2.9490
# 6 -9.7335 0.0112 8.1549 1.5023 -2.9490 29.4023
#
#
#
# Elastic Compliance Matrix: (Units=1/GPa)
#
#
# Indices 1 2 3 4 5 6 
#
# 1 0.021777 0.001335 -0.003873 0.000187 0.002116 0.008486
# 2 0.001335 0.017220 -0.005346 -0.000464 -0.005248 0.001415
# 3 -0.003873 -0.005346 0.009647 0.002246 0.003036 -0.003766
# 4 0.000187 -0.000464 0.002246 0.018695 -0.002059 -0.001723
# 5 0.002116 -0.005248 0.003036 -0.002059 0.021985 0.002171
# 6 0.008486 0.001415 -0.003766 -0.001723 0.002171 0.038170
#
#
# Mechanical properties :
#
#
# Convention : Reuss Voigt Hill
#
# Bulk Modulus (GPa) = 30.41635 43.84075 37.12855
# Shear Modulus (GPa) = 32.42107 41.83721 37.12914
#
# Velocity S-wave (km/s) = 3.50103 3.97707 3.74662
# Velocity P-wave (km/s) = 5.27658 6.13711 5.72304
#
# Compressibility (1/GPa) = 0.03287705
#
# Stress axis : x y z
#
# Youngs Moduli (GPa) = 45.91935 58.07282 103.65572
#
# Poissons Ratio (x) = -0.07753 0.40144
# Poissons Ratio (y) = -0.06130 0.55413
# Poissons Ratio (z) = 0.17784 0.31045
#
# Static dielectric constant tensor:
#      x y z
#    x 2.098300 0.020800 -0.005350 
#    y 0.020800 2.082010 0.033260 
#    z -0.005350 0.033260 2.087030 
# 
# From -- ./inp_files/256634.got.cif
#   From: 2010.05.17/outbox.cif.g08.bks.cpg/sg2_129_cif.got.tgz:256634.got - 2010.06.03 11:33:40.
