data_PCOD9038136
_publ_section_title
;
Structure prediction by ZEFSAII (Michael W. Deem and Ramdas Pophale) SiO2 
 PCOD9038136
Probable space group: P -1
;
_chemical_formula_sum "Si O2"
_cell_formula_units_Z 14
_cell_length_a 12.347420
_cell_length_b 19.165268
_cell_length_c 8.445340
_cell_angle_alpha 135.366588
_cell_angle_beta 142.544334
_cell_angle_gamma 27.684990
_cell_volume 564.418220
_symmetry_space_group_name_H-M "P -1"
_symmetry_group_IT_number 2
_symmetry_cell_setting 'triclinic'
loop_
_space_group_symop_operation_xyz
x,y,z
-x,-y,-z
loop_
_atom_site_type_symbol
_atom_site_label
_atom_site_fract_x
_atom_site_fract_y
_atom_site_fract_z
Si Si1 0.224059 0.523858 0.051532
Si Si2 0.235797 0.161643 0.882159
Si Si3 0.154244 0.218519 0.517638
Si Si4 0.468212 0.798574 0.210311
Si Si5 0.373568 0.467445 0.504450
Si Si6 0.118963 0.841855 0.384519
Si Si7 0.994906 0.915242 0.028433
O O1 0.287877 0.498725 0.272642
O O2 0.421094 0.526930 0.217064
O O3 0.910923 0.687900 0.947120
O O4 0.326765 0.377140 0.865489
O O5 0.269975 0.177393 0.764134
O O6 0.001669 0.175054 0.644584
O O7 0.500000 0.000000 0.000000
O O8 0.368179 0.167541 0.555922
O O9 0.053560 0.149386 0.262145
O O10 0.895847 0.398644 0.497762
O O11 0.247317 0.905421 0.984883
O O12 0.275876 0.853373 0.222096
O O13 0.560187 0.294997 0.470536
O O14 0.000000 0.000000 0.500000
O O15 0.007600 0.850442 0.101052
#
# Coordination Sequence:
#
# PCOD9038136 Si02
#       7
#     2   2   2   2   2   2   2
#     4   9  18  38  64  93 127 173 214 262 320 385
#     4  10  23  41  66  98 130 166 219 276 316 375
#     4  11  23  43  69  93 130 173 215 269 322 385
#     4  11  23  39  69  93 126 176 219 254 326 393
#     4   9  19  37  64  92 128 168 215 266 320 377
#     4  11  24  41  66  95 129 171 213 270 330 379
#     4  11  25  42  66  94 132 173 214 269 320 391
#
# _framework density 24.804302
#
# number of rings (size 3 to 8) (size 9 to 14) (size 15 to 20)
#    0.000    1.714    1.429    3.000    4.000    4.000 
#    0.000    0.714    0.000    0.000    0.000    0.000 
#    0.000    0.000    0.000    0.000    0.000    0.000 
#
# Total GULP energy -78252.400485 kJ/mol
# GULP energy per Si atom -5589.457178 kJ/mol
# Density = 2.474785 g / cm^3
# Si number density = 24.804302 Si / 1000 Ang^3
#
#
#
# Elastic Constant Matrix: (Units=GPa)
#
#
# Indices 1 2 3 4 5 6 
#
# 1 87.4494 18.3405 21.1523 -1.1496 24.4051 -4.7864
# 2 18.3405 207.9901 18.2414 -22.1115 2.8346 -9.2673
# 3 21.1523 18.2414 25.1846 -8.3742 9.6384 -6.6577
# 4 -1.1496 -22.1115 -8.3742 30.9390 0.7167 5.6872
# 5 24.4051 2.8346 9.6384 0.7167 28.1152 -5.7197
# 6 -4.7864 -9.2673 -6.6577 5.6872 -5.7197 30.5202
#
#
#
# Elastic Compliance Matrix: (Units=1/GPa)
#
#
# Indices 1 2 3 4 5 6 
#
# 1 0.017284 -0.000733 -0.010742 -0.002229 -0.011515 -0.001598
# 2 -0.000733 0.005431 -0.002533 0.003034 0.001003 0.000604
# 3 -0.010742 -0.002533 0.060567 0.013250 -0.010224 0.006373
# 4 -0.002229 0.003034 0.013250 0.038972 -0.004865 -0.004712
# 5 -0.011515 0.001003 -0.010224 -0.004865 0.050440 0.006628
# 6 -0.001598 0.000604 0.006373 -0.004712 0.006628 0.036208
#
#
# Mechanical properties :
#
#
# Convention : Reuss Voigt Hill
#
# Bulk Modulus (GPa) = 18.09460 48.45471 33.27466
# Shear Modulus (GPa) = 19.58167 35.44087 27.51127
#
# Velocity S-wave (km/s) = 2.81276 3.78407 3.33398
# Velocity P-wave (km/s) = 4.22606 6.21848 5.31644
#
# Compressibility (1/GPa) = 0.05526510
#
# Stress axis : x y z
#
# Youngs Moduli (GPa) = 57.85650 184.14502 16.51057
#
# Poissons Ratio (x) = 0.13501 0.17736
# Poissons Ratio (y) = 0.04242 0.04182
# Poissons Ratio (z) = 0.62152 0.46640
#
# Static dielectric constant tensor:
#      x y z
#    x 1.963130 -0.006130 -0.047430 
#    y -0.006130 2.031440 -0.009120 
#    z -0.047430 -0.009120 2.000900 
# 
# From -- ./inp_files/279993.got.cif
#   From: 2010.05.17/outbox.cif.g08.bks.cpg/sg2_140_cif.got.tgz:279993.got - 2010.06.03 11:33:40.
