data_PCOD9038274
_publ_section_title
;
Structure prediction by ZEFSAII (Michael W. Deem and Ramdas Pophale) SiO2 
 PCOD9038274
Probable space group: P -1
;
_chemical_formula_sum "Si O2"
_cell_formula_units_Z 10
_cell_length_a 13.128593
_cell_length_b 4.889541
_cell_length_c 7.992362
_cell_angle_alpha 88.715370
_cell_angle_beta 127.151479
_cell_angle_gamma 108.502326
_cell_volume 377.941937
_symmetry_space_group_name_H-M "P -1"
_symmetry_group_IT_number 2
_symmetry_cell_setting 'triclinic'
loop_
_space_group_symop_operation_xyz
x,y,z
-x,-y,-z
loop_
_atom_site_type_symbol
_atom_site_label
_atom_site_fract_x
_atom_site_fract_y
_atom_site_fract_z
Si Si1 0.690006 0.716793 0.513606
Si Si2 0.642517 0.776589 0.109801
Si Si3 0.922076 0.785109 0.274143
Si Si4 0.421498 0.139108 0.296694
Si Si5 0.966509 0.629209 0.795403
O O1 0.692396 0.901293 0.344321
O O2 0.536758 0.464226 0.372944
O O3 0.701948 0.867607 0.704032
O O4 0.805633 0.578016 0.617538
O O5 0.760965 0.671554 0.158973
O O6 0.500000 0.500000 0.000000
O O7 0.623300 0.975022 0.934724
O O8 0.021266 0.465278 0.710554
O O9 0.000000 0.000000 0.500000
O O10 0.958256 0.019347 0.155596
O O11 0.500000 0.000000 0.500000
O O12 0.000000 0.500000 0.000000
#
# Coordination Sequence:
#
# PCOD9038274 Si02
#       5
#     2   2   2   2   2
#     4  10  23  43  64 100 138 187 238 297 361 429
#     4  10  23  47  69 100 144 190 240 298 369 429
#     4  12  26  48  74 110 148 190 249 303 366 448
#     4  10  23  41  67  98 138 181 247 294 356 434
#     4  12  27  46  77 106 150 193 247 304 373 434
#
# _framework density 26.45909
#
# number of rings (size 3 to 8) (size 9 to 14) (size 15 to 20)
#    0.000    1.200    2.000    2.400    5.600    0.800 
#    3.600    0.000    0.000    0.000    0.000    0.000 
#    0.000    0.000    0.000    0.000    0.000    0.000 
#
# Total GULP energy -55941.815983 kJ/mol
# GULP energy per Si atom -5594.181598 kJ/mol
# Density = 2.639887 g / cm^3
# Si number density = 26.459090 Si / 1000 Ang^3
#
#
#
# Elastic Constant Matrix: (Units=GPa)
#
#
# Indices 1 2 3 4 5 6 
#
# 1 189.8591 43.4981 65.6287 -9.1082 12.6578 8.0570
# 2 43.4981 76.1754 27.6777 -13.4546 -2.5666 -8.6285
# 3 65.6287 27.6777 207.3480 -38.5154 -38.2665 8.2016
# 4 -9.1082 -13.4546 -38.5154 38.2423 21.3882 3.9866
# 5 12.6578 -2.5666 -38.2665 21.3882 60.1954 -14.4113
# 6 8.0570 -8.6285 8.2016 3.9866 -14.4113 26.7818
#
#
#
# Elastic Compliance Matrix: (Units=1/GPa)
#
#
# Indices 1 2 3 4 5 6 
#
# 1 0.007703 -0.004127 -0.002323 0.001634 -0.005296 -0.006029
# 2 -0.004127 0.017018 -0.000374 0.002542 0.002295 0.007696
# 3 -0.002323 -0.000374 0.007098 0.004771 0.003143 -0.000615
# 4 0.001634 0.002542 0.004771 0.043160 -0.016469 -0.016420
# 5 -0.005296 0.002295 0.003143 -0.016469 0.030520 0.020245
# 6 -0.006029 0.007696 -0.000615 -0.016420 0.020245 0.055158
#
#
# Mechanical properties :
#
#
# Convention : Reuss Voigt Hill
#
# Bulk Modulus (GPa) = 55.03087 82.99905 69.01496
# Shear Modulus (GPa) = 27.72200 47.48242 37.60221
#
# Velocity S-wave (km/s) = 3.24038 4.24082 3.77390
# Velocity P-wave (km/s) = 5.90285 7.44421 6.71789
#
# Compressibility (1/GPa) = 0.01817162
#
# Stress axis : x y z
#
# Youngs Moduli (GPa) = 129.82257 58.76022 140.87837
#
# Poissons Ratio (x) = 0.24253 0.32720
# Poissons Ratio (y) = 0.53583 0.05268
# Poissons Ratio (z) = 0.30152 0.02197
#
# Static dielectric constant tensor:
#      x y z
#    x 2.126270 -0.003840 -0.053370 
#    y -0.003840 2.037970 -0.007330 
#    z -0.053370 -0.007330 2.173520 
# 
# From -- ./inp_files/28834.got.cif
#   From: 2010.05.17/outbox.cif.g08.bks.cpg/sg2_15_cif.got.tgz:28834.got - 2010.06.03 11:33:40.
