data_PCOD9038583
_publ_section_title
;
Structure prediction by ZEFSAII (Michael W. Deem and Ramdas Pophale) SiO2 
 PCOD9038583
Probable space group: P -1
;
_chemical_formula_sum "Si O2"
_cell_formula_units_Z 14
_cell_length_a 5.117467
_cell_length_b 9.089167
_cell_length_c 12.431875
_cell_angle_alpha 82.402164
_cell_angle_beta 87.909094
_cell_angle_gamma 103.845083
_cell_volume 555.124660
_symmetry_space_group_name_H-M "P -1"
_symmetry_group_IT_number 2
_symmetry_cell_setting 'triclinic'
loop_
_space_group_symop_operation_xyz
x,y,z
-x,-y,-z
loop_
_atom_site_type_symbol
_atom_site_label
_atom_site_fract_x
_atom_site_fract_y
_atom_site_fract_z
Si Si1 0.767185 0.843363 0.659194
Si Si2 0.580262 0.274182 0.943659
Si Si3 0.931267 0.596248 0.391482
Si Si4 0.387533 0.509492 0.266458
Si Si5 0.445722 0.022887 0.784614
Si Si6 0.022814 0.155557 0.054682
Si Si7 0.757221 0.885608 0.428192
O O1 0.744068 0.671409 0.710724
O O2 0.607382 0.847799 0.547535
O O3 0.649684 0.930608 0.745003
O O4 0.054653 0.943797 0.604116
O O5 0.545091 0.416876 0.859236
O O6 0.535999 0.129539 0.875628
O O7 0.865555 0.272771 0.991903
O O8 0.339347 0.234336 0.037728
O O9 0.643043 0.536501 0.341250
O O10 0.932705 0.762522 0.420269
O O11 0.000000 0.500000 0.500000
O O12 0.158616 0.589864 0.303054
O O13 0.417411 0.129604 0.674860
O O14 0.161013 0.907530 0.832885
O O15 0.000000 0.000000 0.000000
#
# Coordination Sequence:
#
# PCOD9038583 Si02
#       7
#     2   2   2   2   2   2   2
#     4  11  27  42  66 103 144 187 223 281 349 428
#     4  11  23  44  71 104 132 176 239 291 339 401
#     4  12  25  45  72 100 140 187 240 282 334 409
#     4  12  26  45  71 102 143 186 228 290 348 405
#     4  11  23  41  72  96 138 180 229 284 353 405
#     4  10  23  41  71 106 130 171 238 297 335 405
#     4  11  25  45  67 102 140 187 233 278 342 421
#
# _framework density 25.219556999999998
#
# number of rings (size 3 to 8) (size 9 to 14) (size 15 to 20)
#    0.000    0.857    2.857    4.286   10.000    0.000 
#    0.000    1.429    0.000    0.000    0.000    0.000 
#    0.000    0.000    0.000    0.000    0.000    0.000 
#
# Total GULP energy -78372.239353 kJ/mol
# GULP energy per Si atom -5598.017097 kJ/mol
# Density = 2.516216 g / cm^3
# Si number density = 25.219557 Si / 1000 Ang^3
#
#
#
# Elastic Constant Matrix: (Units=GPa)
#
#
# Indices 1 2 3 4 5 6 
#
# 1 125.7493 38.8656 11.1473 -0.1209 -8.2041 -17.7638
# 2 38.8656 142.8191 31.6115 -25.9967 -4.8356 -4.2134
# 3 11.1473 31.6115 123.4358 -29.2499 -2.9374 -9.4040
# 4 -0.1209 -25.9967 -29.2499 38.7235 -6.7611 3.7670
# 5 -8.2041 -4.8356 -2.9374 -6.7611 45.2299 -10.6348
# 6 -17.7638 -4.2134 -9.4040 3.7670 -10.6348 18.9515
#
#
#
# Elastic Compliance Matrix: (Units=1/GPa)
#
#
# Indices 1 2 3 4 5 6 
#
# 1 0.010874 -0.002903 0.000311 -0.002148 0.004311 0.012547
# 2 -0.002903 0.008988 -0.000797 0.005741 0.000817 -0.001800
# 3 0.000311 -0.000797 0.010534 0.007417 0.003080 0.005596
# 4 -0.002148 0.005741 0.007417 0.036401 0.005919 -0.000970
# 5 0.004311 0.000817 0.003080 0.005919 0.028960 0.020826
# 6 0.012547 -0.001800 0.005596 -0.000970 0.020826 0.078783
#
#
# Mechanical properties :
#
#
# Convention : Reuss Voigt Hill
#
# Bulk Modulus (GPa) = 42.33979 61.69478 52.01729
# Shear Modulus (GPa) = 26.42841 41.27299 33.85070
#
# Velocity S-wave (km/s) = 3.24069 4.04981 3.66763
# Velocity P-wave (km/s) = 5.55227 6.81059 6.21337
#
# Compressibility (1/GPa) = 0.02361845
#
# Stress axis : x y z
#
# Youngs Moduli (GPa) = 91.96589 111.26358 94.92672
#
# Poissons Ratio (x) = 0.32296 -0.02952
# Poissons Ratio (y) = 0.26695 0.07565
# Poissons Ratio (z) = -0.02860 0.08867
#
# Static dielectric constant tensor:
#      x y z
#    x 2.041080 0.051510 0.115810 
#    y 0.051510 1.989670 0.042750 
#    z 0.115810 0.042750 2.105960 
# 
# From -- ./inp_files/94301.got.cif
#   From: 2010.05.17/outbox.cif.g08.bks.cpg/sg2_48_cif.got.tgz:94301.got - 2010.06.03 11:33:40.
