data_PCOD9038503
_publ_section_title
;
Structure prediction by ZEFSAII (Michael W. Deem and Ramdas Pophale) SiO2 
 PCOD9038503
Probable space group: P -1
;
_chemical_formula_sum "Si O2"
_cell_formula_units_Z 16
_cell_length_a 4.857501
_cell_length_b 15.968931
_cell_length_c 16.649107
_cell_angle_alpha 35.986741
_cell_angle_beta 87.115147
_cell_angle_gamma 103.492555
_cell_volume 670.186646
_symmetry_space_group_name_H-M "P -1"
_symmetry_group_IT_number 2
_symmetry_cell_setting 'triclinic'
loop_
_space_group_symop_operation_xyz
x,y,z
-x,-y,-z
loop_
_atom_site_type_symbol
_atom_site_label
_atom_site_fract_x
_atom_site_fract_y
_atom_site_fract_z
Si Si1 0.054623 0.682338 0.852780
Si Si2 0.914175 0.268739 0.005113
Si Si3 0.302020 0.238493 0.874564
Si Si4 0.907756 0.513413 0.705707
Si Si5 0.698464 0.823798 0.650226
Si Si6 0.584642 0.725345 0.548597
Si Si7 0.475521 0.081999 0.741297
Si Si8 0.037889 0.878565 0.182664
O O1 0.983027 0.721077 0.913169
O O2 0.412589 0.801827 0.728669
O O3 0.831066 0.708736 0.773516
O O4 0.000000 0.500000 0.000000
O O5 0.601950 0.102232 0.127099
O O6 0.862231 0.419690 0.863630
O O7 0.150803 0.260156 0.942664
O O8 0.651778 0.380285 0.755965
O O9 0.090465 0.232552 0.806768
O O10 0.281550 0.061140 0.011475
O O11 0.844835 0.666332 0.591058
O O12 0.269381 0.578840 0.632470
O O13 0.552646 0.766339 0.608869
O O14 0.000000 0.000000 0.500000
O O15 0.619053 0.866601 0.380207
O O16 0.248582 0.100863 0.793815
O O17 0.812219 0.174255 0.706041
#
# Coordination Sequence:
#
# PCOD9038503 Si02
#       8
#     2   2   2   2   2   2   2   2
#     4  12  27  44  73 108 140 175 236 300 344 404
#     4  11  24  43  74  99 134 177 236 276 343 408
#     4  10  23  42  72 103 135 179 222 285 344 409
#     4  12  24  43  69 101 132 185 219 275 351 412
#     4  12  27  49  70 100 140 192 231 286 351 422
#     4  12  26  45  68  95 143 181 224 279 353 410
#     4  11  24  43  67 101 132 181 226 285 325 409
#     4  10  23  41  70 103 136 168 235 284 331 395
#
# _framework density 23.873947999999999
#
# number of rings (size 3 to 8) (size 9 to 14) (size 15 to 20)
#    0.000    0.750    2.500    4.500    3.500    3.500 
#    0.000    3.750    0.000    0.000    0.000    0.000 
#    0.000    0.000    0.000    0.000    0.000    0.000 
#
# Total GULP energy -89490.494450 kJ/mol
# GULP energy per Si atom -5593.155903 kJ/mol
# Density = 2.381961 g / cm^3
# Si number density = 23.873948 Si / 1000 Ang^3
#
#
#
# Elastic Constant Matrix: (Units=GPa)
#
#
# Indices 1 2 3 4 5 6 
#
# 1 81.4390 27.8636 17.8935 13.0270 14.0299 5.0101
# 2 27.8636 103.1921 15.4195 17.6449 4.4448 7.5533
# 3 17.8935 15.4195 78.6209 14.7018 23.6492 3.2713
# 4 13.0270 17.6449 14.7018 33.8747 14.4431 -0.0067
# 5 14.0299 4.4448 23.6492 14.4431 34.9508 1.6932
# 6 5.0101 7.5533 3.2713 -0.0067 1.6932 32.1204
#
#
#
# Elastic Compliance Matrix: (Units=1/GPa)
#
#
# Indices 1 2 3 4 5 6 
#
# 1 0.014669 -0.003225 -0.001146 -0.001801 -0.003900 -0.001208
# 2 -0.003225 0.011763 -0.001377 -0.005643 0.003173 -0.002291
# 3 -0.001146 -0.001377 0.016566 -0.001866 -0.009771 -0.000670
# 4 -0.001801 -0.005643 -0.001866 0.039891 -0.013904 0.002539
# 5 -0.003900 0.003173 -0.009771 -0.013904 0.042197 -0.001370
# 6 -0.001208 -0.002291 -0.000670 0.002539 -0.001370 0.032001
#
#
# Mechanical properties :
#
#
# Convention : Reuss Voigt Hill
#
# Bulk Modulus (GPa) = 31.74418 42.84502 37.29460
# Shear Modulus (GPa) = 27.91991 33.66086 30.79039
#
# Velocity S-wave (km/s) = 3.42346 3.75899 3.59514
# Velocity P-wave (km/s) = 5.38073 6.06839 5.73488
#
# Compressibility (1/GPa) = 0.03150183
#
# Stress axis : x y z
#
# Youngs Moduli (GPa) = 68.17266 85.01095 60.36486
#
# Poissons Ratio (x) = 0.27418 0.06916
# Poissons Ratio (y) = 0.21987 0.08312
# Poissons Ratio (z) = 0.07811 0.11706
#
# Static dielectric constant tensor:
#      x y z
#    x 1.911350 0.007190 -0.004570 
#    y 0.007190 1.888040 -0.034450 
#    z -0.004570 -0.034450 1.984240 
# 
# From -- ./inp_files/484263.got.cif
#   From: 2010.05.17/outbox.cif.g08.bks.cpg/sg2_243_cif.got.tgz:484263.got - 2010.06.03 11:33:40.
