data_PCOD9038901
_publ_section_title
;
Structure prediction by ZEFSAII (Michael W. Deem and Ramdas Pophale) SiO2 
 PCOD9038901
Probable space group: P -1
;
_chemical_formula_sum "Si O2"
_cell_formula_units_Z 10
_cell_length_a 9.322046
_cell_length_b 5.170696
_cell_length_c 11.083425
_cell_angle_alpha 105.520545
_cell_angle_beta 53.538682
_cell_angle_gamma 95.275618
_cell_volume 412.443232
_symmetry_space_group_name_H-M "P -1"
_symmetry_group_IT_number 2
_symmetry_cell_setting 'triclinic'
loop_
_space_group_symop_operation_xyz
x,y,z
-x,-y,-z
loop_
_atom_site_type_symbol
_atom_site_label
_atom_site_fract_x
_atom_site_fract_y
_atom_site_fract_z
Si Si1 0.556934 0.130032 0.173721
Si Si2 0.373557 0.584516 0.459491
Si Si3 0.196807 0.024750 0.743465
Si Si4 0.965959 0.499898 0.260252
Si Si5 0.336755 0.728636 0.117016
O O1 0.481209 0.436846 0.279666
O O2 0.677061 0.005680 0.207449
O O3 0.391522 0.952233 0.210699
O O4 0.667155 0.133972 0.995753
O O5 0.500000 0.500000 0.500000
O O6 0.313457 0.898341 0.554013
O O7 0.183620 0.459473 0.555226
O O8 0.047648 0.811304 0.805647
O O9 0.112048 0.317050 0.789063
O O10 0.154737 0.594251 0.214292
O O11 0.500000 0.500000 0.000000
#
# Coordination Sequence:
#
# PCOD9038901 Si02
#       5
#     2   2   2   2   2
#     4  10  23  42  64  94 133 171 210 266 322 380
#     4   8  19  40  66  99 123 164 211 274 316 376
#     4   9  22  42  70  98 123 162 223 266 317 374
#     4  10  23  43  68  97 128 167 217 266 320 380
#     4  11  27  42  61  92 137 177 212 260 323 386
#
# _framework density 24.245764999999999
#
# number of rings (size 3 to 8) (size 9 to 14) (size 15 to 20)
#    1.200    1.200    0.000    0.000    8.400    7.200 
#    0.000    2.000    0.000    0.000    0.000    0.000 
#    0.000    0.000    0.000    0.000    0.000    0.000 
#
# Total GULP energy -55869.069131 kJ/mol
# GULP energy per Si atom -5586.906913 kJ/mol
# Density = 2.419058 g / cm^3
# Si number density = 24.245765 Si / 1000 Ang^3
#
#
#
# Elastic Constant Matrix: (Units=GPa)
#
#
# Indices 1 2 3 4 5 6 
#
# 1 68.1583 20.0223 25.7867 10.2346 -24.1898 22.0204
# 2 20.0223 90.8924 9.0751 -4.7600 -7.4068 9.7606
# 3 25.7867 9.0751 34.3782 16.7377 -1.0845 7.1084
# 4 10.2346 -4.7600 16.7377 16.2818 12.8835 -9.0872
# 5 -24.1898 -7.4068 -1.0845 12.8835 41.0619 -8.1290
# 6 22.0204 9.7606 7.1084 -9.0872 -8.1290 56.7355
#
#
#
# Elastic Compliance Matrix: (Units=1/GPa)
#
#
# Indices 1 2 3 4 5 6 
#
# 1 -0.094745 0.041015 -0.211477 0.499493 -0.189120 0.109119
# 2 0.041015 -0.003412 0.065438 -0.173657 0.071628 -0.041082
# 3 -0.211477 0.065438 -0.244437 0.756332 -0.321598 0.176510
# 4 0.499493 -0.173657 0.756332 -1.980987 0.813495 -0.459486
# 5 -0.189120 0.071628 -0.321598 0.813495 -0.300535 0.188608
# 6 0.109119 -0.041082 0.176510 -0.459486 0.188608 -0.086345
#
#
# Mechanical properties :
#
#
# Convention : Reuss Voigt Hill
#
# Bulk Modulus (GPa) = -1.80949 33.68857 15.93954
# Shear Modulus (GPa) = -1.86246 32.05216 15.09485
#
# Velocity S-wave (km/s) = -0.87740 3.63983 2.49786
# Velocity P-wave (km/s) = 1.33205 5.62044 3.86102
#
# Compressibility (1/GPa) = -0.55264245
#
# Stress axis : x y z
#
# Youngs Moduli (GPa) = -10.55467 -293.05143 -4.09103
#
# Poissons Ratio (x) = 12.01946 -0.86516
# Poissons Ratio (y) = 0.43290 0.26771
# Poissons Ratio (z) = -2.23207 19.17684
#
# Static dielectric constant tensor:
#      x y z
#    x 1.889640 0.001330 0.002890 
#    y 0.001330 1.959890 -0.036810 
#    z 0.002890 -0.036810 1.971520 
# 
# From -- ./inp_files/36678.got.cif
#   From: 2010.05.17/outbox.cif.g08.bks.cpg/sg2_19_cif.got.tgz:36678.got - 2010.06.03 11:33:40.
