data_PCOD9038769
_publ_section_title
;
Structure prediction by ZEFSAII (Michael W. Deem and Ramdas Pophale) SiO2 
 PCOD9038769
Probable space group: P -1
;
_chemical_formula_sum "Si O2"
_cell_formula_units_Z 16
_cell_length_a 28.175993
_cell_length_b 22.017265
_cell_length_c 8.737446
_cell_angle_alpha 38.036590
_cell_angle_beta 31.259953
_cell_angle_gamma 17.366310
_cell_volume 825.474062
_symmetry_space_group_name_H-M "P -1"
_symmetry_group_IT_number 2
_symmetry_cell_setting 'triclinic'
loop_
_space_group_symop_operation_xyz
x,y,z
-x,-y,-z
loop_
_atom_site_type_symbol
_atom_site_label
_atom_site_fract_x
_atom_site_fract_y
_atom_site_fract_z
Si Si1 0.678822 0.538489 0.683612
Si Si2 0.018714 0.590116 0.837411
Si Si3 0.295093 0.120086 0.648511
Si Si4 0.416101 0.818215 0.113316
Si Si5 0.946389 0.778119 0.367262
Si Si6 0.681417 0.678631 0.878876
Si Si7 0.014746 0.102196 0.745117
Si Si8 0.557596 0.128980 0.559326
O O1 0.548823 0.680516 0.612654
O O2 0.775452 0.553343 0.430372
O O3 0.859487 0.294353 0.672430
O O4 0.542879 0.637949 0.000578
O O5 0.914929 0.749765 0.670925
O O6 0.926250 0.678346 0.085910
O O7 0.000000 0.500000 0.000000
O O8 0.341054 0.192294 0.392794
O O9 0.362139 0.021072 0.494032
O O10 0.379357 0.957668 0.852224
O O11 0.225316 0.939128 0.437357
O O12 0.543455 0.728183 0.084679
O O13 0.022164 0.809876 0.162908
O O14 0.104642 0.566416 0.255315
O O15 0.748174 0.976574 0.430496
O O16 0.603574 0.762797 0.098700
O O17 0.000000 0.000000 0.000000
#
# Coordination Sequence:
#
# PCOD9038769 Si02
#       8
#     2   2   2   2   2   2   2   2
#     4  10  23  42  61  95 127 166 206 265 317 371
#     4  11  19  38  63  87 126 175 221 258 300 357
#     4  11  22  36  61  93 133 176 211 247 306 371
#     4  11  20  40  66  92 126 165 216 262 307 374
#     4  11  23  41  63  91 127 166 211 267 319 365
#     4  12  22  39  61  93 137 172 210 253 306 374
#     4  11  23  44  73  96 116 157 219 275 323 376
#     4  11  26  39  59  92 141 171 209 250 318 378
#
# _framework density 19.382802999999999
#
# number of rings (size 3 to 8) (size 9 to 14) (size 15 to 20)
#    0.000    1.000    7.500    0.750    1.750    5.000 
#    0.000    0.625    0.000    3.750    0.000    0.000 
#    0.000    0.000    0.000    0.000    0.000    0.000 
#
# Total GULP energy -89142.518148 kJ/mol
# GULP energy per Si atom -5571.407384 kJ/mol
# Density = 1.933869 g / cm^3
# Si number density = 19.382803 Si / 1000 Ang^3
#
#
#
# Elastic Constant Matrix: (Units=GPa)
#
#
# Indices 1 2 3 4 5 6 
#
# 1 65.3908 36.4684 38.9668 -0.7818 7.6392 -7.0446
# 2 36.4684 84.6652 62.5634 2.8478 -15.0834 -10.6600
# 3 38.9668 62.5634 113.4852 14.1818 6.6333 9.2745
# 4 -0.7818 2.8478 14.1818 33.2300 17.0649 0.6208
# 5 7.6392 -15.0834 6.6333 17.0649 29.9633 8.5172
# 6 -7.0446 -10.6600 9.2745 0.6208 8.5172 37.8244
#
#
#
# Elastic Compliance Matrix: (Units=1/GPa)
#
#
# Indices 1 2 3 4 5 6 
#
# 1 0.029128 -0.014064 -0.003421 0.016098 -0.025103 0.007688
# 2 -0.014064 0.035907 -0.015549 -0.012847 0.031137 0.004512
# 3 -0.003421 -0.015549 0.020093 -0.003569 -0.007009 -0.008309
# 4 0.016098 -0.012847 -0.003569 0.055543 -0.044046 0.009259
# 5 -0.025103 0.031137 -0.007009 -0.044046 0.085713 -0.012759
# 6 0.007688 0.004512 -0.008309 0.009259 -0.012759 0.033900
#
#
# Mechanical properties :
#
#
# Convention : Reuss Voigt Hill
#
# Bulk Modulus (GPa) = 52.46781 59.94870 56.20825
# Shear Modulus (GPa) = 15.02827 28.57303 21.80065
#
# Velocity S-wave (km/s) = 2.78751 3.84362 3.35736
# Velocity P-wave (km/s) = 6.12277 7.11996 6.64011
#
# Compressibility (1/GPa) = 0.01905930
#
# Stress axis : x y z
#
# Youngs Moduli (GPa) = 34.33089 27.84974 49.76795
#
# Poissons Ratio (x) = 0.39169 0.17025
# Poissons Ratio (y) = 0.48284 0.77386
# Poissons Ratio (z) = 0.11744 0.43305
#
# Static dielectric constant tensor:
#      x y z
#    x 1.715850 0.025420 0.022480 
#    y 0.025420 1.764000 0.020870 
#    z 0.022480 0.020870 1.677320 
# 
# From -- ./inp_files/357795.got.cif
#   From: 2010.05.17/outbox.cif.g08.bks.cpg/sg2_179_cif.got.tgz:357795.got - 2010.06.03 11:33:40.
