data_PCOD9038447
_publ_section_title
;
Structure prediction by ZEFSAII (Michael W. Deem and Ramdas Pophale) SiO2 
 PCOD9038447
Probable space group: P -1
;
_chemical_formula_sum "Si O2"
_cell_formula_units_Z 14
_cell_length_a 6.517990
_cell_length_b 7.832644
_cell_length_c 11.230831
_cell_angle_alpha 94.671790
_cell_angle_beta 74.750050
_cell_angle_gamma 96.766002
_cell_volume 548.564002
_symmetry_space_group_name_H-M "P -1"
_symmetry_group_IT_number 2
_symmetry_cell_setting 'triclinic'
loop_
_space_group_symop_operation_xyz
x,y,z
-x,-y,-z
loop_
_atom_site_type_symbol
_atom_site_label
_atom_site_fract_x
_atom_site_fract_y
_atom_site_fract_z
Si Si1 0.414200 0.156146 0.223555
Si Si2 0.719613 0.005107 0.344459
Si Si3 0.482793 0.478018 0.818946
Si Si4 0.100574 0.939849 0.103405
Si Si5 0.027194 0.197080 0.456819
Si Si6 0.796079 0.448033 0.947183
Si Si7 0.659053 0.648292 0.421277
O O1 0.564966 0.325150 0.177942
O O2 0.230366 0.216818 0.340379
O O3 0.544473 0.032496 0.274166
O O4 0.297757 0.070783 0.123508
O O5 0.629203 0.853236 0.439438
O O6 0.922912 0.944489 0.236156
O O7 0.815004 0.182402 0.406574
O O8 0.729276 0.478905 0.821116
O O9 0.386781 0.386585 0.712531
O O10 0.354886 0.422684 0.954049
O O11 0.192357 0.757129 0.069784
O O12 0.000000 0.000000 0.000000
O O13 0.101426 0.336047 0.555935
O O14 0.000000 0.000000 0.500000
O O15 0.000000 0.500000 0.000000
O O16 0.500000 0.500000 0.500000
#
# Coordination Sequence:
#
# PCOD9038447 Si02
#       7
#     2   2   2   2   2   2   2
#     4  11  22  41  66  96 133 173 226 273 332 400
#     4  10  23  41  69  96 134 177 225 274 336 402
#     4  11  24  41  66  99 132 175 220 273 337 402
#     4  11  23  41  68  99 130 173 225 280 336 404
#     4   9  21  41  64  91 133 175 220 272 324 396
#     4  11  24  43  66  94 137 172 215 280 340 393
#     4  11  21  42  66  94 136 177 221 275 328 397
#
# _framework density 25.521179
#
# number of rings (size 3 to 8) (size 9 to 14) (size 15 to 20)
#    0.000    1.429    1.429    3.429    0.000    8.000 
#    0.000    3.571    0.000    0.000    0.000    0.000 
#    0.000    0.000    0.000    0.000    0.000    0.000 
#
# Total GULP energy -78021.881883 kJ/mol
# GULP energy per Si atom -5572.991563 kJ/mol
# Density = 2.546309 g / cm^3
# Si number density = 25.521179 Si / 1000 Ang^3
#
#
#
# Elastic Constant Matrix: (Units=GPa)
#
#
# Indices 1 2 3 4 5 6 
#
# 1 101.6820 27.1571 61.5506 14.9489 30.3084 23.8321
# 2 27.1571 121.6533 41.7131 5.4503 25.5489 20.8326
# 3 61.5506 41.7131 128.8148 24.4385 45.5312 14.9647
# 4 14.9489 5.4503 24.4385 43.9620 10.2662 23.1760
# 5 30.3084 25.5489 45.5312 10.2662 60.8246 14.0632
# 6 23.8321 20.8326 14.9647 23.1760 14.0632 46.4692
#
#
#
# Elastic Compliance Matrix: (Units=1/GPa)
#
#
# Indices 1 2 3 4 5 6 
#
# 1 0.015419 0.000146 -0.006434 0.002117 -0.001803 -0.006411
# 2 0.000146 0.010188 -0.002827 0.003187 -0.001660 -0.004819
# 3 -0.006434 -0.002827 0.014846 -0.006920 -0.006774 0.005288
# 4 0.002117 0.003187 -0.006920 0.034664 0.001075 -0.017899
# 5 -0.001803 -0.001660 -0.006774 0.001075 0.023827 -0.003897
# 6 -0.006411 -0.004819 0.005288 -0.017899 -0.003897 0.035371
#
#
# Mechanical properties :
#
#
# Convention : Reuss Voigt Hill
#
# Bulk Modulus (GPa) = 44.99993 68.11017 56.55505
# Shear Modulus (GPa) = 31.25898 45.03311 38.14604
#
# Velocity S-wave (km/s) = 3.50355 4.20520 3.87031
# Velocity P-wave (km/s) = 5.83413 7.09393 6.49465
#
# Compressibility (1/GPa) = 0.02222226
#
# Stress axis : x y z
#
# Youngs Moduli (GPa) = 64.85310 98.15668 67.35815
#
# Poissons Ratio (x) = -0.01432 0.43341
# Poissons Ratio (y) = -0.00946 0.19041
# Poissons Ratio (z) = 0.41729 0.27748
#
# Static dielectric constant tensor:
#      x y z
#    x 2.280970 -0.027770 0.046980 
#    y -0.027770 2.041620 0.044630 
#    z 0.046980 0.044630 2.844470 
# 
# From -- ./inp_files/27297.got.cif
#   From: 2010.05.17/outbox.cif.g08.bks.cpg/sg2_14_cif.got.tgz:27297.got - 2010.06.03 11:33:40.
