data_PCOD9038181
_publ_section_title
;
Structure prediction by ZEFSAII (Michael W. Deem and Ramdas Pophale) SiO2 
 PCOD9038181
Probable space group: P -1
;
_chemical_formula_sum "Si O2"
_cell_formula_units_Z 12
_cell_length_a 5.295582
_cell_length_b 9.441781
_cell_length_c 18.794777
_cell_angle_alpha 149.339016
_cell_angle_beta 93.959140
_cell_angle_gamma 83.453430
_cell_volume 475.317197
_symmetry_space_group_name_H-M "P -1"
_symmetry_group_IT_number 2
_symmetry_cell_setting 'triclinic'
loop_
_space_group_symop_operation_xyz
x,y,z
-x,-y,-z
loop_
_atom_site_type_symbol
_atom_site_label
_atom_site_fract_x
_atom_site_fract_y
_atom_site_fract_z
Si Si1 0.750507 0.761315 0.812758
Si Si2 0.046183 0.585102 0.457830
Si Si3 0.700464 0.346650 0.882816
Si Si4 0.723829 0.540125 0.300756
Si Si5 0.059841 0.678641 0.981323
Si Si6 0.641347 0.888214 0.318796
O O1 0.477837 0.688369 0.802177
O O2 0.775946 0.654324 0.685263
O O3 0.992775 0.573664 0.771121
O O4 0.829932 0.071735 0.949469
O O5 0.792961 0.616873 0.416291
O O6 0.000000 0.500000 0.500000
O O7 0.193983 0.857797 0.574486
O O8 0.916443 0.245134 0.900801
O O9 0.212648 0.388628 0.834792
O O10 0.500000 0.500000 0.000000
O O11 0.774680 0.590932 0.936843
O O12 0.615689 0.793563 0.358492
O O13 0.385482 0.902084 0.273308
#
# Coordination Sequence:
#
# PCOD9038181 Si02
#       6
#     2   2   2   2   2   2
#     4  10  26  45  71  97 145 175 232 279 342 398
#     4  10  26  44  70 102 137 179 234 284 340 403
#     4   9  22  37  65  96 138 179 226 276 341 406
#     4  10  26  47  70 102 141 180 229 281 341 411
#     4  10  23  41  67 102 138 178 230 281 340 408
#     4  11  24  43  71 100 136 186 223 282 347 408
#
# _framework density 25.246296999999998
#
# number of rings (size 3 to 8) (size 9 to 14) (size 15 to 20)
#    1.000    1.000    0.000    0.500   16.333    4.000 
#    0.000    0.000    0.000    0.000    0.000    0.000 
#    0.000    0.000    0.000    0.000    0.000    0.000 
#
# Total GULP energy -66979.761853 kJ/mol
# GULP energy per Si atom -5581.646821 kJ/mol
# Density = 2.518884 g / cm^3
# Si number density = 25.246297 Si / 1000 Ang^3
#
#
#
# Elastic Constant Matrix: (Units=GPa)
#
#
# Indices 1 2 3 4 5 6 
#
# 1 98.5562 28.7676 26.0048 -1.3198 36.2627 26.3764
# 2 28.7676 134.3035 45.7868 -4.9898 35.7476 20.9470
# 3 26.0048 45.7868 130.7749 7.0495 32.7498 11.6330
# 4 -1.3198 -4.9898 7.0495 46.8501 8.5456 15.6219
# 5 36.2627 35.7476 32.7498 8.5456 47.0255 2.8308
# 6 26.3764 20.9470 11.6330 15.6219 2.8308 42.1747
#
#
#
# Elastic Compliance Matrix: (Units=1/GPa)
#
#
# Indices 1 2 3 4 5 6 
#
# 1 0.021564 0.004008 0.000598 0.010856 -0.020966 -0.018256
# 2 0.004008 0.012096 -0.001553 0.007114 -0.011900 -0.009923
# 3 0.000598 -0.001553 0.009730 0.000119 -0.005962 -0.001930
# 4 0.010856 0.007114 0.000119 0.032873 -0.018554 -0.021287
# 5 -0.020966 -0.011900 -0.005962 -0.018554 0.052557 0.024012
# 6 -0.018256 -0.009923 -0.001930 -0.021287 0.024012 0.046862
#
#
# Mechanical properties :
#
#
# Convention : Reuss Voigt Hill
#
# Bulk Modulus (GPa) = 20.20322 62.75034 41.47678
# Shear Modulus (GPa) = 26.87092 44.74842 35.80967
#
# Velocity S-wave (km/s) = 3.26598 4.21464 3.77027
# Velocity P-wave (km/s) = 4.71614 6.97091 5.95128
#
# Compressibility (1/GPa) = 0.04949706
#
# Stress axis : x y z
#
# Youngs Moduli (GPa) = 46.37308 82.67158 102.77589
#
# Poissons Ratio (x) = -0.33139 -0.06144
# Poissons Ratio (y) = -0.18588 0.15959
# Poissons Ratio (z) = -0.02772 0.12837
#
# Static dielectric constant tensor:
#      x y z
#    x 2.221370 -0.079410 0.003190 
#    y -0.079410 2.052040 -0.048520 
#    z 0.003190 -0.048520 1.994250 
# 
# From -- ./inp_files/525521.got.cif
#   From: 2010.05.17/outbox.cif.g08.bks.cpg/sg2_263_cif.got.tgz:525521.got - 2010.06.03 11:33:40.
