data_PCOD9038343
_publ_section_title
;
Structure prediction by ZEFSAII (Michael W. Deem and Ramdas Pophale) SiO2 
 PCOD9038343
Probable space group: P -1
;
_chemical_formula_sum "Si O2"
_cell_formula_units_Z 16
_cell_length_a 14.130118
_cell_length_b 11.299995
_cell_length_c 14.189964
_cell_angle_alpha 107.550141
_cell_angle_beta 51.389437
_cell_angle_gamma 150.119783
_cell_volume 695.280379
_symmetry_space_group_name_H-M "P -1"
_symmetry_group_IT_number 2
_symmetry_cell_setting 'triclinic'
loop_
_space_group_symop_operation_xyz
x,y,z
-x,-y,-z
loop_
_atom_site_type_symbol
_atom_site_label
_atom_site_fract_x
_atom_site_fract_y
_atom_site_fract_z
Si Si1 0.393414 0.700158 0.460758
Si Si2 0.362685 0.635348 0.138220
Si Si3 0.626267 0.250982 0.248668
Si Si4 0.826172 0.260693 0.461855
Si Si5 0.876400 0.963948 0.929094
Si Si6 0.703913 0.570354 0.378541
Si Si7 0.273087 0.796248 0.007508
Si Si8 0.034773 0.844603 0.884131
O O1 0.163707 0.588132 0.542085
O O2 0.264466 0.469176 0.549757
O O3 0.609827 0.981225 0.461006
O O4 0.623727 0.869514 0.279364
O O5 0.125044 0.464111 0.317781
O O6 0.184597 0.453423 0.106274
O O7 0.528343 0.664666 0.070816
O O8 0.622183 0.978314 0.052486
O O9 0.570752 0.340034 0.336509
O O10 0.928473 0.489219 0.170297
O O11 0.354085 0.915817 0.372420
O O12 0.685267 0.275670 0.109598
O O13 0.005933 0.117354 0.782926
O O14 0.970442 0.914506 0.888318
O O15 0.004947 0.169174 0.983749
O O16 0.500000 0.500000 0.500000
O O17 0.500000 0.000000 0.000000
#
# Coordination Sequence:
#
# PCOD9038343 Si02
#       8
#     2   2   2   2   2   2   2   2
#     4   9  19  37  64  94 128 173 218 267 333 402
#     4  11  24  41  67  99 133 172 226 286 334 405
#     4  10  24  46  65  97 138 181 222 281 340 414
#     4   9  21  38  66  95 133 175 216 275 341 400
#     4  11  23  42  67  98 132 180 230 274 342 403
#     4  11  21  40  69  96 131 182 229 274 340 408
#     4  11  26  40  66 101 135 175 220 281 349 403
#     4  10  23  41  68  95 133 180 224 282 332 407
#
# _framework density 23.012298000000001
#
# number of rings (size 3 to 8) (size 9 to 14) (size 15 to 20)
#    0.000    1.750    2.500    0.375   10.500    0.500 
#    0.000    0.000    0.000    1.500    0.000    0.000 
#    0.000    0.000    0.000    0.000    0.000    0.000 
#
# Total GULP energy -89401.893522 kJ/mol
# GULP energy per Si atom -5587.618345 kJ/mol
# Density = 2.295992 g / cm^3
# Si number density = 23.012298 Si / 1000 Ang^3
#
#
#
# Elastic Constant Matrix: (Units=GPa)
#
#
# Indices 1 2 3 4 5 6 
#
# 1 103.0152 27.1291 59.0182 -14.2248 -25.3561 -15.5593
# 2 27.1291 84.1349 26.6480 14.5151 -9.4363 8.9355
# 3 59.0182 26.6480 149.3323 -1.1795 -26.6214 -8.9465
# 4 -14.2248 14.5151 -1.1795 36.6701 -5.6612 -7.6025
# 5 -25.3561 -9.4363 -26.6214 -5.6612 34.7867 -5.5650
# 6 -15.5593 8.9355 -8.9465 -7.6025 -5.5650 35.3568
#
#
#
# Elastic Compliance Matrix: (Units=1/GPa)
#
#
# Indices 1 2 3 4 5 6 
#
# 1 0.025427 -0.010903 -0.003104 0.021517 0.020053 0.020942
# 2 -0.010903 0.019416 -0.001837 -0.016541 -0.009205 -0.015175
# 3 -0.003104 -0.001837 0.009282 0.001089 0.004913 0.002454
# 4 0.021517 -0.016541 0.001089 0.052116 0.025165 0.029092
# 5 0.020053 -0.009205 0.004913 0.025165 0.052901 0.026131
# 6 0.020942 -0.015175 0.002454 0.029092 0.026131 0.052323
#
#
# Mechanical properties :
#
#
# Convention : Reuss Voigt Hill
#
# Bulk Modulus (GPa) = 44.56728 62.45256 53.50992
# Shear Modulus (GPa) = 19.94952 36.27520 28.11236
#
# Velocity S-wave (km/s) = 2.94752 3.97462 3.49896
# Velocity P-wave (km/s) = 5.56710 6.94703 6.29499
#
# Compressibility (1/GPa) = 0.02243799
#
# Stress axis : x y z
#
# Youngs Moduli (GPa) = 39.32826 51.50398 107.73097
#
# Poissons Ratio (x) = 0.56155 0.33441
# Poissons Ratio (y) = 0.42880 0.19786
# Poissons Ratio (z) = 0.12208 0.09459
#
# Static dielectric constant tensor:
#      x y z
#    x 1.897940 -0.016930 0.028290 
#    y -0.016930 1.889570 0.017490 
#    z 0.028290 0.017490 1.866440 
# 
# From -- ./inp_files/532552.got.cif
#   From: 2010.05.17/outbox.cif.g08.bks.cpg/sg2_267_cif.got.tgz:532552.got - 2010.06.03 11:33:40.
