data_PCOD9038789
_publ_section_title
;
Structure prediction by ZEFSAII (Michael W. Deem and Ramdas Pophale) SiO2 
 PCOD9038789
Probable space group: P -1
;
_chemical_formula_sum "Si O2"
_cell_formula_units_Z 14
_cell_length_a 4.950729
_cell_length_b 24.671504
_cell_length_c 5.512784
_cell_angle_alpha 121.830784
_cell_angle_beta 95.363064
_cell_angle_gamma 102.486301
_cell_volume 540.790186
_symmetry_space_group_name_H-M "P -1"
_symmetry_group_IT_number 2
_symmetry_cell_setting 'triclinic'
loop_
_space_group_symop_operation_xyz
x,y,z
-x,-y,-z
loop_
_atom_site_type_symbol
_atom_site_label
_atom_site_fract_x
_atom_site_fract_y
_atom_site_fract_z
Si Si1 0.912703 0.047180 0.795987
Si Si2 0.440594 0.284474 0.041567
Si Si3 0.264557 0.689181 0.382105
Si Si4 0.260269 0.400725 0.114775
Si Si5 0.807741 0.453191 0.074853
Si Si6 0.593032 0.916460 0.693381
Si Si7 0.994615 0.149846 0.674131
O O1 0.850014 0.108150 0.800050
O O2 0.653906 0.992863 0.783017
O O3 0.000000 0.000000 0.500000
O O4 0.194351 0.075735 0.046912
O O5 0.624317 0.276386 0.272400
O O6 0.387358 0.356896 0.198350
O O7 0.586592 0.276867 0.776113
O O8 0.133214 0.228259 0.899248
O O9 0.331879 0.618992 0.233541
O O10 0.925302 0.657909 0.227174
O O11 0.522627 0.461856 0.178678
O O12 0.015533 0.433618 0.244493
O O13 0.000000 0.500000 0.000000
O O14 0.261224 0.876124 0.601699
O O15 0.736369 0.875581 0.426682
#
# Coordination Sequence:
#
# PCOD9038789 Si02
#       7
#     2   2   2   2   2   2   2
#     4   9  21  42  64  93 125 165 205 276 328 394
#     4  11  24  45  64  98 133 183 223 278 332 402
#     4   9  24  42  67  93 137 175 222 276 336 385
#     4   9  21  40  64  95 137 173 219 276 335 385
#     4   9  18  40  70 100 133 176 224 274 334 398
#     4  10  23  42  62  92 127 160 215 269 337 381
#     4  11  25  38  65  90 124 168 221 263 326 398
#
# _framework density 25.888045999999999
#
# number of rings (size 3 to 8) (size 9 to 14) (size 15 to 20)
#    0.857    1.429    0.000    0.857    4.000    9.714 
#    0.000    3.571    0.000    0.000    0.000    0.000 
#    0.000    0.000    0.000    0.000    0.000    0.000 
#
# Total GULP energy -78110.915252 kJ/mol
# GULP energy per Si atom -5579.351089 kJ/mol
# Density = 2.582912 g / cm^3
# Si number density = 25.888046 Si / 1000 Ang^3
#
#
#
# Elastic Constant Matrix: (Units=GPa)
#
#
# Indices 1 2 3 4 5 6 
#
# 1 153.5824 31.0988 28.5715 -2.5773 18.5377 22.6125
# 2 31.0988 67.0523 46.0764 -5.9039 3.4978 10.3516
# 3 28.5715 46.0764 88.0186 -22.5295 29.4645 19.1586
# 4 -2.5773 -5.9039 -22.5295 33.6669 0.1311 9.4984
# 5 18.5377 3.4978 29.4645 0.1311 41.2125 8.0367
# 6 22.6125 10.3516 19.1586 9.4984 8.0367 34.3025
#
#
#
# Elastic Compliance Matrix: (Units=1/GPa)
#
#
# Indices 1 2 3 4 5 6 
#
# 1 0.008389 -0.005104 0.004113 0.004294 -0.005068 -0.006289
# 2 -0.005104 0.031865 -0.026366 -0.014962 0.016796 0.008682
# 3 0.004113 -0.026366 0.047630 0.034474 -0.029077 -0.024091
# 4 0.004294 -0.014962 0.034474 0.058796 -0.019799 -0.029212
# 5 -0.005068 0.016796 -0.029077 -0.019799 0.044085 0.009666
# 6 -0.006289 0.008682 -0.024091 -0.029212 0.009666 0.049957
#
#
# Mechanical properties :
#
#
# Convention : Reuss Voigt Hill
#
# Bulk Modulus (GPa) = 30.14769 57.79408 43.97088
# Shear Modulus (GPa) = 16.31359 35.36349 25.83854
#
# Velocity S-wave (km/s) = 2.51302 3.69998 3.16268
# Velocity P-wave (km/s) = 4.48230 6.37387 5.50987
#
# Compressibility (1/GPa) = 0.03317004
#
# Stress axis : x y z
#
# Youngs Moduli (GPa) = 119.20062 31.38224 20.99531
#
# Poissons Ratio (x) = 0.16018 -0.08636
# Poissons Ratio (y) = 0.60841 0.55357
# Poissons Ratio (z) = -0.49030 0.82743
#
# Static dielectric constant tensor:
#      x y z
#    x 2.215530 0.062410 -0.145320 
#    y 0.062410 2.098030 -0.076120 
#    z -0.145320 -0.076120 2.160020 
# 
# From -- ./inp_files/11997.got.cif
#   From: 2010.05.17/outbox.cif.g08.bks.cpg/sg2_6_cif.got.tgz:11997.got - 2010.06.03 11:33:40.
