data_PCOD9038195
_publ_section_title
;
Structure prediction by ZEFSAII (Michael W. Deem and Ramdas Pophale) SiO2 
 PCOD9038195
Probable space group: P -1
;
_chemical_formula_sum "Si O2"
_cell_formula_units_Z 12
_cell_length_a 17.988966
_cell_length_b 15.721681
_cell_length_c 9.894279
_cell_angle_alpha 142.312837
_cell_angle_beta 48.255600
_cell_angle_gamma 159.780496
_cell_volume 550.832396
_symmetry_space_group_name_H-M "P -1"
_symmetry_group_IT_number 2
_symmetry_cell_setting 'triclinic'
loop_
_space_group_symop_operation_xyz
x,y,z
-x,-y,-z
loop_
_atom_site_type_symbol
_atom_site_label
_atom_site_fract_x
_atom_site_fract_y
_atom_site_fract_z
Si Si1 0.288384 0.247154 0.827148
Si Si2 0.216913 0.451614 0.513541
Si Si3 0.516596 0.413286 0.494159
Si Si4 0.770587 0.224741 0.350814
Si Si5 0.216122 0.763913 0.969627
Si Si6 0.621603 0.355115 0.717727
O O1 0.403629 0.352491 0.679139
O O2 0.500000 0.500000 0.000000
O O3 0.213985 0.314687 0.018214
O O4 0.037520 0.854435 0.633323
O O5 0.237606 0.345920 0.456016
O O6 0.278686 0.677925 0.789146
O O7 0.405604 0.658481 0.427507
O O8 0.500000 0.500000 0.500000
O O9 0.377544 0.095455 0.233645
O O10 0.811055 0.245921 0.171291
O O11 0.698914 0.294010 0.546977
O O12 0.000000 0.500000 0.500000
O O13 0.586960 0.899191 0.243587
O O14 0.000000 0.500000 0.000000
#
# Coordination Sequence:
#
# PCOD9038195 Si02
#       6
#     2   2   2   2   2   2
#     4  12  25  43  74 105 139 185 244 295 356 431
#     4  11  25  46  77 103 144 194 244 295 363 433
#     4  12  27  47  71 108 150 190 238 302 366 426
#     4  10  24  43  72 102 142 182 239 301 353 420
#     4  11  24  48  72 106 143 194 241 289 362 440
#     4  10  23  41  67 108 134 179 238 295 354 419
#
# _framework density 21.785211
#
# number of rings (size 3 to 8) (size 9 to 14) (size 15 to 20)
#    0.000    1.000    3.333    2.000    7.000    2.000 
#    6.000    0.000    0.000    0.000    0.000    0.000 
#    0.000    0.000    0.000    0.000    0.000    0.000 
#
# Total GULP energy -66810.139058 kJ/mol
# GULP energy per Si atom -5567.511588 kJ/mol
# Density = 2.173563 g / cm^3
# Si number density = 21.785211 Si / 1000 Ang^3
#
#
#
# Elastic Constant Matrix: (Units=GPa)
#
#
# Indices 1 2 3 4 5 6 
#
# 1 118.8057 45.3840 38.1161 -6.5518 12.3383 -18.9769
# 2 45.3840 107.3911 50.0987 -17.8812 19.0331 -24.7961
# 3 38.1161 50.0987 167.5324 -16.6268 -6.3795 -6.0185
# 4 -6.5518 -17.8812 -16.6268 53.0221 -4.1693 6.0489
# 5 12.3383 19.0331 -6.3795 -4.1693 36.6794 4.7816
# 6 -18.9769 -24.7961 -6.0185 6.0489 4.7816 18.7286
#
#
#
# Elastic Compliance Matrix: (Units=1/GPa)
#
#
# Indices 1 2 3 4 5 6 
#
# 1 0.011989 0.000372 -0.002728 -0.001359 -0.006668 0.013905
# 2 0.000372 0.022859 -0.006334 0.000667 -0.017290 0.032806
# 3 -0.002728 -0.006334 0.008574 0.002041 0.007353 -0.010932
# 4 -0.001359 0.000667 0.002041 0.020711 0.003798 -0.007497
# 5 -0.006668 -0.017290 0.007353 0.003798 0.045417 -0.040106
# 6 0.013905 0.032806 -0.010932 -0.007497 -0.040106 0.120065
#
#
# Mechanical properties :
#
#
# Convention : Reuss Voigt Hill
#
# Bulk Modulus (GPa) = 38.40030 73.43631 55.91830
# Shear Modulus (GPa) = 19.55607 39.02806 29.29206
#
# Velocity S-wave (km/s) = 2.99938 4.23720 3.67084
# Velocity P-wave (km/s) = 5.44610 7.59742 6.60988
#
# Compressibility (1/GPa) = 0.02604147
#
# Stress axis : x y z
#
# Youngs Moduli (GPa) = 83.41147 43.74589 116.63627
#
# Poissons Ratio (x) = -0.01629 0.31821
# Poissons Ratio (y) = -0.03105 0.73880
# Poissons Ratio (z) = 0.22756 0.27710
#
# Static dielectric constant tensor:
#      x y z
#    x 1.974050 -0.054060 -0.085570 
#    y -0.054060 1.865370 0.099400 
#    z -0.085570 0.099400 1.897960 
# 
# From -- ./inp_files/28967.got.cif
#   From: 2010.05.17/outbox.cif.g08.bks.cpg/sg2_15_cif.got.tgz:28967.got - 2010.06.03 11:33:40.
