data_PCOD9038271
_publ_section_title
;
Structure prediction by ZEFSAII (Michael W. Deem and Ramdas Pophale) SiO2 
 PCOD9038271
Probable space group: P -1
;
_chemical_formula_sum "Si O2"
_cell_formula_units_Z 16
_cell_length_a 5.223571
_cell_length_b 10.467958
_cell_length_c 11.512239
_cell_angle_alpha 86.380299
_cell_angle_beta 72.319079
_cell_angle_gamma 85.938353
_cell_volume 597.674840
_symmetry_space_group_name_H-M "P -1"
_symmetry_group_IT_number 2
_symmetry_cell_setting 'triclinic'
loop_
_space_group_symop_operation_xyz
x,y,z
-x,-y,-z
loop_
_atom_site_type_symbol
_atom_site_label
_atom_site_fract_x
_atom_site_fract_y
_atom_site_fract_z
Si Si1 0.679215 0.233242 0.490323
Si Si2 0.532609 0.715173 0.066299
Si Si3 0.162939 0.118315 0.518100
Si Si4 0.004508 0.651139 0.855054
Si Si5 0.604470 0.484692 0.339009
Si Si6 0.221998 0.901137 0.913089
Si Si7 0.138399 0.553619 0.271042
Si Si8 0.357544 0.128334 0.738288
O O1 0.000302 0.225335 0.458411
O O2 0.601212 0.365887 0.430937
O O3 0.601931 0.186374 0.632509
O O4 0.484044 0.134816 0.454592
O O5 0.283565 0.638528 0.152361
O O6 0.676421 0.781129 0.150627
O O7 0.775173 0.628467 0.981755
O O8 0.405683 0.820790 0.986509
O O9 0.144246 0.123480 0.661952
O O10 0.000000 0.000000 0.500000
O O11 0.868740 0.593669 0.763089
O O12 0.286280 0.568778 0.799752
O O13 0.077563 0.795951 0.860714
O O14 0.315523 0.551029 0.359800
O O15 0.825836 0.585518 0.334444
O O16 0.391881 0.989338 0.800870
O O17 0.000000 0.000000 0.000000
#
# Coordination Sequence:
#
# PCOD9038271 Si02
#       8
#     2   2   2   2   2   2   2   2
#     4  10  23  43  69  97 144 175 238 291 353 416
#     4  12  25  47  67 105 146 191 238 292 355 428
#     4  10  23  41  67  98 133 185 234 286 341 417
#     4  10  25  40  74  96 148 181 245 289 354 416
#     4  10  23  45  69 110 132 185 239 300 354 410
#     4  12  26  43  68 106 150 191 235 287 356 436
#     4  10  25  44  75 104 141 184 245 295 355 410
#     4  10  27  41  69 100 143 189 230 285 360 425
#
# _framework density 26.770410999999999
#
# number of rings (size 3 to 8) (size 9 to 14) (size 15 to 20)
#    1.500    0.000    1.250    2.625    5.250    1.000 
#    0.000    1.250    0.000    0.000    0.000    0.000 
#    0.000    0.000    0.000    0.000    0.000    0.000 
#
# Total GULP energy -89239.102679 kJ/mol
# GULP energy per Si atom -5577.443917 kJ/mol
# Density = 2.670948 g / cm^3
# Si number density = 26.770411 Si / 1000 Ang^3
#
#
#
# Elastic Constant Matrix: (Units=GPa)
#
#
# Indices 1 2 3 4 5 6 
#
# 1 151.0739 38.5177 45.1838 3.2835 38.6324 12.6566
# 2 38.5177 124.0802 73.8763 -14.2418 19.9425 18.4222
# 3 45.1838 73.8763 142.6492 -18.8351 10.3634 8.3718
# 4 3.2835 -14.2418 -18.8351 58.8120 -4.5597 -1.0398
# 5 38.6324 19.9425 10.3634 -4.5597 40.8068 -2.7409
# 6 12.6566 18.4222 8.3718 -1.0398 -2.7409 42.6175
#
#
#
# Elastic Compliance Matrix: (Units=1/GPa)
#
#
# Indices 1 2 3 4 5 6 
#
# 1 0.010113 0.000241 -0.002739 -0.002173 -0.009456 -0.003231
# 2 0.000241 0.013387 -0.006227 0.000724 -0.005442 -0.004968
# 3 -0.002739 -0.006227 0.011104 0.002477 0.003199 0.001590
# 4 -0.002173 0.000724 0.002477 0.018347 0.003158 0.000496
# 5 -0.009456 -0.005442 0.003199 0.003158 0.036124 0.006933
# 6 -0.003231 -0.004968 0.001590 0.000496 0.006933 0.026717
#
#
# Mechanical properties :
#
#
# Convention : Reuss Voigt Hill
#
# Bulk Modulus (GPa) = 58.29042 81.43989 69.86515
# Shear Modulus (GPa) = 35.98189 45.79562 40.88875
#
# Velocity S-wave (km/s) = 3.67016 4.14052 3.91242
# Velocity P-wave (km/s) = 6.30727 7.30385 6.82378
#
# Compressibility (1/GPa) = 0.01715548
#
# Stress axis : x y z
#
# Youngs Moduli (GPa) = 98.88371 74.69794 90.05884
#
# Poissons Ratio (x) = -0.01802 0.24663
# Poissons Ratio (y) = -0.02386 0.56079
# Poissons Ratio (z) = 0.27080 0.46514
#
# Static dielectric constant tensor:
#      x y z
#    x 2.232190 -0.082100 -0.058740 
#    y -0.082100 2.180070 0.064280 
#    z -0.058740 0.064280 2.077390 
# 
# From -- ./inp_files/364279.got.cif
#   From: 2010.05.17/outbox.cif.g08.bks.cpg/sg2_183_cif.got.tgz:364279.got - 2010.06.03 11:33:40.
