data_PCOD9038610
_publ_section_title
;
Structure prediction by ZEFSAII (Michael W. Deem and Ramdas Pophale) SiO2 
 PCOD9038610
Probable space group: P -1
;
_chemical_formula_sum "Si O2"
_cell_formula_units_Z 10
_cell_length_a 11.180494
_cell_length_b 8.937838
_cell_length_c 5.249953
_cell_angle_alpha 73.791899
_cell_angle_beta 54.685774
_cell_angle_gamma 62.577481
_cell_volume 379.927853
_symmetry_space_group_name_H-M "P -1"
_symmetry_group_IT_number 2
_symmetry_cell_setting 'triclinic'
loop_
_space_group_symop_operation_xyz
x,y,z
-x,-y,-z
loop_
_atom_site_type_symbol
_atom_site_label
_atom_site_fract_x
_atom_site_fract_y
_atom_site_fract_z
Si Si1 0.017352 0.601771 0.681209
Si Si2 0.838417 0.984282 0.640668
Si Si3 0.512149 0.097999 0.191035
Si Si4 0.271643 0.701487 0.620948
Si Si5 0.597767 0.567742 0.033154
O O1 0.174762 0.642870 0.548429
O O2 0.000000 0.500000 0.500000
O O3 0.878010 0.787170 0.722556
O O4 0.000000 0.500000 0.000000
O O5 0.798042 0.095130 0.377214
O O6 0.000000 0.000000 0.500000
O O7 0.690442 0.091347 0.949840
O O8 0.500000 0.000000 0.500000
O O9 0.380399 0.284857 0.227339
O O10 0.500000 0.000000 0.000000
O O11 0.459957 0.660117 0.368278
O O12 0.268554 0.584756 0.917647
O O13 0.500000 0.500000 0.000000
#
# Coordination Sequence:
#
# PCOD9038610 Si02
#       5
#     2   2   2   2   2
#     4  11  26  45  70 104 140 184 237 304 358 420
#     4   9  22  50  72 103 144 196 241 294 362 445
#     4  11  27  45  72 108 149 187 236 305 367 422
#     4   9  22  45  66 101 135 188 239 287 354 432
#     4  10  23  41  71  97 139 189 235 292 351 433
#
# _framework density 26.320786999999999
#
# number of rings (size 3 to 8) (size 9 to 14) (size 15 to 20)
#    0.000    2.000    0.000    0.000   14.000    1.600 
#    3.600    4.000    0.000    0.000    0.000    0.000 
#    0.000    0.000    0.000    0.000    0.000    0.000 
#
# Total GULP energy -55775.669032 kJ/mol
# GULP energy per Si atom -5577.566903 kJ/mol
# Density = 2.626088 g / cm^3
# Si number density = 26.320787 Si / 1000 Ang^3
#
#
#
# Elastic Constant Matrix: (Units=GPa)
#
#
# Indices 1 2 3 4 5 6 
#
# 1 134.4223 28.9799 58.6775 -20.0385 21.2614 -13.8119
# 2 28.9799 220.7876 62.9958 -76.7065 47.5534 -37.5708
# 3 58.6775 62.9958 132.7634 -52.7812 21.5189 -11.5908
# 4 -20.0385 -76.7065 -52.7812 51.0636 -15.1039 10.5992
# 5 21.2614 47.5534 21.5189 -15.1039 66.9196 -4.7188
# 6 -13.8119 -37.5708 -11.5908 10.5992 -4.7188 45.1302
#
#
#
# Elastic Compliance Matrix: (Units=1/GPa)
#
#
# Indices 1 2 3 4 5 6 
#
# 1 0.009651 0.000348 -0.004441 -0.001339 -0.002032 0.002205
# 2 0.000348 0.012393 0.002851 0.018899 -0.005133 0.006181
# 3 -0.004441 0.002851 0.015655 0.018147 -0.001510 0.000615
# 4 -0.001339 0.018899 0.018147 0.064067 -0.004061 0.004513
# 5 -0.002032 -0.005133 -0.001510 -0.004061 0.018637 -0.002380
# 6 0.002205 0.006181 0.000615 0.004513 -0.002380 0.026828
#
#
# Mechanical properties :
#
#
# Convention : Reuss Voigt Hill
#
# Bulk Modulus (GPa) = 28.39734 87.69776 58.04755
# Shear Modulus (GPa) = 30.96838 55.11068 43.03953
#
# Velocity S-wave (km/s) = 3.43384 4.58078 4.04814
# Velocity P-wave (km/s) = 5.15112 7.83385 6.62960
#
# Compressibility (1/GPa) = 0.03521456
#
# Stress axis : x y z
#
# Youngs Moduli (GPa) = 103.61369 80.68812 63.87596
#
# Poissons Ratio (x) = -0.02808 0.28369
# Poissons Ratio (y) = -0.03606 -0.18208
# Poissons Ratio (z) = 0.46017 -0.23000
#
# Static dielectric constant tensor:
#      x y z
#    x 2.165960 0.001300 -0.025770 
#    y 0.001300 2.181940 0.062360 
#    z -0.025770 0.062360 2.369620 
# 
# From -- ./inp_files/18175.got.cif
#   From: 2010.05.17/outbox.cif.g08.bks.cpg/sg2_10_cif.got.tgz:18175.got - 2010.06.03 11:33:40.
