data_PCOD9038511
_publ_section_title
;
Structure prediction by ZEFSAII (Michael W. Deem and Ramdas Pophale) SiO2 
 PCOD9038511
Probable space group: P -1
;
_chemical_formula_sum "Si O2"
_cell_formula_units_Z 16
_cell_length_a 8.428046
_cell_length_b 11.040052
_cell_length_c 18.302485
_cell_angle_alpha 149.126125
_cell_angle_beta 56.920396
_cell_angle_gamma 131.847233
_cell_volume 649.374241
_symmetry_space_group_name_H-M "P -1"
_symmetry_group_IT_number 2
_symmetry_cell_setting 'triclinic'
loop_
_space_group_symop_operation_xyz
x,y,z
-x,-y,-z
loop_
_atom_site_type_symbol
_atom_site_label
_atom_site_fract_x
_atom_site_fract_y
_atom_site_fract_z
Si Si1 0.600247 0.156954 0.788752
Si Si2 0.170044 0.506822 0.401100
Si Si3 0.096011 0.344040 0.943963
Si Si4 0.624363 0.871789 0.314359
Si Si5 0.288240 0.273332 0.476079
Si Si6 0.739956 0.179298 0.062439
Si Si7 0.836582 0.271373 0.251262
Si Si8 0.592386 0.600007 0.332705
O O1 0.697329 0.426361 0.949026
O O2 0.560691 0.211130 0.742921
O O3 0.746595 0.008673 0.692323
O O4 0.365470 0.937663 0.759971
O O5 0.351632 0.421255 0.332041
O O6 0.000000 0.500000 0.500000
O O7 0.050876 0.333185 0.271429
O O8 0.301088 0.825691 0.524496
O O9 0.917972 0.188209 0.968292
O O10 0.178147 0.161144 0.786715
O O11 0.000000 0.500000 0.000000
O O12 0.564075 0.698378 0.312377
O O13 0.500000 0.500000 0.500000
O O14 0.150132 0.432213 0.593924
O O15 0.308697 0.217425 0.527609
O O16 0.792665 0.151242 0.118882
O O17 0.741393 0.463568 0.211087
O O18 0.500000 0.000000 0.000000
#
# Coordination Sequence:
#
# PCOD9038511 Si02
#       8
#     2   2   2   2   2   2   2   2
#     4  11  23  45  68  99 144 179 228 284 357 414
#     4  12  24  44  72 107 140 181 232 284 358 410
#     4  12  27  47  69 100 136 190 232 281 356 416
#     4  12  26  45  69 104 147 183 227 291 352 422
#     4   9  19  40  67  99 136 179 227 286 338 400
#     4  11  26  48  71 100 138 185 238 288 340 420
#     4  10  23  41  70 106 131 183 235 288 340 413
#     4  11  24  44  70 103 140 179 229 290 350 406
#
# _framework density 24.639104
#
# number of rings (size 3 to 8) (size 9 to 14) (size 15 to 20)
#    0.000    1.000    3.750    2.250    5.250    0.000 
#    0.000    3.750    0.000    0.000    0.000    0.000 
#    0.000    0.000    0.000    0.000    0.000    0.000 
#
# Total GULP energy -89338.490641 kJ/mol
# GULP energy per Si atom -5583.655665 kJ/mol
# Density = 2.458302 g / cm^3
# Si number density = 24.639104 Si / 1000 Ang^3
#
#
#
# Elastic Constant Matrix: (Units=GPa)
#
#
# Indices 1 2 3 4 5 6 
#
# 1 79.4929 12.7798 24.5848 -3.4490 10.6007 -8.1025
# 2 12.7798 53.2193 23.2132 -21.4726 0.1072 -12.4374
# 3 24.5848 23.2132 100.3977 -14.5731 -2.8518 5.2215
# 4 -3.4490 -21.4726 -14.5731 35.4522 10.0901 1.8058
# 5 10.6007 0.1072 -2.8518 10.0901 53.2500 -10.1996
# 6 -8.1025 -12.4374 5.2215 1.8058 -10.1996 44.6375
#
#
#
# Elastic Compliance Matrix: (Units=1/GPa)
#
#
# Indices 1 2 3 4 5 6 
#
# 1 0.014424 -0.001670 -0.003374 -0.000354 -0.002605 0.001967
# 2 -0.001670 0.029237 -0.004491 0.015762 -0.001540 0.007379
# 3 -0.003374 -0.004491 0.012310 0.002094 0.000308 -0.003318
# 4 -0.000354 0.015762 0.002094 0.040651 -0.007409 0.000745
# 5 -0.002605 -0.001540 0.000308 -0.007409 0.021542 0.004284
# 6 0.001967 0.007379 -0.003318 0.000745 0.004284 0.026152
#
#
# Mechanical properties :
#
#
# Convention : Reuss Voigt Hill
#
# Bulk Modulus (GPa) = 27.09832 39.36286 33.23059
# Shear Modulus (GPa) = 28.45984 38.17009 33.31496
#
# Velocity S-wave (km/s) = 3.40232 3.94022 3.68110
# Velocity P-wave (km/s) = 5.14357 6.05895 5.61993
#
# Compressibility (1/GPa) = 0.03690266
#
# Stress axis : x y z
#
# Youngs Moduli (GPa) = 69.32853 34.20297 81.23507
#
# Poissons Ratio (x) = 0.05713 0.27405
# Poissons Ratio (y) = 0.11579 0.36479
# Poissons Ratio (z) = 0.23388 0.15359
#
# Static dielectric constant tensor:
#      x y z
#    x 1.997500 -0.008080 -0.033300 
#    y -0.008080 1.980270 -0.008640 
#    z -0.033300 -0.008640 1.979600 
# 
# From -- ./inp_files/560152.got.cif
#   From: 2010.05.17/outbox.cif.g08.bks.cpg/sg2_281_cif.got.tgz:560152.got - 2010.06.03 11:33:40.
