data_PCOD9038207
_publ_section_title
;
Structure prediction by ZEFSAII (Michael W. Deem and Ramdas Pophale) SiO2 
 PCOD9038207
Probable space group: P -1
;
_chemical_formula_sum "Si O2"
_cell_formula_units_Z 16
_cell_length_a 26.233131
_cell_length_b 5.150522
_cell_length_c 21.156571
_cell_angle_alpha 63.700243
_cell_angle_beta 160.627774
_cell_angle_gamma 105.402560
_cell_volume 729.953549
_symmetry_space_group_name_H-M "P -1"
_symmetry_group_IT_number 2
_symmetry_cell_setting 'triclinic'
loop_
_space_group_symop_operation_xyz
x,y,z
-x,-y,-z
loop_
_atom_site_type_symbol
_atom_site_label
_atom_site_fract_x
_atom_site_fract_y
_atom_site_fract_z
Si Si1 0.394739 0.277037 0.529955
Si Si2 0.727325 0.816784 0.315364
Si Si3 0.607067 0.317105 0.228363
Si Si4 0.553152 0.075887 0.868076
Si Si5 0.624083 0.018767 0.589822
Si Si6 0.878456 0.850536 0.354696
Si Si7 0.020124 0.712873 0.101910
Si Si8 0.177717 0.670259 0.421617
O O1 0.538304 0.099062 0.773028
O O2 0.390039 0.618286 0.466849
O O3 0.199896 0.388486 0.320590
O O4 0.426549 0.047726 0.531549
O O5 0.799984 0.801007 0.333352
O O6 0.871482 0.532544 0.563482
O O7 0.665769 0.154971 0.245785
O O8 0.585943 0.683557 0.163787
O O9 0.768595 0.122753 0.490040
O O10 0.453495 0.250656 0.079392
O O11 0.369768 0.397577 0.644572
O O12 0.718023 0.071862 0.094593
O O13 0.500000 0.000000 0.500000
O O14 0.831957 0.730835 0.875861
O O15 0.000000 0.500000 0.500000
O O16 0.000000 0.000000 0.500000
O O17 0.050162 0.803308 0.198334
O O18 0.000000 0.000000 0.000000
#
# Coordination Sequence:
#
# PCOD9038207 Si02
#       8
#     2   2   2   2   2   2   2   2
#     4  10  23  41  67  91 127 169 221 264 321 377
#     4   9  20  41  59  90 122 156 205 263 321 370
#     4   9  19  36  66  92 118 149 203 270 321 358
#     4  10  23  41  68  94 121 163 216 263 322 381
#     4  11  23  42  61  96 133 173 213 262 320 387
#     4  12  28  44  62  88 130 172 218 253 315 393
#     4   9  19  38  64  96 128 166 212 269 312 374
#     4   8  19  38  63  97 118 158 204 269 320 363
#
# _framework density 21.9192
#
# number of rings (size 3 to 8) (size 9 to 14) (size 15 to 20)
#    0.750    1.500    0.000    1.500    7.000    2.500 
#   11.250    0.000    0.000    0.000    0.000    0.000 
#    0.000    0.000    0.000    0.000    0.000    0.000 
#
# Total GULP energy -89300.434945 kJ/mol
# GULP energy per Si atom -5581.277184 kJ/mol
# Density = 2.186931 g / cm^3
# Si number density = 21.919200 Si / 1000 Ang^3
#
#
#
# Elastic Constant Matrix: (Units=GPa)
#
#
# Indices 1 2 3 4 5 6 
#
# 1 127.7373 20.6042 69.8301 13.6324 -9.0577 -19.1399
# 2 20.6042 95.2394 19.7247 19.3154 6.2752 -10.8761
# 3 69.8301 19.7247 115.3403 27.0590 -23.1368 -4.5240
# 4 13.6324 19.3154 27.0590 31.4350 -4.6878 -7.6077
# 5 -9.0577 6.2752 -23.1368 -4.6878 41.5023 13.5330
# 6 -19.1399 -10.8761 -4.5240 -7.6077 13.5330 39.1612
#
#
#
# Elastic Compliance Matrix: (Units=1/GPa)
#
#
# Indices 1 2 3 4 5 6 
#
# 1 0.013610 -0.000589 -0.009644 0.003962 -0.004365 0.007652
# 2 -0.000589 0.012878 -0.001082 -0.006568 -0.004549 0.003460
# 3 -0.009644 -0.001082 0.019312 -0.012358 0.010277 -0.008735
# 4 0.003962 -0.006568 -0.012358 0.046463 -0.002590 0.008606
# 5 -0.004365 -0.004549 0.010277 -0.002590 0.033981 -0.014455
# 6 0.007652 0.003460 -0.008735 0.008606 -0.014455 0.035894
#
#
# Mechanical properties :
#
#
# Convention : Reuss Voigt Hill
#
# Bulk Modulus (GPa) = 43.15881 62.07056 52.61468
# Shear Modulus (GPa) = 25.97527 37.63022 31.80275
#
# Velocity S-wave (km/s) = 3.44619 4.14789 3.81321
# Velocity P-wave (km/s) = 5.96386 7.16375 6.59117
#
# Compressibility (1/GPa) = 0.02317024
#
# Stress axis : x y z
#
# Youngs Moduli (GPa) = 73.47597 77.65129 51.78167
#
# Poissons Ratio (x) = 0.04575 0.49938
# Poissons Ratio (y) = 0.04329 0.05601
# Poissons Ratio (z) = 0.70860 0.08399
#
# Static dielectric constant tensor:
#      x y z
#    x 1.794710 0.031790 -0.054120 
#    y 0.031790 1.861630 -0.046680 
#    z -0.054120 -0.046680 1.907320 
# 
# From -- ./inp_files/111373.got.cif
#   From: 2010.05.17/outbox.cif.g08.bks.cpg/sg2_56_cif.got.tgz:111373.got - 2010.06.03 11:33:40.
