data_PCOD9038085
_publ_section_title
;
Structure prediction by ZEFSAII (Michael W. Deem and Ramdas Pophale) SiO2 
 PCOD9038085
Probable space group: P -1
;
_chemical_formula_sum "Si O2"
_cell_formula_units_Z 16
_cell_length_a 20.755106
_cell_length_b 11.755669
_cell_length_c 6.796669
_cell_angle_alpha 56.457454
_cell_angle_beta 131.712303
_cell_angle_gamma 142.475281
_cell_volume 752.900574
_symmetry_space_group_name_H-M "P -1"
_symmetry_group_IT_number 2
_symmetry_cell_setting 'triclinic'
loop_
_space_group_symop_operation_xyz
x,y,z
-x,-y,-z
loop_
_atom_site_type_symbol
_atom_site_label
_atom_site_fract_x
_atom_site_fract_y
_atom_site_fract_z
Si Si1 0.522652 0.938309 0.410396
Si Si2 0.966020 0.063810 0.692587
Si Si3 0.111618 0.724050 0.500425
Si Si4 0.684492 0.251131 0.103389
Si Si5 0.272872 0.031544 0.250526
Si Si6 0.255259 0.254879 0.698503
Si Si7 0.773022 0.603790 0.161308
Si Si8 0.633566 0.665198 0.549134
O O1 0.613185 0.915562 0.664708
O O2 0.500000 0.000000 0.500000
O O3 0.597596 0.096382 0.241206
O O4 0.397761 0.772377 0.209752
O O5 0.920984 0.164999 0.574631
O O6 0.089986 0.219621 0.688650
O O7 0.866277 0.880448 0.540323
O O8 0.000000 0.000000 0.000000
O O9 0.224708 0.764044 0.779812
O O10 0.000000 0.500000 0.500000
O O11 0.162411 0.817733 0.294878
O O12 0.759260 0.442074 0.193259
O O13 0.320304 0.144310 0.445792
O O14 0.239826 0.119624 0.958162
O O15 0.286440 0.423522 0.725187
O O16 0.352069 0.326785 0.661977
O O17 0.714802 0.639865 0.845335
O O18 0.500000 0.500000 0.500000
#
# Coordination Sequence:
#
# PCOD9038085 Si02
#       8
#     2   2   2   2   2   2   2   2
#     4  10  23  41  66  92 131 178 221 272 338 404
#     4  12  22  44  72  96 134 182 224 281 350 403
#     4  11  22  43  72  96 138 185 226 278 344 407
#     4  10  23  42  64  97 134 175 221 280 333 398
#     4  10  23  42  65 100 133 176 230 279 347 398
#     4  11  24  42  70  96 138 178 226 288 338 411
#     4  11  23  40  65 102 129 172 231 275 341 400
#     4  11  23  41  66  96 132 182 223 282 343 405
#
# _framework density 21.251145999999999
#
# number of rings (size 3 to 8) (size 9 to 14) (size 15 to 20)
#    0.000    1.250    3.750    1.875    1.750    6.000 
#    0.000    1.875    0.000    0.000    0.000    0.000 
#    0.000    0.000    0.000    0.000    0.000    0.000 
#
# Total GULP energy -89276.141912 kJ/mol
# GULP energy per Si atom -5579.758869 kJ/mol
# Density = 2.120278 g / cm^3
# Si number density = 21.251146 Si / 1000 Ang^3
#
#
#
# Elastic Constant Matrix: (Units=GPa)
#
#
# Indices 1 2 3 4 5 6 
#
# 1 132.4796 28.2366 33.4125 5.6776 2.5424 -2.3990
# 2 28.2366 76.5909 16.6019 4.9615 -2.4478 6.7058
# 3 33.4125 16.6019 70.9009 8.0441 0.3393 -2.0793
# 4 5.6776 4.9615 8.0441 18.2592 -4.6824 1.7841
# 5 2.5424 -2.4478 0.3393 -4.6824 35.6520 -0.0057
# 6 -2.3990 6.7058 -2.0793 1.7841 -0.0057 44.8650
#
#
#
# Elastic Compliance Matrix: (Units=1/GPa)
#
#
# Indices 1 2 3 4 5 6 
#
# 1 0.009065 -0.002614 -0.003537 -0.000855 -0.000904 0.000745
# 2 -0.002614 0.014835 -0.002112 -0.001801 0.000988 -0.002383
# 3 -0.003537 -0.002112 0.017001 -0.006151 -0.000862 0.001159
# 4 -0.000855 -0.001801 -0.006151 0.060510 0.007943 -0.002467
# 5 -0.000904 0.000988 -0.000862 0.007943 0.029233 -0.000548
# 6 0.000745 -0.002383 0.001159 -0.002467 -0.000548 0.022837
#
#
# Mechanical properties :
#
#
# Convention : Reuss Voigt Hill
#
# Bulk Modulus (GPa) = 41.02449 48.49705 44.76077
# Shear Modulus (GPa) = 28.06922 33.20326 30.63624
#
# Velocity S-wave (km/s) = 3.63827 3.95704 3.80100
# Velocity P-wave (km/s) = 6.08242 6.61422 6.35389
#
# Compressibility (1/GPa) = 0.02437569
#
# Stress axis : x y z
#
# Youngs Moduli (GPa) = 110.31480 67.40875 58.81900
#
# Poissons Ratio (x) = 0.17622 0.20802
# Poissons Ratio (y) = 0.28838 0.12423
# Poissons Ratio (z) = 0.39014 0.14237
#
# Static dielectric constant tensor:
#      x y z
#    x 1.818130 -0.005980 0.028730 
#    y -0.005980 1.817890 -0.025450 
#    z 0.028730 -0.025450 1.750490 
# 
# From -- ./inp_files/71010.got.cif
#   From: 2010.05.17/outbox.cif.g08.bks.cpg/sg2_36_cif.got.tgz:71010.got - 2010.06.03 11:33:40.
