data_PCOD9039276
_publ_section_title
;
Structure prediction by ZEFSAII (Michael W. Deem and Ramdas Pophale) SiO2 
 PCOD9039276
Probable space group: P -1
;
_chemical_formula_sum "Si O2"
_cell_formula_units_Z 16
_cell_length_a 8.800245
_cell_length_b 18.403526
_cell_length_c 4.993295
_cell_angle_alpha 72.128699
_cell_angle_beta 98.666918
_cell_angle_gamma 125.990153
_cell_volume 622.292965
_symmetry_space_group_name_H-M "P -1"
_symmetry_group_IT_number 2
_symmetry_cell_setting 'triclinic'
loop_
_space_group_symop_operation_xyz
x,y,z
-x,-y,-z
loop_
_atom_site_type_symbol
_atom_site_label
_atom_site_fract_x
_atom_site_fract_y
_atom_site_fract_z
Si Si1 0.481280 0.817384 0.957839
Si Si2 0.681433 0.074986 0.295484
Si Si3 0.275694 0.447346 0.984946
Si Si4 0.102023 0.875873 0.201214
Si Si5 0.525623 0.742182 0.569405
Si Si6 0.168543 0.573030 0.656301
Si Si7 0.049470 0.335188 0.529765
Si Si8 0.859988 0.902277 0.716595
O O1 0.330598 0.837376 0.830176
O O2 0.448662 0.733581 0.860772
O O3 0.683707 0.898865 0.799284
O O4 0.496260 0.804047 0.287855
O O5 0.851445 0.100459 0.503476
O O6 0.500000 0.000000 0.500000
O O7 0.718790 0.058183 0.023528
O O8 0.197313 0.511947 0.944804
O O9 0.191366 0.403183 0.723034
O O10 0.500000 0.500000 0.000000
O O11 0.174836 0.364184 0.265498
O O12 0.040762 0.770144 0.285653
O O13 0.949874 0.885947 0.011750
O O14 0.385555 0.639146 0.531115
O O15 0.748277 0.808489 0.606617
O O16 0.000000 0.500000 0.500000
O O17 0.106202 0.643784 0.596152
O O18 0.000000 0.000000 0.500000
#
# Coordination Sequence:
#
# PCOD9039276 Si02
#       8
#     2   2   2   2   2   2   2   2
#     4  10  23  42  67  94 133 178 225 280 340 404
#     4  12  25  42  67  98 135 177 228 283 341 405
#     4  11  25  42  70  99 137 175 222 280 341 407
#     4  12  27  43  70 101 139 179 229 286 347 404
#     4  10  24  41  71  96 136 173 235 277 340 403
#     4  10  23  44  71 100 135 182 228 278 341 410
#     4  11  24  45  66 100 136 175 227 275 342 408
#     4  10  26  45  70  98 137 183 230 281 342 413
#
# _framework density 25.711364
#
# number of rings (size 3 to 8) (size 9 to 14) (size 15 to 20)
#    0.750    0.500    0.000    4.875    5.250    6.500 
#    0.000    0.000    0.000    0.000    0.000    0.000 
#    0.000    0.000    0.000    0.000    0.000    0.000 
#
# Total GULP energy -89332.584850 kJ/mol
# GULP energy per Si atom -5583.286553 kJ/mol
# Density = 2.565284 g / cm^3
# Si number density = 25.711364 Si / 1000 Ang^3
#
#
#
# Elastic Constant Matrix: (Units=GPa)
#
#
# Indices 1 2 3 4 5 6 
#
# 1 101.3905 34.6622 43.8994 -1.4176 20.3923 19.1386
# 2 34.6622 84.0700 29.0975 -7.0895 11.8916 28.5081
# 3 43.8994 29.0975 155.5085 4.3922 13.9646 14.7742
# 4 -1.4176 -7.0895 4.3922 41.1554 6.8302 4.9111
# 5 20.3923 11.8916 13.9646 6.8302 44.6574 -1.1460
# 6 19.1386 28.5081 14.7742 4.9111 -1.1460 47.9883
#
#
#
# Elastic Compliance Matrix: (Units=1/GPa)
#
#
# Indices 1 2 3 4 5 6 
#
# 1 0.013562 -0.002772 -0.002600 0.001474 -0.004950 -0.003231
# 2 -0.002772 0.017773 -0.001407 0.004933 -0.004028 -0.009621
# 3 -0.002600 -0.001407 0.007549 -0.000985 -0.000658 -0.000367
# 4 0.001474 0.004933 -0.000985 0.027025 -0.005969 -0.006123
# 5 -0.004950 -0.004028 -0.000658 -0.005969 0.026994 0.005825
# 6 -0.003231 -0.009621 -0.000367 -0.006123 0.005825 0.028721
#
#
# Mechanical properties :
#
#
# Convention : Reuss Voigt Hill
#
# Bulk Modulus (GPa) = 39.48270 61.80969 50.64620
# Shear Modulus (GPa) = 34.81320 42.31421 38.56370
#
# Velocity S-wave (km/s) = 3.68367 4.06117 3.87702
# Velocity P-wave (km/s) = 5.78636 6.78844 6.30733
#
# Compressibility (1/GPa) = 0.02532755
#
# Stress axis : x y z
#
# Youngs Moduli (GPa) = 73.73366 56.26646 132.46073
#
# Poissons Ratio (x) = 0.15595 0.34441
# Poissons Ratio (y) = 0.20437 0.18632
# Poissons Ratio (z) = 0.19172 0.07914
#
# Static dielectric constant tensor:
#      x y z
#    x 2.121170 -0.006700 -0.044950 
#    y -0.006700 2.143600 -0.006250 
#    z -0.044950 -0.006250 1.952160 
# 
# From -- ./inp_files/52523.got.cif
#   From: 2010.05.17/outbox.cif.g08.bks.cpg/sg2_27_cif.got.tgz:52523.got - 2010.06.03 11:33:40.
