data_PCOD9039022
_publ_section_title
;
Structure prediction by ZEFSAII (Michael W. Deem and Ramdas Pophale) SiO2 
 PCOD9039022
Probable space group: P -1
;
_chemical_formula_sum "Si O2"
_cell_formula_units_Z 15
_cell_length_a 14.727128
_cell_length_b 4.854262
_cell_length_c 18.684050
_cell_angle_alpha 83.650664
_cell_angle_beta 156.053915
_cell_angle_gamma 95.774131
_cell_volume 538.808124
_symmetry_space_group_name_H-M "P -1"
_symmetry_group_IT_number 2
_symmetry_cell_setting 'triclinic'
loop_
_space_group_symop_operation_xyz
x,y,z
-x,-y,-z
loop_
_atom_site_type_symbol
_atom_site_label
_atom_site_fract_x
_atom_site_fract_y
_atom_site_fract_z
Si Si1 0.377945 0.017784 0.275397
Si Si2 0.063242 0.703956 0.225148
Si Si3 0.983221 0.235079 0.079545
Si Si4 0.922544 0.802304 0.349205
Si Si5 0.500000 0.000000 0.500000
Si Si6 0.576179 0.379045 0.281997
Si Si7 0.150481 0.652065 0.795874
Si Si8 0.519562 0.914740 0.154175
O O1 0.235517 0.170993 0.233423
O O2 0.490539 0.226359 0.295417
O O3 0.545188 0.864941 0.452926
O O4 0.193571 0.834248 0.107180
O O5 0.971790 0.537239 0.094784
O O6 0.322705 0.752800 0.399862
O O7 0.994861 0.531851 0.249334
O O8 0.959528 0.011646 0.132475
O O9 0.785838 0.572432 0.212094
O O10 0.767733 0.890496 0.300972
O O11 0.159561 0.658085 0.536388
O O12 0.974801 0.086546 0.336745
O O13 0.510878 0.698173 0.219984
O O14 0.477759 0.217996 0.146608
O O15 0.354122 0.802577 0.978207
#
# Coordination Sequence:
#
# PCOD9039022 Si02
#       8
#     2   2   2   2   1   2   2   2
#     4  10  23  42  65  97 127 178 220 277 331 396
#     4  11  23  43  65  98 130 179 218 275 328 394
#     4  10  23  42  67  91 134 172 229 271 325 394
#     4  12  25  44  68 103 141 178 220 287 347 396
#     4  10  24  40  64  92 132 160 210 266 334 386
#     4  12  25  43  69  97 138 178 231 275 337 409
#     4  12  24  43  72 100 139 178 231 276 336 407
#     4  12  25  45  70 101 134 182 230 282 333 402
#
# _framework density 27.839224999999999
#
# number of rings (size 3 to 8) (size 9 to 14) (size 15 to 20)
#    0.000    0.800    0.000    7.200    0.000   10.133 
#    0.000    2.667    0.000    0.000    0.000    0.000 
#    0.000    0.000    0.000    0.000    0.000    0.000 
#
# Total GULP energy -84016.157118 kJ/mol
# GULP energy per Si atom -5601.077141 kJ/mol
# Density = 2.777586 g / cm^3
# Si number density = 27.839225 Si / 1000 Ang^3
#
#
#
# Elastic Constant Matrix: (Units=GPa)
#
#
# Indices 1 2 3 4 5 6 
#
# 1 76.6874 9.2688 17.7815 5.9754 4.9209 -9.0676
# 2 9.2688 131.6485 30.0462 -5.2668 -10.9753 -6.5951
# 3 17.7815 30.0462 98.8780 27.4873 4.4050 16.0556
# 4 5.9754 -5.2668 27.4873 31.2332 -0.6433 1.7531
# 5 4.9209 -10.9753 4.4050 -0.6433 38.7926 5.5397
# 6 -9.0676 -6.5951 16.0556 1.7531 5.5397 38.4086
#
#
#
# Elastic Compliance Matrix: (Units=1/GPa)
#
#
# Indices 1 2 3 4 5 6 
#
# 1 0.014579 -0.000259 -0.003156 -0.000387 -0.002294 0.005065
# 2 -0.000259 0.009416 -0.005106 0.006024 0.002950 0.002990
# 3 -0.003156 -0.005106 0.018013 -0.015699 -0.002191 -0.008119
# 4 -0.000387 0.006024 -0.015699 0.046726 0.003618 0.004851
# 5 -0.002294 0.002950 -0.002191 0.003618 0.027680 -0.003277
# 6 0.005065 0.002990 -0.008119 0.004851 -0.003277 0.031390
#
#
# Mechanical properties :
#
#
# Convention : Reuss Voigt Hill
#
# Bulk Modulus (GPa) = 40.05444 46.82299 43.43872
# Shear Modulus (GPa) = 28.87349 38.36137 33.61743
#
# Velocity S-wave (km/s) = 3.22398 3.71612 3.47876
# Velocity P-wave (km/s) = 5.31768 5.93871 5.63675
#
# Compressibility (1/GPa) = 0.02496602
#
# Stress axis : x y z
#
# Youngs Moduli (GPa) = 68.59048 106.19806 55.51602
#
# Poissons Ratio (x) = 0.02753 0.17519
# Poissons Ratio (y) = 0.01778 0.28348
# Poissons Ratio (z) = 0.21644 0.54228
#
# Static dielectric constant tensor:
#      x y z
#    x 2.130820 -0.063040 0.095830 
#    y -0.063040 1.694770 0.611850 
#    z 0.095830 0.611850 1.153220 
# 
# From -- ./inp_files/571684.got.cif
#   From: 2010.05.17/outbox.cif.g08.bks.cpg/sg2_286_cif.got.tgz:571684.got - 2010.06.03 11:33:40.
