data_PCOD9039628
_publ_section_title
;
Structure prediction by ZEFSAII (Michael W. Deem and Ramdas Pophale) SiO2 
 PCOD9039628
Probable space group: P -1
;
_chemical_formula_sum "Si O2"
_cell_formula_units_Z 16
_cell_length_a 11.658280
_cell_length_b 7.588900
_cell_length_c 16.399394
_cell_angle_alpha 65.579757
_cell_angle_beta 57.485437
_cell_angle_gamma 112.179869
_cell_volume 695.613507
_symmetry_space_group_name_H-M "P -1"
_symmetry_group_IT_number 2
_symmetry_cell_setting 'triclinic'
loop_
_space_group_symop_operation_xyz
x,y,z
-x,-y,-z
loop_
_atom_site_type_symbol
_atom_site_label
_atom_site_fract_x
_atom_site_fract_y
_atom_site_fract_z
Si Si1 0.095537 0.789564 0.954599
Si Si2 0.759339 0.224890 0.575829
Si Si3 0.677941 0.119010 0.991449
Si Si4 0.829165 0.709610 0.371694
Si Si5 0.795948 0.337329 0.728397
Si Si6 0.637034 0.450766 0.183449
Si Si7 0.688053 0.584507 0.953248
Si Si8 0.582759 0.554470 0.353346
O O1 0.274057 0.091488 0.772745
O O2 0.195301 0.845881 0.992383
O O3 0.000000 0.500000 0.000000
O O4 0.886161 0.689972 0.064225
O O5 0.810813 0.499795 0.474910
O O6 0.765073 0.207245 0.675209
O O7 0.954510 0.315501 0.443139
O O8 0.519828 0.907984 0.697563
O O9 0.776538 0.199873 0.847816
O O10 0.685171 0.358024 0.965596
O O11 0.422164 0.775924 0.157957
O O12 0.732885 0.570061 0.343562
O O13 0.652528 0.671113 0.475864
O O14 0.070248 0.061852 0.217584
O O15 0.545037 0.464267 0.291274
O O16 0.638566 0.541004 0.076421
O O17 0.500000 0.500000 0.000000
#
# Coordination Sequence:
#
# PCOD9039628 Si02
#       8
#     2   2   2   2   2   2   2   2
#     4  12  22  45  76 100 141 183 235 285 342 418
#     4  11  24  45  69  98 139 184 225 289 343 414
#     4  11  23  43  72 103 132 187 234 279 347 412
#     4  11  25  45  69  98 142 182 229 283 354 405
#     4  10  23  42  69  97 135 173 242 277 334 417
#     4  12  26  46  69 104 141 181 237 283 353 407
#     4  12  26  45  70 103 142 181 230 290 346 415
#     4  11  26  44  69 103 143 179 229 294 345 408
#
# _framework density 23.001277000000002
#
# number of rings (size 3 to 8) (size 9 to 14) (size 15 to 20)
#    0.000    0.750    3.750    2.625    5.250    4.500 
#    0.000    1.250    0.000    0.000    0.000    0.000 
#    0.000    0.000    0.000    0.000    0.000    0.000 
#
# Total GULP energy -89414.881731 kJ/mol
# GULP energy per Si atom -5588.430108 kJ/mol
# Density = 2.294892 g / cm^3
# Si number density = 23.001277 Si / 1000 Ang^3
#
#
#
# Elastic Constant Matrix: (Units=GPa)
#
#
# Indices 1 2 3 4 5 6 
#
# 1 145.5403 37.1053 50.8282 -4.0547 5.6750 44.5312
# 2 37.1053 61.1658 36.2028 3.6876 9.3621 19.2618
# 3 50.8282 36.2028 164.2064 3.9075 -0.5939 26.3492
# 4 -4.0547 3.6876 3.9075 40.5517 12.4444 3.3976
# 5 5.6750 9.3621 -0.5939 12.4444 37.2554 -1.6583
# 6 44.5312 19.2618 26.3492 3.3976 -1.6583 34.0628
#
#
#
# Elastic Compliance Matrix: (Units=1/GPa)
#
#
# Indices 1 2 3 4 5 6 
#
# 1 0.012617 -0.001934 -0.001169 0.003858 -0.003413 -0.015048
# 2 -0.001934 0.022909 -0.003149 0.000593 -0.006082 -0.008346
# 3 -0.001169 -0.003149 0.007553 -0.000734 0.001228 -0.002401
# 4 0.003858 0.000593 -0.000734 0.029075 -0.010827 -0.008238
# 5 -0.003413 -0.006082 0.001228 -0.010827 0.032955 0.009636
# 6 -0.015048 -0.008346 -0.002401 -0.008238 0.009636 0.056898
#
#
# Mechanical properties :
#
#
# Convention : Reuss Voigt Hill
#
# Bulk Modulus (GPa) = 32.70464 68.79835 50.75150
# Shear Modulus (GPa) = 27.07049 38.82572 32.94810
#
# Velocity S-wave (km/s) = 3.43434 4.11296 3.78887
# Velocity P-wave (km/s) = 5.47501 7.24782 6.42287
#
# Compressibility (1/GPa) = 0.03057670
#
# Stress axis : x y z
#
# Youngs Moduli (GPa) = 79.25886 43.65017 132.39530
#
# Poissons Ratio (x) = 0.08440 0.15472
# Poissons Ratio (y) = 0.15325 0.41694
# Poissons Ratio (z) = 0.09262 0.13746
#
# Static dielectric constant tensor:
#      x y z
#    x 2.211160 -0.558780 -0.871270 
#    y -0.558780 2.782980 1.439740 
#    z -0.871270 1.439740 4.164070 
# 
# From -- ./inp_files/185717.got.cif
#   From: 2010.05.17/outbox.cif.g08.bks.cpg/sg2_93_cif.got.tgz:185717.got - 2010.06.03 11:33:40.
