data_PCOD9039370
_publ_section_title
;
Structure prediction by ZEFSAII (Michael W. Deem and Ramdas Pophale) SiO2 
 PCOD9039370
Probable space group: P -1
;
_chemical_formula_sum "Si O2"
_cell_formula_units_Z 16
_cell_length_a 15.707126
_cell_length_b 9.361524
_cell_length_c 6.854274
_cell_angle_alpha 63.572779
_cell_angle_beta 47.768489
_cell_angle_gamma 50.510611
_cell_volume 575.648324
_symmetry_space_group_name_H-M "P -1"
_symmetry_group_IT_number 2
_symmetry_cell_setting 'triclinic'
loop_
_space_group_symop_operation_xyz
x,y,z
-x,-y,-z
loop_
_atom_site_type_symbol
_atom_site_label
_atom_site_fract_x
_atom_site_fract_y
_atom_site_fract_z
Si Si1 0.827538 0.377235 0.248311
Si Si2 0.715962 0.691238 0.556466
Si Si3 0.640843 0.552659 0.117124
Si Si4 0.577726 0.068167 0.599425
Si Si5 0.684626 0.245053 0.019312
Si Si6 0.960616 0.173278 0.814544
Si Si7 0.914209 0.722117 0.004880
Si Si8 0.235433 0.035049 0.256979
O O1 0.750145 0.540679 0.425437
O O2 0.704893 0.401331 0.288658
O O3 0.914440 0.347679 0.928559
O O4 0.965870 0.233407 0.235178
O O5 0.725057 0.601650 0.804802
O O6 0.823595 0.755479 0.313201
O O7 0.575749 0.885249 0.641091
O O8 0.551032 0.743959 0.249276
O O9 0.588023 0.458306 0.101021
O O10 0.645494 0.129685 0.293074
O O11 0.661899 0.994225 0.715568
O O12 0.831756 0.207953 0.871499
O O13 0.704565 0.163640 0.822344
O O14 0.091775 0.110109 0.529124
O O15 0.000000 0.000000 0.000000
O O16 0.000000 0.500000 0.000000
O O17 0.805183 0.815694 0.944765
#
# Coordination Sequence:
#
# PCOD9039370 Si02
#       8
#     2   2   2   2   2   2   2   2
#     4  10  25  44  66 102 142 174 223 288 342 409
#     4  11  25  46  70 102 138 181 238 280 351 404
#     4  11  28  45  73 101 137 189 234 289 337 408
#     4  12  26  48  70 103 137 186 243 275 346 414
#     4  11  25  45  71 103 141 183 229 287 349 411
#     4  11  22  41  71 103 139 177 228 282 350 416
#     4  10  23  42  68 101 137 176 223 278 353 409
#     4  12  25  44  74 102 144 181 223 292 349 409
#
# _framework density 27.794748999999999
#
# number of rings (size 3 to 8) (size 9 to 14) (size 15 to 20)
#    0.000    1.000    2.500    2.625   12.250    2.500 
#    0.000    0.000    0.000    0.000    0.000    0.000 
#    0.000    0.000    0.000    0.000    0.000    0.000 
#
# Total GULP energy -89125.500337 kJ/mol
# GULP energy per Si atom -5570.343771 kJ/mol
# Density = 2.773149 g / cm^3
# Si number density = 27.794749 Si / 1000 Ang^3
#
#
#
# Elastic Constant Matrix: (Units=GPa)
#
#
# Indices 1 2 3 4 5 6 
#
# 1 70.8186 9.2184 27.6866 7.8331 23.5821 -2.8734
# 2 9.2184 117.3491 39.0244 25.2909 14.2985 7.5329
# 3 27.6866 39.0244 161.0986 23.3611 1.7452 11.8531
# 4 7.8331 25.2909 23.3611 60.4416 10.6406 22.9431
# 5 23.5821 14.2985 1.7452 10.6406 33.6881 4.6948
# 6 -2.8734 7.5329 11.8531 22.9431 4.6948 36.5430
#
#
#
# Elastic Compliance Matrix: (Units=1/GPa)
#
#
# Indices 1 2 3 4 5 6 
#
# 1 0.021012 0.001472 -0.004037 -0.001065 -0.015530 0.005322
# 2 0.001472 0.010359 -0.002328 -0.003388 -0.004436 0.001433
# 3 -0.004037 -0.002328 0.007781 -0.001501 0.004157 -0.001953
# 4 -0.001065 -0.003388 -0.001501 0.024573 -0.003567 -0.013868
# 5 -0.015530 -0.004436 0.004157 -0.003567 0.044057 -0.005075
# 6 0.005322 0.001433 -0.001953 -0.013868 -0.005075 0.037481
#
#
# Mechanical properties :
#
#
# Convention : Reuss Voigt Hill
#
# Bulk Modulus (GPa) = 34.05245 55.68055 44.86650
# Shear Modulus (GPa) = 30.33283 44.35698 37.34491
#
# Velocity S-wave (km/s) = 3.30709 3.99918 3.66949
# Velocity P-wave (km/s) = 5.18271 6.43434 5.84214
#
# Compressibility (1/GPa) = 0.02936646
#
# Stress axis : x y z
#
# Youngs Moduli (GPa) = 47.59156 96.53410 128.51135
#
# Poissons Ratio (x) = -0.14209 0.51875
# Poissons Ratio (y) = -0.07005 0.29922
# Poissons Ratio (z) = 0.19211 0.22476
#
# Static dielectric constant tensor:
#      x y z
#    x 2.505900 0.026000 -0.022450 
#    y 0.026000 2.427200 -0.034080 
#    z -0.022450 -0.034080 2.215990 
# 
# From -- ./inp_files/118607.got.cif
#   From: 2010.05.17/outbox.cif.g08.bks.cpg/sg2_60_cif.got.tgz:118607.got - 2010.06.03 11:33:40.
