data_PCOD9039557
_publ_section_title
;
Structure prediction by ZEFSAII (Michael W. Deem and Ramdas Pophale) SiO2 
 PCOD9039557
Probable space group: P -1
;
_chemical_formula_sum "Si O2"
_cell_formula_units_Z 16
_cell_length_a 10.659146
_cell_length_b 8.666800
_cell_length_c 13.485499
_cell_angle_alpha 121.449164
_cell_angle_beta 75.337900
_cell_angle_gamma 136.301828
_cell_volume 717.782294
_symmetry_space_group_name_H-M "P -1"
_symmetry_group_IT_number 2
_symmetry_cell_setting 'triclinic'
loop_
_space_group_symop_operation_xyz
x,y,z
-x,-y,-z
loop_
_atom_site_type_symbol
_atom_site_label
_atom_site_fract_x
_atom_site_fract_y
_atom_site_fract_z
Si Si1 0.212112 0.285370 0.347986
Si Si2 0.743839 0.207180 0.757891
Si Si3 0.936329 0.740916 0.967858
Si Si4 0.596148 0.512376 0.083101
Si Si5 0.785786 0.979703 0.338158
Si Si6 0.707940 0.960750 0.888868
Si Si7 0.837023 0.979794 0.548455
Si Si8 0.390724 0.834971 0.564352
O O1 0.264991 0.216427 0.220339
O O2 0.270692 0.218341 0.406628
O O3 0.297741 0.558472 0.455527
O O4 0.991443 0.105129 0.324024
O O5 0.720656 0.108258 0.841801
O O6 0.882411 0.218646 0.668562
O O7 0.543757 0.986712 0.671459
O O8 0.825278 0.491342 0.835756
O O9 0.792405 0.630504 0.048350
O O10 0.119966 0.829706 0.002846
O O11 0.000000 0.000000 0.000000
O O12 0.641419 0.722867 0.217047
O O13 0.474780 0.242223 0.074897
O O14 0.500000 0.500000 0.000000
O O15 0.739733 0.909767 0.440144
O O16 0.763605 0.167991 0.381285
O O17 0.000000 0.000000 0.500000
O O18 0.500000 0.000000 0.500000
#
# Coordination Sequence:
#
# PCOD9039557 Si02
#       8
#     2   2   2   2   2   2   2   2
#     4  10  23  42  69 102 140 189 235 292 372 427
#     4  11  26  46  71 108 149 190 244 303 368 429
#     4  12  26  49  76 103 146 196 247 303 364 430
#     4  12  25  44  72 106 140 190 248 292 361 427
#     4  11  22  42  68 100 146 184 238 296 355 438
#     4  11  25  47  75 103 146 194 243 306 359 437
#     4   9  21  43  68 103 136 180 230 292 359 432
#     4  12  24  39  65 104 145 183 238 297 358 432
#
# _framework density 22.290880000000001
#
# number of rings (size 3 to 8) (size 9 to 14) (size 15 to 20)
#    0.000    1.000    3.750    2.250    3.500    1.500 
#    4.500    0.000    0.000    0.000    0.000    0.000 
#    0.000    0.000    0.000    0.000    0.000    0.000 
#
# Total GULP energy -89351.969565 kJ/mol
# GULP energy per Si atom -5584.498098 kJ/mol
# Density = 2.224015 g / cm^3
# Si number density = 22.290880 Si / 1000 Ang^3
#
#
#
# Elastic Constant Matrix: (Units=GPa)
#
#
# Indices 1 2 3 4 5 6 
#
# 1 77.7292 22.1503 12.0086 2.9537 9.9767 -5.1334
# 2 22.1503 84.2886 27.7486 2.2649 7.1488 8.3713
# 3 12.0086 27.7486 100.2858 17.9408 6.9167 -9.3886
# 4 2.9537 2.2649 17.9408 35.3762 1.2655 -3.3808
# 5 9.9767 7.1488 6.9167 1.2655 49.2450 -4.5968
# 6 -5.1334 8.3713 -9.3886 -3.3808 -4.5968 30.4508
#
#
#
# Elastic Compliance Matrix: (Units=1/GPa)
#
#
# Indices 1 2 3 4 5 6 
#
# 1 0.014479 -0.003881 -0.000135 -0.000523 -0.002048 0.003099
# 2 -0.003881 0.015030 -0.004365 0.001030 -0.001390 -0.006227
# 3 -0.000135 -0.004365 0.012661 -0.005693 -0.000564 0.004364
# 4 -0.000523 0.001030 -0.005693 0.031259 0.000079 0.001356
# 5 -0.002048 -0.001390 -0.000564 0.000079 0.021289 0.003086
# 6 0.003099 -0.006227 0.004364 0.001356 0.003086 0.037036
#
#
# Mechanical properties :
#
#
# Convention : Reuss Voigt Hill
#
# Bulk Modulus (GPa) = 39.35742 42.90206 41.12974
# Shear Modulus (GPa) = 31.84997 36.37413 34.11205
#
# Velocity S-wave (km/s) = 3.78409 4.04393 3.91617
# Velocity P-wave (km/s) = 6.06524 6.41036 6.24019
#
# Compressibility (1/GPa) = 0.02540817
#
# Stress axis : x y z
#
# Youngs Moduli (GPa) = 69.06403 66.53532 78.97969
#
# Poissons Ratio (x) = 0.25819 0.01068
# Poissons Ratio (y) = 0.26800 0.34478
# Poissons Ratio (z) = 0.00934 0.29045
#
# Static dielectric constant tensor:
#      x y z
#    x 1.900700 -0.018350 -0.082660 
#    y -0.018350 1.826760 0.019960 
#    z -0.082660 0.019960 1.965120 
# 
# From -- ./inp_files/516258.got.cif
#   From: 2010.05.17/outbox.cif.g08.bks.cpg/sg2_259_cif.got.tgz:516258.got - 2010.06.03 11:33:40.
