data_PCOD9039026
_publ_section_title
;
Structure prediction by ZEFSAII (Michael W. Deem and Ramdas Pophale) SiO2 
 PCOD9039026
Probable space group: P -1
;
_chemical_formula_sum "Si O2"
_cell_formula_units_Z 16
_cell_length_a 15.306975
_cell_length_b 21.513998
_cell_length_c 9.071469
_cell_angle_alpha 108.023562
_cell_angle_beta 61.756327
_cell_angle_gamma 159.534333
_cell_volume 828.603725
_symmetry_space_group_name_H-M "P -1"
_symmetry_group_IT_number 2
_symmetry_cell_setting 'triclinic'
loop_
_space_group_symop_operation_xyz
x,y,z
-x,-y,-z
loop_
_atom_site_type_symbol
_atom_site_label
_atom_site_fract_x
_atom_site_fract_y
_atom_site_fract_z
Si Si1 0.804426 0.934708 0.030078
Si Si2 0.731841 0.315476 0.189969
Si Si3 0.834964 0.201518 0.434791
Si Si4 0.097541 0.500014 0.325876
Si Si5 0.834704 0.706703 0.947313
Si Si6 0.819310 0.947967 0.675893
Si Si7 0.313145 0.927993 0.207400
Si Si8 0.804298 0.686644 0.305573
O O1 0.456945 0.721545 0.194952
O O2 0.780539 0.909910 0.853787
O O3 0.971922 0.106104 0.068596
O O4 0.000000 0.000000 0.000000
O O5 0.486384 0.222400 0.294744
O O6 0.918850 0.407033 0.250605
O O7 0.515852 0.119163 0.192682
O O8 0.000000 0.500000 0.000000
O O9 0.785121 0.158669 0.617146
O O10 0.998074 0.369915 0.382885
O O11 0.991977 0.239991 0.248308
O O12 0.500000 0.000000 0.500000
O O13 0.000000 0.500000 0.500000
O O14 0.500000 0.500000 0.000000
O O15 0.787369 0.666119 0.129466
O O16 0.000000 0.000000 0.500000
O O17 0.024282 0.140219 0.660490
O O18 0.001481 0.749886 0.249830
O O19 0.500000 0.000000 0.000000
O O20 0.500000 0.500000 0.500000
#
# Coordination Sequence:
#
# PCOD9039026 Si02
#       8
#     2   2   2   2   2   2   2   2
#     4  11  25  44  67 102 137 180 229 283 343 403
#     4  11  24  46  69 100 137 181 225 277 349 403
#     4  12  24  43  68 101 135 181 229 273 349 404
#     4  12  27  44  69 102 141 180 228 288 343 414
#     4  11  24  45  69  96 138 178 232 285 335 415
#     4  10  24  43  68  95 133 175 224 276 332 408
#     4  11  25  43  69 100 136 176 225 283 335 413
#     4  10  23  42  65  97 131 174 222 275 337 393
#
# _framework density 19.309591999999999
#
# number of rings (size 3 to 8) (size 9 to 14) (size 15 to 20)
#    0.000    1.000    2.500    3.000    3.500    5.000 
#    0.000    0.000    0.000    0.000    0.000    0.000 
#    0.000    0.000    0.000    0.000    0.000    0.000 
#
# Total GULP energy -89162.281091 kJ/mol
# GULP energy per Si atom -5572.642568 kJ/mol
# Density = 1.926564 g / cm^3
# Si number density = 19.309592 Si / 1000 Ang^3
#
#
#
# Elastic Constant Matrix: (Units=GPa)
#
#
# Indices 1 2 3 4 5 6 
#
# 1 172.6744 84.3364 118.0077 -4.8544 -6.5494 16.3018
# 2 84.3364 125.4340 89.3835 -17.7737 0.6765 21.9181
# 3 118.0077 89.3835 203.8067 -17.2197 -17.2855 0.6512
# 4 -4.8544 -17.7737 -17.2197 39.3089 1.4254 -9.9525
# 5 -6.5494 0.6765 -17.2855 1.4254 44.8460 -11.1612
# 6 16.3018 21.9181 0.6512 -9.9525 -11.1612 36.8345
#
#
#
# Elastic Compliance Matrix: (Units=1/GPa)
#
#
# Indices 1 2 3 4 5 6 
#
# 1 0.011587 -0.003612 -0.005534 -0.003660 -0.001334 -0.004274
# 2 -0.003612 0.015884 -0.005051 0.002531 -0.004928 -0.008573
# 3 -0.005534 -0.005051 0.011068 0.003682 0.005379 0.007884
# 4 -0.003660 0.002531 0.003682 0.029886 0.002075 0.008752
# 5 -0.001334 -0.004928 0.005379 0.002075 0.027232 0.012240
# 6 -0.004274 -0.008573 0.007884 0.008752 0.012240 0.040076
#
#
# Mechanical properties :
#
#
# Convention : Reuss Voigt Hill
#
# Bulk Modulus (GPa) = 98.57207 120.59672 109.58439
# Shear Modulus (GPa) = 29.84911 38.21038 34.02974
#
# Velocity S-wave (km/s) = 3.93595 4.45323 4.20256
# Velocity P-wave (km/s) = 8.47436 9.43565 8.96789
#
# Compressibility (1/GPa) = 0.01014486
#
# Stress axis : x y z
#
# Youngs Moduli (GPa) = 86.30112 62.95714 90.34733
#
# Poissons Ratio (x) = 0.22740 0.49997
# Poissons Ratio (y) = 0.31172 0.45639
# Poissons Ratio (z) = 0.47758 0.31803
#
# Static dielectric constant tensor:
#      x y z
#    x 1.678130 -0.004010 -0.008380 
#    y -0.004010 1.619860 -0.004530 
#    z -0.008380 -0.004530 1.598070 
# 
# From -- ./inp_files/187718.got.cif
#   From: 2010.05.17/outbox.cif.g08.bks.cpg/sg2_94_cif.got.tgz:187718.got - 2010.06.03 11:33:40.
