data_PCOD9039673
_publ_section_title
;
Structure prediction by ZEFSAII (Michael W. Deem and Ramdas Pophale) SiO2 
 PCOD9039673
Probable space group: P -1
;
_chemical_formula_sum "Si O2"
_cell_formula_units_Z 13
_cell_length_a 9.352531
_cell_length_b 8.973599
_cell_length_c 7.533746
_cell_angle_alpha 66.748387
_cell_angle_beta 89.313995
_cell_angle_gamma 62.696739
_cell_volume 505.007694
_symmetry_space_group_name_H-M "P -1"
_symmetry_group_IT_number 2
_symmetry_cell_setting 'triclinic'
loop_
_space_group_symop_operation_xyz
x,y,z
-x,-y,-z
loop_
_atom_site_type_symbol
_atom_site_label
_atom_site_fract_x
_atom_site_fract_y
_atom_site_fract_z
Si Si1 0.821236 0.269994 0.158798
Si Si2 0.187708 0.167101 0.263342
Si Si3 0.766963 0.524013 0.713227
Si Si4 0.702728 0.726433 0.149842
Si Si5 0.416341 0.754793 0.572123
Si Si6 0.000000 0.500000 0.500000
Si Si7 0.392338 0.877796 0.892863
O O1 0.707677 0.308341 0.316066
O O2 0.771559 0.137406 0.109545
O O3 0.007678 0.190300 0.247478
O O4 0.767841 0.441585 0.944479
O O5 0.192526 0.301855 0.357273
O O6 0.317135 0.947728 0.379309
O O7 0.221581 0.245103 0.046607
O O8 0.593648 0.593591 0.585826
O O9 0.929813 0.381733 0.673886
O O10 0.843752 0.564210 0.334829
O O11 0.646278 0.916331 0.168664
O O12 0.530136 0.739142 0.092427
O O13 0.469184 0.818459 0.724020
#
# Coordination Sequence:
#
# PCOD9039673 Si02
#       7
#     2   2   2   2   2   1   2
#     4  10  23  44  66 103 133 173 213 282 323 392
#     4  12  22  41  74 100 128 177 222 270 327 391
#     4  12  24  45  67  98 135 176 221 271 328 397
#     4  11  23  44  67  97 133 177 221 272 324 400
#     4  10  23  42  70 100 130 172 221 270 331 392
#     4  12  28  42  66 100 134 174 228 270 326 390
#     4   9  23  43  69  94 135 171 222 266 336 387
#
# _framework density 25.742183000000001
#
# number of rings (size 3 to 8) (size 9 to 14) (size 15 to 20)
#    0.923    0.308    3.077    2.769    4.308    0.615 
#    0.000    0.769    0.000    0.000    0.000    0.000 
#    0.000    0.000    0.000    0.000    0.000    0.000 
#
# Total GULP energy -72442.719631 kJ/mol
# GULP energy per Si atom -5572.516895 kJ/mol
# Density = 2.568359 g / cm^3
# Si number density = 25.742183 Si / 1000 Ang^3
#
#
#
# Elastic Constant Matrix: (Units=GPa)
#
#
# Indices 1 2 3 4 5 6 
#
# 1 173.6036 8.2777 36.7822 -5.2698 21.9547 -18.2322
# 2 8.2777 22.5209 1.0205 -9.7313 3.7864 2.1198
# 3 36.7822 1.0205 131.5947 -20.1016 16.1096 0.3520
# 4 -5.2698 -9.7313 -20.1016 26.7414 -3.5163 6.9532
# 5 21.9547 3.7864 16.1096 -3.5163 45.0596 -3.3690
# 6 -18.2322 2.1198 0.3520 6.9532 -3.3690 29.4549
#
#
#
# Elastic Compliance Matrix: (Units=1/GPa)
#
#
# Indices 1 2 3 4 5 6 
#
# 1 0.007168 -0.004159 -0.002244 -0.003464 -0.002213 0.005328
# 2 -0.004159 0.059862 0.005522 0.028268 -0.003823 -0.014059
# 3 -0.002244 0.005522 0.010024 0.009953 -0.002518 -0.004544
# 4 -0.003464 0.028268 0.009953 0.059125 -0.001005 -0.018370
# 5 -0.002213 -0.003823 -0.002518 -0.001005 0.024562 0.001982
# 6 0.005328 -0.014059 -0.004544 -0.018370 0.001982 0.042877
#
#
# Mechanical properties :
#
#
# Convention : Reuss Voigt Hill
#
# Bulk Modulus (GPa) = 13.28147 46.65334 29.96740
# Shear Modulus (GPa) = 21.69393 39.02711 30.36052
#
# Velocity S-wave (km/s) = 2.90615 3.89791 3.43798
# Velocity P-wave (km/s) = 4.05358 6.19846 5.23700
#
# Compressibility (1/GPa) = 0.07529285
#
# Stress axis : x y z
#
# Youngs Moduli (GPa) = 139.50479 16.70495 99.75924
#
# Poissons Ratio (x) = 0.06948 0.22384
# Poissons Ratio (y) = 0.58023 -0.55088
# Poissons Ratio (z) = 0.31302 -0.09225
#
# Static dielectric constant tensor:
#      x y z
#    x 1.790760 0.455760 0.097810 
#    y 0.455760 1.235300 -0.156500 
#    z 0.097810 -0.156500 1.921320 
# 
# From -- ./inp_files/167694.got.cif
#   From: 2010.05.17/outbox.cif.g08.bks.cpg/sg2_84_cif.got.tgz:167694.got - 2010.06.03 11:33:40.
