data_PCOD9039570
_publ_section_title
;
Structure prediction by ZEFSAII (Michael W. Deem and Ramdas Pophale) SiO2 
 PCOD9039570
Probable space group: P -1
;
_chemical_formula_sum "Si O2"
_cell_formula_units_Z 16
_cell_length_a 12.126339
_cell_length_b 20.991487
_cell_length_c 5.056207
_cell_angle_alpha 103.008923
_cell_angle_beta 82.768905
_cell_angle_gamma 149.722972
_cell_volume 626.074048
_symmetry_space_group_name_H-M "P -1"
_symmetry_group_IT_number 2
_symmetry_cell_setting 'triclinic'
loop_
_space_group_symop_operation_xyz
x,y,z
-x,-y,-z
loop_
_atom_site_type_symbol
_atom_site_label
_atom_site_fract_x
_atom_site_fract_y
_atom_site_fract_z
Si Si1 0.953671 0.278997 0.285399
Si Si2 0.249987 0.014079 0.272922
Si Si3 0.065317 0.465306 0.162452
Si Si4 0.276301 0.880287 0.285834
Si Si5 0.339188 0.699471 0.613418
Si Si6 0.508868 0.327253 0.093804
Si Si7 0.372440 0.405887 0.201222
Si Si8 0.174054 0.050847 0.812919
O O1 0.886176 0.237915 0.570576
O O2 0.070629 0.406892 0.307104
O O3 0.126414 0.309396 0.195204
O O4 0.748445 0.167412 0.036072
O O5 0.500738 0.163054 0.405567
O O6 0.108169 0.986921 0.492049
O O7 0.208390 0.919562 0.276826
O O8 0.235701 0.023591 0.974957
O O9 0.166767 0.584831 0.349069
O O10 0.803811 0.347662 0.136295
O O11 0.240013 0.534755 0.950847
O O12 0.500000 0.000000 0.500000
O O13 0.474175 0.703954 0.667105
O O14 0.388011 0.335219 0.138757
O O15 0.369785 0.202961 0.854477
O O16 0.500000 0.500000 0.500000
O O17 0.500000 0.500000 0.000000
O O18 0.000000 0.000000 0.000000
#
# Coordination Sequence:
#
# PCOD9039570 Si02
#       8
#     2   2   2   2   2   2   2   2
#     4  12  27  47  73 110 140 198 240 296 366 433
#     4  11  24  47  69 101 140 180 244 289 362 419
#     4  11  22  43  70 103 143 177 241 292 366 434
#     4  12  28  49  74 103 145 192 245 301 356 429
#     4  10  23  42  69 104 135 187 229 304 360 423
#     4  11  24  41  69 100 144 180 234 291 367 422
#     4  12  26  46  71 103 150 189 235 293 354 446
#     4  11  25  44  69 102 134 187 232 298 351 422
#
# _framework density 25.556083999999998
#
# number of rings (size 3 to 8) (size 9 to 14) (size 15 to 20)
#    0.000    0.750    2.500    4.125    5.250    2.000 
#    0.000    0.000    0.000    0.000    0.000    0.000 
#    0.000    0.000    0.000    0.000    0.000    0.000 
#
# Total GULP energy -89497.584196 kJ/mol
# GULP energy per Si atom -5593.599012 kJ/mol
# Density = 2.549792 g / cm^3
# Si number density = 25.556084 Si / 1000 Ang^3
#
#
#
# Elastic Constant Matrix: (Units=GPa)
#
#
# Indices 1 2 3 4 5 6 
#
# 1 131.5940 13.6626 18.4096 -11.5187 2.4756 -23.0754
# 2 13.6626 77.4229 26.8284 -13.3029 6.9275 -15.1647
# 3 18.4096 26.8284 117.1602 -14.1091 13.5090 -21.4733
# 4 -11.5187 -13.3029 -14.1091 44.4891 -4.8170 6.1136
# 5 2.4756 6.9275 13.5090 -4.8170 25.0255 -3.8407
# 6 -23.0754 -15.1647 -21.4733 6.1136 -3.8407 50.1518
#
#
#
# Elastic Compliance Matrix: (Units=1/GPa)
#
#
# Indices 1 2 3 4 5 6 
#
# 1 0.008427 -0.000439 -0.000464 0.001474 0.000343 0.003393
# 2 -0.000439 0.015032 -0.002265 0.003068 -0.001866 0.002857
# 3 -0.000464 -0.002265 0.010353 0.001623 -0.004140 0.003020
# 4 0.001474 0.003068 0.001623 0.024662 0.002801 -0.000491
# 5 0.000343 -0.001866 -0.004140 0.002801 0.043338 0.000798
# 6 0.003393 0.002857 0.003020 -0.000491 0.000798 0.023778
#
#
# Mechanical properties :
#
#
# Convention : Reuss Voigt Hill
#
# Bulk Modulus (GPa) = 36.39494 49.33093 42.86294
# Shear Modulus (GPa) = 35.43956 41.75171 38.59563
#
# Velocity S-wave (km/s) = 3.72793 4.04633 3.89039
# Velocity P-wave (km/s) = 5.72731 6.41679 6.08183
#
# Compressibility (1/GPa) = 0.02747634
#
# Stress axis : x y z
#
# Youngs Moduli (GPa) = 118.66462 66.52434 96.58954
#
# Poissons Ratio (x) = 0.02922 0.04479
# Poissons Ratio (y) = 0.05212 0.21877
# Poissons Ratio (z) = 0.05503 0.15067
#
# Static dielectric constant tensor:
#      x y z
#    x 2.075790 0.069230 0.002850 
#    y 0.069230 2.034240 0.025880 
#    z 0.002850 0.025880 2.055420 
# 
# From -- ./inp_files/83284.got.cif
#   From: 2010.05.17/outbox.cif.g08.bks.cpg/sg2_42_cif.got.tgz:83284.got - 2010.06.03 11:33:40.
