data_PCOD9039866
_publ_section_title
;
Structure prediction by ZEFSAII (Michael W. Deem and Ramdas Pophale) SiO2 
 PCOD9039866
Probable space group: P -1
;
_chemical_formula_sum "Si O2"
_cell_formula_units_Z 14
_cell_length_a 11.839602
_cell_length_b 14.825873
_cell_length_c 5.002931
_cell_angle_alpha 67.585629
_cell_angle_beta 111.609078
_cell_angle_gamma 128.521556
_cell_volume 624.683442
_symmetry_space_group_name_H-M "P -1"
_symmetry_group_IT_number 2
_symmetry_cell_setting 'triclinic'
loop_
_space_group_symop_operation_xyz
x,y,z
-x,-y,-z
loop_
_atom_site_type_symbol
_atom_site_label
_atom_site_fract_x
_atom_site_fract_y
_atom_site_fract_z
Si Si1 0.468782 0.087206 0.229316
Si Si2 0.823402 0.962750 0.168967
Si Si3 0.050692 0.586909 0.199746
Si Si4 0.619552 0.469023 0.610943
Si Si5 0.400925 0.753377 0.336328
Si Si6 0.203925 0.397796 0.903770
Si Si7 0.155316 0.156091 0.190939
O O1 0.528951 0.192687 0.376787
O O2 0.500000 0.000000 0.500000
O O3 0.298512 0.022675 0.078378
O O4 0.547960 0.144978 0.953391
O O5 0.780686 0.894690 0.490256
O O6 0.837939 0.881540 0.060434
O O7 0.982466 0.083467 0.197655
O O8 0.224349 0.678039 0.264158
O O9 0.000000 0.500000 0.500000
O O10 0.959564 0.644981 0.103194
O O11 0.000000 0.500000 0.000000
O O12 0.500000 0.500000 0.500000
O O13 0.557284 0.336937 0.617391
O O14 0.743993 0.556565 0.403630
O O15 0.693509 0.492408 0.937778
O O16 0.225531 0.293878 0.105048
#
# Coordination Sequence:
#
# PCOD9039866 Si02
#       7
#     2   2   2   2   2   2   2
#     4  12  28  47  71 103 139 186 241 286 357 423
#     4  10  23  46  66  97 136 174 233 284 350 405
#     4  12  23  46  69  98 139 180 235 281 340 420
#     4  12  27  44  69 106 143 179 233 278 355 436
#     4  12  26  47  72 101 142 191 227 296 355 410
#     4  12  24  44  70 103 135 180 235 283 349 414
#     4  10  23  42  71  98 130 180 226 292 342 405
#
# _framework density 22.411352000000001
#
# number of rings (size 3 to 8) (size 9 to 14) (size 15 to 20)
#    0.000    0.571    2.857    4.286    8.000    0.000 
#    5.143    0.000    0.000    0.000    0.000    0.000 
#    0.000    0.000    0.000    0.000    0.000    0.000 
#
# Total GULP energy -78357.454022 kJ/mol
# GULP energy per Si atom -5596.961002 kJ/mol
# Density = 2.236034 g / cm^3
# Si number density = 22.411352 Si / 1000 Ang^3
#
#
#
# Elastic Constant Matrix: (Units=GPa)
#
#
# Indices 1 2 3 4 5 6 
#
# 1 94.3472 4.9748 15.5101 1.2659 11.3010 13.5429
# 2 4.9748 63.1288 12.8315 1.1493 4.1855 -4.1597
# 3 15.5101 12.8315 104.6368 6.4974 -4.4168 2.7729
# 4 1.2659 1.1493 6.4974 40.7145 -2.0636 3.1044
# 5 11.3010 4.1855 -4.4168 -2.0636 54.3135 4.8265
# 6 13.5429 -4.1597 2.7729 3.1044 4.8265 36.1378
#
#
#
# Elastic Compliance Matrix: (Units=1/GPa)
#
#
# Indices 1 2 3 4 5 6 
#
# 1 0.011750 -0.000720 -0.001644 0.000119 -0.002156 -0.004082
# 2 -0.000720 0.016590 -0.002036 -0.000395 -0.001538 0.002575
# 3 -0.001644 -0.002036 0.010206 -0.001419 0.001315 -0.000455
# 4 0.000119 -0.000395 -0.001419 0.025021 0.001043 -0.002270
# 5 -0.002156 -0.001538 0.001315 0.001043 0.019315 -0.002139
# 6 -0.004082 0.002575 -0.000455 -0.002270 -0.002139 0.030014
#
#
# Mechanical properties :
#
#
# Convention : Reuss Voigt Hill
#
# Bulk Modulus (GPa) = 33.61803 36.52729 35.07266
# Shear Modulus (GPa) = 37.99058 41.48627 39.73842
#
# Velocity S-wave (km/s) = 4.12169 4.30714 4.21543
# Velocity P-wave (km/s) = 6.13873 6.40853 6.27508
#
# Compressibility (1/GPa) = 0.02974594
#
# Stress axis : x y z
#
# Youngs Moduli (GPa) = 85.10682 60.27682 97.98266
#
# Poissons Ratio (x) = 0.04341 0.16104
# Poissons Ratio (y) = 0.06129 0.19952
# Poissons Ratio (z) = 0.13988 0.12274
#
# Static dielectric constant tensor:
#      x y z
#    x 1.458090 0.043500 -0.159690 
#    y 0.043500 1.783700 0.013770 
#    z -0.159690 0.013770 1.686880 
# 
# From -- ./inp_files/75584.got.cif
#   From: 2010.05.17/outbox.cif.g08.bks.cpg/sg2_38_cif.got.tgz:75584.got - 2010.06.03 11:33:40.
