data_PCOD9039582
_publ_section_title
;
Structure prediction by ZEFSAII (Michael W. Deem and Ramdas Pophale) SiO2 
 PCOD9039582
Probable space group: P -1
;
_chemical_formula_sum "Si O2"
_cell_formula_units_Z 16
_cell_length_a 14.563055
_cell_length_b 8.518886
_cell_length_c 11.934555
_cell_angle_alpha 143.293245
_cell_angle_beta 74.224922
_cell_angle_gamma 127.867035
_cell_volume 617.868063
_symmetry_space_group_name_H-M "P -1"
_symmetry_group_IT_number 2
_symmetry_cell_setting 'triclinic'
loop_
_space_group_symop_operation_xyz
x,y,z
-x,-y,-z
loop_
_atom_site_type_symbol
_atom_site_label
_atom_site_fract_x
_atom_site_fract_y
_atom_site_fract_z
Si Si1 0.086031 0.523499 0.823905
Si Si2 0.780390 0.589905 0.924686
Si Si3 0.747795 0.279481 0.329580
Si Si4 0.015963 0.949685 0.196143
Si Si5 0.582964 0.433173 0.730985
Si Si6 0.617899 0.544999 0.530396
Si Si7 0.353419 0.363231 0.840894
Si Si8 0.806662 0.039504 0.556609
O O1 0.203732 0.682819 0.791411
O O2 0.071532 0.324580 0.827718
O O3 0.955396 0.227689 0.622251
O O4 0.069243 0.791010 0.024819
O O5 0.711718 0.614365 0.862107
O O6 0.799822 0.339260 0.724752
O O7 0.919666 0.920516 0.125448
O O8 0.672276 0.411591 0.958318
O O9 0.622670 0.237527 0.343219
O O10 0.718389 0.976243 0.244623
O O11 0.864844 0.654145 0.570080
O O12 0.622187 0.603018 0.693140
O O13 0.493190 0.489223 0.847697
O O14 0.500000 0.000000 0.500000
O O15 0.500000 0.500000 0.500000
O O16 0.743034 0.857278 0.593443
O O17 0.280538 0.233570 0.671576
#
# Coordination Sequence:
#
# PCOD9039582 Si02
#       8
#     2   2   2   2   2   2   2   2
#     4  10  23  42  69 106 144 184 229 291 352 415
#     4  11  25  45  72 101 141 187 235 288 353 419
#     4  12  25  43  74 105 143 186 238 283 356 420
#     4  10  23  44  69 103 147 185 229 292 351 416
#     4  12  23  49  72  97 147 187 231 295 355 413
#     4  12  24  43  77 103 132 190 237 285 354 414
#     4  12  26  45  71 105 141 191 235 291 350 421
#     4  11  23  46  73  99 144 183 233 295 350 413
#
# _framework density 25.895495
#
# number of rings (size 3 to 8) (size 9 to 14) (size 15 to 20)
#    0.000    0.750    5.000    1.500    1.750    4.000 
#    0.000    5.000    0.000    0.000    0.000    0.000 
#    0.000    0.000    0.000    0.000    0.000    0.000 
#
# Total GULP energy -89693.182003 kJ/mol
# GULP energy per Si atom -5605.823875 kJ/mol
# Density = 2.583656 g / cm^3
# Si number density = 25.895495 Si / 1000 Ang^3
#
#
#
# Elastic Constant Matrix: (Units=GPa)
#
#
# Indices 1 2 3 4 5 6 
#
# 1 182.4953 37.6555 51.5601 -20.4762 21.0439 2.4289
# 2 37.6555 128.1327 34.4360 -33.0293 15.6754 4.4145
# 3 51.5601 34.4360 96.4918 -23.5089 9.4082 -0.9340
# 4 -20.4762 -33.0293 -23.5089 43.8535 2.7252 0.1670
# 5 21.0439 15.6754 9.4082 2.7252 38.8021 -23.9286
# 6 2.4289 4.4145 -0.9340 0.1670 -23.9286 37.3114
#
#
#
# Elastic Compliance Matrix: (Units=1/GPa)
#
#
# Indices 1 2 3 4 5 6 
#
# 1 0.007313 0.000192 -0.002788 0.002484 -0.006451 -0.004717
# 2 0.000192 0.011959 -0.001230 0.009106 -0.010258 -0.008078
# 3 -0.002788 -0.001230 0.013787 0.005300 -0.002161 -0.000738
# 4 0.002484 0.009106 0.005300 0.034684 -0.015756 -0.011366
# 5 -0.006451 -0.010258 -0.002161 -0.015756 0.059656 0.039909
# 6 -0.004717 -0.008078 -0.000738 -0.011366 0.039909 0.053691
#
#
# Mechanical properties :
#
#
# Convention : Reuss Voigt Hill
#
# Bulk Modulus (GPa) = 39.35881 72.71367 56.03624
# Shear Modulus (GPa) = 25.35353 42.89128 34.12240
#
# Velocity S-wave (km/s) = 3.13241 4.07421 3.63395
# Velocity P-wave (km/s) = 5.32116 7.09034 6.26848
#
# Compressibility (1/GPa) = 0.02540727
#
# Stress axis : x y z
#
# Youngs Moduli (GPa) = 136.74472 83.61903 72.53211
#
# Poissons Ratio (x) = -0.01605 0.20220
# Poissons Ratio (y) = -0.02625 0.08922
# Poissons Ratio (z) = 0.38121 0.10286
#
# Static dielectric constant tensor:
#      x y z
#    x 2.071550 -0.004550 -0.086040 
#    y -0.004550 2.016970 0.057310 
#    z -0.086040 0.057310 2.132990 
# 
# From -- ./inp_files/448337.got.cif
#   From: 2010.05.17/outbox.cif.g08.bks.cpg/sg2_225_cif.got.tgz:448337.got - 2010.06.03 11:33:40.
