data_PCOD9039178
_publ_section_title
;
Structure prediction by ZEFSAII (Michael W. Deem and Ramdas Pophale) SiO2 
 PCOD9039178
Probable space group: P -1
;
_chemical_formula_sum "Si O2"
_cell_formula_units_Z 12
_cell_length_a 9.447232
_cell_length_b 9.708291
_cell_length_c 14.313103
_cell_angle_alpha 138.812978
_cell_angle_beta 50.437946
_cell_angle_gamma 106.248671
_cell_volume 612.828913
_symmetry_space_group_name_H-M "P -1"
_symmetry_group_IT_number 2
_symmetry_cell_setting 'triclinic'
loop_
_space_group_symop_operation_xyz
x,y,z
-x,-y,-z
loop_
_atom_site_type_symbol
_atom_site_label
_atom_site_fract_x
_atom_site_fract_y
_atom_site_fract_z
Si Si1 0.004392 0.503650 0.889949
Si Si2 0.961542 0.761928 0.624009
Si Si3 0.861540 0.103684 0.021025
Si Si4 0.561416 0.707413 0.097752
Si Si5 0.156841 0.979902 0.506416
Si Si6 0.521923 0.954784 0.857367
O O1 0.780240 0.619367 0.003628
O O2 0.104191 0.240817 0.686886
O O3 0.000000 0.500000 0.000000
O O4 0.114015 0.665935 0.897100
O O5 0.758659 0.837151 0.686221
O O6 0.000000 0.500000 0.500000
O O7 0.115335 0.826932 0.528168
O O8 0.925620 0.919227 0.813608
O O9 0.627293 0.163877 0.167768
O O10 0.000000 0.000000 0.000000
O O11 0.384991 0.873619 0.321882
O O12 0.557405 0.821914 0.058108
O O13 0.500000 0.500000 0.000000
O O14 0.000000 0.000000 0.500000
O O15 0.500000 0.000000 0.000000
#
# Coordination Sequence:
#
# PCOD9039178 Si02
#       6
#     2   2   2   2   2   2
#     4  12  26  48  68 102 146 178 229 292 343 407
#     4  11  25  44  69 101 137 177 234 283 337 417
#     4  11  24  44  69  97 139 181 222 286 350 393
#     4  12  25  43  74 101 137 186 231 281 345 416
#     4  12  25  44  72 104 136 184 235 278 347 416
#     4  10  23  42  66  99 132 181 228 267 348 413
#
# _framework density 19.581323000000001
#
# number of rings (size 3 to 8) (size 9 to 14) (size 15 to 20)
#    0.000    0.667    6.667    0.000    9.333    0.667 
#    3.000    1.667    0.000    0.000    0.000    0.000 
#    0.000    0.000    0.000    0.000    0.000    0.000 
#
# Total GULP energy -66965.798916 kJ/mol
# GULP energy per Si atom -5580.483243 kJ/mol
# Density = 1.953675 g / cm^3
# Si number density = 19.581323 Si / 1000 Ang^3
#
#
#
# Elastic Constant Matrix: (Units=GPa)
#
#
# Indices 1 2 3 4 5 6 
#
# 1 124.6985 59.6195 31.7680 13.7731 -5.9896 5.1990
# 2 59.6195 187.1673 45.4717 24.2628 6.4274 7.6129
# 3 31.7680 45.4717 112.4688 20.3877 9.8683 7.7069
# 4 13.7731 24.2628 20.3877 37.2682 7.3756 2.2958
# 5 -5.9896 6.4274 9.8683 7.3756 36.8747 2.4127
# 6 5.1990 7.6129 7.7069 2.2958 2.4127 46.7173
#
#
#
# Elastic Compliance Matrix: (Units=1/GPa)
#
#
# Indices 1 2 3 4 5 6 
#
# 1 0.010062 -0.002666 -0.001696 -0.001600 0.002904 -0.000477
# 2 -0.002666 0.006926 -0.001496 -0.002540 -0.000704 -0.000424
# 3 -0.001696 -0.001496 0.010940 -0.003904 -0.002092 -0.001072
# 4 -0.001600 -0.002540 -0.003904 0.032251 -0.005218 -0.000079
# 5 0.002904 -0.000704 -0.002092 -0.005218 0.029390 -0.001125
# 6 -0.000477 -0.000424 -0.001072 -0.000079 -0.001125 0.021766
#
#
# Mechanical properties :
#
#
# Convention : Reuss Voigt Hill
#
# Bulk Modulus (GPa) = 61.68319 77.56145 69.62232
# Shear Modulus (GPa) = 38.92361 43.33705 41.13033
#
# Velocity S-wave (km/s) = 4.46330 4.70955 4.58808
# Velocity P-wave (km/s) = 7.62436 8.32280 7.98123
#
# Compressibility (1/GPa) = 0.01621187
#
# Stress axis : x y z
#
# Youngs Moduli (GPa) = 99.38104 144.38034 91.40740
#
# Poissons Ratio (x) = 0.38491 0.15506
# Poissons Ratio (y) = 0.26494 0.13674
# Poissons Ratio (z) = 0.16859 0.21599
#
# Static dielectric constant tensor:
#      x y z
#    x 1.665190 0.008900 -0.002780 
#    y 0.008900 1.701730 -0.030950 
#    z -0.002780 -0.030950 1.671640 
# 
# From -- ./inp_files/148712.got.cif
#   From: 2010.05.17/outbox.cif.g08.bks.cpg/sg2_75_cif.got.tgz:148712.got - 2010.06.03 11:33:40.
