data_PCOD9039527
_publ_section_title
;
Structure prediction by ZEFSAII (Michael W. Deem and Ramdas Pophale) SiO2 
 PCOD9039527
Probable space group: P -1
;
_chemical_formula_sum "Si O2"
_cell_formula_units_Z 16
_cell_length_a 6.706474
_cell_length_b 15.862139
_cell_length_c 15.319736
_cell_angle_alpha 152.691718
_cell_angle_beta 124.124354
_cell_angle_gamma 52.045812
_cell_volume 589.065662
_symmetry_space_group_name_H-M "P -1"
_symmetry_group_IT_number 2
_symmetry_cell_setting 'triclinic'
loop_
_space_group_symop_operation_xyz
x,y,z
-x,-y,-z
loop_
_atom_site_type_symbol
_atom_site_label
_atom_site_fract_x
_atom_site_fract_y
_atom_site_fract_z
Si Si1 0.884652 0.375777 0.597666
Si Si2 0.465005 0.937863 0.153485
Si Si3 0.870486 0.826770 0.299096
Si Si4 0.440273 0.249941 0.185709
Si Si5 0.187903 0.378514 0.507456
Si Si6 0.639423 0.637820 0.208744
Si Si7 0.352218 0.669342 0.335500
Si Si8 0.939940 0.948092 0.036892
O O1 0.625047 0.525345 0.637801
O O2 0.809821 0.252503 0.542636
O O3 0.036307 0.316850 0.491923
O O4 0.076207 0.469635 0.783601
O O5 0.366635 0.169060 0.328196
O O6 0.218312 0.896181 0.097376
O O7 0.705230 0.868487 0.210528
O O8 0.539448 0.838403 0.987497
O O9 0.682544 0.794628 0.297235
O O10 0.120587 0.638521 0.195026
O O11 0.000000 0.000000 0.500000
O O12 0.706549 0.128041 0.179835
O O13 0.195592 0.216810 0.141040
O O14 0.389921 0.471373 0.687089
O O15 0.000000 0.500000 0.500000
O O16 0.487455 0.740527 0.352517
O O17 0.500000 0.500000 0.000000
O O18 0.000000 0.000000 0.000000
#
# Coordination Sequence:
#
# PCOD9039527 Si02
#       8
#     2   2   2   2   2   2   2   2
#     4  10  25  43  69  99 142 185 230 299 368 430
#     4  11  25  42  70 105 132 189 242 292 361 438
#     4  11  24  46  71 101 148 192 244 301 361 438
#     4  10  23  42  69 100 136 180 236 300 363 428
#     4  11  26  44  68  99 141 186 239 294 367 439
#     4  10  25  43  73 106 143 189 246 304 369 439
#     4  10  24  48  65 101 143 189 236 304 362 432
#     4   9  22  40  63  96 139 170 231 296 358 414
#
# _framework density 27.161657000000002
#
# number of rings (size 3 to 8) (size 9 to 14) (size 15 to 20)
#    0.000    1.750    1.250    0.000   12.250    5.000 
#    4.500    0.000    0.000    0.000    0.000    0.000 
#    0.000    0.000    0.000    0.000    0.000    0.000 
#
# Total GULP energy -89116.512422 kJ/mol
# GULP energy per Si atom -5569.782026 kJ/mol
# Density = 2.709984 g / cm^3
# Si number density = 27.161657 Si / 1000 Ang^3
#
#
#
# Elastic Constant Matrix: (Units=GPa)
#
#
# Indices 1 2 3 4 5 6 
#
# 1 200.6078 63.8097 47.0506 -23.4841 15.8181 19.4780
# 2 63.8097 171.2501 53.6042 -42.4642 14.8192 -17.6429
# 3 47.0506 53.6042 85.2910 -15.8357 16.9658 -6.4524
# 4 -23.4841 -42.4642 -15.8357 49.1616 -14.4746 15.9552
# 5 15.8181 14.8192 16.9658 -14.4746 55.2890 -7.6609
# 6 19.4780 -17.6429 -6.4524 15.9552 -7.6609 66.5080
#
#
#
# Elastic Compliance Matrix: (Units=1/GPa)
#
#
# Indices 1 2 3 4 5 6 
#
# 1 0.006610 -0.001484 -0.002463 0.001890 -0.000672 -0.003099
# 2 -0.001484 0.009089 -0.003907 0.005751 0.000857 0.001186
# 3 -0.002463 -0.003907 0.016140 -0.000637 -0.003224 0.001032
# 4 0.001890 0.005751 -0.000637 0.029279 0.005011 -0.005536
# 5 -0.000672 0.000857 -0.003224 0.005011 0.020527 0.001274
# 6 -0.003099 0.001186 0.001032 -0.005536 0.001274 0.017833
#
#
# Mechanical properties :
#
#
# Convention : Reuss Voigt Hill
#
# Bulk Modulus (GPa) = 61.99418 87.34198 74.66808
# Shear Modulus (GPa) = 41.47166 53.70400 47.58783
#
# Velocity S-wave (km/s) = 3.91173 4.45139 4.19026
# Velocity P-wave (km/s) = 6.57844 7.65807 7.13869
#
# Compressibility (1/GPa) = 0.01613055
#
# Stress axis : x y z
#
# Youngs Moduli (GPa) = 151.28760 110.01715 61.95756
#
# Poissons Ratio (x) = 0.16331 0.15262
# Poissons Ratio (y) = 0.22457 0.24205
# Poissons Ratio (z) = 0.37267 0.42981
#
# Static dielectric constant tensor:
#      x y z
#    x 2.118120 -0.051330 -0.003400 
#    y -0.051330 2.198620 0.041830 
#    z -0.003400 0.041830 2.371200 
# 
# From -- ./inp_files/484545.got.cif
#   From: 2010.05.17/outbox.cif.g08.bks.cpg/sg2_243_cif.got.tgz:484545.got - 2010.06.03 11:33:40.
