data_PCOD9039312
_publ_section_title
;
Structure prediction by ZEFSAII (Michael W. Deem and Ramdas Pophale) SiO2 
 PCOD9039312
Probable space group: P -1
;
_chemical_formula_sum "Si O2"
_cell_formula_units_Z 13
_cell_length_a 10.642839
_cell_length_b 7.513602
_cell_length_c 8.934679
_cell_angle_alpha 71.787927
_cell_angle_beta 74.183869
_cell_angle_gamma 118.422158
_cell_volume 515.414792
_symmetry_space_group_name_H-M "P -1"
_symmetry_group_IT_number 2
_symmetry_cell_setting 'triclinic'
loop_
_space_group_symop_operation_xyz
x,y,z
-x,-y,-z
loop_
_atom_site_type_symbol
_atom_site_label
_atom_site_fract_x
_atom_site_fract_y
_atom_site_fract_z
Si Si1 0.518438 0.913718 0.175837
Si Si2 0.814091 0.523716 0.635090
Si Si3 0.133426 0.672437 0.032525
Si Si4 0.389666 0.419754 0.706294
Si Si5 0.000000 0.000000 0.000000
Si Si6 0.383648 0.303237 0.211786
Si Si7 0.907277 0.082199 0.769377
O O1 0.331383 0.715793 0.342917
O O2 0.577512 0.752162 0.180459
O O3 0.500000 0.000000 0.000000
O O4 0.678964 0.149588 0.135998
O O5 0.863013 0.449098 0.786156
O O6 0.739108 0.654287 0.682868
O O7 0.963643 0.699706 0.431915
O O8 0.091573 0.842987 0.074235
O O9 0.000000 0.500000 0.000000
O O10 0.500000 0.500000 0.500000
O O11 0.490045 0.656370 0.713568
O O12 0.193526 0.257146 0.806537
O O13 0.948644 0.911234 0.857425
O O14 0.263566 0.059992 0.225223
O O15 0.500000 0.500000 0.000000
#
# Coordination Sequence:
#
# PCOD9039312 Si02
#       7
#     2   2   2   2   1   2   2
#     4   9  19  42  63  86 131 178 219 269 341 417
#     4  10  23  42  67  97 129 182 229 277 348 421
#     4  11  24  42  67  94 134 180 232 283 346 410
#     4  11  23  41  67 103 138 171 231 291 345 409
#     4  12  22  38  68  98 138 168 226 284 352 388
#     4  11  22  43  66  96 136 183 221 275 352 421
#     4  12  24  42  65  99 139 176 232 286 342 420
#
# _framework density 25.222404000000001
#
# number of rings (size 3 to 8) (size 9 to 14) (size 15 to 20)
#    0.000    1.231    3.077    3.692    2.154    1.231 
#    0.000    0.769    0.000    0.000    0.000    0.000 
#    0.000    0.000    0.000    0.000    0.000    0.000 
#
# Total GULP energy -72405.122657 kJ/mol
# GULP energy per Si atom -5569.624820 kJ/mol
# Density = 2.516500 g / cm^3
# Si number density = 25.222404 Si / 1000 Ang^3
#
#
#
# Elastic Constant Matrix: (Units=GPa)
#
#
# Indices 1 2 3 4 5 6 
#
# 1 101.2626 58.2315 22.9754 -3.9201 -10.0349 6.4406
# 2 58.2315 170.7409 87.8118 -10.6882 -26.3441 59.3274
# 3 22.9754 87.8118 176.2092 -35.7408 -28.9013 26.5932
# 4 -3.9201 -10.6882 -35.7408 39.7025 9.7750 -9.4435
# 5 -10.0349 -26.3441 -28.9013 9.7750 38.6977 -8.8485
# 6 6.4406 59.3274 26.5932 -9.4435 -8.8485 58.6572
#
#
#
# Elastic Compliance Matrix: (Units=1/GPa)
#
#
# Indices 1 2 3 4 5 6 
#
# 1 0.013297 -0.006845 0.001338 0.001787 0.000531 0.005224
# 2 -0.006845 0.015710 -0.005530 -0.005295 0.003153 -0.013008
# 3 0.001338 -0.005530 0.009804 0.007441 0.002618 0.002595
# 4 0.001787 -0.005295 0.007441 0.033286 -0.004514 0.006464
# 5 0.000531 0.003153 0.002618 -0.004514 0.031114 -0.000467
# 6 0.005224 -0.013008 0.002595 0.006464 -0.000467 0.029425
#
#
# Mechanical properties :
#
#
# Convention : Reuss Voigt Hill
#
# Bulk Modulus (GPa) = 59.74493 87.36112 73.55303
# Shear Modulus (GPa) = 31.19367 46.02442 38.60905
#
# Velocity S-wave (km/s) = 3.52055 4.27634 3.91672
# Velocity P-wave (km/s) = 6.34542 7.68728 7.04836
#
# Compressibility (1/GPa) = 0.01673782
#
# Stress axis : x y z
#
# Youngs Moduli (GPa) = 75.20316 63.65212 102.00271
#
# Poissons Ratio (x) = 0.43568 -0.13652
# Poissons Ratio (y) = 0.51475 0.56412
# Poissons Ratio (z) = -0.10065 0.35202
#
# Static dielectric constant tensor:
#      x y z
#    x 2.599850 -0.530680 -0.310930 
#    y -0.530680 2.793560 0.479110 
#    z -0.310930 0.479110 2.282220 
# 
# From -- ./inp_files/211428.got.cif
#   From: 2010.05.17/outbox.cif.g08.bks.cpg/sg2_106_cif.got.tgz:211428.got - 2010.06.03 11:33:40.
