data_PCOD9039139
_publ_section_title
;
Structure prediction by ZEFSAII (Michael W. Deem and Ramdas Pophale) SiO2 
 PCOD9039139
Probable space group: P -1
;
_chemical_formula_sum "Si O2"
_cell_formula_units_Z 16
_cell_length_a 8.764676
_cell_length_b 9.220289
_cell_length_c 13.600763
_cell_angle_alpha 110.902537
_cell_angle_beta 45.189422
_cell_angle_gamma 106.738262
_cell_volume 727.332065
_symmetry_space_group_name_H-M "P -1"
_symmetry_group_IT_number 2
_symmetry_cell_setting 'triclinic'
loop_
_space_group_symop_operation_xyz
x,y,z
-x,-y,-z
loop_
_atom_site_type_symbol
_atom_site_label
_atom_site_fract_x
_atom_site_fract_y
_atom_site_fract_z
Si Si1 0.296799 0.422334 0.014753
Si Si2 0.316691 0.921178 0.786372
Si Si3 0.158989 0.084023 0.080005
Si Si4 0.607838 0.422295 0.702366
Si Si5 0.375115 0.904542 0.449385
Si Si6 0.934633 0.345428 0.709857
Si Si7 0.658638 0.708886 0.605504
Si Si8 0.880097 0.987484 0.695804
O O1 0.240907 0.253285 0.044681
O O2 0.109576 0.537450 0.152976
O O3 0.500000 0.500000 0.000000
O O4 0.383158 0.413738 0.862539
O O5 0.428537 0.759305 0.684952
O O6 0.096838 0.928029 0.827519
O O7 0.486412 0.052365 0.699935
O O8 0.263132 0.957973 0.932304
O O9 0.198849 0.054892 0.168773
O O10 0.622619 0.279634 0.586160
O O11 0.798044 0.400035 0.690524
O O12 0.639774 0.581078 0.667773
O O13 0.133579 0.957287 0.566459
O O14 0.500000 0.000000 0.500000
O O15 0.181656 0.342567 0.564108
O O16 0.853842 0.168636 0.729324
O O17 0.766257 0.865979 0.643337
#
# Coordination Sequence:
#
# PCOD9039139 Si02
#       8
#     2   2   2   2   2   2   2   2
#     4  10  23  42  66  96 133 177 216 270 335 392
#     4  11  25  46  67  96 136 178 223 278 334 401
#     4  11  25  46  68  95 137 178 221 276 339 403
#     4  11  24  44  66  96 142 175 217 280 337 393
#     4  12  23  44  70  97 134 179 225 274 340 396
#     4  11  23  40  67 103 136 170 220 283 334 389
#     4  12  25  42  70 101 133 177 228 280 334 394
#     4  12  24  40  72 101 130 176 230 279 329 401
#
# _framework density 21.998204000000001
#
# number of rings (size 3 to 8) (size 9 to 14) (size 15 to 20)
#    0.000    0.750    5.000    3.000    5.250    0.500 
#    2.250    1.875    0.000    0.000    0.000    0.000 
#    0.000    0.000    0.000    0.000    0.000    0.000 
#
# Total GULP energy -89550.136597 kJ/mol
# GULP energy per Si atom -5596.883537 kJ/mol
# Density = 2.194814 g / cm^3
# Si number density = 21.998204 Si / 1000 Ang^3
#
#
#
# Elastic Constant Matrix: (Units=GPa)
#
#
# Indices 1 2 3 4 5 6 
#
# 1 27.1574 -3.1050 20.3999 7.1794 -3.0900 -0.1151
# 2 -3.1050 113.9137 21.6472 -1.7807 -5.4474 -29.9115
# 3 20.3999 21.6472 121.8631 14.4479 -8.2688 -20.0563
# 4 7.1794 -1.7807 14.4479 42.4044 -1.3199 0.4924
# 5 -3.0900 -5.4474 -8.2688 -1.3199 25.1197 1.1463
# 6 -0.1151 -29.9115 -20.0563 0.4924 1.1463 27.3250
#
#
#
# Elastic Compliance Matrix: (Units=1/GPa)
#
#
# Indices 1 2 3 4 5 6 
#
# 1 0.044280 0.001831 -0.007511 -0.004720 0.003278 -0.003375
# 2 0.001831 0.012512 -0.000180 0.000191 0.002275 0.013473
# 3 -0.007511 -0.000180 0.011272 -0.002599 0.002246 0.007998
# 4 -0.004720 0.000191 -0.002599 0.025302 0.000034 -0.002176
# 5 0.003278 0.002275 0.002246 0.000034 0.041337 0.002418
# 6 -0.003375 0.013473 0.007998 -0.002176 0.002418 0.057139
#
#
# Mechanical properties :
#
#
# Convention : Reuss Voigt Hill
#
# Bulk Modulus (GPa) = 17.74792 37.86872 27.80832
# Shear Modulus (GPa) = 22.48769 33.90262 28.19516
#
# Velocity S-wave (km/s) = 3.20074 3.93001 3.58397
# Velocity P-wave (km/s) = 4.66316 6.15184 5.45849
#
# Compressibility (1/GPa) = 0.05634463
#
# Stress axis : x y z
#
# Youngs Moduli (GPa) = 22.58338 79.92125 88.71439
#
# Poissons Ratio (x) = -0.14635 0.66636
# Poissons Ratio (y) = -0.04136 0.01597
# Poissons Ratio (z) = 0.16963 0.01439
#
# Static dielectric constant tensor:
#      x y z
#    x 1.790680 -0.023150 -0.016620 
#    y -0.023150 1.758780 -0.000450 
#    z -0.016620 -0.000450 1.840660 
# 
# From -- ./inp_files/188456.got.cif
#   From: 2010.05.17/outbox.cif.g08.bks.cpg/sg2_95_cif.got.tgz:188456.got - 2010.06.03 11:33:40.
