data_PCOD9039918
_publ_section_title
;
Structure prediction by ZEFSAII (Michael W. Deem and Ramdas Pophale) SiO2 
 PCOD9039918
Probable space group: P -1
;
_chemical_formula_sum "Si O2"
_cell_formula_units_Z 16
_cell_length_a 7.960041
_cell_length_b 9.636499
_cell_length_c 13.364702
_cell_angle_alpha 112.438401
_cell_angle_beta 135.136314
_cell_angle_gamma 75.974794
_cell_volume 667.798409
_symmetry_space_group_name_H-M "P -1"
_symmetry_group_IT_number 2
_symmetry_cell_setting 'triclinic'
loop_
_space_group_symop_operation_xyz
x,y,z
-x,-y,-z
loop_
_atom_site_type_symbol
_atom_site_label
_atom_site_fract_x
_atom_site_fract_y
_atom_site_fract_z
Si Si1 0.281210 0.885876 0.910464
Si Si2 0.195536 0.080891 0.537491
Si Si3 0.332339 0.957559 0.176996
Si Si4 0.879404 0.428191 0.173786
Si Si5 0.374161 0.309736 0.255573
Si Si6 0.184521 0.400077 0.989493
Si Si7 0.063186 0.623477 0.479321
Si Si8 0.079608 0.903563 0.261010
O O1 0.257545 0.704934 0.857012
O O2 0.232570 0.915414 0.015371
O O3 0.084555 0.954094 0.776369
O O4 0.500000 0.000000 0.000000
O O5 0.414996 0.109684 0.712423
O O6 0.075597 0.233865 0.501828
O O7 0.249710 0.959595 0.439216
O O8 0.000000 0.000000 0.500000
O O9 0.188322 0.898886 0.195344
O O10 0.359859 0.136414 0.233590
O O11 0.732964 0.483503 0.030703
O O12 0.143356 0.378673 0.231802
O O13 0.942954 0.566551 0.310675
O O14 0.649138 0.360989 0.408410
O O15 0.338203 0.334680 0.127525
O O16 0.065009 0.255854 0.840185
O O17 0.000000 0.500000 0.000000
O O18 0.000000 0.500000 0.500000
#
# Coordination Sequence:
#
# PCOD9039918 Si02
#       8
#     2   2   2   2   2   2   2   2
#     4  12  26  45  76 108 143 191 245 303 368 438
#     4  12  26  46  68 105 147 192 245 300 364 434
#     4  12  24  45  76 103 141 189 255 302 354 434
#     4  11  25  48  74 107 146 193 241 300 372 437
#     4  11  23  47  75 106 140 191 244 298 364 443
#     4  10  23  42  72 108 142 175 237 308 363 420
#     4  12  28  46  71 104 154 190 237 303 371 437
#     4  12  24  45  73 106 143 195 249 297 358 446
#
# _framework density 23.959326999999998
#
# number of rings (size 3 to 8) (size 9 to 14) (size 15 to 20)
#    0.000    0.500    3.750    4.875    1.750    3.000 
#    0.000    1.875    0.000    0.000    0.000    0.000 
#    0.000    0.000    0.000    0.000    0.000    0.000 
#
# Total GULP energy -89312.709676 kJ/mol
# GULP energy per Si atom -5582.044355 kJ/mol
# Density = 2.390479 g / cm^3
# Si number density = 23.959327 Si / 1000 Ang^3
#
#
#
# Elastic Constant Matrix: (Units=GPa)
#
#
# Indices 1 2 3 4 5 6 
#
# 1 71.8637 12.3807 17.6003 6.3351 -5.5221 -1.0530
# 2 12.3807 132.5741 25.6691 -1.0328 -2.6173 7.6369
# 3 17.6003 25.6691 66.0729 10.5806 -16.2729 1.9140
# 4 6.3351 -1.0328 10.5806 37.5499 -4.2819 -5.1288
# 5 -5.5221 -2.6173 -16.2729 -4.2819 39.7284 7.5991
# 6 -1.0530 7.6369 1.9140 -5.1288 7.5991 31.2140
#
#
#
# Elastic Compliance Matrix: (Units=1/GPa)
#
#
# Indices 1 2 3 4 5 6 
#
# 1 0.015049 -0.000786 -0.003388 -0.001484 0.000383 0.000571
# 2 -0.000786 0.008338 -0.003266 0.001011 -0.000486 -0.001582
# 3 -0.003388 -0.003266 0.020031 -0.004727 0.007616 -0.003175
# 4 -0.001484 0.001011 -0.004727 0.028900 0.000138 0.004708
# 5 0.000383 -0.000486 0.007616 0.000138 0.029773 -0.007561
# 6 0.000571 -0.001582 -0.003175 0.004708 -0.007561 0.035252
#
#
# Mechanical properties :
#
#
# Convention : Reuss Voigt Hill
#
# Bulk Modulus (GPa) = 35.04023 42.42343 38.73183
# Shear Modulus (GPa) = 30.91474 36.02249 33.46862
#
# Velocity S-wave (km/s) = 3.59597 3.88169 3.74156
# Velocity P-wave (km/s) = 5.64783 6.15101 5.90478
#
# Compressibility (1/GPa) = 0.02853863
#
# Stress axis : x y z
#
# Youngs Moduli (GPa) = 66.44943 119.93183 49.92340
#
# Poissons Ratio (x) = 0.09431 0.16912
# Poissons Ratio (y) = 0.05225 0.16303
# Poissons Ratio (z) = 0.22511 0.39165
#
# Static dielectric constant tensor:
#      x y z
#    x 2.057680 -0.054370 -0.017170 
#    y -0.054370 1.886820 0.002630 
#    z -0.017170 0.002630 1.924100 
# 
# From -- ./inp_files/494761.got.cif
#   From: 2010.05.17/outbox.cif.g08.bks.cpg/sg2_248_cif.got.tgz:494761.got - 2010.06.03 11:33:40.
