data_PCOD9039191
_publ_section_title
;
Structure prediction by ZEFSAII (Michael W. Deem and Ramdas Pophale) SiO2 
 PCOD9039191
Probable space group: P -1
;
_chemical_formula_sum "Si O2"
_cell_formula_units_Z 14
_cell_length_a 13.467334
_cell_length_b 7.749858
_cell_length_c 11.072034
_cell_angle_alpha 138.962638
_cell_angle_beta 127.526609
_cell_angle_gamma 69.893774
_cell_volume 586.663357
_symmetry_space_group_name_H-M "P -1"
_symmetry_group_IT_number 2
_symmetry_cell_setting 'triclinic'
loop_
_space_group_symop_operation_xyz
x,y,z
-x,-y,-z
loop_
_atom_site_type_symbol
_atom_site_label
_atom_site_fract_x
_atom_site_fract_y
_atom_site_fract_z
Si Si1 0.826287 0.983899 0.095000
Si Si2 0.365035 0.669222 0.952864
Si Si3 0.637798 0.602580 0.596905
Si Si4 0.015992 0.680799 0.986000
Si Si5 0.633969 0.914132 0.348294
Si Si6 0.183906 0.765226 0.527761
Si Si7 0.314806 0.864772 0.251863
O O1 0.753259 0.209078 0.111971
O O2 0.841612 0.055679 0.284608
O O3 0.955350 0.940463 0.104535
O O4 0.730777 0.705952 0.835573
O O5 0.357764 0.374005 0.744368
O O6 0.506848 0.859147 0.140920
O O7 0.356401 0.648195 0.081563
O O8 0.500000 0.500000 0.500000
O O9 0.695343 0.380974 0.450405
O O10 0.652145 0.859702 0.656022
O O11 0.162938 0.779386 0.112699
O O12 0.000000 0.500000 0.000000
O O13 0.935792 0.477773 0.720452
O O14 0.621685 0.097449 0.550504
O O15 0.765254 0.038613 0.442746
#
# Coordination Sequence:
#
# PCOD9039191 Si02
#       7
#     2   2   2   2   2   2   2
#     4  10  24  43  66  98 134 176 220 272 327 392
#     4  10  24  41  63  99 132 170 220 265 332 397
#     4  10  23  42  67 100 133 171 217 270 332 395
#     4  11  25  45  68  97 130 175 228 273 327 388
#     4  11  23  40  67 100 132 175 215 269 330 392
#     4  11  23  40  68  96 134 174 219 273 327 387
#     4  11  23  44  69  92 134 174 219 273 327 387
#
# _framework density 23.863769999999999
#
# number of rings (size 3 to 8) (size 9 to 14) (size 15 to 20)
#    0.000    1.429    1.429    3.000    2.000   11.429 
#    0.000    4.286    0.000    0.000    0.000    0.000 
#    0.000    0.000    0.000    0.000    0.000    0.000 
#
# Total GULP energy -78265.216349 kJ/mol
# GULP energy per Si atom -5590.372596 kJ/mol
# Density = 2.380946 g / cm^3
# Si number density = 23.863770 Si / 1000 Ang^3
#
#
#
# Elastic Constant Matrix: (Units=GPa)
#
#
# Indices 1 2 3 4 5 6 
#
# 1 116.8394 9.6945 64.1207 7.4897 14.7945 -1.3676
# 2 9.6945 57.1209 20.9760 8.5300 16.9666 -2.8305
# 3 64.1207 20.9760 82.2561 -2.5101 -0.0966 13.8602
# 4 7.4897 8.5300 -2.5101 25.3503 7.9536 -2.7375
# 5 14.7945 16.9666 -0.0966 7.9536 55.1445 -4.4182
# 6 -1.3676 -2.8305 13.8602 -2.7375 -4.4182 39.5421
#
#
#
# Elastic Compliance Matrix: (Units=1/GPa)
#
#
# Indices 1 2 3 4 5 6 
#
# 1 0.018926 0.006251 -0.017609 -0.007040 -0.005522 0.006170
# 2 0.006251 0.024739 -0.012264 -0.008446 -0.007704 0.004840
# 3 -0.017609 -0.012264 0.031164 0.009233 0.006334 -0.011064
# 4 -0.007040 -0.008446 0.009233 0.045849 -0.002202 -0.001156
# 5 -0.005522 -0.007704 0.006334 -0.002202 0.022265 -0.000627
# 6 0.006170 0.004840 -0.011064 -0.001156 -0.000627 0.029577
#
#
# Mechanical properties :
#
#
# Convention : Reuss Voigt Hill
#
# Bulk Modulus (GPa) = 36.24917 49.53321 42.89119
# Shear Modulus (GPa) = 21.83802 34.76907 28.30354
#
# Velocity S-wave (km/s) = 3.02836 3.82118 3.44764
# Velocity P-wave (km/s) = 5.23937 6.34589 5.81899
#
# Compressibility (1/GPa) = 0.02758683
#
# Stress axis : x y z
#
# Youngs Moduli (GPa) = 52.83662 40.42237 32.08798
#
# Poissons Ratio (x) = -0.25269 0.56502
# Poissons Ratio (y) = -0.33030 0.39353
# Poissons Ratio (z) = 0.93038 0.49574
#
# Static dielectric constant tensor:
#      x y z
#    x 1.884000 -0.000830 -0.003730 
#    y -0.000830 1.972120 -0.027500 
#    z -0.003730 -0.027500 1.918650 
# 
# From -- ./inp_files/415981.got.cif
#   From: 2010.05.17/outbox.cif.g08.bks.cpg/sg2_208_cif.got.tgz:415981.got - 2010.06.03 11:33:40.
