data_PCOD9039361
_publ_section_title
;
Structure prediction by ZEFSAII (Michael W. Deem and Ramdas Pophale) SiO2 
 PCOD9039361
Probable space group: P -1
;
_chemical_formula_sum "Si O2"
_cell_formula_units_Z 16
_cell_length_a 15.014681
_cell_length_b 8.693407
_cell_length_c 9.223046
_cell_angle_alpha 78.115670
_cell_angle_beta 134.933801
_cell_angle_gamma 113.802537
_cell_volume 773.920348
_symmetry_space_group_name_H-M "P -1"
_symmetry_group_IT_number 2
_symmetry_cell_setting 'triclinic'
loop_
_space_group_symop_operation_xyz
x,y,z
-x,-y,-z
loop_
_atom_site_type_symbol
_atom_site_label
_atom_site_fract_x
_atom_site_fract_y
_atom_site_fract_z
Si Si1 0.895173 0.401804 0.272576
Si Si2 0.365681 0.892319 0.271104
Si Si3 0.846027 0.986226 0.855399
Si Si4 0.450888 0.602463 0.306005
Si Si5 0.276172 0.143717 0.562536
Si Si6 0.790533 0.664529 0.056128
Si Si7 0.647785 0.071685 0.083422
Si Si8 0.925302 0.802303 0.492202
O O1 0.879013 0.552428 0.130799
O O2 0.744577 0.271062 0.171441
O O3 0.000000 0.500000 0.500000
O O4 0.964175 0.275739 0.319538
O O5 0.225126 0.892525 0.177913
O O6 0.376110 0.710726 0.283585
O O7 0.500000 0.000000 0.500000
O O8 0.371870 0.968503 0.101643
O O9 0.784371 0.962229 0.628795
O O10 0.798354 0.821051 0.935620
O O11 0.000000 0.000000 0.000000
O O12 0.500000 0.500000 0.500000
O O13 0.576248 0.733594 0.338465
O O14 0.359694 0.469220 0.111387
O O15 0.176994 0.233079 0.484745
O O16 0.277134 0.028235 0.721956
O O17 0.841529 0.720070 0.266426
O O18 0.500000 0.000000 0.000000
O O19 0.000000 0.000000 0.500000
#
# Coordination Sequence:
#
# PCOD9039361 Si02
#       8
#     2   2   2   2   2   2   2   2
#     4  10  23  42  68 100 143 177 223 294 374 410
#     4  12  24  48  73 103 140 193 234 292 356 422
#     4  12  27  44  70 102 141 192 247 280 348 434
#     4  12  24  47  69 100 145 180 233 298 359 414
#     4  12  24  42  70 103 138 184 242 293 340 432
#     4  11  23  46  69  97 140 184 222 299 365 409
#     4  12  22  41  74 103 132 177 244 291 347 430
#     4  11  23  42  71 101 137 179 235 289 355 428
#
# _framework density 20.673962
#
# number of rings (size 3 to 8) (size 9 to 14) (size 15 to 20)
#    0.000    0.500    6.250    1.500    3.500    0.500 
#    2.250    5.000    0.000    0.000    0.000    0.000 
#    0.000    0.000    0.000    0.000    0.000    0.000 
#
# Total GULP energy -89159.430020 kJ/mol
# GULP energy per Si atom -5572.464376 kJ/mol
# Density = 2.062691 g / cm^3
# Si number density = 20.673962 Si / 1000 Ang^3
#
#
#
# Elastic Constant Matrix: (Units=GPa)
#
#
# Indices 1 2 3 4 5 6 
#
# 1 147.5154 40.2440 39.6545 6.1951 12.4860 -14.7238
# 2 40.2440 81.7374 21.7854 -7.9807 4.1800 -16.2779
# 3 39.6545 21.7854 110.4707 10.1702 -15.4885 8.5862
# 4 6.1951 -7.9807 10.1702 54.4988 3.5955 9.2015
# 5 12.4860 4.1800 -15.4885 3.5955 37.3475 -3.8765
# 6 -14.7238 -16.2779 8.5862 9.2015 -3.8765 24.1310
#
#
#
# Elastic Compliance Matrix: (Units=1/GPa)
#
#
# Indices 1 2 3 4 5 6 
#
# 1 0.009342 -0.002534 -0.003647 -0.001393 -0.003675 0.005229
# 2 -0.002534 0.016685 -0.003555 0.001810 -0.001628 0.010022
# 3 -0.003647 -0.003555 0.012671 -0.001614 0.006248 -0.007513
# 4 -0.001393 0.001810 -0.001614 0.020529 -0.003150 -0.007388
# 5 -0.003675 -0.001628 0.006248 -0.003150 0.031147 0.000641
# 6 0.005229 0.010022 -0.007513 -0.007388 0.000641 0.056985
#
#
# Mechanical properties :
#
#
# Convention : Reuss Voigt Hill
#
# Bulk Modulus (GPa) = 52.01247 60.34348 56.17797
# Shear Modulus (GPa) = 28.86159 39.06476 33.96317
#
# Velocity S-wave (km/s) = 3.74041 4.35163 4.05754
# Velocity P-wave (km/s) = 6.62324 7.38244 7.01312
#
# Compressibility (1/GPa) = 0.01922616
#
# Stress axis : x y z
#
# Youngs Moduli (GPa) = 107.03999 59.93270 78.92140
#
# Poissons Ratio (x) = 0.15189 0.28784
# Poissons Ratio (y) = 0.27127 0.28054
# Poissons Ratio (z) = 0.39040 0.21304
#
# Static dielectric constant tensor:
#      x y z
#    x 1.774120 -0.041670 0.051910 
#    y -0.041670 1.755250 -0.000140 
#    z 0.051910 -0.000140 1.785050 
# 
# From -- ./inp_files/292414.got.cif
#   From: 2010.05.17/outbox.cif.g08.bks.cpg/sg2_147_cif.got.tgz:292414.got - 2010.06.03 11:33:40.
