data_PCOD9039725
_publ_section_title
;
Structure prediction by ZEFSAII (Michael W. Deem and Ramdas Pophale) SiO2 
 PCOD9039725
Probable space group: P -1
;
_chemical_formula_sum "Si O2"
_cell_formula_units_Z 16
_cell_length_a 11.177563
_cell_length_b 8.144472
_cell_length_c 13.544529
_cell_angle_alpha 71.942878
_cell_angle_beta 34.808542
_cell_angle_gamma 72.323356
_cell_volume 666.442842
_symmetry_space_group_name_H-M "P -1"
_symmetry_group_IT_number 2
_symmetry_cell_setting 'triclinic'
loop_
_space_group_symop_operation_xyz
x,y,z
-x,-y,-z
loop_
_atom_site_type_symbol
_atom_site_label
_atom_site_fract_x
_atom_site_fract_y
_atom_site_fract_z
Si Si1 0.226336 0.198151 0.832416
Si Si2 0.828551 0.234897 0.236994
Si Si3 0.388657 0.679278 0.340740
Si Si4 0.674333 0.135061 0.846578
Si Si5 0.466683 0.814321 0.717934
Si Si6 0.862643 0.998004 0.440783
Si Si7 0.326841 0.608473 0.031129
Si Si8 0.867303 0.536811 0.313849
O O1 0.386958 0.309825 0.762114
O O2 0.189567 0.277904 0.733596
O O3 0.331959 0.000990 0.795824
O O4 0.007546 0.221384 0.034867
O O5 0.607286 0.229450 0.333235
O O6 0.837983 0.400211 0.270624
O O7 0.868220 0.073210 0.312854
O O8 0.399925 0.717050 0.210202
O O9 0.273069 0.518506 0.489574
O O10 0.248640 0.847085 0.447793
O O11 0.713677 0.215920 0.910851
O O12 0.901386 0.049880 0.675540
O O13 0.500000 0.000000 0.000000
O O14 0.707392 0.846714 0.570303
O O15 0.400866 0.666755 0.863455
O O16 0.110406 0.521007 0.184069
O O17 0.500000 0.500000 0.000000
#
# Coordination Sequence:
#
# PCOD9039725 Si02
#       8
#     2   2   2   2   2   2   2   2
#     4  11  22  43  72 103 137 175 241 282 338 402
#     4  11  22  41  72  99 138 184 223 280 348 407
#     4  10  24  42  70 102 140 180 228 288 340 411
#     4  12  26  47  76  97 132 193 234 281 343 410
#     4  11  24  45  70 105 137 179 228 294 337 401
#     4  10  23  42  70 107 137 170 234 289 341 404
#     4  12  30  47  67 103 144 180 231 284 342 416
#     4  11  26  45  66 103 143 183 225 284 345 409
#
# _framework density 24.008061000000001
#
# number of rings (size 3 to 8) (size 9 to 14) (size 15 to 20)
#    0.000    1.000    1.250    4.875    8.750    0.500 
#    2.250    0.000    0.000    0.000    0.000    0.000 
#    0.000    0.000    0.000    0.000    0.000    0.000 
#
# Total GULP energy -89681.204069 kJ/mol
# GULP energy per Si atom -5605.075254 kJ/mol
# Density = 2.395342 g / cm^3
# Si number density = 24.008061 Si / 1000 Ang^3
#
#
#
# Elastic Constant Matrix: (Units=GPa)
#
#
# Indices 1 2 3 4 5 6 
#
# 1 116.0019 16.6148 33.4329 -12.2648 6.6342 -26.5975
# 2 16.6148 68.0319 20.5770 -8.5692 1.3175 -7.1864
# 3 33.4329 20.5770 122.5007 -22.3229 -8.8626 -13.2078
# 4 -12.2648 -8.5692 -22.3229 36.9172 -9.4704 6.5559
# 5 6.6342 1.3175 -8.8626 -9.4704 40.2585 1.9031
# 6 -26.5975 -7.1864 -13.2078 6.5559 1.9031 46.7401
#
#
#
# Elastic Compliance Matrix: (Units=1/GPa)
#
#
# Indices 1 2 3 4 5 6 
#
# 1 0.010877 -0.001306 -0.002279 0.000353 -0.002423 0.005394
# 2 -0.001306 0.015932 -0.001905 0.001864 -0.000330 0.000920
# 3 -0.002279 -0.001905 0.010581 0.006216 0.004213 0.000357
# 4 0.000353 0.001864 0.006216 0.034351 0.009470 -0.002960
# 5 -0.002423 -0.000330 0.004213 0.009470 0.028534 -0.002729
# 6 0.005394 0.000920 0.000357 -0.002960 -0.002729 0.025233
#
#
# Mechanical properties :
#
#
# Convention : Reuss Voigt Hill
#
# Bulk Modulus (GPa) = 37.86174 49.75377 43.80776
# Shear Modulus (GPa) = 34.41362 40.51048 37.46205
#
# Velocity S-wave (km/s) = 3.79016 4.11222 3.95447
# Velocity P-wave (km/s) = 5.91256 6.58148 6.25597
#
# Compressibility (1/GPa) = 0.02641189
#
# Stress axis : x y z
#
# Youngs Moduli (GPa) = 91.93715 62.76481 94.50841
#
# Poissons Ratio (x) = 0.08197 0.21534
# Poissons Ratio (y) = 0.12007 0.18002
# Poissons Ratio (z) = 0.20948 0.11955
#
# Static dielectric constant tensor:
#      x y z
#    x 1.867980 0.016250 0.033630 
#    y 0.016250 1.966060 0.065160 
#    z 0.033630 0.065160 1.980350 
# 
# From -- ./inp_files/515281.got.cif
#   From: 2010.05.17/outbox.cif.g08.bks.cpg/sg2_258_cif.got.tgz:515281.got - 2010.06.03 11:33:40.
