data_PCOD9039100
_publ_section_title
;
Structure prediction by ZEFSAII (Michael W. Deem and Ramdas Pophale) SiO2 
 PCOD9039100
Probable space group: P -1
;
_chemical_formula_sum "Si O2"
_cell_formula_units_Z 14
_cell_length_a 11.734829
_cell_length_b 15.054786
_cell_length_c 9.412354
_cell_angle_alpha 36.808589
_cell_angle_beta 143.098138
_cell_angle_gamma 141.161800
_cell_volume 551.981336
_symmetry_space_group_name_H-M "P -1"
_symmetry_group_IT_number 2
_symmetry_cell_setting 'triclinic'
loop_
_space_group_symop_operation_xyz
x,y,z
-x,-y,-z
loop_
_atom_site_type_symbol
_atom_site_label
_atom_site_fract_x
_atom_site_fract_y
_atom_site_fract_z
Si Si1 0.554196 0.341737 0.745173
Si Si2 0.800673 0.902784 0.726728
Si Si3 0.573018 0.188224 0.376447
Si Si4 0.085222 0.586708 0.784331
Si Si5 0.573950 0.152822 0.732585
Si Si6 0.848868 0.793022 0.356423
Si Si7 0.988125 0.215743 0.152512
O O1 0.500000 0.500000 0.500000
O O2 0.533476 0.266371 0.664850
O O3 0.384788 0.226632 0.834162
O O4 0.779608 0.376560 0.983768
O O5 0.648286 0.798470 0.830606
O O6 0.645112 0.962823 0.402927
O O7 0.880198 0.809913 0.811797
O O8 0.000372 0.053688 0.773963
O O9 0.744839 0.306198 0.295470
O O10 0.671780 0.226451 0.584162
O O11 0.500000 0.000000 0.500000
O O12 0.898174 0.645372 0.534140
O O13 0.012060 0.399015 0.926431
O O14 0.747212 0.101989 0.039078
O O15 0.927284 0.810729 0.576990
#
# Coordination Sequence:
#
# PCOD9039100 Si02
#       7
#     2   2   2   2   2   2   2
#     4  12  23  42  67 105 131 172 222 276 331 390
#     4  10  24  43  63  93 137 169 221 273 320 396
#     4  10  23  49  64  92 138 179 217 274 326 393
#     4  12  24  43  70  95 141 171 219 277 327 390
#     4  10  23  42  66  92 138 170 220 267 331 390
#     4  12  22  40  69  96 134 172 219 275 330 388
#     4  12  23  40  68 103 126 176 222 272 334 388
#
# _framework density 25.363175999999999
#
# number of rings (size 3 to 8) (size 9 to 14) (size 15 to 20)
#    0.857    0.000    5.714    1.714    0.000    4.000 
#    2.571    1.429    0.000    0.000    0.000    0.000 
#    0.000    0.000    0.000    0.000    0.000    0.000 
#
# Total GULP energy -78250.032884 kJ/mol
# GULP energy per Si atom -5589.288063 kJ/mol
# Density = 2.530545 g / cm^3
# Si number density = 25.363176 Si / 1000 Ang^3
#
#
#
# Elastic Constant Matrix: (Units=GPa)
#
#
# Indices 1 2 3 4 5 6 
#
# 1 174.6084 27.2555 40.2092 -19.3121 11.9738 1.9220
# 2 27.2555 83.7198 28.5968 2.6011 6.0160 6.7471
# 3 40.2092 28.5968 51.6271 5.3411 19.6989 -2.7230
# 4 -19.3121 2.6011 5.3411 46.8277 6.4818 6.9608
# 5 11.9738 6.0160 19.6989 6.4818 50.7018 4.1293
# 6 1.9220 6.7471 -2.7230 6.9608 4.1293 45.1928
#
#
#
# Elastic Compliance Matrix: (Units=1/GPa)
#
#
# Indices 1 2 3 4 5 6 
#
# 1 0.007704 -0.000363 -0.006405 0.004082 0.000297 -0.001315
# 2 -0.000363 0.015276 -0.009142 0.000213 0.002045 -0.003036
# 3 -0.006405 -0.009142 0.034266 -0.005409 -0.010472 0.005492
# 4 0.004082 0.000213 -0.005409 0.024493 -0.001681 -0.004150
# 5 0.000297 0.002045 -0.010472 -0.001681 0.023928 -0.002876
# 6 -0.001315 -0.003036 0.005492 -0.004150 -0.002876 0.023869
#
#
# Mechanical properties :
#
#
# Convention : Reuss Voigt Hill
#
# Bulk Modulus (GPa) = 39.32488 55.78649 47.55569
# Shear Modulus (GPa) = 29.44093 42.80406 36.12249
#
# Velocity S-wave (km/s) = 3.41071 4.11255 3.77797
# Velocity P-wave (km/s) = 5.57216 6.67785 6.14990
#
# Compressibility (1/GPa) = 0.02542919
#
# Stress axis : x y z
#
# Youngs Moduli (GPa) = 129.79978 65.46063 29.18318
#
# Poissons Ratio (x) = 0.02374 0.18690
# Poissons Ratio (y) = 0.04708 0.26678
# Poissons Ratio (z) = 0.83130 0.59842
#
# Static dielectric constant tensor:
#      x y z
#    x 2.029040 0.037880 -0.036680 
#    y 0.037880 2.048830 -0.001260 
#    z -0.036680 -0.001260 2.030370 
# 
# From -- ./inp_files/430962.got.cif
#   From: 2010.05.17/outbox.cif.g08.bks.cpg/sg2_216_cif.got.tgz:430962.got - 2010.06.03 11:33:40.
