data_PCOD9039118
_publ_section_title
;
Structure prediction by ZEFSAII (Michael W. Deem and Ramdas Pophale) SiO2 
 PCOD9039118
Probable space group: P -1
;
_chemical_formula_sum "Si O2"
_cell_formula_units_Z 16
_cell_length_a 19.922516
_cell_length_b 9.170935
_cell_length_c 13.880482
_cell_angle_alpha 105.044725
_cell_angle_beta 138.426906
_cell_angle_gamma 42.285241
_cell_volume 852.389233
_symmetry_space_group_name_H-M "P -1"
_symmetry_group_IT_number 2
_symmetry_cell_setting 'triclinic'
loop_
_space_group_symop_operation_xyz
x,y,z
-x,-y,-z
loop_
_atom_site_type_symbol
_atom_site_label
_atom_site_fract_x
_atom_site_fract_y
_atom_site_fract_z
Si Si1 0.459630 0.323435 0.256513
Si Si2 0.494092 0.221104 0.754481
Si Si3 0.409492 0.103737 0.026184
Si Si4 0.256576 0.229608 0.459685
Si Si5 0.026189 0.370374 0.409492
Si Si6 0.033453 0.990607 0.921579
Si Si7 0.078369 0.285704 0.966493
Si Si8 0.754456 0.200336 0.494078
O O1 0.581600 0.317945 0.368821
O O2 0.569308 0.111332 0.430597
O O3 0.467137 0.178878 0.161233
O O4 0.239351 0.649748 0.071884
O O5 0.368855 0.243493 0.581635
O O6 0.354430 0.541160 0.645585
O O7 0.529753 0.120591 0.885230
O O8 0.700821 0.973585 0.879168
O O9 0.180805 0.388359 0.819191
O O10 0.500000 0.000000 0.000000
O O11 0.161265 0.290675 0.467165
O O12 0.071965 0.484571 0.239405
O O13 0.000000 0.500000 0.500000
O O14 0.114755 0.090400 0.470215
O O15 0.051878 0.146217 0.948058
O O16 0.879099 0.116968 0.700774
O O17 0.000000 0.000000 0.000000
O O18 0.000000 0.500000 0.000000
#
# Coordination Sequence:
#
# PCOD9039118 Si02
#       8
#     2   2   2   2   2   2   2   2
#     4  10  23  42  66  94 137 174 222 279 337 395
#     4  11  23  44  66  96 139 176 221 287 330 400
#     4  11  22  42  71 101 135 178 226 274 341 407
#     4  10  23  42  66  94 137 174 222 279 337 395
#     4  11  22  42  71 101 135 178 226 274 341 407
#     4  12  27  43  67  98 135 181 231 279 343 397
#     4  12  27  43  67  98 135 181 231 279 343 397
#     4  11  23  44  66  96 139 176 221 287 330 400
#
# _framework density 18.770766999999999
#
# number of rings (size 3 to 8) (size 9 to 14) (size 15 to 20)
#    0.000    1.000    5.000    2.250    7.000    2.000 
#    0.000    6.250    0.000    0.000    0.000    0.000 
#    0.000    0.000    0.000    0.000    0.000    0.000 
#
# Total GULP energy -89112.899558 kJ/mol
# GULP energy per Si atom -5569.556222 kJ/mol
# Density = 1.872804 g / cm^3
# Si number density = 18.770767 Si / 1000 Ang^3
#
#
#
# Elastic Constant Matrix: (Units=GPa)
#
#
# Indices 1 2 3 4 5 6 
#
# 1 125.1056 76.5168 74.8136 -3.3190 -7.2824 20.8923
# 2 76.5168 126.4663 76.7525 -15.3292 -17.5359 19.7427
# 3 74.8136 76.7525 171.5019 -29.8577 9.4263 2.1843
# 4 -3.3190 -15.3292 -29.8577 28.4661 16.8659 -6.3468
# 5 -7.2824 -17.5359 9.4263 16.8659 39.9298 -4.2020
# 6 20.8923 19.7427 2.1843 -6.3468 -4.2020 29.0533
#
#
#
# Elastic Compliance Matrix: (Units=1/GPa)
#
#
# Indices 1 2 3 4 5 6 
#
# 1 0.019168 -0.003911 -0.010778 -0.021156 0.011868 -0.013221
# 2 -0.003911 0.016710 -0.007584 -0.007596 0.010774 -0.008074
# 3 -0.010778 -0.007584 0.020770 0.033280 -0.022642 0.015338
# 4 -0.021156 -0.007596 0.033280 0.103520 -0.055359 0.032481
# 5 0.011868 0.010774 -0.022642 -0.055359 0.058801 -0.017742
# 6 -0.013221 -0.008074 0.015338 0.032481 -0.017742 0.052789
#
#
# Mechanical properties :
#
#
# Convention : Reuss Voigt Hill
#
# Bulk Modulus (GPa) = 82.63657 97.69330 90.16493
# Shear Modulus (GPa) = 15.60848 32.48924 24.04886
#
# Velocity S-wave (km/s) = 2.88676 4.16485 3.58325
# Velocity P-wave (km/s) = 7.43174 8.67678 8.07828
#
# Compressibility (1/GPa) = 0.01210118
#
# Stress axis : x y z
#
# Youngs Moduli (GPa) = 52.16981 59.84527 48.14699
#
# Poissons Ratio (x) = 0.23404 0.51895
# Poissons Ratio (y) = 0.20403 0.36515
# Poissons Ratio (z) = 0.56231 0.45387
#
# Static dielectric constant tensor:
#      x y z
#    x 1.684180 -0.053850 -0.016590 
#    y -0.053850 1.715560 0.017070 
#    z -0.016590 0.017070 1.686620 
# 
# From -- ./inp_files/312950.got.cif
#   From: 2010.05.17/outbox.cif.g08.bks.cpg/sg2_157_cif.got.tgz:312950.got - 2010.06.03 11:33:40.
