data_PCOD9039518
_publ_section_title
;
Structure prediction by ZEFSAII (Michael W. Deem and Ramdas Pophale) SiO2 
 PCOD9039518
Probable space group: P -1
;
_chemical_formula_sum "Si O2"
_cell_formula_units_Z 13
_cell_length_a 7.861176
_cell_length_b 13.648488
_cell_length_c 5.225956
_cell_angle_alpha 80.285116
_cell_angle_beta 114.386254
_cell_angle_gamma 74.347835
_cell_volume 465.984600
_symmetry_space_group_name_H-M "P -1"
_symmetry_group_IT_number 2
_symmetry_cell_setting 'triclinic'
loop_
_space_group_symop_operation_xyz
x,y,z
-x,-y,-z
loop_
_atom_site_type_symbol
_atom_site_label
_atom_site_fract_x
_atom_site_fract_y
_atom_site_fract_z
Si Si1 0.383125 0.090265 0.180164
Si Si2 0.500000 0.500000 0.000000
Si Si3 0.517796 0.258376 0.882634
Si Si4 0.189624 0.276631 0.305465
Si Si5 0.828175 0.546092 0.163437
Si Si6 0.962965 0.942902 0.250083
Si Si7 0.174631 0.710422 0.628156
O O1 0.202304 0.174737 0.197640
O O2 0.500000 0.000000 0.500000
O O3 0.484174 0.167754 0.080536
O O4 0.268797 0.049659 0.910386
O O5 0.712144 0.480000 0.980456
O O6 0.652186 0.396102 0.325660
O O7 0.416296 0.251039 0.557490
O O8 0.377503 0.380315 0.840107
O O9 0.735066 0.258448 0.068328
O O10 0.041483 0.295100 0.443328
O O11 0.122685 0.380058 0.040998
O O12 0.000000 0.500000 0.500000
O O13 0.116313 0.819994 0.388959
O O14 0.000000 0.000000 0.500000
O O15 0.000000 0.000000 0.000000
#
# Coordination Sequence:
#
# PCOD9039518 Si02
#       7
#     2   1   2   2   2   2   2
#     4  11  25  46  72 105 151 199 252 325 393 462
#     4  10  24  44  72 104 148 196 250 322 384 468
#     4  10  23  43  66 103 139 192 246 311 380 465
#     4  11  24  45  73 105 147 197 255 319 385 472
#     4  10  23  42  68  99 143 190 247 313 388 456
#     4  12  27  48  79 116 155 209 263 331 395 478
#     4  11  24  47  75 110 151 199 261 315 396 462
#
# _framework density 27.897918000000001
#
# number of rings (size 3 to 8) (size 9 to 14) (size 15 to 20)
#    0.000    1.231    1.538    2.769    4.308    4.308 
#    5.538    3.077    0.000    0.000    0.000    0.000 
#    0.000    0.000    0.000    0.000    0.000    0.000 
#
# Total GULP energy -72588.430666 kJ/mol
# GULP energy per Si atom -5583.725436 kJ/mol
# Density = 2.783442 g / cm^3
# Si number density = 27.897918 Si / 1000 Ang^3
#
#
#
# Elastic Constant Matrix: (Units=GPa)
#
#
# Indices 1 2 3 4 5 6 
#
# 1 87.4546 25.9394 43.1996 -16.9164 15.8444 16.2431
# 2 25.9394 104.2527 66.8942 -15.8607 1.2597 6.1877
# 3 43.1996 66.8942 203.3124 -24.7615 3.7861 23.0017
# 4 -16.9164 -15.8607 -24.7615 72.9343 6.6915 3.1331
# 5 15.8444 1.2597 3.7861 6.6915 49.8891 1.0672
# 6 16.2431 6.1877 23.0017 3.1331 1.0672 33.4084
#
#
#
# Elastic Compliance Matrix: (Units=1/GPa)
#
#
# Indices 1 2 3 4 5 6 
#
# 1 0.015481 -0.001992 -0.001404 0.003420 -0.005083 -0.006349
# 2 -0.001992 0.012547 -0.003728 0.000912 0.000453 0.001112
# 3 -0.001404 -0.003728 0.007024 0.001412 -0.000105 -0.003592
# 4 0.003420 0.000912 0.001412 0.015657 -0.003227 -0.004169
# 5 -0.005083 0.000453 -0.000105 -0.003227 0.022044 0.002058
# 6 -0.006349 0.001112 -0.003592 -0.004169 0.002058 0.035612
#
#
# Mechanical properties :
#
#
# Convention : Reuss Voigt Hill
#
# Bulk Modulus (GPa) = 48.07181 74.12069 61.09625
# Shear Modulus (GPa) = 38.59577 48.51212 43.55394
#
# Velocity S-wave (km/s) = 3.72353 4.17455 3.95548
# Velocity P-wave (km/s) = 5.97955 7.06131 6.54282
#
# Compressibility (1/GPa) = 0.02080221
#
# Stress axis : x y z
#
# Youngs Moduli (GPa) = 64.59696 79.69921 142.37114
#
# Poissons Ratio (x) = 0.15877 0.19995
# Poissons Ratio (y) = 0.12868 0.53079
# Poissons Ratio (z) = 0.09072 0.29713
#
# Static dielectric constant tensor:
#      x y z
#    x 2.127200 -0.066920 -0.104410 
#    y -0.066920 2.183390 -0.246600 
#    z -0.104410 -0.246600 2.129850 
# 
# From -- ./inp_files/34866.got.cif
#   From: 2010.05.17/outbox.cif.g08.bks.cpg/sg2_18_cif.got.tgz:34866.got - 2010.06.03 11:33:40.
