data_PCOD9039305
_publ_section_title
;
Structure prediction by ZEFSAII (Michael W. Deem and Ramdas Pophale) SiO2 
 PCOD9039305
Probable space group: P -1
;
_chemical_formula_sum "Si O2"
_cell_formula_units_Z 16
_cell_length_a 14.537350
_cell_length_b 14.041441
_cell_length_c 11.768213
_cell_angle_alpha 106.419585
_cell_angle_beta 153.093650
_cell_angle_gamma 56.188985
_cell_volume 743.411401
_symmetry_space_group_name_H-M "P -1"
_symmetry_group_IT_number 2
_symmetry_cell_setting 'triclinic'
loop_
_space_group_symop_operation_xyz
x,y,z
-x,-y,-z
loop_
_atom_site_type_symbol
_atom_site_label
_atom_site_fract_x
_atom_site_fract_y
_atom_site_fract_z
Si Si1 0.978478 0.310175 0.746515
Si Si2 0.379063 0.914431 0.564235
Si Si3 0.349707 0.386571 0.571120
Si Si4 0.927341 0.103961 0.614686
Si Si5 0.180855 0.268051 0.196549
Si Si6 0.137833 0.358148 0.545438
Si Si7 0.016453 0.770055 0.811668
Si Si8 0.432098 0.916722 0.950334
O O1 0.816966 0.452440 0.552491
O O2 0.855119 0.243839 0.562268
O O3 0.323918 0.192157 0.072186
O O4 0.962281 0.334352 0.873138
O O5 0.167908 0.899319 0.366901
O O6 0.511352 0.857751 0.564972
O O7 0.202325 0.076617 0.433590
O O8 0.187755 0.373115 0.297263
O O9 0.344252 0.332474 0.667295
O O10 0.672612 0.290343 0.856484
O O11 0.762910 0.082280 0.347038
O O12 0.255269 0.985576 0.897292
O O13 0.106746 0.218048 0.197937
O O14 0.952701 0.340790 0.266576
O O15 0.000000 0.500000 0.500000
O O16 0.291671 0.240877 0.770472
O O17 0.500000 0.000000 0.000000
#
# Coordination Sequence:
#
# PCOD9039305 Si02
#       8
#     2   2   2   2   2   2   2   2
#     4  10  24  41  66  97 132 171 219 269 326 394
#     4  10  23  42  67  96 135 170 220 268 330 385
#     4  11  25  44  65  97 134 174 220 266 334 396
#     4  11  23  40  71  97 125 174 226 267 323 399
#     4   9  24  41  69  94 135 173 214 271 334 382
#     4  11  27  43  67  94 136 173 216 274 338 385
#     4  11  23  44  66  97 131 174 219 275 323 400
#     4  11  25  45  68  97 134 171 222 280 329 382
#
# _framework density 21.522404000000002
#
# number of rings (size 3 to 8) (size 9 to 14) (size 15 to 20)
#    0.750    0.750    0.000    3.750    7.000    4.500 
#    0.000    0.000    0.000    0.000    0.000    0.000 
#    0.000    0.000    0.000    0.000    0.000    0.000 
#
# Total GULP energy -89303.174320 kJ/mol
# GULP energy per Si atom -5581.448395 kJ/mol
# Density = 2.147342 g / cm^3
# Si number density = 21.522404 Si / 1000 Ang^3
#
#
#
# Elastic Constant Matrix: (Units=GPa)
#
#
# Indices 1 2 3 4 5 6 
#
# 1 101.8618 37.9039 32.3403 -3.6974 16.6699 15.3504
# 2 37.9039 125.7141 22.3990 -4.5534 3.0025 26.7775
# 3 32.3403 22.3990 57.4751 -8.1371 3.7487 20.8318
# 4 -3.6974 -4.5534 -8.1371 21.9094 10.8233 -1.2237
# 5 16.6699 3.0025 3.7487 10.8233 29.8665 -2.6562
# 6 15.3504 26.7775 20.8318 -1.2237 -2.6562 40.8681
#
#
#
# Elastic Compliance Matrix: (Units=1/GPa)
#
#
# Indices 1 2 3 4 5 6 
#
# 1 0.014285 -0.002726 -0.005385 0.004018 -0.008592 -0.001273
# 2 -0.002726 0.010033 -0.000150 0.001512 -0.000502 -0.005461
# 3 -0.005385 -0.000150 0.026501 0.010862 -0.005256 -0.011404
# 4 0.004018 0.001512 0.010862 0.063864 -0.027606 -0.007919
# 5 -0.008592 -0.000502 -0.005256 -0.027606 0.049761 0.008643
# 6 -0.001273 -0.005461 -0.011404 -0.007919 0.008643 0.034663
#
#
# Mechanical properties :
#
#
# Convention : Reuss Voigt Hill
#
# Bulk Modulus (GPa) = 29.15656 52.25973 40.70814
# Shear Modulus (GPa) = 22.02042 31.35601 26.68821
#
# Velocity S-wave (km/s) = 3.20213 3.82108 3.52521
# Velocity P-wave (km/s) = 5.21996 6.61829 5.96027
#
# Compressibility (1/GPa) = 0.03429760
#
# Stress axis : x y z
#
# Youngs Moduli (GPa) = 70.00336 99.67003 37.73379
#
# Poissons Ratio (x) = 0.27167 0.20320
# Poissons Ratio (y) = 0.19081 0.00567
# Poissons Ratio (z) = 0.37697 0.01497
#
# Static dielectric constant tensor:
#      x y z
#    x 1.810280 -0.050400 -0.012900 
#    y -0.050400 1.785920 0.018500 
#    z -0.012900 0.018500 1.778300 
# 
# From -- ./inp_files/454892.got.cif
#   From: 2010.05.17/outbox.cif.g08.bks.cpg/sg2_228_cif.got.tgz:454892.got - 2010.06.03 11:33:40.
