data_PCOD9039613
_publ_section_title
;
Structure prediction by ZEFSAII (Michael W. Deem and Ramdas Pophale) SiO2 
 PCOD9039613
Probable space group: P -1
;
_chemical_formula_sum "Si O2"
_cell_formula_units_Z 14
_cell_length_a 11.533733
_cell_length_b 7.150783
_cell_length_c 8.594505
_cell_angle_alpha 74.692059
_cell_angle_beta 102.548011
_cell_angle_gamma 132.158101
_cell_volume 506.016412
_symmetry_space_group_name_H-M "P -1"
_symmetry_group_IT_number 2
_symmetry_cell_setting 'triclinic'
loop_
_space_group_symop_operation_xyz
x,y,z
-x,-y,-z
loop_
_atom_site_type_symbol
_atom_site_label
_atom_site_fract_x
_atom_site_fract_y
_atom_site_fract_z
Si Si1 0.239798 0.687566 0.925135
Si Si2 0.436323 0.889835 0.229320
Si Si3 0.154791 0.156175 0.342522
Si Si4 0.821587 0.787555 0.157711
Si Si5 0.137300 0.730714 0.595022
Si Si6 0.694674 0.443329 0.463672
Si Si7 0.371501 0.256497 0.123125
O O1 0.199701 0.428640 0.906809
O O2 0.119790 0.687292 0.785928
O O3 0.405579 0.957362 0.856612
O O4 0.281727 0.706359 0.114194
O O5 0.435227 0.744556 0.406424
O O6 0.425011 0.103455 0.227884
O O7 0.164895 0.342234 0.425792
O O8 0.302984 0.300005 0.238463
O O9 0.168301 0.976758 0.489462
O O10 0.994418 0.981199 0.236323
O O11 0.699029 0.619195 0.300109
O O12 0.773078 0.911630 0.005430
O O13 0.269297 0.714292 0.584409
O O14 0.000000 0.500000 0.500000
O O15 0.500000 0.500000 0.000000
#
# Coordination Sequence:
#
# PCOD9039613 Si02
#       7
#     2   2   2   2   2   2   2
#     4  10  23  42  69  95 143 178 233 282 350 399
#     4  11  24  44  68 100 141 185 232 283 345 420
#     4  12  25  46  71 101 145 179 232 288 354 413
#     4  11  24  46  70 100 139 180 229 293 347 413
#     4  11  23  44  71 103 137 181 232 287 344 412
#     4  11  25  43  72 102 140 182 229 282 353 410
#     4  12  26  44  68 101 138 184 236 283 344 416
#
# _framework density 27.667086000000001
#
# number of rings (size 3 to 8) (size 9 to 14) (size 15 to 20)
#    0.000    0.857    5.714    1.714    4.000    3.429 
#    0.000    3.571    0.000    0.000    0.000    0.000 
#    0.000    0.000    0.000    0.000    0.000    0.000 
#
# Total GULP energy -78338.968109 kJ/mol
# GULP energy per Si atom -5595.640579 kJ/mol
# Density = 2.760411 g / cm^3
# Si number density = 27.667086 Si / 1000 Ang^3
#
#
#
# Elastic Constant Matrix: (Units=GPa)
#
#
# Indices 1 2 3 4 5 6 
#
# 1 70.8277 12.9718 19.8905 -8.4188 5.0960 -4.0553
# 2 12.9718 101.1484 22.3731 21.7189 -8.3861 -5.2948
# 3 19.8905 22.3731 133.7108 -4.9057 8.9096 2.6886
# 4 -8.4188 21.7189 -4.9057 65.7008 1.1761 1.8948
# 5 5.0960 -8.3861 8.9096 1.1761 52.3634 3.3280
# 6 -4.0553 -5.2948 2.6886 1.8948 3.3280 30.7535
#
#
#
# Elastic Compliance Matrix: (Units=1/GPa)
#
#
# Indices 1 2 3 4 5 6 
#
# 1 0.015556 -0.002201 -0.001773 0.002566 -0.001740 0.001858
# 2 -0.002201 0.011878 -0.002025 -0.004459 0.002438 0.001943
# 3 -0.001773 -0.002025 0.008247 0.001120 -0.001503 -0.001210
# 4 0.002566 -0.004459 0.001120 0.017174 -0.001449 -0.001429
# 5 -0.001740 0.002438 -0.001503 -0.001449 0.020057 -0.001760
# 6 0.001858 0.001943 -0.001210 -0.001429 -0.001760 0.033480
#
#
# Mechanical properties :
#
#
# Convention : Reuss Voigt Hill
#
# Bulk Modulus (GPa) = 42.22425 46.23973 44.23199
# Shear Modulus (GPa) = 39.59263 46.46029 43.02646
#
# Velocity S-wave (km/s) = 3.78701 4.10233 3.94782
# Velocity P-wave (km/s) = 5.86657 6.26003 6.06649
#
# Compressibility (1/GPa) = 0.02368307
#
# Stress axis : x y z
#
# Youngs Moduli (GPa) = 64.28217 84.18896 121.25569
#
# Poissons Ratio (x) = 0.18529 0.21500
# Poissons Ratio (y) = 0.14148 0.24557
# Poissons Ratio (z) = 0.11398 0.17050
#
# Static dielectric constant tensor:
#      x y z
#    x 2.243340 0.057870 0.037160 
#    y 0.057870 2.200200 0.043420 
#    z 0.037160 0.043420 2.198370 
# 
# From -- ./inp_files/159948.got.cif
#   From: 2010.05.17/outbox.cif.g08.bks.cpg/sg2_80_cif.got.tgz:159948.got - 2010.06.03 11:33:40.
