data_PCOD9039899
_publ_section_title
;
Structure prediction by ZEFSAII (Michael W. Deem and Ramdas Pophale) SiO2 
 PCOD9039899
Probable space group: P -1
;
_chemical_formula_sum "Si O2"
_cell_formula_units_Z 14
_cell_length_a 19.133534
_cell_length_b 7.411732
_cell_length_c 8.941508
_cell_angle_alpha 91.252878
_cell_angle_beta 50.226100
_cell_angle_gamma 51.359999
_cell_volume 542.222086
_symmetry_space_group_name_H-M "P -1"
_symmetry_group_IT_number 2
_symmetry_cell_setting 'triclinic'
loop_
_space_group_symop_operation_xyz
x,y,z
-x,-y,-z
loop_
_atom_site_type_symbol
_atom_site_label
_atom_site_fract_x
_atom_site_fract_y
_atom_site_fract_z
Si Si1 0.657605 0.692974 0.518004
Si Si2 0.795126 0.325248 0.022273
Si Si3 0.695813 0.771915 0.957905
Si Si4 0.001462 0.727644 0.903442
Si Si5 0.418285 0.643816 0.778458
Si Si6 0.103208 0.339345 0.506072
Si Si7 0.723961 0.204829 0.541075
O O1 0.671283 0.588291 0.329207
O O2 0.811186 0.572221 0.308710
O O3 0.686488 0.479022 0.588805
O O4 0.473958 0.057932 0.805799
O O5 0.819520 0.453691 0.883589
O O6 0.718743 0.283718 0.036897
O O7 0.953106 0.990592 0.885912
O O8 0.652246 0.039398 0.092019
O O9 0.773111 0.696706 0.692938
O O10 0.987596 0.587443 0.804396
O O11 0.868385 0.935553 0.218121
O O12 0.500000 0.500000 0.500000
O O13 0.559989 0.383713 0.703260
O O14 0.000000 0.500000 0.500000
O O15 0.211403 0.990771 0.399690
#
# Coordination Sequence:
#
# PCOD9039899 Si02
#       7
#     2   2   2   2   2   2   2
#     4  10  23  42  72 102 135 181 238 286 350 407
#     4  11  22  43  73 105 140 183 231 298 335 417
#     4  11  26  44  66 104 146 181 232 282 351 421
#     4  11  24  45  71 102 136 187 239 282 354 408
#     4  11  21  42  75 108 134 182 237 285 355 405
#     4  12  29  44  67 104 142 189 230 288 357 413
#     4  10  23  45  71 101 139 180 236 297 336 419
#
# _framework density 25.819680000000002
#
# number of rings (size 3 to 8) (size 9 to 14) (size 15 to 20)
#    0.000    1.143    4.286    3.429    6.000    3.429 
#    2.571    0.000    0.000    0.000    0.000    0.000 
#    0.000    0.000    0.000    0.000    0.000    0.000 
#
# Total GULP energy -78427.596546 kJ/mol
# GULP energy per Si atom -5601.971182 kJ/mol
# Density = 2.576091 g / cm^3
# Si number density = 25.819680 Si / 1000 Ang^3
#
#
#
# Elastic Constant Matrix: (Units=GPa)
#
#
# Indices 1 2 3 4 5 6 
#
# 1 112.9450 11.7412 12.2974 4.4705 -15.6819 -16.5678
# 2 11.7412 161.0568 -4.4100 -10.3297 2.7945 -3.2614
# 3 12.2974 -4.4100 57.0525 10.6601 -7.1078 -2.9713
# 4 4.4705 -10.3297 10.6601 25.5851 -2.6033 -7.1660
# 5 -15.6819 2.7945 -7.1078 -2.6033 37.5881 9.3049
# 6 -16.5678 -3.2614 -2.9713 -7.1660 9.3049 32.6026
#
#
#
# Elastic Compliance Matrix: (Units=1/GPa)
#
#
# Indices 1 2 3 4 5 6 
#
# 1 0.010121 -0.000747 -0.001672 0.000072 0.002955 0.004089
# 2 -0.000747 0.006494 0.000062 0.002968 -0.000868 0.001176
# 3 -0.001672 0.000062 0.019668 -0.008044 0.002865 -0.001637
# 4 0.000072 0.002968 -0.008044 0.046342 -0.000995 0.010070
# 5 0.002955 -0.000868 0.002865 -0.000995 0.030143 -0.007146
# 6 0.004089 0.001176 -0.001637 0.010070 -0.007146 0.036971
#
#
# Mechanical properties :
#
#
# Convention : Reuss Voigt Hill
#
# Bulk Modulus (GPa) = 31.67798 41.14571 36.41185
# Shear Modulus (GPa) = 30.30728 39.91688 35.11208
#
# Velocity S-wave (km/s) = 3.42980 3.93617 3.69168
# Velocity P-wave (km/s) = 5.28964 6.05213 5.68369
#
# Compressibility (1/GPa) = 0.03156767
#
# Stress axis : x y z
#
# Youngs Moduli (GPa) = 98.80731 153.97900 50.84506
#
# Poissons Ratio (x) = 0.11509 0.08500
# Poissons Ratio (y) = 0.07385 -0.00313
# Poissons Ratio (z) = 0.16517 -0.00948
#
# Static dielectric constant tensor:
#      x y z
#    x 2.072390 -0.002740 -0.026640 
#    y -0.002740 2.036410 -0.020670 
#    z -0.026640 -0.020670 2.031080 
# 
# From -- ./inp_files/352171.got.cif
#   From: 2010.05.17/outbox.cif.g08.bks.cpg/sg2_177_cif.got.tgz:352171.got - 2010.06.03 11:33:40.
