data_PCOD9040949
_publ_section_title
;
Structure prediction by ZEFSAII (Michael W. Deem and Ramdas Pophale) SiO2 
 PCOD9040949
Probable space group: P -1
;
_chemical_formula_sum "Si O2"
_cell_formula_units_Z 16
_cell_length_a 16.533004
_cell_length_b 11.779779
_cell_length_c 9.290984
_cell_angle_alpha 92.000110
_cell_angle_beta 135.273435
_cell_angle_gamma 124.317034
_cell_volume 696.614246
_symmetry_space_group_name_H-M "P -1"
_symmetry_group_IT_number 2
_symmetry_cell_setting 'triclinic'
loop_
_space_group_symop_operation_xyz
x,y,z
-x,-y,-z
loop_
_atom_site_type_symbol
_atom_site_label
_atom_site_fract_x
_atom_site_fract_y
_atom_site_fract_z
Si Si1 0.192600 0.200924 0.351828
Si Si2 0.269196 0.930070 0.822723
Si Si3 0.304923 0.508805 0.335951
Si Si4 0.268783 0.678007 0.526409
Si Si5 0.012852 0.123742 0.427953
Si Si6 0.827464 0.505585 0.294332
Si Si7 0.452308 0.207295 0.608232
Si Si8 0.135812 0.809001 0.332360
O O1 0.319078 0.406211 0.441449
O O2 0.089807 0.158375 0.367749
O O3 0.348197 0.223866 0.567387
O O4 0.000000 0.000000 0.000000
O O5 0.254400 0.943063 0.634741
O O6 0.495988 0.075815 0.159059
O O7 0.208590 0.992191 0.840170
O O8 0.074194 0.683860 0.588965
O O9 0.262505 0.577160 0.393665
O O10 0.489220 0.694104 0.468442
O O11 0.090611 0.321003 0.964179
O O12 0.233146 0.589779 0.630789
O O13 0.117603 0.658405 0.307019
O O14 0.165829 0.349984 0.690154
O O15 0.000000 0.000000 0.500000
O O16 0.662561 0.336120 0.956640
O O17 0.273779 0.963520 0.378326
#
# Coordination Sequence:
#
# PCOD9040949 Si02
#       8
#     2   2   2   2   2   2   2   2
#     4  12  26  44  71  99 142 179 225 288 345 414
#     4  10  23  44  68 103 138 171 235 284 335 403
#     4  12  26  49  67 104 142 182 230 282 350 414
#     4  12  26  44  74 101 137 187 232 287 340 403
#     4  10  23  43  69  99 138 174 223 289 335 400
#     4  10  24  44  67 102 133 180 228 282 341 406
#     4  12  26  43  73 100 137 188 228 276 357 409
#     4  12  25  46  71 103 142 179 235 288 336 408
#
# _framework density 22.968236000000001
#
# number of rings (size 3 to 8) (size 9 to 14) (size 15 to 20)
#    0.750    0.000    5.000    1.875    3.500    4.500 
#    0.000    0.000    0.000    0.000    0.000    0.000 
#    0.000    0.000    0.000    0.000    0.000    0.000 
#
# Total GULP energy -89459.851173 kJ/mol
# GULP energy per Si atom -5591.240698 kJ/mol
# Density = 2.291596 g / cm^3
# Si number density = 22.968236 Si / 1000 Ang^3
#
#
#
# Elastic Constant Matrix: (Units=GPa)
#
#
# Indices 1 2 3 4 5 6 
#
# 1 72.8418 30.2344 -12.5266 -7.9886 -8.4757 16.3550
# 2 30.2344 149.3616 -8.6058 -0.5540 -0.6590 13.4303
# 3 -12.5266 -8.6058 50.2229 4.5032 7.5451 4.3087
# 4 -7.9886 -0.5540 4.5032 24.5549 -0.3599 6.5661
# 5 -8.4757 -0.6590 7.5451 -0.3599 30.0692 -2.3044
# 6 16.3550 13.4303 4.3087 6.5661 -2.3044 40.7400
#
#
#
# Elastic Compliance Matrix: (Units=1/GPa)
#
#
# Indices 1 2 3 4 5 6 
#
# 1 0.018531 -0.002791 0.003588 0.007473 0.003747 -0.007891
# 2 -0.002791 0.007430 0.000889 -0.000546 -0.000960 -0.001389
# 3 0.003588 0.000889 0.022207 -0.001872 -0.004875 -0.004056
# 4 0.007473 -0.000546 -0.001872 0.046177 0.002356 -0.009931
# 5 0.003747 -0.000960 -0.004875 0.002356 0.035617 0.000963
# 6 -0.007891 -0.001389 -0.004056 -0.009931 0.000963 0.030256
#
#
# Mechanical properties :
#
#
# Convention : Reuss Voigt Hill
#
# Bulk Modulus (GPa) = 19.40190 32.29226 25.84708
# Shear Modulus (GPa) = 28.73153 36.62776 32.67964
#
# Velocity S-wave (km/s) = 3.54068 3.99772 3.77612
# Velocity P-wave (km/s) = 5.01805 5.94971 5.50363
#
# Compressibility (1/GPa) = 0.05154134
#
# Stress axis : x y z
#
# Youngs Moduli (GPa) = 53.96363 134.58998 45.03142
#
# Poissons Ratio (x) = 0.37559 -0.16157
# Poissons Ratio (y) = 0.15059 -0.04005
# Poissons Ratio (z) = -0.19362 -0.11972
#
# Static dielectric constant tensor:
#      x y z
#    x 1.852300 0.001180 0.010340 
#    y 0.001180 1.870410 0.018530 
#    z 0.010340 0.018530 1.869600 
# 
# From -- ./inp_files/333312.got.cif
#   From: 2010.05.17/outbox.cif.g08.bks.cpg/sg2_167_cif.got.tgz:333312.got - 2010.06.03 11:33:40.
