data_PCOD9040500
_publ_section_title
;
Structure prediction by ZEFSAII (Michael W. Deem and Ramdas Pophale) SiO2 
 PCOD9040500
Probable space group: P -1
;
_chemical_formula_sum "Si O2"
_cell_formula_units_Z 14
_cell_length_a 5.248633
_cell_length_b 18.220199
_cell_length_c 9.885902
_cell_angle_alpha 43.520129
_cell_angle_beta 104.261416
_cell_angle_gamma 104.828529
_cell_volume 626.702609
_symmetry_space_group_name_H-M "P -1"
_symmetry_group_IT_number 2
_symmetry_cell_setting 'triclinic'
loop_
_space_group_symop_operation_xyz
x,y,z
-x,-y,-z
loop_
_atom_site_type_symbol
_atom_site_label
_atom_site_fract_x
_atom_site_fract_y
_atom_site_fract_z
Si Si1 0.923867 0.287266 0.602048
Si Si2 0.697566 0.462441 0.965965
Si Si3 0.532871 0.581784 0.518711
Si Si4 0.097161 0.887916 0.704662
Si Si5 0.241197 0.765143 0.651232
Si Si6 0.468145 0.987470 0.265298
Si Si7 0.056199 0.917375 0.953610
O O1 0.726885 0.364549 0.540387
O O2 0.882130 0.280716 0.444125
O O3 0.867474 0.169210 0.815648
O O4 0.230575 0.327501 0.611587
O O5 0.635548 0.517104 0.744748
O O6 0.500000 0.500000 0.000000
O O7 0.643704 0.333459 0.130313
O O8 0.000000 0.500000 0.000000
O O9 0.500000 0.500000 0.500000
O O10 0.050290 0.807140 0.683336
O O11 0.409101 0.922785 0.730158
O O12 0.992333 0.855906 0.882707
O O13 0.000000 0.000000 0.500000
O O14 0.422180 0.872401 0.483900
O O15 0.196774 0.023184 0.126544
O O16 0.697041 0.996426 0.170696
#
# Coordination Sequence:
#
# PCOD9040500 Si02
#       7
#     2   2   2   2   2   2   2
#     4  12  27  47  71 106 137 191 238 289 369 421
#     4  12  26  50  71 108 140 181 245 307 359 420
#     4  12  27  52  72 102 142 186 245 307 353 430
#     4  10  23  44  67 104 144 184 239 281 347 431
#     4  12  24  43  76 100 147 187 229 301 360 406
#     4  10  23  43  67 105 142 185 233 281 344 434
#     4  10  24  43  66  97 148 175 242 272 344 436
#
# _framework density 22.339144999999998
#
# number of rings (size 3 to 8) (size 9 to 14) (size 15 to 20)
#    0.857    0.000    4.286    1.714    2.000    5.714 
#    0.000    0.000    0.000    0.000    0.000    0.000 
#    0.000    0.000    0.000    0.000    0.000    0.000 
#
# Total GULP energy -78232.513820 kJ/mol
# GULP energy per Si atom -5588.036701 kJ/mol
# Density = 2.228830 g / cm^3
# Si number density = 22.339145 Si / 1000 Ang^3
#
#
#
# Elastic Constant Matrix: (Units=GPa)
#
#
# Indices 1 2 3 4 5 6 
#
# 1 115.1982 25.4236 13.6422 2.9823 6.4225 -12.3094
# 2 25.4236 103.4418 9.3361 12.3136 -2.1518 -32.3651
# 3 13.6422 9.3361 125.1271 -10.6283 5.0387 -11.9599
# 4 2.9823 12.3136 -10.6283 40.4192 -3.4273 -0.0334
# 5 6.4225 -2.1518 5.0387 -3.4273 29.7931 -9.4946
# 6 -12.3094 -32.3651 -11.9599 -0.0334 -9.4946 33.8006
#
#
#
# Elastic Compliance Matrix: (Units=1/GPa)
#
#
# Indices 1 2 3 4 5 6 
#
# 1 0.009406 -0.002008 -0.000771 -0.000443 -0.001869 0.000705
# 2 -0.002008 0.015854 -0.000020 -0.004142 0.006267 0.016199
# 3 -0.000771 -0.000020 0.008535 0.002296 -0.000161 0.002677
# 4 -0.000443 -0.004142 0.002296 0.026771 0.001581 -0.002845
# 5 -0.001869 0.006267 -0.000161 0.001581 0.039877 0.016467
# 6 0.000705 0.016199 0.002677 -0.002845 0.016467 0.050923
#
#
# Mechanical properties :
#
#
# Convention : Reuss Voigt Hill
#
# Bulk Modulus (GPa) = 35.46301 48.95232 42.20767
# Shear Modulus (GPa) = 30.05479 40.49358 35.27419
#
# Velocity S-wave (km/s) = 3.67193 4.26217 3.97801
# Velocity P-wave (km/s) = 5.82123 6.79575 6.32728
#
# Compressibility (1/GPa) = 0.02819839
#
# Stress axis : x y z
#
# Youngs Moduli (GPa) = 106.31461 63.07360 117.16788
#
# Poissons Ratio (x) = 0.12664 0.09030
# Poissons Ratio (y) = 0.21346 0.00233
# Poissons Ratio (z) = 0.08194 0.00126
#
# Static dielectric constant tensor:
#      x y z
#    x 1.831710 0.022270 0.012500 
#    y 0.022270 1.876420 0.046850 
#    z 0.012500 0.046850 1.820920 
# 
# From -- ./inp_files/137241.got.cif
#   From: 2010.05.17/outbox.cif.g08.bks.cpg/sg2_69_cif.got.tgz:137241.got - 2010.06.03 11:33:40.
