data_PCOD9040401
_publ_section_title
;
Structure prediction by ZEFSAII (Michael W. Deem and Ramdas Pophale) SiO2 
 PCOD9040401
Probable space group: P -1
;
_chemical_formula_sum "Si O2"
_cell_formula_units_Z 15
_cell_length_a 10.087057
_cell_length_b 23.247182
_cell_length_c 19.839746
_cell_angle_alpha 162.871588
_cell_angle_beta 141.693704
_cell_angle_gamma 48.918383
_cell_volume 731.488917
_symmetry_space_group_name_H-M "P -1"
_symmetry_group_IT_number 2
_symmetry_cell_setting 'triclinic'
loop_
_space_group_symop_operation_xyz
x,y,z
-x,-y,-z
loop_
_atom_site_type_symbol
_atom_site_label
_atom_site_fract_x
_atom_site_fract_y
_atom_site_fract_z
Si Si1 0.100613 0.344270 0.392920
Si Si2 0.949081 0.358278 0.752806
Si Si3 0.049648 0.081746 0.765617
Si Si4 0.107186 0.144093 0.305605
Si Si5 0.409061 0.539743 0.348409
Si Si6 0.690945 0.910615 0.983684
Si Si7 0.436218 0.647871 0.190174
Si Si8 0.500000 0.000000 0.500000
O O1 0.060251 0.289142 0.394184
O O2 0.391585 0.467621 0.629332
O O3 0.000000 0.500000 0.500000
O O4 0.966321 0.097837 0.027348
O O5 0.695569 0.319666 0.575165
O O6 0.157877 0.501376 0.940785
O O7 0.964812 0.134185 0.519042
O O8 0.000000 0.500000 0.000000
O O9 0.187858 0.299612 0.016370
O O10 0.224929 0.117540 0.940647
O O11 0.782679 0.033807 0.631362
O O12 0.388290 0.280542 0.594674
O O13 0.937017 0.089322 0.241695
O O14 0.563208 0.677445 0.629748
O O15 0.500000 0.000000 0.000000
O O16 0.488823 0.867192 0.415568
O O17 0.500000 0.500000 0.000000
#
# Coordination Sequence:
#
# PCOD9040401 Si02
#       8
#     2   2   2   2   2   2   2   1
#     4  10  24  44  67  97 130 177 220 276 341 408
#     4  12  26  45  68  97 140 188 227 278 346 410
#     4  12  25  46  70 102 139 176 232 290 340 411
#     4  10  23  43  66  95 132 171 224 273 333 412
#     4  11  25  43  67 102 133 173 229 280 348 404
#     4  11  22  42  72  98 132 174 215 287 348 398
#     4  12  24  45  69  98 137 181 229 285 340 407
#     4  12  24  44  72 104 134 180 236 286 346 404
#
# _framework density 20.506122000000001
#
# number of rings (size 3 to 8) (size 9 to 14) (size 15 to 20)
#    0.000    0.800    5.333    1.200    1.867    3.733 
#    2.400    0.000    0.000    0.000    0.000    0.000 
#    0.000    0.000    0.000    0.000    0.000    0.000 
#
# Total GULP energy -83567.933838 kJ/mol
# GULP energy per Si atom -5571.195589 kJ/mol
# Density = 2.045945 g / cm^3
# Si number density = 20.506122 Si / 1000 Ang^3
#
#
#
# Elastic Constant Matrix: (Units=GPa)
#
#
# Indices 1 2 3 4 5 6 
#
# 1 63.9012 6.5241 14.6603 5.7449 6.2818 -10.3079
# 2 6.5241 119.5352 17.3225 3.2190 -5.3588 -10.1064
# 3 14.6603 17.3225 52.8039 5.6550 3.9978 -2.9639
# 4 5.7449 3.2190 5.6550 32.0900 8.8811 9.4407
# 5 6.2818 -5.3588 3.9978 8.8811 25.5514 -13.2789
# 6 -10.3079 -10.1064 -2.9639 9.4407 -13.2789 38.7389
#
#
#
# Elastic Compliance Matrix: (Units=1/GPa)
#
#
# Indices 1 2 3 4 5 6 
#
# 1 0.017875 0.000321 -0.004328 -0.004498 0.001005 0.005950
# 2 0.000321 0.009682 -0.003026 -0.004051 0.006793 0.005695
# 3 -0.004328 -0.003026 0.021477 -0.001690 -0.002779 -0.000839
# 4 -0.004498 -0.004051 -0.001690 0.047440 -0.028247 -0.023627
# 5 0.001005 0.006793 -0.002779 -0.028247 0.067036 0.031690
# 6 0.005950 0.005695 -0.000839 -0.023627 0.031690 0.045439
#
#
# Mechanical properties :
#
#
# Convention : Reuss Voigt Hill
#
# Bulk Modulus (GPa) = 28.59901 34.80603 31.70252
# Shear Modulus (GPa) = 21.30637 32.45828 26.88232
#
# Velocity S-wave (km/s) = 3.22689 3.98283 3.62462
# Velocity P-wave (km/s) = 5.27831 6.17745 5.74550
#
# Compressibility (1/GPa) = 0.03496625
#
# Stress axis : x y z
#
# Youngs Moduli (GPa) = 55.94492 103.28540 46.56193
#
# Poissons Ratio (x) = -0.03314 0.20154
# Poissons Ratio (y) = -0.01795 0.14090
# Poissons Ratio (z) = 0.24215 0.31255
#
# Static dielectric constant tensor:
#      x y z
#    x 1.724360 -0.014950 -0.009220 
#    y -0.014950 1.695350 -0.003210 
#    z -0.009220 -0.003210 1.759280 
# 
# From -- ./inp_files/390017.got.cif
#   From: 2010.05.17/outbox.cif.g08.bks.cpg/sg2_196_cif.got.tgz:390017.got - 2010.06.03 11:33:40.
