data_PCOD9040453
_publ_section_title
;
Structure prediction by ZEFSAII (Michael W. Deem and Ramdas Pophale) SiO2 
 PCOD9040453
Probable space group: P -1
;
_chemical_formula_sum "Si O2"
_cell_formula_units_Z 12
_cell_length_a 4.963669
_cell_length_b 14.256064
_cell_length_c 8.202281
_cell_angle_alpha 79.648435
_cell_angle_beta 66.533568
_cell_angle_gamma 109.148029
_cell_volume 469.599859
_symmetry_space_group_name_H-M "P -1"
_symmetry_group_IT_number 2
_symmetry_cell_setting 'triclinic'
loop_
_space_group_symop_operation_xyz
x,y,z
-x,-y,-z
loop_
_atom_site_type_symbol
_atom_site_label
_atom_site_fract_x
_atom_site_fract_y
_atom_site_fract_z
Si Si1 0.200587 0.193910 0.454960
Si Si2 0.578335 0.401995 0.483526
Si Si3 0.542334 0.737657 0.125421
Si Si4 0.280752 0.070636 0.784095
Si Si5 0.202618 0.526649 0.105425
Si Si6 0.773897 0.142526 0.260477
O O1 0.353740 0.316619 0.431482
O O2 0.156156 0.122033 0.651248
O O3 0.905888 0.164981 0.408268
O O4 0.484550 0.175938 0.298241
O O5 0.500000 0.500000 0.500000
O O6 0.491111 0.335871 0.689740
O O7 0.957604 0.450336 0.325174
O O8 0.474931 0.832338 0.189787
O O9 0.309043 0.649627 0.084311
O O10 0.906888 0.791172 0.946716
O O11 0.364435 0.980981 0.714039
O O12 0.000000 0.000000 0.000000
O O13 0.500000 0.500000 0.000000
O O14 0.000000 0.500000 0.000000
#
# Coordination Sequence:
#
# PCOD9040453 Si02
#       6
#     2   2   2   2   2   2
#     4  11  24  44  70 100 136 179 227 280 339 407
#     4  11  25  45  70 102 140 184 231 285 344 409
#     4  10  23  43  67 100 137 179 227 281 341 408
#     4   9  21  43  69 100 136 176 224 280 342 405
#     4  12  25  44  67  96 133 178 225 277 334 400
#     4  11  23  45  69 100 135 178 226 281 341 407
#
# _framework density 25.553671000000001
#
# number of rings (size 3 to 8) (size 9 to 14) (size 15 to 20)
#    0.000    1.333    0.000    4.500    0.000    5.333 
#    0.000   23.333    0.000    0.000    0.000    0.000 
#    0.000    0.000    0.000    0.000    0.000    0.000 
#
# Total GULP energy -67271.588985 kJ/mol
# GULP energy per Si atom -5605.965749 kJ/mol
# Density = 2.549551 g / cm^3
# Si number density = 25.553671 Si / 1000 Ang^3
#
#
#
# Elastic Constant Matrix: (Units=GPa)
#
#
# Indices 1 2 3 4 5 6 
#
# 1 85.8040 41.8984 7.4473 0.3570 -7.0461 3.1752
# 2 41.8984 251.6137 35.9946 6.4518 5.4284 29.4245
# 3 7.4473 35.9946 159.8075 -21.8769 -21.3374 0.0033
# 4 0.3570 6.4518 -21.8769 49.2212 6.9642 -0.3681
# 5 -7.0461 5.4284 -21.3374 6.9642 27.2354 0.7379
# 6 3.1752 29.4245 0.0033 -0.3681 0.7379 42.1729
#
#
#
# Elastic Compliance Matrix: (Units=1/GPa)
#
#
# Indices 1 2 3 4 5 6 
#
# 1 0.013121 -0.002414 0.000481 -0.000166 0.004278 0.000620
# 2 -0.002414 0.005055 -0.001489 -0.000984 -0.002457 -0.003310
# 3 0.000481 -0.001489 0.007721 0.002820 0.005724 0.000926
# 4 -0.000166 -0.000984 0.002820 0.022179 -0.003334 0.000951
# 5 0.004278 -0.002457 0.005724 -0.003334 0.043634 0.000599
# 6 0.000620 -0.003310 0.000926 0.000951 0.000599 0.025973
#
#
# Mechanical properties :
#
#
# Convention : Reuss Voigt Hill
#
# Bulk Modulus (GPa) = 52.48821 74.21176 63.34998
# Shear Modulus (GPa) = 38.20402 51.18489 44.69445
#
# Velocity S-wave (km/s) = 3.87078 4.48038 4.18669
# Velocity P-wave (km/s) = 6.36885 7.47460 6.94377
#
# Compressibility (1/GPa) = 0.01905190
#
# Stress axis : x y z
#
# Youngs Moduli (GPa) = 76.21590 197.83626 129.52189
#
# Poissons Ratio (x) = 0.47761 -0.06228
# Poissons Ratio (y) = 0.18400 0.19282
# Poissons Ratio (z) = -0.03665 0.29451
#
# Static dielectric constant tensor:
#      x y z
#    x 1.987730 0.046290 0.008300 
#    y 0.046290 2.003460 0.040100 
#    z 0.008300 0.040100 2.060980 
# 
# From -- ./inp_files/131404.got.cif
#   From: 2010.05.17/outbox.cif.g08.bks.cpg/sg2_66_cif.got.tgz:131404.got - 2010.06.03 11:33:40.
