data_PCOD9040051
_publ_section_title
;
Structure prediction by ZEFSAII (Michael W. Deem and Ramdas Pophale) SiO2 
 PCOD9040051
Probable space group: P -1
;
_chemical_formula_sum "Si O2"
_cell_formula_units_Z 15
_cell_length_a 9.412079
_cell_length_b 17.560289
_cell_length_c 9.157384
_cell_angle_alpha 53.848755
_cell_angle_beta 98.863976
_cell_angle_gamma 54.800444
_cell_volume 661.793429
_symmetry_space_group_name_H-M "P -1"
_symmetry_group_IT_number 2
_symmetry_cell_setting 'triclinic'
loop_
_space_group_symop_operation_xyz
x,y,z
-x,-y,-z
loop_
_atom_site_type_symbol
_atom_site_label
_atom_site_fract_x
_atom_site_fract_y
_atom_site_fract_z
Si Si1 0.074739 0.185118 0.970471
Si Si2 0.331011 0.943366 0.017953
Si Si3 0.500000 0.000000 0.500000
Si Si4 0.888311 0.852411 0.535609
Si Si5 0.825874 0.145841 0.082266
Si Si6 0.945472 0.625210 0.436983
Si Si7 0.099117 0.539167 0.894071
Si Si8 0.315796 0.771333 0.716816
O O1 0.850408 0.241969 0.939525
O O2 0.283825 0.106149 0.211423
O O3 0.971603 0.330200 0.696478
O O4 0.222988 0.033209 0.054604
O O5 0.274284 0.866511 0.049214
O O6 0.184596 0.086024 0.711097
O O7 0.633991 0.801442 0.213334
O O8 0.646125 0.008134 0.425432
O O9 0.922805 0.722342 0.717308
O O10 0.155152 0.761287 0.708166
O O11 0.657705 0.218494 0.119231
O O12 0.114505 0.950729 0.398780
O O13 0.000000 0.500000 0.500000
O O14 0.063744 0.556577 0.694929
O O15 0.407323 0.385837 0.140839
O O16 0.000000 0.500000 0.000000
#
# Coordination Sequence:
#
# PCOD9040051 Si02
#       8
#     2   2   1   2   2   2   2   2
#     4  12  24  44  71 105 136 182 238 283 354 418
#     4  11  23  46  71 101 141 180 235 291 354 415
#     4  12  24  38  78 102 130 180 246 280 346 422
#     4  11  23  45  71  99 139 187 228 294 345 420
#     4  10  23  42  76 103 136 185 230 295 345 425
#     4  12  27  45  66 101 144 184 231 298 351 413
#     4  12  28  43  68  99 141 188 235 287 347 415
#     4  10  23  43  67 106 141 177 234 287 350 412
#
# _framework density 22.665682
#
# number of rings (size 3 to 8) (size 9 to 14) (size 15 to 20)
#    0.000    0.800    4.000    2.800    5.600    0.000 
#    0.000    2.667    0.000    0.000    0.000    0.000 
#    0.000    0.000    0.000    0.000    0.000    0.000 
#
# Total GULP energy -83693.068180 kJ/mol
# GULP energy per Si atom -5579.537879 kJ/mol
# Density = 2.261409 g / cm^3
# Si number density = 22.665682 Si / 1000 Ang^3
#
#
#
# Elastic Constant Matrix: (Units=GPa)
#
#
# Indices 1 2 3 4 5 6 
#
# 1 167.4930 -1.7444 44.5828 4.2190 -21.3712 -0.5323
# 2 -1.7444 29.5904 16.6130 22.7857 -1.7734 1.5399
# 3 44.5828 16.6130 63.0723 19.1379 -12.9986 2.9900
# 4 4.2190 22.7857 19.1379 31.9294 -0.6476 -3.8977
# 5 -21.3712 -1.7734 -12.9986 -0.6476 41.6049 1.9665
# 6 -0.5323 1.5399 2.9900 -3.8977 1.9665 33.1791
#
#
#
# Elastic Compliance Matrix: (Units=1/GPa)
#
#
# Indices 1 2 3 4 5 6 
#
# 1 0.007976 0.004352 -0.006214 -0.000350 0.002321 0.000307
# 2 0.004352 0.081529 -0.006383 -0.056075 0.003313 -0.009922
# 3 -0.006214 -0.006383 0.026362 -0.010783 0.004781 -0.003729
# 4 -0.000350 -0.056075 -0.010783 0.079349 -0.005328 0.013206
# 5 0.002321 0.003313 0.004781 -0.005328 0.026911 -0.002768
# 6 0.000307 -0.009922 -0.003729 0.013206 -0.002768 0.032656
#
#
# Mechanical properties :
#
#
# Convention : Reuss Voigt Hill
#
# Bulk Modulus (GPa) = 10.06263 42.11761 26.09012
# Shear Modulus (GPa) = 16.42582 34.72298 25.57440
#
# Velocity S-wave (km/s) = 2.69495 3.91828 3.36271
# Velocity P-wave (km/s) = 3.75937 6.25244 5.15877
#
# Compressibility (1/GPa) = 0.09937765
#
# Stress axis : x y z
#
# Youngs Moduli (GPa) = 125.38222 12.26552 37.93306
#
# Poissons Ratio (x) = -0.05337 0.23570
# Poissons Ratio (y) = -0.54561 0.24211
# Poissons Ratio (z) = 0.77909 0.07829
#
# Static dielectric constant tensor:
#      x y z
#    x 1.870100 -0.038800 0.015390 
#    y -0.038800 1.872050 -0.023000 
#    z 0.015390 -0.023000 1.850900 
# 
# From -- ./inp_files/216750.got.cif
#   From: 2010.05.17/outbox.cif.g08.bks.cpg/sg2_109_cif.got.tgz:216750.got - 2010.06.03 11:33:40.
