data_PCOD9040289
_publ_section_title
;
Structure prediction by ZEFSAII (Michael W. Deem and Ramdas Pophale) SiO2 
 PCOD9040289
Probable space group: P -1
;
_chemical_formula_sum "Si O2"
_cell_formula_units_Z 16
_cell_length_a 7.662868
_cell_length_b 15.091727
_cell_length_c 9.811755
_cell_angle_alpha 114.857297
_cell_angle_beta 134.440733
_cell_angle_gamma 94.426369
_cell_volume 602.210321
_symmetry_space_group_name_H-M "P -1"
_symmetry_group_IT_number 2
_symmetry_cell_setting 'triclinic'
loop_
_space_group_symop_operation_xyz
x,y,z
-x,-y,-z
loop_
_atom_site_type_symbol
_atom_site_label
_atom_site_fract_x
_atom_site_fract_y
_atom_site_fract_z
Si Si1 0.224619 0.983184 0.255939
Si Si2 0.929943 0.768822 0.741265
Si Si3 0.346409 0.830108 0.600356
Si Si4 0.842329 0.452141 0.027059
Si Si5 0.555968 0.359930 0.400818
Si Si6 0.303212 0.377857 0.002962
Si Si7 0.984409 0.081811 0.376896
Si Si8 0.422943 0.741445 0.063179
O O1 0.387702 0.094524 0.312926
O O2 0.992940 0.983704 0.231485
O O3 0.500000 0.000000 0.500000
O O4 0.071731 0.868281 0.003149
O O5 0.615033 0.666280 0.565757
O O6 0.921399 0.819421 0.624999
O O7 0.170308 0.738488 0.842725
O O8 0.418800 0.751428 0.679258
O O9 0.036486 0.729920 0.291252
O O10 0.284638 0.920814 0.698973
O O11 0.635288 0.500029 0.939319
O O12 0.109046 0.525115 0.328860
O O13 0.698321 0.315027 0.889907
O O14 0.000000 0.500000 0.000000
O O15 0.371154 0.375028 0.196275
O O16 0.509146 0.347006 0.021070
O O17 0.259495 0.132883 0.665948
#
# Coordination Sequence:
#
# PCOD9040289 Si02
#       8
#     2   2   2   2   2   2   2   2
#     4  12  24  44  67  95 133 174 216 266 324 383
#     4  12  24  41  67  95 130 172 218 266 320 384
#     4  10  24  44  66  96 134 171 215 267 322 381
#     4  11  24  40  67  95 127 170 215 264 327 386
#     4  11  23  42  67  96 131 168 217 268 317 388
#     4  10  23  43  65  95 129 169 213 269 322 385
#     4  11  24  44  66  95 133 171 216 271 319 381
#     4  11  24  43  64  95 130 169 215 267 325 383
#
# _framework density 26.568788999999999
#
# number of rings (size 3 to 8) (size 9 to 14) (size 15 to 20)
#    0.000    1.000    2.500    3.750    1.750    4.500 
#    2.250    0.000    0.000    0.000    0.000    0.000 
#    0.000    0.000    0.000    0.000    0.000    0.000 
#
# Total GULP energy -89677.865493 kJ/mol
# GULP energy per Si atom -5604.866593 kJ/mol
# Density = 2.650832 g / cm^3
# Si number density = 26.568789 Si / 1000 Ang^3
#
#
#
# Elastic Constant Matrix: (Units=GPa)
#
#
# Indices 1 2 3 4 5 6 
#
# 1 111.8855 5.9966 3.3881 -2.8909 2.3076 -25.4124
# 2 5.9966 83.0784 30.1606 -18.4148 6.9046 -18.5801
# 3 3.3881 30.1606 96.0525 -11.5162 17.7411 -2.9597
# 4 -2.8909 -18.4148 -11.5162 40.0375 -1.4260 3.2499
# 5 2.3076 6.9046 17.7411 -1.4260 30.7529 -7.7059
# 6 -25.4124 -18.5801 -2.9597 3.2499 -7.7059 49.2038
#
#
#
# Elastic Compliance Matrix: (Units=1/GPa)
#
#
# Indices 1 2 3 4 5 6 
#
# 1 0.010182 0.000748 -0.000506 0.000507 0.000787 0.005601
# 2 0.000748 0.016101 -0.004314 0.005759 0.000567 0.005916
# 3 -0.000506 -0.004314 0.013235 0.001721 -0.007132 -0.002325
# 4 0.000507 0.005759 0.001721 0.028081 -0.000885 0.000547
# 5 0.000787 0.000567 -0.007132 -0.000885 0.037956 0.006194
# 6 0.005601 0.005916 -0.002325 0.000547 0.006194 0.026244
#
#
# Mechanical properties :
#
#
# Convention : Reuss Voigt Hill
#
# Bulk Modulus (GPa) = 31.87285 41.12302 36.49794
# Shear Modulus (GPa) = 33.24427 40.76359 37.00393
#
# Velocity S-wave (km/s) = 3.54114 3.92122 3.73602
# Velocity P-wave (km/s) = 5.36115 6.00107 5.69012
#
# Compressibility (1/GPa) = 0.03137466
#
# Stress axis : x y z
#
# Youngs Moduli (GPa) = 98.21406 62.10661 75.55494
#
# Poissons Ratio (x) = -0.04648 0.03824
# Poissons Ratio (y) = -0.07350 0.32596
# Poissons Ratio (z) = 0.04970 0.26794
#
# Static dielectric constant tensor:
#      x y z
#    x 2.179560 -0.012180 -0.030690 
#    y -0.012180 2.091860 0.012270 
#    z -0.030690 0.012270 2.045420 
# 
# From -- ./inp_files/397703.got.cif
#   From: 2010.05.17/outbox.cif.g08.bks.cpg/sg2_199_cif.got.tgz:397703.got - 2010.06.03 11:33:40.
