data_PCOD9040294
_publ_section_title
;
Structure prediction by ZEFSAII (Michael W. Deem and Ramdas Pophale) SiO2 
 PCOD9040294
Probable space group: P -1
;
_chemical_formula_sum "Si O2"
_cell_formula_units_Z 16
_cell_length_a 16.184701
_cell_length_b 12.868868
_cell_length_c 10.256363
_cell_angle_alpha 43.339652
_cell_angle_beta 137.145794
_cell_angle_gamma 147.935208
_cell_volume 737.292985
_symmetry_space_group_name_H-M "P -1"
_symmetry_group_IT_number 2
_symmetry_cell_setting 'triclinic'
loop_
_space_group_symop_operation_xyz
x,y,z
-x,-y,-z
loop_
_atom_site_type_symbol
_atom_site_label
_atom_site_fract_x
_atom_site_fract_y
_atom_site_fract_z
Si Si1 0.650889 0.151720 0.434021
Si Si2 0.987409 0.582709 0.776404
Si Si3 0.760450 0.596437 0.872983
Si Si4 0.643596 0.160321 0.119626
Si Si5 0.681013 0.526815 0.120010
Si Si6 0.311320 0.226866 0.897502
Si Si7 0.875484 0.214388 0.828110
Si Si8 0.168460 0.235989 0.478372
O O1 0.601207 0.080544 0.292264
O O2 0.724622 0.385422 0.305321
O O3 0.794321 0.161520 0.641376
O O4 0.500000 0.000000 0.500000
O O5 0.175602 0.755493 0.784651
O O6 0.882881 0.387996 0.737802
O O7 0.889680 0.651416 0.635421
O O8 0.000000 0.500000 0.000000
O O9 0.767217 0.693196 0.658945
O O10 0.661426 0.357738 0.956178
O O11 0.704478 0.624180 0.917113
O O12 0.941982 0.693325 0.033313
O O13 0.500000 0.000000 0.000000
O O14 0.762910 0.699078 0.167728
O O15 0.483947 0.349264 0.056841
O O16 0.300610 0.273952 0.694197
O O17 0.225838 0.993145 0.018247
O O18 0.000000 0.000000 0.500000
#
# Coordination Sequence:
#
# PCOD9040294 Si02
#       8
#     2   2   2   2   2   2   2   2
#     4  11  23  40  69  96 129 173 216 269 331 381
#     4  11  22  41  68  95 131 171 215 277 320 381
#     4  10  23  43  65  95 132 164 220 272 316 387
#     4  10  24  41  66 101 131 165 219 272 329 386
#     4  10  24  44  62  94 130 169 214 274 324 384
#     4  11  23  42  66  91 131 173 215 261 326 392
#     4  11  22  42  68  94 128 170 220 269 321 387
#     4  12  23  42  67  97 127 177 213 261 329 381
#
# _framework density 21.701006
#
# number of rings (size 3 to 8) (size 9 to 14) (size 15 to 20)
#    0.000    1.250    5.000    0.750    1.750    9.500 
#    2.250    0.000    0.000    0.000    0.000    0.000 
#    0.000    0.000    0.000    0.000    0.000    0.000 
#
# Total GULP energy -89299.860616 kJ/mol
# GULP energy per Si atom -5581.241288 kJ/mol
# Density = 2.165161 g / cm^3
# Si number density = 21.701006 Si / 1000 Ang^3
#
#
#
# Elastic Constant Matrix: (Units=GPa)
#
#
# Indices 1 2 3 4 5 6 
#
# 1 39.1449 9.2664 14.6124 -3.8175 -25.3621 1.1846
# 2 9.2664 80.7112 40.0063 10.6004 -15.2580 4.6032
# 3 14.6124 40.0063 141.2779 14.6132 -27.2307 2.7122
# 4 -3.8175 10.6004 14.6132 31.5158 -3.6119 -6.9173
# 5 -25.3621 -15.2580 -27.2307 -3.6119 45.7989 -4.2788
# 6 1.1846 4.6032 2.7122 -6.9173 -4.2788 9.9806
#
#
#
# Elastic Compliance Matrix: (Units=1/GPa)
#
#
# Indices 1 2 3 4 5 6 
#
# 1 0.043629 -0.002521 -0.000509 0.012788 0.025514 0.015924
# 2 -0.002521 0.015804 -0.003276 -0.006303 0.000465 -0.010269
# 3 -0.000509 -0.003276 0.009112 -0.003089 0.003663 -0.001476
# 4 0.012788 -0.006303 -0.003089 0.046592 0.010464 0.039007
# 5 0.025514 0.000465 0.003663 0.010464 0.041047 0.020612
# 6 0.015924 -0.010269 -0.001476 0.039007 0.020612 0.139312
#
#
# Mechanical properties :
#
#
# Convention : Reuss Voigt Hill
#
# Bulk Modulus (GPa) = 17.87854 43.21158 30.54506
# Shear Modulus (GPa) = 15.30202 30.60899 22.95550
#
# Velocity S-wave (km/s) = 2.65831 3.75972 3.25592
# Velocity P-wave (km/s) = 4.20459 6.22919 5.31420
#
# Compressibility (1/GPa) = 0.05593297
#
# Stress axis : x y z
#
# Youngs Moduli (GPa) = 22.92064 63.27328 109.73938
#
# Poissons Ratio (x) = 0.15951 0.05590
# Poissons Ratio (y) = 0.05778 0.35950
# Poissons Ratio (z) = 0.01168 0.20728
#
# Static dielectric constant tensor:
#      x y z
#    x 2.070200 -0.027850 0.086550 
#    y -0.027850 1.820290 -0.004880 
#    z 0.086550 -0.004880 1.823820 
# 
# From -- ./inp_files/332964.got.cif
#   From: 2010.05.17/outbox.cif.g08.bks.cpg/sg2_167_cif.got.tgz:332964.got - 2010.06.03 11:33:40.
