data_PCOD9040069
_publ_section_title
;
Structure prediction by ZEFSAII (Michael W. Deem and Ramdas Pophale) SiO2 
 PCOD9040069
Probable space group: P -1
;
_chemical_formula_sum "Si O2"
_cell_formula_units_Z 16
_cell_length_a 16.193017
_cell_length_b 12.733298
_cell_length_c 15.335907
_cell_angle_alpha 28.287214
_cell_angle_beta 55.789982
_cell_angle_gamma 37.275988
_cell_volume 794.956224
_symmetry_space_group_name_H-M "P -1"
_symmetry_group_IT_number 2
_symmetry_cell_setting 'triclinic'
loop_
_space_group_symop_operation_xyz
x,y,z
-x,-y,-z
loop_
_atom_site_type_symbol
_atom_site_label
_atom_site_fract_x
_atom_site_fract_y
_atom_site_fract_z
Si Si1 0.091209 0.171436 0.125600
Si Si2 0.674915 0.718381 0.517351
Si Si3 0.700394 0.582611 0.790717
Si Si4 0.783969 0.557411 0.956462
Si Si5 0.334563 0.841982 0.894376
Si Si6 0.663585 0.213908 0.864799
Si Si7 0.681710 0.229795 0.568200
Si Si8 0.599763 0.633087 0.164858
O O1 0.185202 0.133728 0.020562
O O2 0.224410 0.846717 0.346898
O O3 0.000000 0.500000 0.000000
O O4 0.964688 0.225662 0.118511
O O5 0.744075 0.623629 0.643328
O O6 0.687497 0.439417 0.687244
O O7 0.487963 0.078449 0.355886
O O8 0.738790 0.811404 0.354289
O O9 0.749450 0.578689 0.859636
O O10 0.756602 0.232504 0.008284
O O11 0.741697 0.884637 0.760266
O O12 0.683787 0.580421 0.066811
O O13 0.500000 0.500000 0.000000
O O14 0.356650 0.831673 0.991494
O O15 0.513327 0.378312 0.784275
O O16 0.500000 0.500000 0.500000
O O17 0.705736 0.355900 0.381697
O O18 0.500000 0.000000 0.000000
#
# Coordination Sequence:
#
# PCOD9040069 Si02
#       8
#     2   2   2   2   2   2   2   2
#     4  10  23  43  59  85 132 167 202 253 314 368
#     4   9  18  34  58  90 117 152 201 258 295 365
#     4   9  18  32  56  86 120 152 196 250 314 357
#     4  11  23  39  60  89 126 164 200 257 317 369
#     4   9  18  34  56  90 124 148 196 260 308 359
#     4  11  21  36  62  88 117 165 206 249 307 363
#     4  11  21  40  62  88 120 162 213 260 301 364
#     4  12  22  35  61  92 117 155 211 261 301 361
#
# _framework density 20.126894
#
# number of rings (size 3 to 8) (size 9 to 14) (size 15 to 20)
#    0.000    1.750    2.500    3.750    0.000    2.500 
#    0.000    5.000    0.000    1.500    0.000    0.000 
#    0.000    0.000    0.000    0.000    0.000    0.000 
#
# Total GULP energy -89126.464949 kJ/mol
# GULP energy per Si atom -5570.404059 kJ/mol
# Density = 2.008108 g / cm^3
# Si number density = 20.126894 Si / 1000 Ang^3
#
#
#
# Elastic Constant Matrix: (Units=GPa)
#
#
# Indices 1 2 3 4 5 6 
#
# 1 105.4662 40.0307 47.7773 22.0705 36.7411 19.5987
# 2 40.0307 89.6740 40.3629 24.7076 20.2817 17.3370
# 3 47.7773 40.3629 105.0856 32.7298 3.2696 6.7788
# 4 22.0705 24.7076 32.7298 26.9809 0.0596 11.4821
# 5 36.7411 20.2817 3.2696 0.0596 30.5234 7.1032
# 6 19.5987 17.3370 6.7788 11.4821 7.1032 28.3500
#
#
#
# Elastic Compliance Matrix: (Units=1/GPa)
#
#
# Indices 1 2 3 4 5 6 
#
# 1 0.026965 0.003749 -0.008252 -0.013090 -0.032772 -0.005448
# 2 0.003749 0.019707 -0.003937 -0.014752 -0.016309 -0.003641
# 3 -0.008252 -0.003937 0.019010 -0.016086 0.008705 0.007901
# 4 -0.013090 -0.014752 -0.016086 0.090440 0.032419 -0.022835
# 5 -0.032772 -0.016309 0.008705 0.032419 0.082827 -0.003335
# 6 -0.005448 -0.003641 0.007901 -0.022835 -0.003335 0.049461
#
#
# Mechanical properties :
#
#
# Convention : Reuss Voigt Hill
#
# Bulk Modulus (GPa) = 20.49064 61.84085 41.16574
# Shear Modulus (GPa) = 15.54932 28.64118 22.09525
#
# Velocity S-wave (km/s) = 2.78252 3.77640 3.31690
# Velocity P-wave (km/s) = 4.53057 7.05742 5.93014
#
# Compressibility (1/GPa) = 0.04880278
#
# Stress axis : x y z
#
# Youngs Moduli (GPa) = 37.08468 50.74254 52.60512
#
# Poissons Ratio (x) = -0.19022 0.43408
# Poissons Ratio (y) = -0.13902 0.20710
# Poissons Ratio (z) = 0.30601 0.19976
#
# Static dielectric constant tensor:
#      x y z
#    x 1.741300 -0.020560 -0.000570 
#    y -0.020560 1.718950 -0.011360 
#    z -0.000570 -0.011360 1.745690 
# 
# From -- ./inp_files/532270.got.cif
#   From: 2010.05.17/outbox.cif.g08.bks.cpg/sg2_267_cif.got.tgz:532270.got - 2010.06.03 11:33:40.
