data_PCOD9040730
_publ_section_title
;
Structure prediction by ZEFSAII (Michael W. Deem and Ramdas Pophale) SiO2 
 PCOD9040730
Probable space group: P -1
;
_chemical_formula_sum "Si O2"
_cell_formula_units_Z 16
_cell_length_a 17.902552
_cell_length_b 8.374192
_cell_length_c 17.681671
_cell_angle_alpha 131.612007
_cell_angle_beta 156.534592
_cell_angle_gamma 49.105537
_cell_volume 779.915884
_symmetry_space_group_name_H-M "P -1"
_symmetry_group_IT_number 2
_symmetry_cell_setting 'triclinic'
loop_
_space_group_symop_operation_xyz
x,y,z
-x,-y,-z
loop_
_atom_site_type_symbol
_atom_site_label
_atom_site_fract_x
_atom_site_fract_y
_atom_site_fract_z
Si Si1 0.966886 0.772104 0.361940
Si Si2 0.605848 0.016467 0.523597
Si Si3 0.695010 0.863091 0.838219
Si Si4 0.532810 0.306227 0.892528
Si Si5 0.193107 0.417621 0.698133
Si Si6 0.744932 0.629592 0.971776
Si Si7 0.046107 0.797797 0.035095
Si Si8 0.628150 0.516617 0.349001
O O1 0.175743 0.636251 0.500374
O O2 0.863415 0.658554 0.296589
O O3 0.837434 0.767397 0.165016
O O4 0.000000 0.000000 0.500000
O O5 0.657854 0.765141 0.469055
O O6 0.500000 0.000000 0.500000
O O7 0.477812 0.149283 0.382790
O O8 0.777541 0.144748 0.736341
O O9 0.659399 0.118159 0.904319
O O10 0.704867 0.748906 0.892122
O O11 0.878661 0.786287 0.934545
O O12 0.348135 0.241658 0.743563
O O13 0.437012 0.483485 0.799089
O O14 0.679913 0.393862 0.112304
O O15 0.000000 0.500000 0.500000
O O16 0.895751 0.416161 0.027214
O O17 0.549797 0.551626 0.793016
O O18 0.000000 0.000000 0.000000
#
# Coordination Sequence:
#
# PCOD9040730 Si02
#       8
#     2   2   2   2   2   2   2   2
#     4  12  29  44  69 100 137 182 228 281 348 398
#     4  11  22  43  72 103 129 176 232 270 333 404
#     4  11  27  41  68 103 140 178 218 278 341 404
#     4  10  23  43  68  96 129 175 229 282 333 392
#     4  11  23  42  69  96 127 173 236 282 326 394
#     4  12  27  46  65 100 147 176 221 280 347 404
#     4  12  23  44  75  99 136 182 224 275 333 410
#     4  11  23  45  68  96 134 181 222 278 333 405
#
# _framework density 20.515032000000001
#
# number of rings (size 3 to 8) (size 9 to 14) (size 15 to 20)
#    0.000    0.750    5.000    1.875    5.250    2.000 
#    0.000    0.000    0.000    0.000    0.000    0.000 
#    0.000    0.000    0.000    0.000    0.000    0.000 
#
# Total GULP energy -89336.792236 kJ/mol
# GULP energy per Si atom -5583.549515 kJ/mol
# Density = 2.046834 g / cm^3
# Si number density = 20.515032 Si / 1000 Ang^3
#
#
#
# Elastic Constant Matrix: (Units=GPa)
#
#
# Indices 1 2 3 4 5 6 
#
# 1 128.5826 19.0935 44.7806 -11.6760 -4.7726 6.3494
# 2 19.0935 55.2513 26.0335 -3.7923 -6.9345 -7.5830
# 3 44.7806 26.0335 126.2643 -1.5892 -13.4778 -5.5516
# 4 -11.6760 -3.7923 -1.5892 26.3208 -3.3881 -7.1776
# 5 -4.7726 -6.9345 -13.4778 -3.3881 44.3147 -13.9088
# 6 6.3494 -7.5830 -5.5516 -7.1776 -13.9088 36.0787
#
#
#
# Elastic Compliance Matrix: (Units=1/GPa)
#
#
# Indices 1 2 3 4 5 6 
#
# 1 0.009515 -0.002017 -0.003094 0.003042 -0.000702 -0.002240
# 2 -0.002017 0.022168 -0.002924 0.004816 0.005079 0.007481
# 3 -0.003094 -0.002924 0.010067 -0.000060 0.003102 0.002663
# 4 0.003042 0.004816 -0.000060 0.044544 0.008415 0.012573
# 5 -0.000702 0.005079 0.003102 0.008415 0.029489 0.014711
# 6 -0.002240 0.007481 0.002663 0.012573 0.014711 0.038266
#
#
# Mechanical properties :
#
#
# Convention : Reuss Voigt Hill
#
# Bulk Modulus (GPa) = 38.93861 54.43483 46.68672
# Shear Modulus (GPa) = 27.98293 36.02223 32.00258
#
# Velocity S-wave (km/s) = 3.69727 4.19489 3.95391
# Velocity P-wave (km/s) = 6.10313 7.07492 6.60691
#
# Compressibility (1/GPa) = 0.02568145
#
# Stress axis : x y z
#
# Youngs Moduli (GPa) = 105.09858 45.10909 99.33001
#
# Poissons Ratio (x) = 0.09099 0.30731
# Poissons Ratio (y) = 0.21200 0.29041
# Poissons Ratio (z) = 0.32515 0.13189
#
# Static dielectric constant tensor:
#      x y z
#    x 1.779540 -0.030300 -0.015330 
#    y -0.030300 1.768380 -0.014500 
#    z -0.015330 -0.014500 1.787650 
# 
# From -- ./inp_files/528995.got.cif
#   From: 2010.05.17/outbox.cif.g08.bks.cpg/sg2_265_cif.got.tgz:528995.got - 2010.06.03 11:33:40.
