data_PCOD9040157
_publ_section_title
;
Structure prediction by ZEFSAII (Michael W. Deem and Ramdas Pophale) SiO2 
 PCOD9040157
Probable space group: P -1
;
_chemical_formula_sum "Si O2"
_cell_formula_units_Z 15
_cell_length_a 21.925801
_cell_length_b 8.706639
_cell_length_c 5.413055
_cell_angle_alpha 126.120704
_cell_angle_beta 110.041160
_cell_angle_gamma 46.920225
_cell_volume 606.527141
_symmetry_space_group_name_H-M "P -1"
_symmetry_group_IT_number 2
_symmetry_cell_setting 'triclinic'
loop_
_space_group_symop_operation_xyz
x,y,z
-x,-y,-z
loop_
_atom_site_type_symbol
_atom_site_label
_atom_site_fract_x
_atom_site_fract_y
_atom_site_fract_z
Si Si1 0.406350 0.754355 0.601039
Si Si2 0.553592 0.941330 0.274684
Si Si3 0.158021 0.570370 0.536498
Si Si4 0.000000 0.000000 0.000000
Si Si5 0.269384 0.026006 0.038327
Si Si6 0.830530 0.110733 0.482418
Si Si7 0.998118 0.279256 0.816450
Si Si8 0.693251 0.371817 0.907390
O O1 0.500000 0.500000 0.500000
O O2 0.349793 0.952338 0.927154
O O3 0.354074 0.660796 0.399513
O O4 0.415139 0.900610 0.547892
O O5 0.500000 0.000000 0.500000
O O6 0.635070 0.658067 0.141486
O O7 0.500000 0.000000 0.000000
O O8 0.195608 0.690985 0.579081
O O9 0.092338 0.724167 0.810008
O O10 0.093004 0.620951 0.283941
O O11 0.225140 0.276338 0.368351
O O12 0.974632 0.870873 0.036758
O O13 0.198472 0.047067 0.792636
O O14 0.301683 0.794533 0.032428
O O15 0.782372 0.251533 0.797280
O O16 0.932097 0.930450 0.482819
O O17 0.000000 0.500000 0.000000
#
# Coordination Sequence:
#
# PCOD9040157 Si02
#       8
#     2   2   2   1   2   2   2   2
#     4  11  24  46  72 101 141 180 240 293 370 440
#     4  12  27  46  77 108 145 194 243 308 372 445
#     4  11  24  45  67  99 142 181 242 296 364 434
#     4  10  24  38  68 100 128 186 234 292 366 424
#     4  11  25  41  69 102 138 189 229 297 366 443
#     4  10  23  43  64 100 140 179 235 297 358 437
#     4  11  23  44  70  97 140 183 240 302 360 442
#     4  11  26  44  71 104 141 182 238 301 364 446
#
# _framework density 24.730961000000001
#
# number of rings (size 3 to 8) (size 9 to 14) (size 15 to 20)
#    0.000    1.067    2.667    3.200    5.600    6.933 
#    0.000    0.000    0.000    0.000    0.000    0.000 
#    0.000    0.000    0.000    0.000    0.000    0.000 
#
# Total GULP energy -83637.635273 kJ/mol
# GULP energy per Si atom -5575.842352 kJ/mol
# Density = 2.467467 g / cm^3
# Si number density = 24.730961 Si / 1000 Ang^3
#
#
#
# Elastic Constant Matrix: (Units=GPa)
#
#
# Indices 1 2 3 4 5 6 
#
# 1 136.2749 49.2648 47.3407 22.8820 -28.8916 19.0614
# 2 49.2648 137.8870 45.3501 40.3217 -18.7850 11.1854
# 3 47.3407 45.3501 87.8421 30.1442 -28.4514 10.9329
# 4 22.8820 40.3217 30.1442 56.0481 1.6791 3.9447
# 5 -28.8916 -18.7850 -28.4514 1.6791 52.9566 -4.7380
# 6 19.0614 11.1854 10.9329 3.9447 -4.7380 46.4235
#
#
#
# Elastic Compliance Matrix: (Units=1/GPa)
#
#
# Indices 1 2 3 4 5 6 
#
# 1 0.010208 -0.001664 -0.002760 -0.001396 0.003300 -0.002685
# 2 -0.001664 0.010487 -0.001742 -0.005937 0.002000 -0.000725
# 3 -0.002760 -0.001742 0.019557 -0.008289 0.008514 -0.001479
# 4 -0.001396 -0.005937 -0.008289 0.027328 -0.008115 0.000805
# 5 0.003300 0.002000 0.008514 -0.008115 0.026182 -0.000480
# 6 -0.002685 -0.000725 -0.001479 0.000805 -0.000480 0.023049
#
#
# Mechanical properties :
#
#
# Convention : Reuss Voigt Hill
#
# Bulk Modulus (GPa) = 35.81676 71.76836 53.79256
# Shear Modulus (GPa) = 36.11408 45.75555 40.93481
#
# Velocity S-wave (km/s) = 3.82550 4.30598 4.07283
# Velocity P-wave (km/s) = 5.83324 7.33516 6.62689
#
# Compressibility (1/GPa) = 0.02791989
#
# Stress axis : x y z
#
# Youngs Moduli (GPa) = 97.96124 95.35458 51.13156
#
# Poissons Ratio (x) = 0.15864 0.14115
# Poissons Ratio (y) = 0.16298 0.08908
# Poissons Ratio (z) = 0.27042 0.16613
#
# Static dielectric constant tensor:
#      x y z
#    x 1.949920 -0.094700 -0.009380 
#    y -0.094700 1.986830 -0.042510 
#    z -0.009380 -0.042510 2.006980 
# 
# From -- ./inp_files/117412.got.cif
#   From: 2010.05.17/outbox.cif.g08.bks.cpg/sg2_59_cif.got.tgz:117412.got - 2010.06.03 11:33:40.
