data_PCOD9040957
_publ_section_title
;
Structure prediction by ZEFSAII (Michael W. Deem and Ramdas Pophale) SiO2 
 PCOD9040957
Probable space group: P -1
;
_chemical_formula_sum "Si O2"
_cell_formula_units_Z 12
_cell_length_a 9.025725
_cell_length_b 8.498200
_cell_length_c 8.523349
_cell_angle_alpha 130.062382
_cell_angle_beta 84.822997
_cell_angle_gamma 112.430415
_cell_volume 451.208962
_symmetry_space_group_name_H-M "P -1"
_symmetry_group_IT_number 2
_symmetry_cell_setting 'triclinic'
loop_
_space_group_symop_operation_xyz
x,y,z
-x,-y,-z
loop_
_atom_site_type_symbol
_atom_site_label
_atom_site_fract_x
_atom_site_fract_y
_atom_site_fract_z
Si Si1 0.868067 0.588382 0.637421
Si Si2 0.396921 0.916586 0.617579
Si Si3 0.279501 0.829988 0.064368
Si Si4 0.843604 0.906933 0.563864
Si Si5 0.249715 0.124270 0.989815
Si Si6 0.579392 0.508473 0.169118
O O1 0.713236 0.350899 0.538732
O O2 0.855494 0.750532 0.604386
O O3 0.872295 0.754771 0.892307
O O4 0.000000 0.500000 0.500000
O O5 0.500000 0.000000 0.500000
O O6 0.534489 0.999955 0.794619
O O7 0.277557 0.037497 0.760874
O O8 0.169693 0.868653 0.230837
O O9 0.226587 0.909935 0.961990
O O10 0.283314 0.588869 0.912044
O O11 0.671557 0.743893 0.396408
O O12 0.000000 0.000000 0.500000
O O13 0.423867 0.324262 0.156391
O O14 0.500000 0.500000 0.000000
#
# Coordination Sequence:
#
# PCOD9040957 Si02
#       6
#     2   2   2   2   2   2
#     4  11  26  45  70 102 150 195 243 304 378 439
#     4  11  24  40  75 105 140 185 247 307 364 439
#     4  10  23  43  69  99 143 184 244 305 368 431
#     4  11  26  44  69 102 151 195 241 302 375 441
#     4  10  23  44  69 103 139 188 244 309 364 436
#     4  11  24  40  70 105 138 183 244 303 359 435
#
# _framework density 26.595216000000001
#
# number of rings (size 3 to 8) (size 9 to 14) (size 15 to 20)
#    0.000    1.333    0.000    5.000   11.667    4.000 
#    0.000    1.667    0.000    0.000    0.000    0.000 
#    0.000    0.000    0.000    0.000    0.000    0.000 
#
# Total GULP energy -67089.382311 kJ/mol
# GULP energy per Si atom -5590.781859 kJ/mol
# Density = 2.653468 g / cm^3
# Si number density = 26.595216 Si / 1000 Ang^3
#
#
#
# Elastic Constant Matrix: (Units=GPa)
#
#
# Indices 1 2 3 4 5 6 
#
# 1 116.3900 38.5684 48.1365 -5.4272 -44.5656 0.7552
# 2 38.5684 116.8637 34.7303 3.7036 -15.6024 12.9764
# 3 48.1365 34.7303 141.0474 12.0764 -56.6569 -2.4731
# 4 -5.4272 3.7036 12.0764 36.9500 0.5401 -7.5022
# 5 -44.5656 -15.6024 -56.6569 0.5401 64.4053 13.2691
# 6 0.7552 12.9764 -2.4731 -7.5022 13.2691 49.6671
#
#
#
# Elastic Compliance Matrix: (Units=1/GPa)
#
#
# Indices 1 2 3 4 5 6 
#
# 1 0.012991 -0.002942 -0.000755 0.002081 0.007852 -0.001250
# 2 -0.002942 0.010324 -0.001590 -0.001526 -0.000328 -0.002875
# 3 -0.000755 -0.001590 0.012287 -0.004617 0.010444 -0.002449
# 4 0.002081 -0.001526 -0.004617 0.030295 -0.004462 0.005905
# 5 0.007852 -0.000328 0.010444 -0.004462 0.031900 -0.008710
# 6 -0.001250 -0.002875 -0.002449 0.005905 -0.008710 0.024001
#
#
# Mechanical properties :
#
#
# Convention : Reuss Voigt Hill
#
# Bulk Modulus (GPa) = 39.95435 68.57459 54.26447
# Shear Modulus (GPa) = 35.53317 47.06221 41.29769
#
# Velocity S-wave (km/s) = 3.65920 4.21119 3.94486
# Velocity P-wave (km/s) = 5.73661 7.03463 6.41852
#
# Compressibility (1/GPa) = 0.02502856
#
# Stress axis : x y z
#
# Youngs Moduli (GPa) = 76.97869 96.86136 81.38982
#
# Poissons Ratio (x) = 0.28494 0.06146
# Poissons Ratio (y) = 0.22645 0.12937
# Poissons Ratio (z) = 0.05813 0.15396
#
# Static dielectric constant tensor:
#      x y z
#    x 2.158680 0.000660 -0.047210 
#    y 0.000660 2.118630 -0.007590 
#    z -0.047210 -0.007590 2.145680 
# 
# From -- ./inp_files/160325.got.cif
#   From: 2010.05.17/outbox.cif.g08.bks.cpg/sg2_81_cif.got.tgz:160325.got - 2010.06.03 11:33:40.
