data_PCOD9040046
_publ_section_title
;
Structure prediction by ZEFSAII (Michael W. Deem and Ramdas Pophale) SiO2 
 PCOD9040046
Probable space group: P -1
;
_chemical_formula_sum "Si O2"
_cell_formula_units_Z 14
_cell_length_a 5.205826
_cell_length_b 13.881825
_cell_length_c 18.559663
_cell_angle_alpha 149.914404
_cell_angle_beta 70.296727
_cell_angle_gamma 116.554930
_cell_volume 597.722718
_symmetry_space_group_name_H-M "P -1"
_symmetry_group_IT_number 2
_symmetry_cell_setting 'triclinic'
loop_
_space_group_symop_operation_xyz
x,y,z
-x,-y,-z
loop_
_atom_site_type_symbol
_atom_site_label
_atom_site_fract_x
_atom_site_fract_y
_atom_site_fract_z
Si Si1 0.368509 0.448360 0.098731
Si Si2 0.214635 0.119439 0.423632
Si Si3 0.362271 0.797580 0.430395
Si Si4 0.768427 0.842699 0.829259
Si Si5 0.892399 0.684816 0.110093
Si Si6 0.333496 0.555572 0.486587
Si Si7 0.590918 0.924726 0.060083
O O1 0.280346 0.586404 0.256108
O O2 0.588410 0.620743 0.139567
O O3 0.150551 0.316803 0.973048
O O4 0.485897 0.285577 0.023899
O O5 0.375973 0.175902 0.521314
O O6 0.476879 0.223300 0.412174
O O7 0.933178 0.193356 0.498505
O O8 0.500000 0.000000 0.500000
O O9 0.093866 0.886955 0.259614
O O10 0.650023 0.601300 0.678111
O O11 0.633842 0.957422 0.857854
O O12 0.682694 0.886512 0.945586
O O13 0.111600 0.923129 0.837885
O O14 0.000000 0.500000 0.000000
O O15 0.500000 0.500000 0.500000
O O16 0.000000 0.500000 0.500000
#
# Coordination Sequence:
#
# PCOD9040046 Si02
#       7
#     2   2   2   2   2   2   2
#     4  11  26  44  74 110 148 200 245 308 374 450
#     4  12  28  49  77 108 151 196 250 311 368 450
#     4  12  25  48  77 110 147 197 253 302 370 442
#     4  10  23  45  65 108 135 182 246 299 353 434
#     4  11  27  46  70 110 155 194 248 303 379 457
#     4  12  27  47  74 104 146 194 244 299 371 438
#     4  10  23  42  75  97 141 183 238 303 362 422
#
# _framework density 23.422232000000001
#
# number of rings (size 3 to 8) (size 9 to 14) (size 15 to 20)
#    0.000    0.857    1.429    3.857    8.000    4.571 
#    0.000    0.000    0.000    0.000    0.000    0.000 
#    0.000    0.000    0.000    0.000    0.000    0.000 
#
# Total GULP energy -78250.878674 kJ/mol
# GULP energy per Si atom -5589.348477 kJ/mol
# Density = 2.336892 g / cm^3
# Si number density = 23.422232 Si / 1000 Ang^3
#
#
#
# Elastic Constant Matrix: (Units=GPa)
#
#
# Indices 1 2 3 4 5 6 
#
# 1 143.4847 28.2483 35.4485 -2.8168 5.8870 -1.9099
# 2 28.2483 96.9845 12.5281 9.9367 13.4029 0.4316
# 3 35.4485 12.5281 135.8022 4.8466 9.0113 0.4037
# 4 -2.8168 9.9367 4.8466 23.8555 -1.1725 4.9802
# 5 5.8870 13.4029 9.0113 -1.1725 24.8860 -0.1828
# 6 -1.9099 0.4316 0.4037 4.9802 -0.1828 46.0620
#
#
#
# Elastic Compliance Matrix: (Units=1/GPa)
#
#
# Indices 1 2 3 4 5 6 
#
# 1 0.007949 -0.002323 -0.001955 0.002287 0.000188 0.000122
# 2 -0.002323 0.012472 0.000095 -0.005890 -0.006476 0.000397
# 3 -0.001955 0.000095 0.008113 -0.002060 -0.002623 0.000059
# 4 0.002287 -0.005890 -0.002060 0.046339 0.005525 -0.004820
# 5 0.000188 -0.006476 -0.002623 0.005525 0.044835 -0.000328
# 6 0.000122 0.000397 0.000059 -0.004820 -0.000328 0.022231
#
#
# Mechanical properties :
#
#
# Convention : Reuss Voigt Hill
#
# Bulk Modulus (GPa) = 49.58858 58.74682 54.16770
# Shear Modulus (GPa) = 31.84174 38.96377 35.40276
#
# Velocity S-wave (km/s) = 3.69109 4.08307 3.89202
# Velocity P-wave (km/s) = 6.27560 6.88221 6.58589
#
# Compressibility (1/GPa) = 0.02016594
#
# Stress axis : x y z
#
# Youngs Moduli (GPa) = 125.80815 80.17868 123.26533
#
# Poissons Ratio (x) = 0.18629 0.24097
# Poissons Ratio (y) = 0.29231 -0.01167
# Poissons Ratio (z) = 0.24595 -0.00759
#
# Static dielectric constant tensor:
#      x y z
#    x 1.858730 0.009750 0.004930 
#    y 0.009750 1.908490 -0.000130 
#    z 0.004930 -0.000130 1.957540 
# 
# From -- ./inp_files/481807.got.cif
#   From: 2010.05.17/outbox.cif.g08.bks.cpg/sg2_241_cif.got.tgz:481807.got - 2010.06.03 11:33:40.
