data_PCOD9040402
_publ_section_title
;
Structure prediction by ZEFSAII (Michael W. Deem and Ramdas Pophale) SiO2 
 PCOD9040402
Probable space group: P -1
;
_chemical_formula_sum "Si O2"
_cell_formula_units_Z 16
_cell_length_a 11.330368
_cell_length_b 17.235836
_cell_length_c 10.802622
_cell_angle_alpha 28.183092
_cell_angle_beta 119.038248
_cell_angle_gamma 135.552293
_cell_volume 628.242375
_symmetry_space_group_name_H-M "P -1"
_symmetry_group_IT_number 2
_symmetry_cell_setting 'triclinic'
loop_
_space_group_symop_operation_xyz
x,y,z
-x,-y,-z
loop_
_atom_site_type_symbol
_atom_site_label
_atom_site_fract_x
_atom_site_fract_y
_atom_site_fract_z
Si Si1 0.396312 0.586366 0.195777
Si Si2 0.216439 0.217694 0.840130
Si Si3 0.643576 0.572756 0.865577
Si Si4 0.710966 0.143514 0.947845
Si Si5 0.897667 0.601523 0.313464
Si Si6 0.285362 0.820875 0.676732
Si Si7 0.163998 0.556968 0.763552
Si Si8 0.811577 0.032370 0.374944
O O1 0.298956 0.409929 0.507324
O O2 0.621371 0.785478 0.060273
O O3 0.389212 0.458777 0.252548
O O4 0.286559 0.662059 0.994611
O O5 0.193300 0.302126 0.837259
O O6 0.000000 0.000000 0.000000
O O7 0.805954 0.839703 0.604333
O O8 0.500000 0.500000 0.000000
O O9 0.668423 0.404136 0.147621
O O10 0.824711 0.411824 0.647776
O O11 0.876808 0.191667 0.883435
O O12 0.675207 0.005642 0.245085
O O13 0.500000 0.000000 0.000000
O O14 0.817672 0.439948 0.378491
O O15 0.159008 0.699471 0.658726
O O16 0.237125 0.950831 0.536532
O O17 0.500000 0.000000 0.500000
O O18 0.995623 0.291268 0.076938
#
# Coordination Sequence:
#
# PCOD9040402 Si02
#       8
#     2   2   2   2   2   2   2   2
#     4  10  25  47  66 102 140 175 230 284 337 407
#     4  11  25  44  72  97 134 180 227 285 339 400
#     4  11  23  42  70  97 132 176 223 275 338 406
#     4  10  24  39  69  95 134 173 217 277 332 397
#     4  10  23  44  64 102 128 172 229 267 334 408
#     4  11  24  44  65  97 134 177 218 276 346 400
#     4  10  23  43  66  95 134 166 220 276 328 407
#     4  11  23  41  67  97 127 175 219 272 338 395
#
# _framework density 25.467877999999999
#
# number of rings (size 3 to 8) (size 9 to 14) (size 15 to 20)
#    0.000    1.500    0.000    3.750    8.750    2.000 
#   15.750    0.000    0.000    0.000    0.000    0.000 
#    0.000    0.000    0.000    0.000    0.000    0.000 
#
# Total GULP energy -89131.496358 kJ/mol
# GULP energy per Si atom -5570.718522 kJ/mol
# Density = 2.540991 g / cm^3
# Si number density = 25.467878 Si / 1000 Ang^3
#
#
#
# Elastic Constant Matrix: (Units=GPa)
#
#
# Indices 1 2 3 4 5 6 
#
# 1 72.4371 41.7966 8.5865 -2.3525 -10.4435 -1.8255
# 2 41.7966 116.4128 28.3406 -9.4644 -2.9901 -15.0939
# 3 8.5865 28.3406 77.6064 -14.0107 -17.4709 -2.0669
# 4 -2.3525 -9.4644 -14.0107 35.9162 0.1684 -11.7896
# 5 -10.4435 -2.9901 -17.4709 0.1684 37.1120 -6.6150
# 6 -1.8255 -15.0939 -2.0669 -11.7896 -6.6150 28.6317
#
#
#
# Elastic Compliance Matrix: (Units=1/GPa)
#
#
# Indices 1 2 3 4 5 6 
#
# 1 0.018387 -0.007095 0.001550 -0.000586 0.005063 -0.001527
# 2 -0.007095 0.013285 -0.003332 0.004311 -0.001119 0.007827
# 3 0.001550 -0.003332 0.017518 0.007616 0.009250 0.004880
# 4 -0.000586 0.004311 0.007616 0.038549 0.007216 0.020326
# 5 0.005063 -0.001119 0.009250 0.007216 0.034629 0.011372
# 6 -0.001527 0.007827 0.004880 0.020326 0.011372 0.050304
#
#
# Mechanical properties :
#
#
# Convention : Reuss Voigt Hill
#
# Bulk Modulus (GPa) = 31.80945 47.10040 39.45493
# Shear Modulus (GPa) = 24.88737 32.84750 28.86743
#
# Velocity S-wave (km/s) = 3.12942 3.59522 3.37038
# Velocity P-wave (km/s) = 5.05716 5.98066 5.53819
#
# Compressibility (1/GPa) = 0.03143720
#
# Stress axis : x y z
#
# Youngs Moduli (GPa) = 54.38497 75.27230 57.08441
#
# Poissons Ratio (x) = 0.53403 -0.08847
# Poissons Ratio (y) = 0.38584 0.19019
# Poissons Ratio (z) = -0.08428 0.25078
#
# Static dielectric constant tensor:
#      x y z
#    x 2.217470 -0.096160 0.082660 
#    y -0.096160 2.694040 0.152050 
#    z 0.082660 0.152050 2.313150 
# 
# From -- ./inp_files/436389.got.cif
#   From: 2010.05.17/outbox.cif.g08.bks.cpg/sg2_219_cif.got.tgz:436389.got - 2010.06.03 11:33:40.
