data_PCOD9040142
_publ_section_title
;
Structure prediction by ZEFSAII (Michael W. Deem and Ramdas Pophale) SiO2 
 PCOD9040142
Probable space group: P -1
;
_chemical_formula_sum "Si O2"
_cell_formula_units_Z 12
_cell_length_a 10.904054
_cell_length_b 9.082459
_cell_length_c 12.612449
_cell_angle_alpha 53.586016
_cell_angle_beta 146.164382
_cell_angle_gamma 106.556766
_cell_volume 495.676975
_symmetry_space_group_name_H-M "P -1"
_symmetry_group_IT_number 2
_symmetry_cell_setting 'triclinic'
loop_
_space_group_symop_operation_xyz
x,y,z
-x,-y,-z
loop_
_atom_site_type_symbol
_atom_site_label
_atom_site_fract_x
_atom_site_fract_y
_atom_site_fract_z
Si Si1 0.408891 0.389418 0.567603
Si Si2 0.084388 0.533867 0.930523
Si Si3 0.811083 0.100156 0.225349
Si Si4 0.368924 0.672407 0.615485
Si Si5 0.170157 0.070269 0.903922
Si Si6 0.730146 0.598295 0.206890
O O1 0.500000 0.500000 0.500000
O O2 0.389279 0.497560 0.620083
O O3 0.137111 0.427895 0.324107
O O4 0.613952 0.150199 0.812854
O O5 0.115271 0.740888 0.850616
O O6 0.359178 0.345642 0.186818
O O7 0.000000 0.500000 0.000000
O O8 0.811110 0.941268 0.206268
O O9 0.534043 0.226425 0.015560
O O10 0.000000 0.000000 0.500000
O O11 0.327903 0.597684 0.735074
O O12 0.120071 0.872352 0.313705
O O13 0.216089 0.257658 0.899248
O O14 0.000000 0.500000 0.500000
#
# Coordination Sequence:
#
# PCOD9040142 Si02
#       6
#     2   2   2   2   2   2
#     4  12  23  43  69  88 127 175 211 264 323 376
#     4  11  22  44  65  92 132 167 212 268 317 382
#     4  11  22  38  63  96 128 168 213 262 323 376
#     4  10  23  43  63  97 128 164 219 261 319 383
#     4  11  22  42  66  92 132 168 211 267 319 382
#     4   9  19  38  62  88 121 164 204 255 313 378
#
# _framework density 24.209313999999999
#
# number of rings (size 3 to 8) (size 9 to 14) (size 15 to 20)
#    0.000    1.333    5.000    1.500    2.333    0.667 
#    9.000    4.167    0.000    0.000    0.000    0.000 
#    0.000    0.000    0.000    0.000    0.000    0.000 
#
# Total GULP energy -66865.449236 kJ/mol
# GULP energy per Si atom -5572.120770 kJ/mol
# Density = 2.415421 g / cm^3
# Si number density = 24.209314 Si / 1000 Ang^3
#
#
#
# Elastic Constant Matrix: (Units=GPa)
#
#
# Indices 1 2 3 4 5 6 
#
# 1 79.3226 42.5005 78.5765 3.8325 13.6445 13.0579
# 2 42.5005 72.9665 46.6908 15.8721 4.6526 10.7754
# 3 78.5765 46.6908 220.5558 11.0846 41.7046 1.8815
# 4 3.8325 15.8721 11.0846 48.0116 5.9389 0.2747
# 5 13.6445 4.6526 41.7046 5.9389 58.3512 5.9152
# 6 13.0579 10.7754 1.8815 0.2747 5.9152 31.8385
#
#
#
# Elastic Compliance Matrix: (Units=1/GPa)
#
#
# Indices 1 2 3 4 5 6 
#
# 1 0.026364 -0.010282 -0.007368 0.002996 0.000324 -0.006983
# 2 -0.010282 0.022238 -0.001156 -0.006552 0.002494 -0.003648
# 3 -0.007368 -0.001156 0.008224 -0.000406 -0.004402 0.003748
# 4 0.002996 -0.006552 -0.000406 0.023135 -0.002370 0.001253
# 5 0.000324 0.002494 -0.004402 -0.002370 0.020711 -0.004544
# 6 -0.006983 -0.003648 0.003748 0.001253 -0.004544 0.036119
#
#
# Mechanical properties :
#
#
# Convention : Reuss Voigt Hill
#
# Bulk Modulus (GPa) = 52.04423 78.70895 65.37659
# Shear Modulus (GPa) = 27.65365 41.31207 34.48286
#
# Velocity S-wave (km/s) = 3.38342 4.13541 3.77817
# Velocity P-wave (km/s) = 6.06693 7.44208 6.78941
#
# Compressibility (1/GPa) = 0.01921443
#
# Stress axis : x y z
#
# Youngs Moduli (GPa) = 37.93091 44.96740 121.58947
#
# Poissons Ratio (x) = 0.46236 0.89588
# Poissons Ratio (y) = 0.39001 0.14052
# Poissons Ratio (z) = 0.27948 0.05197
#
# Static dielectric constant tensor:
#      x y z
#    x 2.012930 0.016230 -0.032560 
#    y 0.016230 2.073650 0.037940 
#    z -0.032560 0.037940 1.958420 
# 
# From -- ./inp_files/425825.got.cif
#   From: 2010.05.17/outbox.cif.g08.bks.cpg/sg2_213_cif.got.tgz:425825.got - 2010.06.03 11:33:40.
