data_PCOD9040547
_publ_section_title
;
Structure prediction by ZEFSAII (Michael W. Deem and Ramdas Pophale) SiO2 
 PCOD9040547
Probable space group: P -1
;
_chemical_formula_sum "Si O2"
_cell_formula_units_Z 16
_cell_length_a 8.691160
_cell_length_b 22.126322
_cell_length_c 6.576862
_cell_angle_alpha 106.085376
_cell_angle_beta 121.660988
_cell_angle_gamma 46.990615
_cell_volume 780.505856
_symmetry_space_group_name_H-M "P -1"
_symmetry_group_IT_number 2
_symmetry_cell_setting 'triclinic'
loop_
_space_group_symop_operation_xyz
x,y,z
-x,-y,-z
loop_
_atom_site_type_symbol
_atom_site_label
_atom_site_fract_x
_atom_site_fract_y
_atom_site_fract_z
Si Si1 0.026119 0.539282 0.365553
Si Si2 0.142314 0.910929 0.414718
Si Si3 0.717226 0.905605 0.138225
Si Si4 0.381260 0.390192 0.165382
Si Si5 0.477211 0.236610 0.162445
Si Si6 0.877956 0.749723 0.833400
Si Si7 0.454401 0.151732 0.689483
Si Si8 0.693974 0.415384 0.181181
O O1 0.210717 0.460230 0.277130
O O2 0.126793 0.580807 0.565785
O O3 0.000000 0.500000 0.500000
O O4 0.783474 0.598911 0.122451
O O5 0.343742 0.842820 0.647322
O O6 0.291409 0.901809 0.310242
O O7 0.949881 0.897847 0.269331
O O8 0.000000 0.000000 0.500000
O O9 0.622473 0.893167 0.272397
O O10 0.792152 0.829427 0.977955
O O11 0.500000 0.000000 0.000000
O O12 0.537706 0.295619 0.255927
O O13 0.545976 0.408268 0.226482
O O14 0.225342 0.286552 0.149548
O O15 0.467642 0.205179 0.910212
O O16 0.751251 0.788013 0.563198
O O17 0.154627 0.669508 0.924354
O O18 0.500000 0.500000 0.000000
#
# Coordination Sequence:
#
# PCOD9040547 Si02
#       8
#     2   2   2   2   2   2   2   2
#     4  11  23  45  65  91 135 177 221 282 334 403
#     4  11  25  43  68 100 134 175 222 274 339 416
#     4  11  25  44  70 103 135 174 226 277 335 411
#     4  11  25  41  69  97 128 179 225 281 342 395
#     4  10  23  43  67  96 129 170 229 272 334 401
#     4  10  24  44  66  96 135 173 223 278 334 402
#     4  10  23  45  69  95 136 180 212 286 340 391
#     4  12  25  43  67  99 136 178 227 279 339 408
#
# _framework density 20.499524999999998
#
# number of rings (size 3 to 8) (size 9 to 14) (size 15 to 20)
#    0.000    1.250    1.250    4.125    5.250    6.000 
#    2.250    0.000    0.000    0.000    0.000    0.000 
#    0.000    0.000    0.000    0.000    0.000    0.000 
#
# Total GULP energy -89241.039026 kJ/mol
# GULP energy per Si atom -5577.564939 kJ/mol
# Density = 2.045287 g / cm^3
# Si number density = 20.499525 Si / 1000 Ang^3
#
#
#
# Elastic Constant Matrix: (Units=GPa)
#
#
# Indices 1 2 3 4 5 6 
#
# 1 156.3092 39.6759 40.7302 3.0384 -13.8859 8.2869
# 2 39.6759 95.5157 20.3720 -4.3812 -11.9512 4.2410
# 3 40.7302 20.3720 48.8531 13.4134 -9.4834 -1.9675
# 4 3.0384 -4.3812 13.4134 16.3787 6.4827 7.1418
# 5 -13.8859 -11.9512 -9.4834 6.4827 36.9103 2.5987
# 6 8.2869 4.2410 -1.9675 7.1418 2.5987 43.5704
#
#
#
# Elastic Compliance Matrix: (Units=1/GPa)
#
#
# Indices 1 2 3 4 5 6 
#
# 1 0.009133 -0.001447 -0.009087 0.006856 -0.000353 -0.003109
# 2 -0.001447 0.013385 -0.007675 0.011552 0.000019 -0.003269
# 3 -0.009087 -0.007675 0.048747 -0.051481 0.014802 0.012232
# 4 0.006856 0.011552 -0.051481 0.126265 -0.027407 -0.023815
# 5 -0.000353 0.000019 0.014802 -0.027407 0.035363 0.003117
# 6 -0.003109 -0.003269 0.012232 -0.023815 0.003117 0.028131
#
#
# Mechanical properties :
#
#
# Convention : Reuss Voigt Hill
#
# Bulk Modulus (GPa) = 28.69709 55.80378 42.25044
# Shear Modulus (GPa) = 16.17820 32.69855 24.43838
#
# Velocity S-wave (km/s) = 2.81232 3.99819 3.45649
# Velocity P-wave (km/s) = 4.95730 6.97102 6.04855
#
# Compressibility (1/GPa) = 0.03484673
#
# Stress axis : x y z
#
# Youngs Moduli (GPa) = 109.49308 74.71090 20.51420
#
# Poissons Ratio (x) = 0.10812 0.18641
# Poissons Ratio (y) = 0.15846 0.15744
# Poissons Ratio (z) = 0.99496 0.57339
#
# Static dielectric constant tensor:
#      x y z
#    x 1.739430 0.045900 0.011710 
#    y 0.045900 1.683190 -0.000100 
#    z 0.011710 -0.000100 1.735690 
# 
# From -- ./inp_files/53332.got.cif
#   From: 2010.05.17/outbox.cif.g08.bks.cpg/sg2_27_cif.got.tgz:53332.got - 2010.06.03 11:33:40.
