data_PCOD9040446
_publ_section_title
;
Structure prediction by ZEFSAII (Michael W. Deem and Ramdas Pophale) SiO2 
 PCOD9040446
Probable space group: P -1
;
_chemical_formula_sum "Si O2"
_cell_formula_units_Z 12
_cell_length_a 16.129537
_cell_length_b 12.011772
_cell_length_c 10.204547
_cell_angle_alpha 131.110344
_cell_angle_beta 26.747849
_cell_angle_gamma 139.446039
_cell_volume 577.034010
_symmetry_space_group_name_H-M "P -1"
_symmetry_group_IT_number 2
_symmetry_cell_setting 'triclinic'
loop_
_space_group_symop_operation_xyz
x,y,z
-x,-y,-z
loop_
_atom_site_type_symbol
_atom_site_label
_atom_site_fract_x
_atom_site_fract_y
_atom_site_fract_z
Si Si1 0.644893 0.464022 0.670103
Si Si2 0.516118 0.059272 0.872310
Si Si3 0.817792 0.817507 0.562024
Si Si4 0.623574 0.866164 0.387241
Si Si5 0.051438 0.164905 0.905313
Si Si6 0.899984 0.356954 0.422417
O O1 0.791298 0.650201 0.541865
O O2 0.504200 0.313668 0.647986
O O3 0.768962 0.396960 0.532320
O O4 0.500000 0.500000 0.000000
O O5 0.754122 0.189462 0.586366
O O6 0.459422 0.909829 0.728483
O O7 0.391180 0.163019 0.117186
O O8 0.500000 0.000000 0.000000
O O9 0.874262 0.805302 0.324056
O O10 0.000000 0.000000 0.500000
O O11 0.783122 0.869446 0.275871
O O12 0.800029 0.013446 0.154724
O O13 0.064253 0.326643 0.084935
O O14 0.000000 0.500000 0.500000
#
# Coordination Sequence:
#
# PCOD9040446 Si02
#       6
#     2   2   2   2   2   2
#     4  12  25  44  68  98 132 179 225 275 326 398
#     4  11  24  45  70  99 131 181 215 276 333 398
#     4  12  27  43  68 100 139 173 223 278 333 390
#     4  10  23  44  71  95 135 174 226 269 336 397
#     4  10  23  43  67 100 134 177 216 279 333 394
#     4  11  26  44  69  98 136 177 224 273 335 394
#
# _framework density 20.796001
#
# number of rings (size 3 to 8) (size 9 to 14) (size 15 to 20)
#    0.000    1.000    3.333    2.000    4.667    4.000 
#    0.000    0.000    0.000    0.000    0.000    0.000 
#    0.000    0.000    0.000    0.000    0.000    0.000 
#
# Total GULP energy -66994.198893 kJ/mol
# GULP energy per Si atom -5582.849908 kJ/mol
# Density = 2.074867 g / cm^3
# Si number density = 20.796001 Si / 1000 Ang^3
#
#
#
# Elastic Constant Matrix: (Units=GPa)
#
#
# Indices 1 2 3 4 5 6 
#
# 1 87.9603 46.4416 34.3059 -1.4433 23.6137 -11.5928
# 2 46.4416 130.4825 30.7661 16.9229 26.1021 12.2183
# 3 34.3059 30.7661 118.2412 31.3034 33.5363 -2.5124
# 4 -1.4433 16.9229 31.3034 32.6473 1.5123 2.0146
# 5 23.6137 26.1021 33.5363 1.5123 37.6666 8.3919
# 6 -11.5928 12.2183 -2.5124 2.0146 8.3919 39.6721
#
#
#
# Elastic Compliance Matrix: (Units=1/GPa)
#
#
# Indices 1 2 3 4 5 6 
#
# 1 0.019217 -0.006451 -0.004079 0.007879 -0.006096 0.008233
# 2 -0.006451 0.011843 0.002274 -0.008132 -0.004988 -0.003921
# 3 -0.004079 0.002274 0.018396 -0.018498 -0.015430 0.003476
# 4 0.007879 -0.008132 -0.018498 0.052352 0.015580 -0.002319
# 5 -0.006096 -0.004988 -0.015430 0.015580 0.049731 -0.012533
# 6 0.008233 -0.003921 0.003476 -0.002319 -0.012533 0.031809
#
#
# Mechanical properties :
#
#
# Convention : Reuss Voigt Hill
#
# Bulk Modulus (GPa) = 30.35387 62.19014 46.27200
# Shear Modulus (GPa) = 23.71451 37.00856 30.36153
#
# Velocity S-wave (km/s) = 3.38056 4.22311 3.82510
# Velocity P-wave (km/s) = 5.46491 7.33139 6.46585
#
# Compressibility (1/GPa) = 0.03294473
#
# Stress axis : x y z
#
# Youngs Moduli (GPa) = 52.03847 84.43586 54.35888
#
# Poissons Ratio (x) = 0.54472 0.22172
# Poissons Ratio (y) = 0.33571 -0.12363
# Poissons Ratio (z) = 0.21225 -0.19204
#
# Static dielectric constant tensor:
#      x y z
#    x 1.738830 -0.005130 -0.037600 
#    y -0.005130 1.836470 0.035270 
#    z -0.037600 0.035270 1.751710 
# 
# From -- ./inp_files/144495.got.cif
#   From: 2010.05.17/outbox.cif.g08.bks.cpg/sg2_73_cif.got.tgz:144495.got - 2010.06.03 11:33:40.
