data_PCOD9040721
_publ_section_title
;
Structure prediction by ZEFSAII (Michael W. Deem and Ramdas Pophale) SiO2 
 PCOD9040721
Probable space group: P -1
;
_chemical_formula_sum "Si O2"
_cell_formula_units_Z 16
_cell_length_a 8.377865
_cell_length_b 28.755829
_cell_length_c 13.961053
_cell_angle_alpha 158.682260
_cell_angle_beta 41.115184
_cell_angle_gamma 138.012931
_cell_volume 791.852770
_symmetry_space_group_name_H-M "P -1"
_symmetry_group_IT_number 2
_symmetry_cell_setting 'triclinic'
loop_
_space_group_symop_operation_xyz
x,y,z
-x,-y,-z
loop_
_atom_site_type_symbol
_atom_site_label
_atom_site_fract_x
_atom_site_fract_y
_atom_site_fract_z
Si Si1 0.043339 0.883932 0.688810
Si Si2 0.554773 0.939735 0.458427
Si Si3 0.868473 0.380026 0.765479
Si Si4 0.659042 0.887837 0.695359
Si Si5 0.698194 0.591590 0.911639
Si Si6 0.223778 0.651085 0.466862
Si Si7 0.842552 0.730634 0.937734
Si Si8 0.978610 0.854190 0.311407
O O1 0.320901 0.915810 0.586153
O O2 0.030623 0.748067 0.490372
O O3 0.857615 0.879988 0.674803
O O4 0.000000 0.000000 0.000000
O O5 0.500000 0.000000 0.500000
O O6 0.760526 0.056290 0.628022
O O7 0.623035 0.798808 0.131200
O O8 0.904234 0.399224 0.671840
O O9 0.571169 0.366912 0.887158
O O10 0.000000 0.500000 0.000000
O O11 0.462796 0.755171 0.531131
O O12 0.797353 0.911092 0.575342
O O13 0.500000 0.000000 0.000000
O O14 0.693150 0.460455 0.719659
O O15 0.770947 0.599008 0.780010
O O16 0.907398 0.700490 0.075727
O O17 0.038850 0.716598 0.741845
O O18 0.928609 0.834483 0.183320
#
# Coordination Sequence:
#
# PCOD9040721 Si02
#       8
#     2   2   2   2   2   2   2   2
#     4  12  28  44  68 107 144 178 234 293 346 409
#     4  12  24  43  67  96 142 182 225 283 357 401
#     4  12  26  45  70 101 144 184 228 288 355 408
#     4  12  25  43  72 102 133 180 237 283 340 420
#     4  10  23  45  69  95 136 179 234 275 342 413
#     4  12  24  44  72 102 134 181 239 279 340 423
#     4  10  24  42  70  95 136 174 233 280 338 405
#     4  10  23  43  68  95 132 179 226 276 344 403
#
# _framework density 20.205776
#
# number of rings (size 3 to 8) (size 9 to 14) (size 15 to 20)
#    0.750    0.000    3.750    3.375    7.000    0.000 
#    0.000    0.625    0.000    0.000    0.000    0.000 
#    0.000    0.000    0.000    0.000    0.000    0.000 
#
# Total GULP energy -89173.981712 kJ/mol
# GULP energy per Si atom -5573.373857 kJ/mol
# Density = 2.015979 g / cm^3
# Si number density = 20.205776 Si / 1000 Ang^3
#
#
#
# Elastic Constant Matrix: (Units=GPa)
#
#
# Indices 1 2 3 4 5 6 
#
# 1 89.6404 48.4308 56.6129 3.8877 -0.7006 -14.1224
# 2 48.4308 97.7802 40.5475 -6.6693 1.0566 -9.6230
# 3 56.6129 40.5475 102.8888 2.5237 -7.3937 -3.7605
# 4 3.8877 -6.6693 2.5237 50.3464 -7.7859 3.0485
# 5 -0.7006 1.0566 -7.3937 -7.7859 37.9559 -0.0992
# 6 -14.1224 -9.6230 -3.7605 3.0485 -0.0992 32.4030
#
#
#
# Elastic Compliance Matrix: (Units=1/GPa)
#
#
# Indices 1 2 3 4 5 6 
#
# 1 0.021542 -0.006384 -0.009152 -0.002725 -0.001749 0.006682
# 2 -0.006384 0.014618 -0.002302 0.002407 -0.000477 0.001064
# 3 -0.009152 -0.002302 0.015768 0.000250 0.003011 -0.002857
# 4 -0.002725 0.002407 0.000250 0.021186 0.004271 -0.002424
# 5 -0.001749 -0.000477 0.003011 0.004271 0.027788 -0.000871
# 6 0.006682 0.001064 -0.002857 -0.002424 -0.000871 0.033983
#
#
# Mechanical properties :
#
#
# Convention : Reuss Voigt Hill
#
# Bulk Modulus (GPa) = 61.53416 64.61018 63.07217
# Shear Modulus (GPa) = 28.41248 33.78893 31.10071
#
# Velocity S-wave (km/s) = 3.75394 4.09374 3.92752
# Velocity P-wave (km/s) = 7.02206 7.37499 7.20069
#
# Compressibility (1/GPa) = 0.01625114
#
# Stress axis : x y z
#
# Youngs Moduli (GPa) = 46.42095 68.40957 63.41954
#
# Poissons Ratio (x) = 0.43674 0.58040
# Poissons Ratio (y) = 0.29636 0.14602
# Poissons Ratio (z) = 0.42484 0.15751
#
# Static dielectric constant tensor:
#      x y z
#    x 1.665710 0.019490 -0.054890 
#    y 0.019490 1.688120 0.027720 
#    z -0.054890 0.027720 1.717170 
# 
# From -- ./inp_files/509204.got.cif
#   From: 2010.05.17/outbox.cif.g08.bks.cpg/sg2_255_cif.got.tgz:509204.got - 2010.06.03 11:33:40.
