data_PCOD9040390
_publ_section_title
;
Structure prediction by ZEFSAII (Michael W. Deem and Ramdas Pophale) SiO2 
 PCOD9040390
Probable space group: P -1
;
_chemical_formula_sum "Si O2"
_cell_formula_units_Z 14
_cell_length_a 9.377384
_cell_length_b 19.417494
_cell_length_c 8.735545
_cell_angle_alpha 128.954544
_cell_angle_beta 115.690979
_cell_angle_gamma 29.454802
_cell_volume 580.626195
_symmetry_space_group_name_H-M "P -1"
_symmetry_group_IT_number 2
_symmetry_cell_setting 'triclinic'
loop_
_space_group_symop_operation_xyz
x,y,z
-x,-y,-z
loop_
_atom_site_type_symbol
_atom_site_label
_atom_site_fract_x
_atom_site_fract_y
_atom_site_fract_z
Si Si1 0.836790 0.345356 0.369027
Si Si2 0.138116 0.319971 0.903360
Si Si3 0.272234 0.800334 0.534438
Si Si4 0.601955 0.137136 0.592342
Si Si5 0.498430 0.999522 0.812458
Si Si6 0.431347 0.522207 0.174545
Si Si7 0.184375 0.438064 0.349055
O O1 0.500000 0.500000 0.500000
O O2 0.751032 0.353713 0.171195
O O3 0.896481 0.420981 0.509949
O O4 0.152087 0.151094 0.292070
O O5 0.351941 0.242166 0.752584
O O6 0.818515 0.433593 0.855168
O O7 0.288447 0.171995 0.873449
O O8 0.109500 0.416383 0.137495
O O9 0.424350 0.768694 0.406947
O O10 0.302848 0.679603 0.383466
O O11 0.462804 0.741368 0.687436
O O12 0.923521 0.993322 0.627647
O O13 0.604337 0.047453 0.363238
O O14 0.500000 0.000000 0.000000
O O15 0.500000 0.500000 0.000000
O O16 0.000000 0.500000 0.500000
#
# Coordination Sequence:
#
# PCOD9040390 Si02
#       7
#     2   2   2   2   2   2   2
#     4  11  26  44  69  99 142 175 227 287 348 407
#     4  12  25  43  76 102 136 181 241 286 337 414
#     4  10  23  43  66  93 141 177 224 283 345 406
#     4  11  24  42  69 101 135 176 233 292 337 399
#     4  12  24  44  72 105 139 186 230 287 352 417
#     4  11  23  43  68  99 131 183 225 280 344 414
#     4  11  24  47  68  98 139 188 222 280 353 420
#
# _framework density 24.111899000000001
#
# number of rings (size 3 to 8) (size 9 to 14) (size 15 to 20)
#    0.000    0.857    1.429    6.429    4.000    1.714 
#    2.571    4.286    0.000    0.000    0.000    0.000 
#    0.000    0.000    0.000    0.000    0.000    0.000 
#
# Total GULP energy -78415.638573 kJ/mol
# GULP energy per Si atom -5601.117041 kJ/mol
# Density = 2.405702 g / cm^3
# Si number density = 24.111899 Si / 1000 Ang^3
#
#
#
# Elastic Constant Matrix: (Units=GPa)
#
#
# Indices 1 2 3 4 5 6 
#
# 1 108.4735 13.8743 49.1141 -4.9733 -3.8583 -22.2236
# 2 13.8743 136.5135 13.9411 -13.3521 19.1518 -1.8638
# 3 49.1141 13.9411 109.9020 -21.1829 1.5621 -14.9455
# 4 -4.9733 -13.3521 -21.1829 29.3501 -8.7533 -3.7074
# 5 -3.8583 19.1518 1.5621 -8.7533 38.5278 -3.3686
# 6 -22.2236 -1.8638 -14.9455 -3.7074 -3.3686 35.7827
#
#
#
# Elastic Compliance Matrix: (Units=1/GPa)
#
#
# Indices 1 2 3 4 5 6 
#
# 1 0.012903 -0.001112 -0.004894 -0.000333 0.002502 0.006113
# 2 -0.001112 0.008186 -0.000100 0.002312 -0.003688 -0.000413
# 3 -0.004894 -0.000100 0.013732 0.010009 0.001616 0.003880
# 4 -0.000333 0.002312 0.010009 0.046463 0.009828 0.009833
# 5 0.002502 -0.003688 0.001616 0.009828 0.030726 0.005948
# 6 0.006113 -0.000413 0.003880 0.009833 0.005948 0.034921
#
#
# Mechanical properties :
#
#
# Convention : Reuss Voigt Hill
#
# Bulk Modulus (GPa) = 44.22600 56.52755 50.37677
# Shear Modulus (GPa) = 29.99779 39.26277 34.63028
#
# Velocity S-wave (km/s) = 3.53102 4.03967 3.79388
# Velocity P-wave (km/s) = 5.91658 6.72706 6.33479
#
# Compressibility (1/GPa) = 0.02261113
#
# Stress axis : x y z
#
# Youngs Moduli (GPa) = 77.50248 122.15593 72.82062
#
# Poissons Ratio (x) = 0.13580 0.35635
# Poissons Ratio (y) = 0.08616 0.00727
# Poissons Ratio (z) = 0.37926 0.01220
#
# Static dielectric constant tensor:
#      x y z
#    x 1.957240 -0.028170 -0.064620 
#    y -0.028170 1.958550 -0.002850 
#    z -0.064620 -0.002850 1.968660 
# 
# From -- ./inp_files/222906.got.cif
#   From: 2010.05.17/outbox.cif.g08.bks.cpg/sg2_112_cif.got.tgz:222906.got - 2010.06.03 11:33:40.
