data_PCOD9040625
_publ_section_title
;
Structure prediction by ZEFSAII (Michael W. Deem and Ramdas Pophale) SiO2 
 PCOD9040625
Probable space group: P -1
;
_chemical_formula_sum "Si O2"
_cell_formula_units_Z 16
_cell_length_a 9.033867
_cell_length_b 14.135365
_cell_length_c 8.369947
_cell_angle_alpha 141.120278
_cell_angle_beta 86.039405
_cell_angle_gamma 101.423810
_cell_volume 651.269178
_symmetry_space_group_name_H-M "P -1"
_symmetry_group_IT_number 2
_symmetry_cell_setting 'triclinic'
loop_
_space_group_symop_operation_xyz
x,y,z
-x,-y,-z
loop_
_atom_site_type_symbol
_atom_site_label
_atom_site_fract_x
_atom_site_fract_y
_atom_site_fract_z
Si Si1 0.883350 0.026775 0.673428
Si Si2 0.668322 0.279101 0.233789
Si Si3 0.650330 0.380783 0.719805
Si Si4 0.930632 0.141806 0.137682
Si Si5 0.684932 0.692881 0.230381
Si Si6 0.868503 0.567759 0.508918
Si Si7 0.660778 0.774683 0.968226
Si Si8 0.664230 0.079019 0.513999
O O1 0.788711 0.853210 0.499143
O O2 0.766840 0.107528 0.699715
O O3 0.000000 0.000000 0.500000
O O4 0.973905 0.142342 0.947842
O O5 0.679507 0.377696 0.526177
O O6 0.753670 0.146253 0.117685
O O7 0.754999 0.404839 0.262767
O O8 0.496795 0.230376 0.120875
O O9 0.467765 0.359482 0.724411
O O10 0.673868 0.230908 0.612227
O O11 0.744963 0.537303 0.001174
O O12 0.019646 0.296537 0.423347
O O13 0.000000 0.000000 0.000000
O O14 0.640720 0.720813 0.085150
O O15 0.756878 0.670285 0.730445
O O16 0.000000 0.500000 0.500000
O O17 0.722442 0.958928 0.234977
O O18 0.500000 0.000000 0.500000
#
# Coordination Sequence:
#
# PCOD9040625 Si02
#       8
#     2   2   2   2   2   2   2   2
#     4  11  24  44  71  93 132 187 226 268 344 410
#     4  11  25  40  72 101 132 179 227 282 347 397
#     4  11  23  41  67 100 139 168 230 281 339 394
#     4  11  26  46  65  99 138 179 227 282 336 407
#     4  10  23  43  68 100 140 172 223 288 336 403
#     4  10  23  45  63  93 142 178 215 276 349 409
#     4  11  21  42  70 100 132 179 226 277 343 405
#     4  11  22  42  67  98 139 175 224 281 341 404
#
# _framework density 24.567416999999999
#
# number of rings (size 3 to 8) (size 9 to 14) (size 15 to 20)
#    0.000    1.250    3.750    2.625    3.500    1.500 
#    2.250    1.875    0.000    0.000    0.000    0.000 
#    0.000    0.000    0.000    0.000    0.000    0.000 
#
# Total GULP energy -89104.695300 kJ/mol
# GULP energy per Si atom -5569.043456 kJ/mol
# Density = 2.451150 g / cm^3
# Si number density = 24.567417 Si / 1000 Ang^3
#
#
#
# Elastic Constant Matrix: (Units=GPa)
#
#
# Indices 1 2 3 4 5 6 
#
# 1 114.2218 15.1082 21.6177 7.1808 -3.3358 -29.2633
# 2 15.1082 84.8123 19.7976 31.2696 8.1979 -32.3922
# 3 21.6177 19.7976 93.6457 34.3862 -2.7422 -20.8621
# 4 7.1808 31.2696 34.3862 46.4007 -4.1494 -7.1851
# 5 -3.3358 8.1979 -2.7422 -4.1494 40.9885 4.8131
# 6 -29.2633 -32.3922 -20.8621 -7.1851 4.8131 35.4735
#
#
#
# Elastic Compliance Matrix: (Units=1/GPa)
#
#
# Indices 1 2 3 4 5 6 
#
# 1 0.011679 0.004234 0.000479 -0.003098 -0.001751 0.013392
# 2 0.004234 0.032791 0.008691 -0.024844 -0.012278 0.035180
# 3 0.000479 0.008691 0.018730 -0.017653 -0.004151 0.016334
# 4 -0.003098 -0.024844 -0.017653 0.048664 0.011674 -0.027351
# 5 -0.001751 -0.012278 -0.004151 0.011674 0.029581 -0.016746
# 6 0.013392 0.035180 0.016334 -0.027351 -0.016746 0.077700
#
#
# Mechanical properties :
#
#
# Convention : Reuss Voigt Hill
#
# Bulk Modulus (GPa) = 11.11026 45.08075 28.09550
# Shear Modulus (GPa) = 22.48810 40.31630 31.40220
#
# Velocity S-wave (km/s) = 3.02878 4.05538 3.57908
# Velocity P-wave (km/s) = 4.09433 6.34963 5.34234
#
# Compressibility (1/GPa) = 0.09000691
#
# Stress axis : x y z
#
# Youngs Moduli (GPa) = 85.62407 30.49655 53.39028
#
# Poissons Ratio (x) = -0.12913 -0.02556
# Poissons Ratio (y) = -0.36256 -0.46399
# Poissons Ratio (z) = -0.04100 -0.26503
#
# Static dielectric constant tensor:
#      x y z
#    x 2.000370 0.075800 0.008060 
#    y 0.075800 2.052370 0.046110 
#    z 0.008060 0.046110 2.050330 
# 
# From -- ./inp_files/209495.got.cif
#   From: 2010.05.17/outbox.cif.g08.bks.cpg/sg2_105_cif.got.tgz:209495.got - 2010.06.03 11:33:40.
