data_PCOD9040845
_publ_section_title
;
Structure prediction by ZEFSAII (Michael W. Deem and Ramdas Pophale) SiO2 
 PCOD9040845
Probable space group: P -1
;
_chemical_formula_sum "Si O2"
_cell_formula_units_Z 16
_cell_length_a 9.453604
_cell_length_b 7.485810
_cell_length_c 10.796065
_cell_angle_alpha 120.492178
_cell_angle_beta 86.079560
_cell_angle_gamma 91.478652
_cell_volume 656.774570
_symmetry_space_group_name_H-M "P -1"
_symmetry_group_IT_number 2
_symmetry_cell_setting 'triclinic'
loop_
_space_group_symop_operation_xyz
x,y,z
-x,-y,-z
loop_
_atom_site_type_symbol
_atom_site_label
_atom_site_fract_x
_atom_site_fract_y
_atom_site_fract_z
Si Si1 0.986512 0.317757 0.035977
Si Si2 0.332382 0.979920 0.522440
Si Si3 0.706348 0.975884 0.734578
Si Si4 0.231458 0.609922 0.539491
Si Si5 0.561488 0.248807 0.227136
Si Si6 0.056039 0.270294 0.289712
Si Si7 0.263716 0.154690 0.855472
Si Si8 0.333237 0.625087 0.982127
O O1 0.040303 0.363666 0.187274
O O2 0.816428 0.308880 0.051317
O O3 0.104810 0.155233 0.921082
O O4 0.000000 0.500000 0.000000
O O5 0.299710 0.742514 0.473045
O O6 0.500000 0.000000 0.500000
O O7 0.263711 0.040898 0.418438
O O8 0.279009 0.106846 0.690319
O O9 0.589034 0.812523 0.728364
O O10 0.850789 0.937213 0.787029
O O11 0.648958 0.205732 0.851671
O O12 0.350612 0.597821 0.634390
O O13 0.152410 0.413101 0.422096
O O14 0.099779 0.742191 0.649613
O O15 0.555746 0.340967 0.123140
O O16 0.645936 0.027262 0.148033
O O17 0.320915 0.390027 0.947016
#
# Coordination Sequence:
#
# PCOD9040845 Si02
#       8
#     2   2   2   2   2   2   2   2
#     4  10  23  43  69 102 140 181 238 291 358 423
#     4  11  24  48  68  99 146 190 237 291 359 432
#     4  12  27  42  70 111 140 185 242 295 358 430
#     4  10  24  44  73 101 145 193 238 294 362 428
#     4  11  23  48  68 104 147 187 235 294 362 435
#     4  11  25  44  72 110 140 184 248 301 355 428
#     4  10  24  43  72  98 138 195 234 289 359 428
#     4  11  25  43  72 104 142 188 236 298 364 425
#
# _framework density 24.361477000000001
#
# number of rings (size 3 to 8) (size 9 to 14) (size 15 to 20)
#    0.000    1.250    3.750    1.125    8.750    4.500 
#    0.000    0.000    0.000    0.000    0.000    0.000 
#    0.000    0.000    0.000    0.000    0.000    0.000 
#
# Total GULP energy -89499.223989 kJ/mol
# GULP energy per Si atom -5593.701499 kJ/mol
# Density = 2.430603 g / cm^3
# Si number density = 24.361477 Si / 1000 Ang^3
#
#
#
# Elastic Constant Matrix: (Units=GPa)
#
#
# Indices 1 2 3 4 5 6 
#
# 1 99.0235 13.3070 21.7745 -16.5432 -2.2311 0.1996
# 2 13.3070 81.4578 24.2815 -20.9896 12.0167 7.6286
# 3 21.7745 24.2815 79.3245 -6.0880 9.9896 10.9787
# 4 -16.5432 -20.9896 -6.0880 37.3574 2.3845 -1.8862
# 5 -2.2311 12.0167 9.9896 2.3845 35.1545 -2.0489
# 6 0.1996 7.6286 10.9787 -1.8862 -2.0489 44.2792
#
#
#
# Elastic Compliance Matrix: (Units=1/GPa)
#
#
# Indices 1 2 3 4 5 6 
#
# 1 0.011583 -0.000097 -0.003117 0.004528 0.001405 0.000995
# 2 -0.000097 0.016603 -0.003423 0.008979 -0.005427 -0.001880
# 3 -0.003117 -0.003423 0.015370 -0.000744 -0.003543 -0.003403
# 4 0.004528 0.008979 -0.000744 0.034001 -0.004886 -0.000161
# 5 0.001405 -0.005427 -0.003543 -0.004886 0.031908 0.003076
# 6 0.000995 -0.001880 -0.003403 -0.000161 0.003076 0.023883
#
#
# Mechanical properties :
#
#
# Convention : Reuss Voigt Hill
#
# Bulk Modulus (GPa) = 33.02254 42.05909 37.54081
# Shear Modulus (GPa) = 31.90514 36.72108 34.31311
#
# Velocity S-wave (km/s) = 3.62284 3.88666 3.75707
# Velocity P-wave (km/s) = 5.57536 6.11912 5.85356
#
# Compressibility (1/GPa) = 0.03028235
#
# Stress axis : x y z
#
# Youngs Moduli (GPa) = 86.33275 60.23065 65.06259
#
# Poissons Ratio (x) = 0.00583 0.20281
# Poissons Ratio (y) = 0.00836 0.22269
# Poissons Ratio (z) = 0.26911 0.20616
#
# Static dielectric constant tensor:
#      x y z
#    x 1.957810 0.002060 -0.018380 
#    y 0.002060 1.884080 0.068710 
#    z -0.018380 0.068710 1.991980 
# 
# From -- ./inp_files/383511.got.cif
#   From: 2010.05.17/outbox.cif.g08.bks.cpg/sg2_192_cif.got.tgz:383511.got - 2010.06.03 11:33:40.
