data_PCOD9040110
_publ_section_title
;
Structure prediction by ZEFSAII (Michael W. Deem and Ramdas Pophale) SiO2 
 PCOD9040110
Probable space group: P -1
;
_chemical_formula_sum "Si O2"
_cell_formula_units_Z 15
_cell_length_a 9.025837
_cell_length_b 12.602492
_cell_length_c 13.395504
_cell_angle_alpha 33.041748
_cell_angle_beta 98.651496
_cell_angle_gamma 78.017638
_cell_volume 645.036447
_symmetry_space_group_name_H-M "P -1"
_symmetry_group_IT_number 2
_symmetry_cell_setting 'triclinic'
loop_
_space_group_symop_operation_xyz
x,y,z
-x,-y,-z
loop_
_atom_site_type_symbol
_atom_site_label
_atom_site_fract_x
_atom_site_fract_y
_atom_site_fract_z
Si Si1 0.500000 0.000000 0.500000
Si Si2 0.259605 0.189038 0.534503
Si Si3 0.600835 0.829636 0.996429
Si Si4 0.758605 0.125399 0.782193
Si Si5 0.107250 0.687658 0.671390
Si Si6 0.464179 0.590929 0.274101
Si Si7 0.123776 0.719103 0.049607
Si Si8 0.110786 0.134209 0.292123
O O1 0.376869 0.073084 0.534743
O O2 0.304432 0.099701 0.338201
O O3 0.169543 0.476802 0.297252
O O4 0.079803 0.188053 0.515371
O O5 0.404212 0.043538 0.754027
O O6 0.717430 0.931155 0.947139
O O7 0.726813 0.586119 0.132128
O O8 0.553269 0.732605 0.162576
O O9 0.631055 0.303305 0.536312
O O10 0.676122 0.304261 0.727783
O O11 0.978049 0.969339 0.899840
O O12 0.031266 0.692571 0.769192
O O13 0.166507 0.864850 0.534674
O O14 0.331873 0.650429 0.118730
O O15 0.013111 0.763064 0.901911
#
# Coordination Sequence:
#
# PCOD9040110 Si02
#       8
#     1   2   2   2   2   2   2   2
#     4  10  24  40  66  98 132 178 220 268 322 394
#     4  11  24  39  64  98 135 175 227 263 332 395
#     4  12  23  43  70  98 135 180 222 279 330 401
#     4  11  24  47  68  99 136 173 226 286 340 399
#     4  10  23  43  62  97 137 173 220 272 329 401
#     4  11  26  44  71 100 131 177 230 280 341 397
#     4  12  23  43  69  96 137 176 220 280 331 400
#     4  10  23  43  67  98 134 175 224 270 335 399
#
# _framework density 23.254498999999999
#
# number of rings (size 3 to 8) (size 9 to 14) (size 15 to 20)
#    0.000    1.067    2.667    3.200    3.733    1.067 
#    0.000    3.333    0.000    0.000    0.000    0.000 
#    0.000    0.000    0.000    0.000    0.000    0.000 
#
# Total GULP energy -83708.963141 kJ/mol
# GULP energy per Si atom -5580.597543 kJ/mol
# Density = 2.320157 g / cm^3
# Si number density = 23.254499 Si / 1000 Ang^3
#
#
#
# Elastic Constant Matrix: (Units=GPa)
#
#
# Indices 1 2 3 4 5 6 
#
# 1 82.0797 -9.1413 44.9467 3.4037 18.2820 0.3691
# 2 -9.1413 46.8716 16.9345 -7.7722 11.0313 -11.5094
# 3 44.9467 16.9345 102.3564 -11.8223 22.9956 -8.1049
# 4 3.4037 -7.7722 -11.8223 29.0421 3.2030 3.9391
# 5 18.2820 11.0313 22.9956 3.2030 38.9001 -1.2552
# 6 0.3691 -11.5094 -8.1049 3.9391 -1.2552 31.3549
#
#
#
# Elastic Compliance Matrix: (Units=1/GPa)
#
#
# Indices 1 2 3 4 5 6 
#
# 1 0.019319 0.007943 -0.008802 -0.003154 -0.005850 0.000575
# 2 0.007943 0.029816 -0.005096 0.004839 -0.009298 0.008554
# 3 -0.008802 -0.005096 0.016398 0.006655 -0.004613 0.001451
# 4 -0.003154 0.004839 0.006655 0.039835 -0.007161 -0.001757
# 5 -0.005850 -0.009298 -0.004613 -0.007161 0.034337 -0.002263
# 6 0.000575 0.008554 0.001451 -0.001757 -0.002263 0.035531
#
#
# Mechanical properties :
#
#
# Convention : Reuss Voigt Hill
#
# Bulk Modulus (GPa) = 18.64840 37.42084 28.03462
# Shear Modulus (GPa) = 24.38788 31.76395 28.07591
#
# Velocity S-wave (km/s) = 3.24194 3.69985 3.47844
# Velocity P-wave (km/s) = 4.69576 5.86334 5.31173
#
# Compressibility (1/GPa) = 0.05362390
#
# Stress axis : x y z
#
# Youngs Moduli (GPa) = 51.76213 33.53882 60.98345
#
# Poissons Ratio (x) = -0.26640 0.53678
# Poissons Ratio (y) = -0.41114 0.31075
# Poissons Ratio (z) = 0.45561 0.17090
#
# Static dielectric constant tensor:
#      x y z
#    x 1.877130 0.025740 -0.023360 
#    y 0.025740 1.931010 0.030060 
#    z -0.023360 0.030060 1.849510 
# 
# From -- ./inp_files/38398.got.cif
#   From: 2010.05.17/outbox.cif.g08.bks.cpg/sg2_20_cif.got.tgz:38398.got - 2010.06.03 11:33:40.
