data_PCOD9040678
_publ_section_title
;
Structure prediction by ZEFSAII (Michael W. Deem and Ramdas Pophale) SiO2 
 PCOD9040678
Probable space group: P -1
;
_chemical_formula_sum "Si O2"
_cell_formula_units_Z 16
_cell_length_a 5.366940
_cell_length_b 17.386036
_cell_length_c 8.101781
_cell_angle_alpha 79.960218
_cell_angle_beta 115.199128
_cell_angle_gamma 109.351404
_cell_volume 644.897404
_symmetry_space_group_name_H-M "P -1"
_symmetry_group_IT_number 2
_symmetry_cell_setting 'triclinic'
loop_
_space_group_symop_operation_xyz
x,y,z
-x,-y,-z
loop_
_atom_site_type_symbol
_atom_site_label
_atom_site_fract_x
_atom_site_fract_y
_atom_site_fract_z
Si Si1 0.235560 0.814910 0.199384
Si Si2 0.354892 0.741782 0.919338
Si Si3 0.991164 0.565297 0.828126
Si Si4 0.315089 0.506572 0.664935
Si Si5 0.837361 0.022509 0.604545
Si Si6 0.188665 0.179748 0.521249
Si Si7 0.173887 0.134121 0.165496
Si Si8 0.782513 0.683551 0.274711
O O1 0.533796 0.853176 0.361277
O O2 0.101500 0.730628 0.290243
O O3 0.321404 0.791781 0.051038
O O4 0.005224 0.859080 0.052225
O O5 0.501775 0.807196 0.796568
O O6 0.084726 0.662818 0.847543
O O7 0.597876 0.701630 0.064907
O O8 0.650153 0.543998 0.687291
O O9 0.251751 0.553164 0.791622
O O10 0.000000 0.500000 0.000000
O O11 0.289495 0.411696 0.703065
O O12 0.000000 0.500000 0.500000
O O13 0.876256 0.961412 0.780368
O O14 0.500000 0.000000 0.500000
O O15 0.000000 0.000000 0.500000
O O16 0.956776 0.120552 0.599593
O O17 0.098311 0.169049 0.308434
O O18 0.258259 0.269765 0.586361
#
# Coordination Sequence:
#
# PCOD9040678 Si02
#       8
#     2   2   2   2   2   2   2   2
#     4  10  23  43  68 105 141 185 239 293 349 427
#     4  10  23  43  70 106 136 185 246 293 351 429
#     4  12  25  47  76  98 137 195 238 292 364 421
#     4  12  28  47  68 107 144 183 241 303 358 430
#     4  10  24  45  70 106 143 185 238 293 352 426
#     4  10  24  44  74 101 139 193 233 292 367 418
#     4  10  24  43  73 103 143 185 241 294 351 429
#     4  10  23  45  69 100 144 183 235 299 358 428
#
# _framework density 24.810146
#
# number of rings (size 3 to 8) (size 9 to 14) (size 15 to 20)
#    0.000    1.500    1.250    1.500   12.250    2.500 
#    0.000    5.625    0.000    0.000    0.000    0.000 
#    0.000    0.000    0.000    0.000    0.000    0.000 
#
# Total GULP energy -89163.306219 kJ/mol
# GULP energy per Si atom -5572.706639 kJ/mol
# Density = 2.475368 g / cm^3
# Si number density = 24.810146 Si / 1000 Ang^3
#
#
#
# Elastic Constant Matrix: (Units=GPa)
#
#
# Indices 1 2 3 4 5 6 
#
# 1 115.3115 14.2516 19.7057 3.4472 13.8649 20.0761
# 2 14.2516 72.3195 3.2053 -2.8604 14.8176 22.9176
# 3 19.7057 3.2053 81.6256 3.5995 2.3599 3.7471
# 4 3.4472 -2.8604 3.5995 28.3672 8.3596 4.1108
# 5 13.8649 14.8176 2.3599 8.3596 39.3174 8.3995
# 6 20.0761 22.9176 3.7471 4.1108 8.3995 39.1132
#
#
#
# Elastic Compliance Matrix: (Units=1/GPa)
#
#
# Indices 1 2 3 4 5 6 
#
# 1 0.010122 0.000091 -0.002185 0.000481 -0.002607 -0.004530
# 2 0.000091 0.018426 -0.000337 0.005084 -0.005883 -0.010082
# 3 -0.002185 -0.000337 0.012840 -0.001545 0.000421 0.000161
# 4 0.000481 0.005084 -0.001545 0.039386 -0.009250 -0.005231
# 5 -0.002607 -0.005883 0.000421 -0.009250 0.030699 -0.000875
# 6 -0.004530 -0.010082 0.000161 -0.005231 -0.000875 0.034521
#
#
# Mechanical properties :
#
#
# Convention : Reuss Voigt Hill
#
# Bulk Modulus (GPa) = 27.37747 38.17575 32.77661
# Shear Modulus (GPa) = 30.66872 36.83251 33.75062
#
# Velocity S-wave (km/s) = 3.51969 3.85720 3.69230
# Velocity P-wave (km/s) = 5.25132 5.93783 5.60510
#
# Compressibility (1/GPa) = 0.03652639
#
# Stress axis : x y z
#
# Youngs Moduli (GPa) = 98.79335 54.27154 77.87929
#
# Poissons Ratio (x) = -0.00493 0.17017
# Poissons Ratio (y) = -0.00898 0.02623
# Poissons Ratio (z) = 0.21587 0.01828
#
# Static dielectric constant tensor:
#      x y z
#    x 2.130290 -0.149540 0.042420 
#    y -0.149540 2.194400 0.028560 
#    z 0.042420 0.028560 2.175090 
# 
# From -- ./inp_files/138992.got.cif
#   From: 2010.05.17/outbox.cif.g08.bks.cpg/sg2_70_cif.got.tgz:138992.got - 2010.06.03 11:33:40.
