data_PCOD9040557
_publ_section_title
;
Structure prediction by ZEFSAII (Michael W. Deem and Ramdas Pophale) SiO2 
 PCOD9040557
Probable space group: P -1
;
_chemical_formula_sum "Si O2"
_cell_formula_units_Z 14
_cell_length_a 19.682547
_cell_length_b 9.396292
_cell_length_c 5.092607
_cell_angle_alpha 123.170063
_cell_angle_beta 117.740153
_cell_angle_gamma 47.042243
_cell_volume 570.340430
_symmetry_space_group_name_H-M "P -1"
_symmetry_group_IT_number 2
_symmetry_cell_setting 'triclinic'
loop_
_space_group_symop_operation_xyz
x,y,z
-x,-y,-z
loop_
_atom_site_type_symbol
_atom_site_label
_atom_site_fract_x
_atom_site_fract_y
_atom_site_fract_z
Si Si1 0.659084 0.317326 0.627718
Si Si2 0.585035 0.907520 0.823585
Si Si3 0.704160 0.464196 0.362447
Si Si4 0.438185 0.823692 0.365383
Si Si5 0.071512 0.551900 0.593408
Si Si6 0.736102 0.884552 0.435877
Si Si7 0.077802 0.761474 0.323314
O O1 0.648903 0.412724 0.419595
O O2 0.571826 0.334690 0.640154
O O3 0.737830 0.067361 0.488136
O O4 0.695048 0.408553 0.994657
O O5 0.651561 0.710148 0.546412
O O6 0.502883 0.874084 0.695230
O O7 0.537174 0.137203 0.839537
O O8 0.662147 0.865112 0.126745
O O9 0.813354 0.328996 0.510011
O O10 0.324677 0.991478 0.293720
O O11 0.171674 0.334028 0.573313
O O12 0.056642 0.633738 0.354879
O O13 0.000000 0.500000 0.500000
O O14 0.069038 0.710169 0.956216
O O15 0.000000 0.000000 0.500000
#
# Coordination Sequence:
#
# PCOD9040557 Si02
#       7
#     2   2   2   2   2   2   2
#     4  10  26  41  67  95 140 174 222 271 341 388
#     4  11  21  42  70  95 139 174 241 269 339 398
#     4  12  25  44  67 100 134 185 213 284 335 403
#     4   9  23  40  68  99 132 186 224 282 327 401
#     4  12  27  47  75 103 131 180 227 283 330 409
#     4  10  23  43  67  96 136 176 231 269 342 393
#     4  12  28  46  71 102 139 173 226 277 350 398
#
# _framework density 24.546741999999998
#
# number of rings (size 3 to 8) (size 9 to 14) (size 15 to 20)
#    0.857    0.286    1.429    3.857    6.000    1.143 
#    0.000    0.000    0.000    0.000    0.000    0.000 
#    0.000    0.000    0.000    0.000    0.000    0.000 
#
# Total GULP energy -78044.331221 kJ/mol
# GULP energy per Si atom -5574.595087 kJ/mol
# Density = 2.449087 g / cm^3
# Si number density = 24.546742 Si / 1000 Ang^3
#
#
#
# Elastic Constant Matrix: (Units=GPa)
#
#
# Indices 1 2 3 4 5 6 
#
# 1 99.6477 17.4147 -9.5598 -8.9066 7.1858 5.1794
# 2 17.4147 110.6941 -15.0633 9.5004 -4.7237 5.2761
# 3 -9.5598 -15.0633 64.7001 3.2413 -8.2594 -3.9235
# 4 -8.9066 9.5004 3.2413 35.0921 4.8136 -7.8965
# 5 7.1858 -4.7237 -8.2594 4.8136 32.9923 -10.1123
# 6 5.1794 5.2761 -3.9235 -7.8965 -10.1123 59.4136
#
#
#
# Elastic Compliance Matrix: (Units=1/GPa)
#
#
# Indices 1 2 3 4 5 6 
#
# 1 0.011055 -0.002085 0.000487 0.003598 -0.003367 -0.000841
# 2 -0.002085 0.010225 0.002623 -0.004082 0.002991 -0.000587
# 3 0.000487 0.002623 0.017036 -0.002574 0.005344 0.001417
# 4 0.003598 -0.004082 -0.002574 0.032258 -0.005741 0.003189
# 5 -0.003367 0.002991 0.005344 -0.005741 0.035376 0.005639
# 6 -0.000841 -0.000587 0.001417 0.003189 0.005639 0.018434
#
#
# Mechanical properties :
#
#
# Convention : Reuss Voigt Hill
#
# Bulk Modulus (GPa) = 24.77437 28.95834 26.86636
# Shear Modulus (GPa) = 36.82223 44.31628 40.56926
#
# Velocity S-wave (km/s) = 3.87730 4.25359 4.06979
# Velocity P-wave (km/s) = 5.49174 5.99557 5.74918
#
# Compressibility (1/GPa) = 0.04036430
#
# Stress axis : x y z
#
# Youngs Moduli (GPa) = 90.46012 97.80126 58.70035
#
# Poissons Ratio (x) = 0.20394 -0.02857
# Poissons Ratio (y) = 0.18863 -0.15398
# Poissons Ratio (z) = -0.04404 -0.25654
#
# Static dielectric constant tensor:
#      x y z
#    x 1.946530 -0.045200 -0.106790 
#    y -0.045200 2.057620 0.079760 
#    z -0.106790 0.079760 2.039380 
# 
# From -- ./inp_files/117473.got.cif
#   From: 2010.05.17/outbox.cif.g08.bks.cpg/sg2_59_cif.got.tgz:117473.got - 2010.06.03 11:33:40.
