data_PCOD9040756
_publ_section_title
;
Structure prediction by ZEFSAII (Michael W. Deem and Ramdas Pophale) SiO2 
 PCOD9040756
Probable space group: P -1
;
_chemical_formula_sum "Si O2"
_cell_formula_units_Z 16
_cell_length_a 9.983382
_cell_length_b 12.634154
_cell_length_c 7.183864
_cell_angle_alpha 129.915385
_cell_angle_beta 109.024220
_cell_angle_gamma 64.079985
_cell_volume 623.709471
_symmetry_space_group_name_H-M "P -1"
_symmetry_group_IT_number 2
_symmetry_cell_setting 'triclinic'
loop_
_space_group_symop_operation_xyz
x,y,z
-x,-y,-z
loop_
_atom_site_type_symbol
_atom_site_label
_atom_site_fract_x
_atom_site_fract_y
_atom_site_fract_z
Si Si1 0.888779 0.860313 0.420788
Si Si2 0.700632 0.470367 0.108790
Si Si3 0.789653 0.228815 0.352144
Si Si4 0.520713 0.149683 0.239472
Si Si5 0.325827 0.447433 0.398668
Si Si6 0.405930 0.217355 0.681898
Si Si7 0.969386 0.601805 0.915163
Si Si8 0.724150 0.163231 0.829035
O O1 0.742745 0.819611 0.376113
O O2 0.928969 0.770506 0.146482
O O3 0.040961 0.801574 0.541633
O O4 0.836374 0.032814 0.619658
O O5 0.634979 0.512856 0.331503
O O6 0.633592 0.609249 0.105924
O O7 0.687184 0.315600 0.874835
O O8 0.876258 0.445503 0.175586
O O9 0.694266 0.137920 0.303947
O O10 0.701727 0.399411 0.543655
O O11 0.787224 0.190160 0.088052
O O12 0.441649 0.289673 0.231085
O O13 0.442356 0.186576 0.445754
O O14 0.500000 0.000000 0.000000
O O15 0.166365 0.421571 0.283492
O O16 0.565054 0.135361 0.754429
O O17 0.000000 0.500000 0.000000
#
# Coordination Sequence:
#
# PCOD9040756 Si02
#       8
#     2   2   2   2   2   2   2   2
#     4  12  26  44  70 101 139 179 223 282 340 398
#     4  10  23  44  66 101 133 179 224 282 335 401
#     4  11  24  47  69  98 136 182 228 272 337 408
#     4  11  26  42  69 102 140 175 222 285 340 398
#     4  10  23  43  68  98 134 184 224 275 335 408
#     4  11  24  46  69  97 137 178 228 275 337 402
#     4  12  23  40  72 100 137 176 233 277 331 401
#     4  11  26  42  72  98 136 177 228 280 340 397
#
# _framework density 25.652971000000001
#
# number of rings (size 3 to 8) (size 9 to 14) (size 15 to 20)
#    0.000    1.000    2.500    2.625    5.250    4.500 
#    0.000    0.000    0.000    0.000    0.000    0.000 
#    0.000    0.000    0.000    0.000    0.000    0.000 
#
# Total GULP energy -89616.696363 kJ/mol
# GULP energy per Si atom -5601.043523 kJ/mol
# Density = 2.559458 g / cm^3
# Si number density = 25.652971 Si / 1000 Ang^3
#
#
#
# Elastic Constant Matrix: (Units=GPa)
#
#
# Indices 1 2 3 4 5 6 
#
# 1 91.2555 28.7472 21.0193 2.4061 27.5678 -27.0532
# 2 28.7472 98.1109 63.5865 24.7404 3.2216 -18.9104
# 3 21.0193 63.5865 152.7768 37.6617 2.2390 -9.6635
# 4 2.4061 24.7404 37.6617 51.6956 -8.2808 0.5821
# 5 27.5678 3.2216 2.2390 -8.2808 55.1504 -2.6600
# 6 -27.0532 -18.9104 -9.6635 0.5821 -2.6600 35.7395
#
#
#
# Elastic Compliance Matrix: (Units=1/GPa)
#
#
# Indices 1 2 3 4 5 6 
#
# 1 0.017683 -0.002164 -0.000459 -0.000909 -0.008275 0.011515
# 2 -0.002164 0.016239 -0.005118 -0.004004 0.000011 0.005637
# 3 -0.000459 -0.005118 0.009923 -0.004854 -0.000620 -0.000339
# 4 -0.000909 -0.004004 -0.004854 0.025612 0.004528 -0.004199
# 5 -0.008275 0.000011 -0.000620 0.004528 0.022741 -0.004807
# 6 0.011515 0.005637 -0.000339 -0.004199 -0.004807 0.039299
#
#
# Mechanical properties :
#
#
# Convention : Reuss Voigt Hill
#
# Bulk Modulus (GPa) = 35.25451 63.20546 49.22999
# Shear Modulus (GPa) = 31.96288 43.76977 37.86633
#
# Velocity S-wave (km/s) = 3.53366 4.13513 3.84617
# Velocity P-wave (km/s) = 5.51559 6.89139 6.24151
#
# Compressibility (1/GPa) = 0.02836517
#
# Stress axis : x y z
#
# Youngs Moduli (GPa) = 56.55105 61.57945 100.77803
#
# Poissons Ratio (x) = 0.13323 0.04623
# Poissons Ratio (y) = 0.12235 0.51575
# Poissons Ratio (z) = 0.02594 0.31514
#
# Static dielectric constant tensor:
#      x y z
#    x 1.991020 0.036560 0.002830 
#    y 0.036560 2.064390 0.016180 
#    z 0.002830 0.016180 1.977240 
# 
# From -- ./inp_files/209513.got.cif
#   From: 2010.05.17/outbox.cif.g08.bks.cpg/sg2_105_cif.got.tgz:209513.got - 2010.06.03 11:33:40.
