data_PCOD9040270
_publ_section_title
;
Structure prediction by ZEFSAII (Michael W. Deem and Ramdas Pophale) SiO2 
 PCOD9040270
Probable space group: P -1
;
_chemical_formula_sum "Si O2"
_cell_formula_units_Z 10
_cell_length_a 9.666748
_cell_length_b 8.948224
_cell_length_c 8.618500
_cell_angle_alpha 69.633616
_cell_angle_beta 68.772119
_cell_angle_gamma 33.153366
_cell_volume 378.562119
_symmetry_space_group_name_H-M "P -1"
_symmetry_group_IT_number 2
_symmetry_cell_setting 'triclinic'
loop_
_space_group_symop_operation_xyz
x,y,z
-x,-y,-z
loop_
_atom_site_type_symbol
_atom_site_label
_atom_site_fract_x
_atom_site_fract_y
_atom_site_fract_z
Si Si1 0.458969 0.100999 0.742550
Si Si2 0.016252 0.967854 0.760482
Si Si3 0.728399 0.422888 0.471580
Si Si4 0.638558 0.169689 0.103101
Si Si5 0.778081 0.618355 0.945455
O O1 0.383243 0.301614 0.581540
O O2 0.303516 0.070082 0.804246
O O3 0.739230 0.780088 0.762358
O O4 0.424863 0.205124 0.890944
O O5 0.880610 0.228415 0.628133
O O6 0.825262 0.064040 0.929888
O O7 0.085841 0.769930 0.681153
O O8 0.273599 0.809214 0.792011
O O9 0.500000 0.500000 0.500000
O O10 0.339578 0.433754 0.076714
O O11 0.000000 0.500000 0.000000
#
# Coordination Sequence:
#
# PCOD9040270 Si02
#       5
#     2   2   2   2   2
#     4   9  21  37  64  94 125 166 233 254 320 398
#     4  10  23  43  65  92 144 166 210 276 328 391
#     4  11  24  41  63  96 134 180 209 264 338 393
#     4   9  20  44  66 100 122 175 225 264 325 382
#     4   9  19  36  65  93 126 162 218 270 315 384
#
# _framework density 26.415742999999999
#
# number of rings (size 3 to 8) (size 9 to 14) (size 15 to 20)
#    1.200    1.200    0.000    1.200    2.800    2.400 
#    3.600    4.000    0.000    1.200    0.000    0.000 
#    0.000    0.000    0.000    0.000    0.000    0.000 
#
# Total GULP energy -55739.512938 kJ/mol
# GULP energy per Si atom -5573.951294 kJ/mol
# Density = 2.635562 g / cm^3
# Si number density = 26.415743 Si / 1000 Ang^3
#
#
#
# Elastic Constant Matrix: (Units=GPa)
#
#
# Indices 1 2 3 4 5 6 
#
# 1 212.4164 36.1979 69.8535 -30.1104 21.7407 -16.7910
# 2 36.1979 60.1828 48.0815 -37.6895 -9.2125 5.5711
# 3 69.8535 48.0815 100.7255 -32.0435 -11.4014 4.8934
# 4 -30.1104 -37.6895 -32.0435 64.7438 9.1036 -3.8783
# 5 21.7407 -9.2125 -11.4014 9.1036 36.4634 -24.1875
# 6 -16.7910 5.5711 4.8934 -3.8783 -24.1875 41.8942
#
#
#
# Elastic Compliance Matrix: (Units=1/GPa)
#
#
# Indices 1 2 3 4 5 6 
#
# 1 0.007351 -0.000250 -0.005199 0.001610 -0.006476 -0.000003
# 2 -0.000250 0.035838 -0.012154 0.014540 0.000616 -0.001745
# 3 -0.005199 -0.012154 0.019910 -0.000585 0.007312 0.001375
# 4 0.001610 0.014540 -0.000585 0.024945 -0.004821 -0.001694
# 5 -0.006476 0.000616 0.007312 -0.004821 0.052337 0.026239
# 6 -0.000003 -0.001745 0.001375 -0.001694 0.026239 0.038932
#
#
# Mechanical properties :
#
#
# Convention : Reuss Voigt Hill
#
# Bulk Modulus (GPa) = 35.85180 75.73228 55.79204
# Shear Modulus (GPa) = 22.33979 43.23306 32.78642
#
# Velocity S-wave (km/s) = 2.91125 4.04993 3.52685
# Velocity P-wave (km/s) = 4.99020 7.11343 6.14422
#
# Compressibility (1/GPa) = 0.02789260
#
# Stress axis : x y z
#
# Youngs Moduli (GPa) = 136.03812 27.90360 50.22618
#
# Poissons Ratio (x) = 0.00699 0.26112
# Poissons Ratio (y) = 0.03405 0.61043
# Poissons Ratio (z) = 0.70726 0.33913
#
# Static dielectric constant tensor:
#      x y z
#    x 2.037070 -0.063100 -0.049730 
#    y -0.063100 2.377850 -0.027490 
#    z -0.049730 -0.027490 2.074910 
# 
# From -- ./inp_files/157296.got.cif
#   From: 2010.05.17/outbox.cif.g08.bks.cpg/sg2_79_cif.got.tgz:157296.got - 2010.06.03 11:33:40.
