data_PCOD9040956
_publ_section_title
;
Structure prediction by ZEFSAII (Michael W. Deem and Ramdas Pophale) SiO2 
 PCOD9040956
Probable space group: P -1
;
_chemical_formula_sum "Si O2"
_cell_formula_units_Z 10
_cell_length_a 10.852874
_cell_length_b 7.227445
_cell_length_c 4.870928
_cell_angle_alpha 104.665363
_cell_angle_beta 95.212331
_cell_angle_gamma 82.532063
_cell_volume 365.816665
_symmetry_space_group_name_H-M "P -1"
_symmetry_group_IT_number 2
_symmetry_cell_setting 'triclinic'
loop_
_space_group_symop_operation_xyz
x,y,z
-x,-y,-z
loop_
_atom_site_type_symbol
_atom_site_label
_atom_site_fract_x
_atom_site_fract_y
_atom_site_fract_z
Si Si1 0.491615 0.156284 0.814975
Si Si2 0.760253 0.877808 0.507395
Si Si3 0.385002 0.529060 0.269969
Si Si4 0.138872 0.930842 0.903337
Si Si5 0.143796 0.504034 0.951640
O O1 0.388856 0.108593 0.555792
O O2 0.392635 0.745863 0.247889
O O3 0.500000 0.000000 0.000000
O O4 0.425656 0.354134 0.009652
O O5 0.825559 0.026141 0.384061
O O6 0.785272 0.930313 0.843848
O O7 0.839525 0.294942 0.118695
O O8 0.500000 0.500000 0.500000
O O9 0.237611 0.505090 0.234140
O O10 0.817627 0.674824 0.311634
O O11 0.000000 0.000000 0.000000
O O12 0.000000 0.500000 0.000000
#
# Coordination Sequence:
#
# PCOD9040956 Si02
#       5
#     2   2   2   2   2
#     4  10  23  43  69  99 141 189 234 303 363 426
#     4  11  27  46  72 108 143 188 247 296 365 433
#     4  10  24  43  68 105 138 183 247 293 358 439
#     4  12  26  46  71 108 145 189 247 294 359 443
#     4  11  25  46  73 104 148 194 233 306 363 426
#
# _framework density 27.336099000000001
#
# number of rings (size 3 to 8) (size 9 to 14) (size 15 to 20)
#    0.000    1.200    2.000    1.800    8.400    3.200 
#    0.000    0.000    0.000    0.000    0.000    0.000 
#    0.000    0.000    0.000    0.000    0.000    0.000 
#
# Total GULP energy -55986.579254 kJ/mol
# GULP energy per Si atom -5598.657925 kJ/mol
# Density = 2.727388 g / cm^3
# Si number density = 27.336099 Si / 1000 Ang^3
#
#
#
# Elastic Constant Matrix: (Units=GPa)
#
#
# Indices 1 2 3 4 5 6 
#
# 1 153.0324 27.7697 10.2166 -8.4594 35.1971 3.9631
# 2 27.7697 188.9455 27.0510 34.8822 2.9240 30.1627
# 3 10.2166 27.0510 101.1394 9.2284 22.3418 7.4887
# 4 -8.4594 34.8822 9.2284 49.8943 6.1165 -0.9656
# 5 35.1971 2.9240 22.3418 6.1165 54.5612 -3.0415
# 6 3.9631 30.1627 7.4887 -0.9656 -3.0415 46.7146
#
#
#
# Elastic Compliance Matrix: (Units=1/GPa)
#
#
# Indices 1 2 3 4 5 6 
#
# 1 0.008377 -0.001858 0.000655 0.003328 -0.005942 0.000066
# 2 -0.001858 0.007476 -0.001354 -0.005589 0.001731 -0.004455
# 3 0.000655 -0.001354 0.011444 -0.000465 -0.005059 -0.001355
# 4 0.003328 -0.005589 -0.000465 0.025195 -0.004278 0.003643
# 5 -0.005942 0.001731 -0.005059 -0.004278 0.024715 0.001718
# 6 0.000066 -0.004455 -0.001355 0.003643 0.001718 0.024682
#
#
# Mechanical properties :
#
#
# Convention : Reuss Voigt Hill
#
# Bulk Modulus (GPa) = 45.08226 63.68797 54.38512
# Shear Modulus (GPa) = 43.70746 55.43936 49.57341
#
# Velocity S-wave (km/s) = 4.00295 4.50829 4.26311
# Velocity P-wave (km/s) = 6.15569 7.10269 6.64608
#
# Compressibility (1/GPa) = 0.02218167
#
# Stress axis : x y z
#
# Youngs Moduli (GPa) = 119.37745 133.76591 87.38428
#
# Poissons Ratio (x) = 0.24851 -0.05721
# Poissons Ratio (y) = 0.22178 0.11834
# Poissons Ratio (z) = -0.07816 0.18115
#
# Static dielectric constant tensor:
#      x y z
#    x 1.906550 0.042270 -0.422280 
#    y 0.042270 2.127080 0.060310 
#    z -0.422280 0.060310 1.882690 
# 
# From -- ./inp_files/91263.got.cif
#   From: 2010.05.17/outbox.cif.g08.bks.cpg/sg2_46_cif.got.tgz:91263.got - 2010.06.03 11:33:40.
