data_PCOD9040816
_publ_section_title
;
Structure prediction by ZEFSAII (Michael W. Deem and Ramdas Pophale) SiO2 
 PCOD9040816
Probable space group: P -1
;
_chemical_formula_sum "Si O2"
_cell_formula_units_Z 14
_cell_length_a 7.909077
_cell_length_b 7.272187
_cell_length_c 13.239228
_cell_angle_alpha 106.728007
_cell_angle_beta 133.891099
_cell_angle_gamma 82.776642
_cell_volume 522.524321
_symmetry_space_group_name_H-M "P -1"
_symmetry_group_IT_number 2
_symmetry_cell_setting 'triclinic'
loop_
_space_group_symop_operation_xyz
x,y,z
-x,-y,-z
loop_
_atom_site_type_symbol
_atom_site_label
_atom_site_fract_x
_atom_site_fract_y
_atom_site_fract_z
Si Si1 0.587073 0.896998 0.211123
Si Si2 0.501333 0.681802 0.391256
Si Si3 0.127360 0.986254 0.944451
Si Si4 0.383822 0.734671 0.583777
Si Si5 0.868386 0.568844 0.286289
Si Si6 0.997500 0.170730 0.333358
Si Si7 0.990343 0.635885 0.114054
O O1 0.547256 0.062160 0.302253
O O2 0.829763 0.990796 0.275946
O O3 0.641149 0.682212 0.227536
O O4 0.366528 0.890643 0.044354
O O5 0.463014 0.728748 0.500338
O O6 0.516210 0.451302 0.353444
O O7 0.761016 0.790429 0.499381
O O8 0.262626 0.731876 0.249046
O O9 0.177891 0.203000 0.958348
O O10 0.964508 0.871759 0.775675
O O11 0.000000 0.000000 0.000000
O O12 0.099957 0.687367 0.450533
O O13 0.861245 0.361039 0.302618
O O14 0.920512 0.555068 0.184340
O O15 0.000000 0.500000 0.000000
#
# Coordination Sequence:
#
# PCOD9040816 Si02
#       7
#     2   2   2   2   2   2   2
#     4  12  24  45  69  98 141 178 223 285 343 400
#     4   9  20  41  70 100 132 179 228 282 331 400
#     4  12  26  46  66  98 135 185 229 279 340 406
#     4   9  19  41  68  99 136 174 222 277 334 403
#     4  10  23  43  69 101 136 178 223 277 345 400
#     4  11  24  44  70 100 140 173 226 283 339 405
#     4  11  22  43  71 101 135 182 233 275 334 404
#
# _framework density 26.793009999999999
#
# number of rings (size 3 to 8) (size 9 to 14) (size 15 to 20)
#    0.000    1.429    1.429    4.286    0.000    3.429 
#   10.286    0.000    0.000    0.000    0.000    0.000 
#    0.000    0.000    0.000    0.000    0.000    0.000 
#
# Total GULP energy -78526.022990 kJ/mol
# GULP energy per Si atom -5609.001642 kJ/mol
# Density = 2.673203 g / cm^3
# Si number density = 26.793010 Si / 1000 Ang^3
#
#
#
# Elastic Constant Matrix: (Units=GPa)
#
#
# Indices 1 2 3 4 5 6 
#
# 1 87.2271 1.4472 11.9073 6.7528 -18.5323 -15.9833
# 2 1.4472 114.8780 32.6513 -12.5759 -4.1241 -22.0288
# 3 11.9073 32.6513 124.9804 -0.9936 -8.1223 -12.0483
# 4 6.7528 -12.5759 -0.9936 47.5158 -13.7333 -1.8307
# 5 -18.5323 -4.1241 -8.1223 -13.7333 43.5917 -0.2892
# 6 -15.9833 -22.0288 -12.0483 -1.8307 -0.2892 44.0740
#
#
#
# Elastic Compliance Matrix: (Units=1/GPa)
#
#
# Indices 1 2 3 4 5 6 
#
# 1 0.013806 0.001349 -0.000742 0.000326 0.005998 0.005531
# 2 0.001349 0.010843 -0.002257 0.003512 0.002321 0.005453
# 3 -0.000742 -0.002257 0.008836 0.000063 0.001144 0.001028
# 4 0.000326 0.003512 0.000063 0.024412 0.008193 0.002959
# 5 0.005998 0.002321 0.001144 0.008193 0.028532 0.004176
# 6 0.005531 0.005453 0.001028 0.002959 0.004176 0.027852
#
#
# Mechanical properties :
#
#
# Convention : Reuss Voigt Hill
#
# Bulk Modulus (GPa) = 33.13065 46.56633 39.84849
# Shear Modulus (GPa) = 39.17236 45.77495 42.47365
#
# Velocity S-wave (km/s) = 3.82781 4.13784 3.98584
# Velocity P-wave (km/s) = 5.65052 6.34403 6.00729
#
# Compressibility (1/GPa) = 0.03018353
#
# Stress axis : x y z
#
# Youngs Moduli (GPa) = 72.43332 92.22819 113.17953
#
# Poissons Ratio (x) = -0.12438 0.08399
# Poissons Ratio (y) = -0.09768 0.25542
# Poissons Ratio (z) = 0.05375 0.20813
#
# Static dielectric constant tensor:
#      x y z
#    x 2.191520 0.011240 -0.061490 
#    y 0.011240 2.057930 -0.008860 
#    z -0.061490 -0.008860 2.003250 
# 
# From -- ./inp_files/260631.got.cif
#   From: 2010.05.17/outbox.cif.g08.bks.cpg/sg2_131_cif.got.tgz:260631.got - 2010.06.03 11:33:40.
