data_PCOD9040360
_publ_section_title
;
Structure prediction by ZEFSAII (Michael W. Deem and Ramdas Pophale) SiO2 
 PCOD9040360
Probable space group: P -1
;
_chemical_formula_sum "Si O2"
_cell_formula_units_Z 12
_cell_length_a 19.140303
_cell_length_b 10.623168
_cell_length_c 8.621256
_cell_angle_alpha 125.517915
_cell_angle_beta 34.486838
_cell_angle_gamma 145.241366
_cell_volume 540.156269
_symmetry_space_group_name_H-M "P -1"
_symmetry_group_IT_number 2
_symmetry_cell_setting 'triclinic'
loop_
_space_group_symop_operation_xyz
x,y,z
-x,-y,-z
loop_
_atom_site_type_symbol
_atom_site_label
_atom_site_fract_x
_atom_site_fract_y
_atom_site_fract_z
Si Si1 0.927517 0.581235 0.873044
Si Si2 0.272657 0.449993 0.076764
Si Si3 0.437604 0.821001 0.612484
Si Si4 0.581464 0.553982 0.717750
Si Si5 0.986768 0.944418 0.168678
Si Si6 0.676019 0.169443 0.684409
O O1 0.806525 0.552450 0.939686
O O2 0.121034 0.696590 0.537532
O O3 0.768421 0.325669 0.054458
O O4 0.990216 0.762385 0.019644
O O5 0.290710 0.619375 0.271906
O O6 0.469142 0.551219 0.796614
O O7 0.135835 0.178915 0.160755
O O8 0.427362 0.634896 0.443321
O O9 0.500000 0.000000 0.500000
O O10 0.597600 0.986164 0.564871
O O11 0.790319 0.803371 0.497950
O O12 0.500000 0.500000 0.000000
O O13 0.000000 0.000000 0.000000
O O14 0.500000 0.000000 0.000000
#
# Coordination Sequence:
#
# PCOD9040360 Si02
#       6
#     2   2   2   2   2   2
#     4  10  23  43  66 102 135 176 231 280 339 402
#     4  11  23  39  69 100 135 175 225 284 336 400
#     4  11  25  46  69  98 143 183 222 281 345 410
#     4  11  25  45  69 101 138 181 230 279 346 409
#     4   9  22  40  67  95 132 170 225 280 335 394
#     4  12  25  40  69 102 137 177 228 281 341 405
#
# _framework density 22.215793000000001
#
# number of rings (size 3 to 8) (size 9 to 14) (size 15 to 20)
#    0.000    1.333    1.667    2.500    4.667    8.667 
#    0.000    0.000    0.000    0.000    0.000    0.000 
#    0.000    0.000    0.000    0.000    0.000    0.000 
#
# Total GULP energy -66891.726122 kJ/mol
# GULP energy per Si atom -5574.310510 kJ/mol
# Density = 2.216523 g / cm^3
# Si number density = 22.215793 Si / 1000 Ang^3
#
#
#
# Elastic Constant Matrix: (Units=GPa)
#
#
# Indices 1 2 3 4 5 6 
#
# 1 44.2267 -12.1239 32.4183 -7.5594 -4.8321 -0.9571
# 2 -12.1239 116.2341 15.2855 -7.5083 -2.8875 17.3217
# 3 32.4183 15.2855 132.8139 -25.6217 -7.4972 9.6144
# 4 -7.5594 -7.5083 -25.6217 37.0118 0.5460 -2.6305
# 5 -4.8321 -2.8875 -7.4972 0.5460 31.4708 0.5043
# 6 -0.9571 17.3217 9.6144 -2.6305 0.5043 26.1496
#
#
#
# Elastic Compliance Matrix: (Units=1/GPa)
#
#
# Indices 1 2 3 4 5 6 
#
# 1 0.029759 0.004085 -0.007273 0.001910 0.003159 0.001189
# 2 0.004085 0.010234 -0.001375 0.001513 0.001309 -0.005997
# 3 -0.007273 -0.001375 0.010797 0.005492 0.001279 -0.002797
# 4 0.001910 0.001513 0.005492 0.031514 0.001191 0.000195
# 5 0.003159 0.001309 0.001279 0.001191 0.032692 -0.001732
# 6 0.001189 -0.005997 -0.002797 0.000195 -0.001732 0.043339
#
#
# Mechanical properties :
#
#
# Convention : Reuss Voigt Hill
#
# Bulk Modulus (GPa) = 24.00133 40.49271 32.24702
# Shear Modulus (GPa) = 27.57090 36.10609 31.83849
#
# Velocity S-wave (km/s) = 3.52668 4.03581 3.78980
# Velocity P-wave (km/s) = 5.23550 6.32325 5.80491
#
# Compressibility (1/GPa) = 0.04166437
#
# Stress axis : x y z
#
# Youngs Moduli (GPa) = 33.60286 97.71113 92.61702
#
# Poissons Ratio (x) = -0.39918 0.67364
# Poissons Ratio (y) = -0.13728 0.12736
# Poissons Ratio (z) = 0.24441 0.13437
#
# Static dielectric constant tensor:
#      x y z
#    x 4.855120 1.052950 -0.580640 
#    y 1.052950 2.212890 -0.168440 
#    z -0.580640 -0.168440 1.965230 
# 
# From -- ./inp_files/21670.got.cif
#   From: 2010.05.17/outbox.cif.g08.bks.cpg/sg2_11_cif.got.tgz:21670.got - 2010.06.03 11:33:40.
