data_PCOD9040377
_publ_section_title
;
Structure prediction by ZEFSAII (Michael W. Deem and Ramdas Pophale) SiO2 
 PCOD9040377
Probable space group: P -1
;
_chemical_formula_sum "Si O2"
_cell_formula_units_Z 12
_cell_length_a 10.582039
_cell_length_b 9.920988
_cell_length_c 10.233733
_cell_angle_alpha 76.759842
_cell_angle_beta 105.847914
_cell_angle_gamma 42.348276
_cell_volume 520.052650
_symmetry_space_group_name_H-M "P -1"
_symmetry_group_IT_number 2
_symmetry_cell_setting 'triclinic'
loop_
_space_group_symop_operation_xyz
x,y,z
-x,-y,-z
loop_
_atom_site_type_symbol
_atom_site_label
_atom_site_fract_x
_atom_site_fract_y
_atom_site_fract_z
Si Si1 0.053673 0.318365 0.232523
Si Si2 0.845465 0.778999 0.419402
Si Si3 0.651059 0.195645 0.899085
Si Si4 0.165729 0.760073 0.499343
Si Si5 0.035154 0.885199 0.849526
Si Si6 0.352627 0.104158 0.100588
O O1 0.182638 0.187008 0.438769
O O2 0.898312 0.316978 0.160227
O O3 0.251730 0.154222 0.205955
O O4 0.870226 0.615797 0.100917
O O5 0.000000 0.500000 0.500000
O O6 0.009933 0.761132 0.425716
O O7 0.584284 0.996775 0.220683
O O8 0.429257 0.477662 0.699950
O O9 0.905860 0.960482 0.933127
O O10 0.572065 0.106054 0.904124
O O11 0.739227 0.209681 0.042154
O O12 0.176548 0.844874 0.355638
O O13 0.000000 0.000000 0.500000
#
# Coordination Sequence:
#
# PCOD9040377 Si02
#       6
#     2   2   2   2   2   2
#     4  10  23  43  66  92 121 164 211 254 303 363
#     4  12  25  42  61  93 129 165 204 251 313 368
#     4  10  23  43  66  92 121 164 211 254 303 363
#     4  12  25  42  61  93 129 165 204 251 313 368
#     4  10  23  43  66  91 123 163 210 255 303 364
#     4  10  23  43  66  91 123 163 210 255 303 364
#
# _framework density 23.074587000000001
#
# number of rings (size 3 to 8) (size 9 to 14) (size 15 to 20)
#    0.000    1.333    3.333    1.000    4.667    2.667 
#    0.000    0.000    0.000    0.000    0.000    0.000 
#    0.000    0.000    0.000    0.000    0.000    0.000 
#
# Total GULP energy -67123.647137 kJ/mol
# GULP energy per Si atom -5593.637261 kJ/mol
# Density = 2.302207 g / cm^3
# Si number density = 23.074587 Si / 1000 Ang^3
#
#
#
# Elastic Constant Matrix: (Units=GPa)
#
#
# Indices 1 2 3 4 5 6 
#
# 1 27.8230 23.6592 0.6188 14.2875 -3.3212 9.6042
# 2 23.6592 94.7902 11.4812 5.5081 2.4078 29.5194
# 3 0.6188 11.4812 86.8324 6.7311 4.6532 14.0301
# 4 14.2875 5.5081 6.7311 31.8912 3.3233 -5.1738
# 5 -3.3212 2.4078 4.6532 3.3233 42.8057 7.1768
# 6 9.6042 29.5194 14.0301 -5.1738 7.1768 46.0097
#
#
#
# Elastic Compliance Matrix: (Units=1/GPa)
#
#
# Indices 1 2 3 4 5 6 
#
# 1 0.069047 -0.011926 0.005334 -0.033307 0.010339 -0.013746
# 2 -0.011926 0.015742 -0.000964 0.001759 -0.000667 -0.007015
# 3 0.005334 -0.000964 0.012865 -0.005810 0.000381 -0.005131
# 4 -0.033307 0.001759 -0.005810 0.050443 -0.008412 0.014580
# 5 0.010339 -0.000667 0.000381 -0.008412 0.025960 -0.006842
# 6 -0.013746 -0.007015 -0.005131 0.014580 -0.006842 0.033376
#
#
# Mechanical properties :
#
#
# Convention : Reuss Voigt Hill
#
# Bulk Modulus (GPa) = 12.11511 31.21820 21.66666
# Shear Modulus (GPa) = 19.99522 35.72041 27.85781
#
# Velocity S-wave (km/s) = 2.94691 3.93878 3.47838
# Velocity P-wave (km/s) = 4.10376 5.85184 5.05395
#
# Compressibility (1/GPa) = 0.08254156
#
# Stress axis : x y z
#
# Youngs Moduli (GPa) = 14.48289 63.52255 77.73096
#
# Poissons Ratio (x) = 0.75760 -0.41459
# Poissons Ratio (y) = 0.17273 0.07491
# Poissons Ratio (z) = -0.07725 0.06122
#
# Static dielectric constant tensor:
#      x y z
#    x 1.900250 -0.035280 0.003270 
#    y -0.035280 1.861100 0.044460 
#    z 0.003270 0.044460 1.812820 
# 
# From -- ./inp_files/21010.got.cif
#   From: 2010.05.17/outbox.cif.g08.bks.cpg/sg2_11_cif.got.tgz:21010.got - 2010.06.03 11:33:40.
