data_PCOD9040945
_publ_section_title
;
Structure prediction by ZEFSAII (Michael W. Deem and Ramdas Pophale) SiO2 
 PCOD9040945
Probable space group: P -1
;
_chemical_formula_sum "Si O2"
_cell_formula_units_Z 14
_cell_length_a 6.520917
_cell_length_b 13.740365
_cell_length_c 16.682344
_cell_angle_alpha 149.825183
_cell_angle_beta 119.375873
_cell_angle_gamma 51.387865
_cell_volume 582.490584
_symmetry_space_group_name_H-M "P -1"
_symmetry_group_IT_number 2
_symmetry_cell_setting 'triclinic'
loop_
_space_group_symop_operation_xyz
x,y,z
-x,-y,-z
loop_
_atom_site_type_symbol
_atom_site_label
_atom_site_fract_x
_atom_site_fract_y
_atom_site_fract_z
Si Si1 0.280997 0.317604 0.845226
Si Si2 0.276476 0.519270 0.155140
Si Si3 0.282291 0.912540 0.651604
Si Si4 0.289610 0.962255 0.876036
Si Si5 0.853765 0.225888 0.085824
Si Si6 0.684470 0.103555 0.637870
Si Si7 0.225428 0.535321 0.612888
O O1 0.529659 0.247243 0.786749
O O2 0.002663 0.431078 0.825354
O O3 0.296918 0.100507 0.734922
O O4 0.258512 0.473001 0.024823
O O5 0.540059 0.314888 0.087475
O O6 0.307157 0.738153 0.317372
O O7 0.338003 0.949021 0.780898
O O8 0.501151 0.679313 0.498661
O O9 0.984153 0.944510 0.607057
O O10 0.269716 0.739193 0.734775
O O11 0.500000 0.000000 0.000000
O O12 0.003546 0.164001 0.986483
O O13 0.876728 0.406022 0.273417
O O14 0.000000 0.000000 0.000000
O O15 0.500000 0.000000 0.500000
O O16 0.000000 0.500000 0.500000
#
# Coordination Sequence:
#
# PCOD9040945 Si02
#       7
#     2   2   2   2   2   2   2
#     4  10  24  44  72  98 141 180 238 293 359 417
#     4  10  23  43  69  99 134 187 234 288 352 426
#     4  11  26  44  74 104 143 188 239 304 364 430
#     4  11  25  46  69 105 146 187 250 297 357 439
#     4  10  24  42  69 100 139 184 240 288 356 433
#     4  11  26  43  69 105 142 185 239 297 362 429
#     4  11  26  43  70 103 147 192 237 294 374 428
#
# _framework density 24.034725000000002
#
# number of rings (size 3 to 8) (size 9 to 14) (size 15 to 20)
#    0.000    1.429    0.000    2.571   14.000    4.571 
#    0.000    0.000    0.000    0.000    0.000    0.000 
#    0.000    0.000    0.000    0.000    0.000    0.000 
#
# Total GULP energy -78316.500956 kJ/mol
# GULP energy per Si atom -5594.035783 kJ/mol
# Density = 2.398002 g / cm^3
# Si number density = 24.034725 Si / 1000 Ang^3
#
#
#
# Elastic Constant Matrix: (Units=GPa)
#
#
# Indices 1 2 3 4 5 6 
#
# 1 90.7537 57.4981 57.1196 20.6499 4.5881 -22.0707
# 2 57.4981 135.0523 50.7481 15.6967 3.0379 -39.5107
# 3 57.1196 50.7481 142.1186 7.7812 -3.4649 -21.5013
# 4 20.6499 15.6967 7.7812 40.2148 -9.5004 -7.3738
# 5 4.5881 3.0379 -3.4649 -9.5004 61.2715 1.5031
# 6 -22.0707 -39.5107 -21.5013 -7.3738 1.5031 47.0530
#
#
#
# Elastic Compliance Matrix: (Units=1/GPa)
#
#
# Indices 1 2 3 4 5 6 
#
# 1 0.019989 -0.004997 -0.005677 -0.007601 -0.002785 0.001484
# 2 -0.004997 0.012220 -0.001230 -0.000778 -0.000600 0.007252
# 3 -0.005677 -0.001230 0.009842 0.002001 0.001327 0.001073
# 4 -0.007601 -0.000778 0.002001 0.030185 0.005370 0.001255
# 5 -0.002785 -0.000600 0.001327 0.005370 0.017489 -0.000921
# 6 0.001484 0.007252 0.001073 0.001255 -0.000921 0.028755
#
#
# Mechanical properties :
#
#
# Convention : Reuss Voigt Hill
#
# Bulk Modulus (GPa) = 54.81339 77.62846 66.22092
# Shear Modulus (GPa) = 33.69993 43.21176 38.45585
#
# Velocity S-wave (km/s) = 3.74857 4.24475 4.00435
# Velocity P-wave (km/s) = 6.44912 7.50949 6.99941
#
# Compressibility (1/GPa) = 0.01824372
#
# Stress axis : x y z
#
# Youngs Moduli (GPa) = 50.02819 81.83471 101.60225
#
# Poissons Ratio (x) = 0.40891 0.57677
# Poissons Ratio (y) = 0.24998 0.12497
# Poissons Ratio (z) = 0.28400 0.10065
#
# Static dielectric constant tensor:
#      x y z
#    x 1.954580 0.012500 0.006790 
#    y 0.012500 1.969360 -0.032660 
#    z 0.006790 -0.032660 1.939040 
# 
# From -- ./inp_files/305414.got.cif
#   From: 2010.05.17/outbox.cif.g08.bks.cpg/sg2_153_cif.got.tgz:305414.got - 2010.06.03 11:33:40.
