data_PCOD9040149
_publ_section_title
;
Structure prediction by ZEFSAII (Michael W. Deem and Ramdas Pophale) SiO2 
 PCOD9040149
Probable space group: P -1
;
_chemical_formula_sum "Si O2"
_cell_formula_units_Z 16
_cell_length_a 10.965333
_cell_length_b 9.395069
_cell_length_c 7.840057
_cell_angle_alpha 99.435158
_cell_angle_beta 68.168081
_cell_angle_gamma 102.385053
_cell_volume 729.144726
_symmetry_space_group_name_H-M "P -1"
_symmetry_group_IT_number 2
_symmetry_cell_setting 'triclinic'
loop_
_space_group_symop_operation_xyz
x,y,z
-x,-y,-z
loop_
_atom_site_type_symbol
_atom_site_label
_atom_site_fract_x
_atom_site_fract_y
_atom_site_fract_z
Si Si1 0.204976 0.251433 0.292864
Si Si2 0.915671 0.537210 0.387649
Si Si3 0.071100 0.809251 0.162065
Si Si4 0.478471 0.324978 0.978175
Si Si5 0.586319 0.913287 0.313637
Si Si6 0.922829 0.226232 0.246312
Si Si7 0.628318 0.115826 0.019854
Si Si8 0.822797 0.947277 0.427764
O O1 0.197750 0.380657 0.459392
O O2 0.212460 0.110861 0.377424
O O3 0.070321 0.241605 0.253287
O O4 0.327835 0.276071 0.108812
O O5 0.871376 0.380694 0.295183
O O6 0.000000 0.500000 0.500000
O O7 0.009322 0.649011 0.236620
O O8 0.226366 0.853079 0.135461
O O9 0.968022 0.907018 0.308101
O O10 0.065571 0.822345 0.963329
O O11 0.489327 0.227440 0.781316
O O12 0.574345 0.268037 0.057180
O O13 0.500000 0.500000 0.000000
O O14 0.707401 0.866694 0.347956
O O15 0.500000 0.000000 0.500000
O O16 0.647653 0.040766 0.174812
O O17 0.835333 0.115780 0.400889
O O18 0.500000 0.000000 0.000000
#
# Coordination Sequence:
#
# PCOD9040149 Si02
#       8
#     2   2   2   2   2   2   2   2
#     4  10  23  43  63  98 138 173 230 286 349 414
#     4   9  22  40  60  97 136 175 217 289 345 411
#     4  11  22  41  67 101 136 175 235 281 355 408
#     4  11  26  47  72  98 136 193 233 285 352 427
#     4  11  24  48  70 102 142 181 235 290 346 417
#     4  11  21  38  68  98 133 177 227 285 350 412
#     4  10  24  44  67  98 138 184 232 282 351 417
#     4  11  23  41  69 103 134 178 231 294 343 406
#
# _framework density 21.943515999999999
#
# number of rings (size 3 to 8) (size 9 to 14) (size 15 to 20)
#    0.000    1.500    1.250    2.625    7.000    1.000 
#   15.750    1.250    0.000    0.000    0.000    0.000 
#    0.000    0.000    0.000    0.000    0.000    0.000 
#
# Total GULP energy -89283.067452 kJ/mol
# GULP energy per Si atom -5580.191716 kJ/mol
# Density = 2.189357 g / cm^3
# Si number density = 21.943516 Si / 1000 Ang^3
#
#
#
# Elastic Constant Matrix: (Units=GPa)
#
#
# Indices 1 2 3 4 5 6 
#
# 1 83.2208 18.6664 5.0839 -6.6573 5.9579 -4.7458
# 2 18.6664 159.2388 46.2261 -8.7719 0.9301 -12.4915
# 3 5.0839 46.2261 75.8735 -9.1826 1.5679 11.0153
# 4 -6.6573 -8.7719 -9.1826 24.0932 -6.2102 6.9949
# 5 5.9579 0.9301 1.5679 -6.2102 22.8596 -7.6718
# 6 -4.7458 -12.4915 11.0153 6.9949 -7.6718 24.0476
#
#
#
# Elastic Compliance Matrix: (Units=1/GPa)
#
#
# Indices 1 2 3 4 5 6 
#
# 1 0.012701 -0.001443 0.000370 0.002442 -0.002597 0.000049
# 2 -0.001443 0.009099 -0.007031 -0.001612 0.003112 0.009124
# 3 0.000370 -0.007031 0.021235 0.009553 -0.004558 -0.017539
# 4 0.002442 -0.001612 0.009553 0.052173 0.007018 -0.017669
# 5 -0.002597 0.003112 -0.004558 0.007018 0.052524 0.017907
# 6 0.000049 0.009124 -0.017539 -0.017669 0.017907 0.065220
#
#
# Mechanical properties :
#
#
# Convention : Reuss Voigt Hill
#
# Bulk Modulus (GPa) = 37.27426 50.92064 44.09745
# Shear Modulus (GPa) = 20.99939 30.75719 25.87829
#
# Velocity S-wave (km/s) = 3.09686 3.74793 3.43784
# Velocity P-wave (km/s) = 5.45992 6.47958 5.99148
#
# Compressibility (1/GPa) = 0.02682816
#
# Stress axis : x y z
#
# Youngs Moduli (GPa) = 78.73220 109.90515 47.09145
#
# Poissons Ratio (x) = 0.15857 -0.01743
# Poissons Ratio (y) = 0.11359 0.33109
# Poissons Ratio (z) = -0.02914 0.77273
#
# Static dielectric constant tensor:
#      x y z
#    x 1.828790 0.030270 0.026070 
#    y 0.030270 1.896140 0.070010 
#    z 0.026070 0.070010 1.858060 
# 
# From -- ./inp_files/238922.got.cif
#   From: 2010.05.17/outbox.cif.g08.bks.cpg/sg2_120_cif.got.tgz:238922.got - 2010.06.03 11:33:40.
