data_PCOD9040334
_publ_section_title
;
Structure prediction by ZEFSAII (Michael W. Deem and Ramdas Pophale) SiO2 
 PCOD9040334
Probable space group: P -1
;
_chemical_formula_sum "Si O2"
_cell_formula_units_Z 16
_cell_length_a 25.580809
_cell_length_b 11.805925
_cell_length_c 8.664233
_cell_angle_alpha 138.862928
_cell_angle_beta 150.509569
_cell_angle_gamma 32.226558
_cell_volume 685.504576
_symmetry_space_group_name_H-M "P -1"
_symmetry_group_IT_number 2
_symmetry_cell_setting 'triclinic'
loop_
_space_group_symop_operation_xyz
x,y,z
-x,-y,-z
loop_
_atom_site_type_symbol
_atom_site_label
_atom_site_fract_x
_atom_site_fract_y
_atom_site_fract_z
Si Si1 0.402117 0.449931 0.759954
Si Si2 0.638308 0.815707 0.091365
Si Si3 0.253695 0.539635 0.759566
Si Si4 0.901186 0.745489 0.808036
Si Si5 0.631741 0.998610 0.946935
Si Si6 0.153144 0.307718 0.063929
Si Si7 0.789879 0.189229 0.572918
Si Si8 0.053084 0.920445 0.831798
O O1 0.352095 0.539873 0.896116
O O2 0.280693 0.591105 0.477159
O O3 0.500000 0.500000 0.000000
O O4 0.486434 0.195064 0.721839
O O5 0.674658 0.601571 0.048426
O O6 0.762594 0.815818 0.457351
O O7 0.625605 0.861201 0.923445
O O8 0.500000 0.000000 0.000000
O O9 0.203637 0.427667 0.412101
O O10 0.130284 0.765691 0.729674
O O11 0.878035 0.792286 0.979423
O O12 0.015248 0.493667 0.823371
O O13 0.949259 0.872845 0.984794
O O14 0.693091 0.122821 0.295889
O O15 0.732673 0.852907 0.922706
O O16 0.861337 0.192617 0.910722
O O17 0.905793 0.002578 0.571179
#
# Coordination Sequence:
#
# PCOD9040334 Si02
#       8
#     2   2   2   2   2   2   2   2
#     4  10  23  43  65  99 138 177 228 277 332 400
#     4  11  23  46  68  97 139 174 225 273 336 405
#     4  11  25  44  68 102 136 179 228 276 335 404
#     4  10  23  44  67 102 136 173 229 274 337 405
#     4  11  23  45  70  94 139 181 223 283 333 403
#     4  10  25  42  69 104 134 176 227 278 341 393
#     4  10  24  43  68 104 133 176 230 274 346 397
#     4  11  24  44  71  99 138 179 221 286 337 396
#
# _framework density 23.34047
#
# number of rings (size 3 to 8) (size 9 to 14) (size 15 to 20)
#    0.000    1.500    2.500    0.750    8.750    5.000 
#    4.500    3.125    0.000    0.000    0.000    0.000 
#    0.000    0.000    0.000    0.000    0.000    0.000 
#
# Total GULP energy -89487.833633 kJ/mol
# GULP energy per Si atom -5592.989602 kJ/mol
# Density = 2.328735 g / cm^3
# Si number density = 23.340470 Si / 1000 Ang^3
#
#
#
# Elastic Constant Matrix: (Units=GPa)
#
#
# Indices 1 2 3 4 5 6 
#
# 1 163.7474 57.5415 25.2668 -19.1177 0.1232 -0.0241
# 2 57.5415 118.7509 33.5649 -36.3685 -17.4535 -7.6991
# 3 25.2668 33.5649 61.5268 -27.2755 0.6002 -3.0702
# 4 -19.1177 -36.3685 -27.2755 33.3576 -0.3722 -2.9513
# 5 0.1232 -17.4535 0.6002 -0.3722 33.7940 -3.9829
# 6 -0.0241 -7.6991 -3.0702 -2.9513 -3.9829 57.1544
#
#
#
# Elastic Compliance Matrix: (Units=1/GPa)
#
#
# Indices 1 2 3 4 5 6 
#
# 1 0.007612 -0.004076 -0.001576 -0.001471 -0.002223 -0.000861
# 2 -0.004076 0.017231 -0.000216 0.016719 0.009554 0.003837
# 3 -0.001576 -0.000216 0.026243 0.020535 -0.000059 0.002436
# 4 -0.001471 0.016719 0.020535 0.064919 0.009862 0.007394
# 5 -0.002223 0.009554 -0.000059 0.009862 0.035143 0.004241
# 6 -0.000861 0.003837 0.002436 0.007394 0.004241 0.018821
#
#
# Mechanical properties :
#
#
# Convention : Reuss Voigt Hill
#
# Bulk Modulus (GPa) = 25.41245 64.08572 44.74909
# Shear Modulus (GPa) = 25.66454 40.03800 32.85127
#
# Velocity S-wave (km/s) = 3.31958 4.14622 3.75571
# Velocity P-wave (km/s) = 5.06005 7.10197 6.16612
#
# Compressibility (1/GPa) = 0.03935079
#
# Stress axis : x y z
#
# Youngs Moduli (GPa) = 131.36587 58.03659 38.10477
#
# Poissons Ratio (x) = 0.23657 0.06004
# Poissons Ratio (y) = 0.53547 0.00822
# Poissons Ratio (z) = 0.20700 0.01252
#
# Static dielectric constant tensor:
#      x y z
#    x 1.872260 0.013590 -0.004420 
#    y 0.013590 1.889010 0.003660 
#    z -0.004420 0.003660 1.920920 
# 
# From -- ./inp_files/329105.got.cif
#   From: 2010.05.17/outbox.cif.g08.bks.cpg/sg2_165_cif.got.tgz:329105.got - 2010.06.03 11:33:40.
