data_PCOD9041961
_publ_section_title
;
Structure prediction by ZEFSAII (Michael W. Deem and Ramdas Pophale) SiO2 
 PCOD9041961
Probable space group: P -1
;
_chemical_formula_sum "Si O2"
_cell_formula_units_Z 13
_cell_length_a 15.292043
_cell_length_b 16.601549
_cell_length_c 12.070519
_cell_angle_alpha 157.582621
_cell_angle_beta 152.396105
_cell_angle_gamma 28.988226
_cell_volume 514.059304
_symmetry_space_group_name_H-M "P -1"
_symmetry_group_IT_number 2
_symmetry_cell_setting 'triclinic'
loop_
_space_group_symop_operation_xyz
x,y,z
-x,-y,-z
loop_
_atom_site_type_symbol
_atom_site_label
_atom_site_fract_x
_atom_site_fract_y
_atom_site_fract_z
Si Si1 0.500000 0.500000 0.500000
Si Si2 0.227389 0.003155 0.385224
Si Si3 0.654263 0.677117 0.495637
Si Si4 0.951161 0.750173 0.304265
Si Si5 0.693546 0.999755 0.145194
Si Si6 0.646152 0.309547 0.190566
Si Si7 0.840752 0.842669 0.735074
O O1 0.646160 0.248116 0.365378
O O2 0.498173 0.443599 0.289236
O O3 0.221771 0.159426 0.684399
O O4 0.432901 0.807071 0.371766
O O5 0.187860 0.158187 0.429579
O O6 0.049907 0.891154 0.049374
O O7 0.648515 0.458359 0.275231
O O8 0.804619 0.653815 0.532180
O O9 0.715007 0.828918 0.850646
O O10 0.142251 0.738573 0.573454
O O11 0.877291 0.910425 0.321594
O O12 0.000000 0.500000 0.000000
O O13 0.500000 0.000000 0.000000
O O14 0.661663 0.064154 0.855775
#
# Coordination Sequence:
#
# PCOD9041961 Si02
#       7
#     1   2   2   2   2   2   2
#     4  12  22  40  62 100 132 176 220 278 330 400
#     4  10  23  44  68  95 135 176 227 278 329 400
#     4  12  22  44  69  98 132 181 220 278 337 396
#     4  11  21  40  66  97 132 174 215 281 333 393
#     4  12  22  40  64  97 139 169 223 278 335 404
#     4  11  24  39  66 100 134 177 228 268 340 404
#     4  10  24  46  65  95 137 177 225 281 325 400
#
# _framework density 25.288912
#
# number of rings (size 3 to 8) (size 9 to 14) (size 15 to 20)
#    0.000    0.923    6.154    0.462    0.000    1.231 
#    2.769   10.000    0.000    0.000    0.000    0.000 
#    0.000    0.000    0.000    0.000    0.000    0.000 
#
# Total GULP energy -72533.348422 kJ/mol
# GULP energy per Si atom -5579.488340 kJ/mol
# Density = 2.523135 g / cm^3
# Si number density = 25.288912 Si / 1000 Ang^3
#
#
#
# Elastic Constant Matrix: (Units=GPa)
#
#
# Indices 1 2 3 4 5 6 
#
# 1 170.4491 36.6410 37.7301 -2.0056 5.4889 33.3730
# 2 36.6410 139.7453 45.3582 -3.3861 16.0834 38.3734
# 3 37.7301 45.3582 51.2422 -4.7725 -8.5557 9.1747
# 4 -2.0056 -3.3861 -4.7725 43.2042 -1.6634 1.0357
# 5 5.4889 16.0834 -8.5557 -1.6634 48.0893 4.8584
# 6 33.3730 38.3734 9.1747 1.0357 4.8584 50.1290
#
#
#
# Elastic Compliance Matrix: (Units=1/GPa)
#
#
# Indices 1 2 3 4 5 6 
#
# 1 0.008159 0.001912 -0.007147 -0.000221 -0.002309 -0.005359
# 2 0.001912 0.014287 -0.013541 -0.000319 -0.006498 -0.009095
# 3 -0.007147 -0.013541 0.037695 0.003042 0.011444 0.007052
# 4 -0.000221 -0.000319 0.003042 0.023526 0.001568 -0.000803
# 5 -0.002309 -0.006498 0.011444 0.001568 0.025125 0.001949
# 6 -0.005359 -0.009095 0.007052 -0.000803 0.001949 0.029016
#
#
# Mechanical properties :
#
#
# Convention : Reuss Voigt Hill
#
# Bulk Modulus (GPa) = 44.26685 66.76613 55.51649
# Shear Modulus (GPa) = 27.33920 44.39831 35.86875
#
# Velocity S-wave (km/s) = 3.29154 4.19459 3.77020
# Velocity P-wave (km/s) = 5.65580 7.06527 6.39946
#
# Compressibility (1/GPa) = 0.02259027
#
# Stress axis : x y z
#
# Youngs Moduli (GPa) = 122.56763 69.99316 26.52894
#
# Poissons Ratio (x) = -0.13385 0.18959
# Poissons Ratio (y) = -0.23440 0.35922
# Poissons Ratio (z) = 0.87595 0.94777
#
# Static dielectric constant tensor:
#      x y z
#    x 8.072570 -0.867100 -6.229480 
#    y -0.867100 2.039010 0.867810 
#    z -6.229480 0.867810 8.551190 
# 
# From -- ./inp_files/233290.got.cif
#   From: 2010.05.17/outbox.cif.g08.bks.cpg/sg2_117_cif.got.tgz:233290.got - 2010.06.03 11:33:40.
