data_PCOD9041399
_publ_section_title
;
Structure prediction by ZEFSAII (Michael W. Deem and Ramdas Pophale) SiO2 
 PCOD9041399
Probable space group: P -1
;
_chemical_formula_sum "Si O2"
_cell_formula_units_Z 16
_cell_length_a 11.860538
_cell_length_b 14.457179
_cell_length_c 11.990792
_cell_angle_alpha 159.775185
_cell_angle_beta 71.795271
_cell_angle_gamma 108.997451
_cell_volume 671.922704
_symmetry_space_group_name_H-M "P -1"
_symmetry_group_IT_number 2
_symmetry_cell_setting 'triclinic'
loop_
_space_group_symop_operation_xyz
x,y,z
-x,-y,-z
loop_
_atom_site_type_symbol
_atom_site_label
_atom_site_fract_x
_atom_site_fract_y
_atom_site_fract_z
Si Si1 0.386798 0.717379 0.251386
Si Si2 0.166622 0.991929 0.701238
Si Si3 0.917433 0.731456 0.747418
Si Si4 0.453834 0.784229 0.861798
Si Si5 0.224141 0.281396 0.676841
Si Si6 0.202922 0.539634 0.738486
Si Si7 0.951549 0.618823 0.989932
Si Si8 0.444688 0.014579 0.352771
O O1 0.481995 0.712595 0.316349
O O2 0.300225 0.935780 0.568189
O O3 0.449387 0.818202 0.232277
O O4 0.291122 0.483788 0.975301
O O5 0.089594 0.695122 0.385760
O O6 0.161805 0.167370 0.013430
O O7 0.115135 0.178202 0.835274
O O8 0.848628 0.641557 0.554119
O O9 0.000000 0.500000 0.500000
O O10 0.000000 0.000000 0.000000
O O11 0.500000 0.500000 0.500000
O O12 0.311759 0.721102 0.852590
O O13 0.500000 0.000000 0.000000
O O14 0.499861 0.905161 0.102124
O O15 0.243129 0.376187 0.650110
O O16 0.304548 0.038889 0.400099
O O17 0.088515 0.299919 0.780433
O O18 0.090294 0.675528 0.977876
#
# Coordination Sequence:
#
# PCOD9041399 Si02
#       8
#     2   2   2   2   2   2   2   2
#     4  10  23  43  74 104 146 193 248 314 372 437
#     4  11  22  46  67 111 148 187 252 302 366 446
#     4  12  25  46  73 108 151 199 254 303 369 459
#     4  12  30  53  72 107 149 199 259 308 368 447
#     4  11  23  46  72 116 151 192 250 312 384 460
#     4  12  26  49  78 105 154 203 245 315 383 444
#     4  11  24  44  75 110 150 191 239 310 376 454
#     4  11  23  47  75 102 146 198 251 310 375 437
#
# _framework density 23.812263000000002
#
# number of rings (size 3 to 8) (size 9 to 14) (size 15 to 20)
#    0.000    0.750    5.000    1.500    1.750    4.000 
#    4.500    2.500    0.000    0.000    0.000    0.000 
#    0.000    0.000    0.000    0.000    0.000    0.000 
#
# Total GULP energy -89388.439625 kJ/mol
# GULP energy per Si atom -5586.777477 kJ/mol
# Density = 2.375806 g / cm^3
# Si number density = 23.812263 Si / 1000 Ang^3
#
#
#
# Elastic Constant Matrix: (Units=GPa)
#
#
# Indices 1 2 3 4 5 6 
#
# 1 116.5348 58.4794 36.1787 -0.6136 11.3278 6.1529
# 2 58.4794 164.0106 70.7377 -13.3941 -3.3056 11.4255
# 3 36.1787 70.7377 149.0415 -18.9889 7.3365 -2.1676
# 4 -0.6136 -13.3941 -18.9889 54.2860 -6.4137 0.6768
# 5 11.3278 -3.3056 7.3365 -6.4137 39.5292 -2.9679
# 6 6.1529 11.4255 -2.1676 0.6768 -2.9679 39.8822
#
#
#
# Elastic Compliance Matrix: (Units=1/GPa)
#
#
# Indices 1 2 3 4 5 6 
#
# 1 0.011128 -0.003673 -0.000990 -0.001544 -0.003635 -0.000963
# 2 -0.003673 0.009206 -0.003461 0.001344 0.002526 -0.002094
# 3 -0.000990 -0.003461 0.008942 0.002101 -0.001212 0.001504
# 4 -0.001544 0.001344 0.002101 0.019871 0.003380 -0.000118
# 5 -0.003635 0.002526 -0.001212 0.003380 0.027456 0.001757
# 6 -0.000963 -0.002094 0.001504 -0.000118 0.001757 0.026037
#
#
# Mechanical properties :
#
#
# Convention : Reuss Voigt Hill
#
# Bulk Modulus (GPa) = 76.76164 84.48652 80.62408
# Shear Modulus (GPa) = 40.57460 44.35222 42.46341
#
# Velocity S-wave (km/s) = 4.13236 4.32044 4.22745
# Velocity P-wave (km/s) = 7.42123 7.77468 7.60001
#
# Compressibility (1/GPa) = 0.01302734
#
# Stress axis : x y z
#
# Youngs Moduli (GPa) = 89.86612 108.62177 111.83487
#
# Poissons Ratio (x) = 0.39899 0.11067
# Poissons Ratio (y) = 0.33009 0.38710
# Poissons Ratio (z) = 0.08893 0.37598
#
# Static dielectric constant tensor:
#      x y z
#    x 2.056560 0.077430 0.055440 
#    y 0.077430 1.962980 0.046790 
#    z 0.055440 0.046790 2.087750 
# 
# From -- ./inp_files/434388.got.cif
#   From: 2010.05.17/outbox.cif.g08.bks.cpg/sg2_218_cif.got.tgz:434388.got - 2010.06.03 11:33:40.
