data_PCOD9041088
_publ_section_title
;
Structure prediction by ZEFSAII (Michael W. Deem and Ramdas Pophale) SiO2 
 PCOD9041088
Probable space group: P -1
;
_chemical_formula_sum "Si O2"
_cell_formula_units_Z 16
_cell_length_a 13.373920
_cell_length_b 12.110664
_cell_length_c 9.627582
_cell_angle_alpha 81.024935
_cell_angle_beta 107.972865
_cell_angle_gamma 148.632818
_cell_volume 753.661704
_symmetry_space_group_name_H-M "P -1"
_symmetry_group_IT_number 2
_symmetry_cell_setting 'triclinic'
loop_
_space_group_symop_operation_xyz
x,y,z
-x,-y,-z
loop_
_atom_site_type_symbol
_atom_site_label
_atom_site_fract_x
_atom_site_fract_y
_atom_site_fract_z
Si Si1 0.865028 0.111839 0.506922
Si Si2 0.327758 0.560213 0.698931
Si Si3 0.531386 0.403843 0.971389
Si Si4 0.270434 0.516460 0.208391
Si Si5 0.240929 0.736935 0.068268
Si Si6 0.547039 0.666980 0.527434
Si Si7 0.210787 0.921532 0.840586
Si Si8 0.396395 0.993366 0.358423
O O1 0.794355 0.083966 0.328482
O O2 0.756819 0.079053 0.593105
O O3 0.105632 0.342354 0.581966
O O4 0.776193 0.907176 0.535140
O O5 0.333140 0.534207 0.866449
O O6 0.489163 0.631764 0.669192
O O7 0.422214 0.767504 0.674993
O O8 0.500000 0.500000 0.000000
O O9 0.653303 0.509625 0.858599
O O10 0.333960 0.142586 0.908763
O O11 0.323450 0.684832 0.126890
O O12 0.398825 0.615017 0.385417
O O13 0.028666 0.289175 0.176445
O O14 0.283551 0.833138 0.214716
O O15 0.294072 0.879540 0.947304
O O16 0.000000 0.500000 0.000000
O O17 0.500000 0.500000 0.500000
O O18 0.500000 0.000000 0.500000
#
# Coordination Sequence:
#
# PCOD9041088 Si02
#       8
#     2   2   2   2   2   2   2   2
#     4  11  25  43  69  98 136 178 229 276 344 413
#     4  11  25  43  65 100 134 176 229 282 344 399
#     4  12  27  45  69 100 136 179 232 283 344 404
#     4  11  24  45  70  99 138 176 228 282 338 406
#     4  10  23  43  70  98 138 178 222 278 340 406
#     4  11  23  43  69  97 136 177 231 291 335 404
#     4  11  24  46  70 102 136 182 228 277 346 412
#     4  11  25  44  65 100 142 173 223 282 336 406
#
# _framework density 21.229685
#
# number of rings (size 3 to 8) (size 9 to 14) (size 15 to 20)
#    0.000    1.000    3.750    2.250    5.250    4.000 
#    0.000    0.000    0.000    0.000    0.000    0.000 
#    0.000    0.000    0.000    0.000    0.000    0.000 
#
# Total GULP energy -89367.497014 kJ/mol
# GULP energy per Si atom -5585.468563 kJ/mol
# Density = 2.118136 g / cm^3
# Si number density = 21.229685 Si / 1000 Ang^3
#
#
#
# Elastic Constant Matrix: (Units=GPa)
#
#
# Indices 1 2 3 4 5 6 
#
# 1 49.8513 47.8795 7.5366 4.7850 -3.4021 -9.8314
# 2 47.8795 129.9346 41.5789 22.5028 3.6465 -1.2705
# 3 7.5366 41.5789 125.3509 15.5638 -3.3673 -1.9690
# 4 4.7850 22.5028 15.5638 37.7428 2.5307 -5.1951
# 5 -3.4021 3.6465 -3.3673 2.5307 30.8655 0.5102
# 6 -9.8314 -1.2705 -1.9690 -5.1951 0.5102 33.5381
#
#
#
# Elastic Compliance Matrix: (Units=1/GPa)
#
#
# Indices 1 2 3 4 5 6 
#
# 1 0.036076 -0.014917 0.002551 0.004381 0.005480 0.010755
# 2 -0.014917 0.015488 -0.003623 -0.006308 -0.003271 -0.004926
# 3 0.002551 -0.003623 0.009341 -0.002029 0.001881 0.000816
# 4 0.004381 -0.006308 -0.002029 0.031451 -0.001668 0.005823
# 5 0.005480 -0.003271 0.001881 -0.001668 0.033717 0.000822
# 6 0.010755 -0.004926 0.000816 0.005823 0.000822 0.033720
#
#
# Mechanical properties :
#
#
# Convention : Reuss Voigt Hill
#
# Bulk Modulus (GPa) = 34.56870 55.45854 45.01362
# Shear Modulus (GPa) = 24.82445 34.30541 29.56493
#
# Velocity S-wave (km/s) = 3.42325 4.02421 3.73583
# Velocity P-wave (km/s) = 5.65185 6.91174 6.31330
#
# Compressibility (1/GPa) = 0.02892790
#
# Stress axis : x y z
#
# Youngs Moduli (GPa) = 27.71941 64.56455 107.05316
#
# Poissons Ratio (x) = 0.96313 -0.27312
# Poissons Ratio (y) = 0.41350 0.38781
# Poissons Ratio (z) = -0.07072 0.23389
#
# Static dielectric constant tensor:
#      x y z
#    x 1.793480 -0.018320 -0.011850 
#    y -0.018320 1.777320 -0.007810 
#    z -0.011850 -0.007810 1.744840 
# 
# From -- ./inp_files/272900.got.cif
#   From: 2010.05.17/outbox.cif.g08.bks.cpg/sg2_137_cif.got.tgz:272900.got - 2010.06.03 11:33:40.
