data_PCOD9041493
_publ_section_title
;
Structure prediction by ZEFSAII (Michael W. Deem and Ramdas Pophale) SiO2 
 PCOD9041493
Probable space group: P -1
;
_chemical_formula_sum "Si O2"
_cell_formula_units_Z 14
_cell_length_a 4.976794
_cell_length_b 26.185117
_cell_length_c 5.095855
_cell_angle_alpha 68.316538
_cell_angle_beta 98.046303
_cell_angle_gamma 121.619217
_cell_volume 524.271073
_symmetry_space_group_name_H-M "P -1"
_symmetry_group_IT_number 2
_symmetry_cell_setting 'triclinic'
loop_
_space_group_symop_operation_xyz
x,y,z
-x,-y,-z
loop_
_atom_site_type_symbol
_atom_site_label
_atom_site_fract_x
_atom_site_fract_y
_atom_site_fract_z
Si Si1 0.715145 0.144818 0.706249
Si Si2 0.565771 0.920161 0.702825
Si Si3 0.829590 0.525135 0.228149
Si Si4 0.608412 0.398856 0.243919
Si Si5 0.020702 0.711949 0.671833
Si Si6 0.196728 0.958892 0.233455
Si Si7 0.083963 0.650086 0.263844
O O1 0.415401 0.104685 0.536929
O O2 0.926319 0.110794 0.787822
O O3 0.894504 0.216524 0.495666
O O4 0.583994 0.135416 0.998743
O O5 0.845772 0.982210 0.774657
O O6 0.302784 0.938857 0.557107
O O7 0.558395 0.457384 0.201368
O O8 0.000000 0.500000 0.500000
O O9 0.793779 0.579148 0.272118
O O10 0.081122 0.566377 0.958054
O O11 0.331495 0.337168 0.184444
O O12 0.667031 0.369059 0.567291
O O13 0.036542 0.682272 0.452849
O O14 0.209103 0.700641 0.948369
O O15 0.500000 0.000000 0.000000
#
# Coordination Sequence:
#
# PCOD9041493 Si02
#       7
#     2   2   2   2   2   2   2
#     4   9  16  28  41  76 107 136 185 223 266 339
#     4   8  13  24  42  63 106 143 173 230 269 304
#     4   9  20  43  63  81 116 146 191 248 281 335
#     4  10  23  44  62  85 115 150 192 244 287 336
#     4  12  25  36  63  86 118 157 185 232 298 345
#     4   7  12  22  41  64 101 145 173 226 271 301
#     4  11  24  42  57  89 115 149 193 238 281 355
#
# _framework density 26.703744
#
# number of rings (size 3 to 8) (size 9 to 14) (size 15 to 20)
#    0.857    1.714    1.429    0.857    4.000    1.143 
#    0.000    0.000    0.000    0.000    0.000    0.000 
#    0.000   43.429    0.000    0.000    0.000    0.000 
#
# Total GULP energy -77997.166401 kJ/mol
# GULP energy per Si atom -5571.226171 kJ/mol
# Density = 2.664297 g / cm^3
# Si number density = 26.703744 Si / 1000 Ang^3
#
#
#
# Elastic Constant Matrix: (Units=GPa)
#
#
# Indices 1 2 3 4 5 6 
#
# 1 50.5596 15.6947 16.7392 -13.0934 -2.8085 -19.1461
# 2 15.6947 129.7454 40.1422 -40.5915 0.1923 -24.7044
# 3 16.7392 40.1422 178.5723 -23.7804 -17.4219 -20.5401
# 4 -13.0934 -40.5915 -23.7804 67.4586 -19.3185 5.5651
# 5 -2.8085 0.1923 -17.4219 -19.3185 21.8820 8.9967
# 6 -19.1461 -24.7044 -20.5401 5.5651 8.9967 38.0923
#
#
#
# Elastic Compliance Matrix: (Units=1/GPa)
#
#
# Indices 1 2 3 4 5 6 
#
# 1 0.025596 0.000875 -0.000261 0.005227 0.002806 0.011866
# 2 0.000875 0.011071 -0.000634 0.007222 0.003686 0.005352
# 3 -0.000261 -0.000634 0.007500 0.005159 0.010376 0.000298
# 4 0.005227 0.007222 0.005159 0.031953 0.033995 -0.002604
# 5 0.002806 0.003686 0.010376 0.033995 0.091350 -0.017147
# 6 0.011866 0.005352 0.000298 -0.002604 -0.017147 0.040278
#
#
# Mechanical properties :
#
#
# Convention : Reuss Voigt Hill
#
# Bulk Modulus (GPa) = 22.66167 56.00328 39.33248
# Shear Modulus (GPa) = 22.47214 44.57334 33.52274
#
# Velocity S-wave (km/s) = 2.90407 4.08999 3.54695
# Velocity P-wave (km/s) = 4.44405 6.58192 5.61566
#
# Compressibility (1/GPa) = 0.04412738
#
# Stress axis : x y z
#
# Youngs Moduli (GPa) = 39.06798 90.32865 133.32549
#
# Poissons Ratio (x) = -0.07904 0.03486
# Poissons Ratio (y) = -0.03419 0.08449
# Poissons Ratio (z) = 0.01021 0.05724
#
# Static dielectric constant tensor:
#      x y z
#    x 2.486150 0.152750 0.170940 
#    y 0.152750 2.198550 0.187500 
#    z 0.170940 0.187500 2.179710 
# 
# From -- ./inp_files/14042.got.cif
#   From: 2010.05.17/outbox.cif.g08.bks.cpg/sg2_8_cif.got.tgz:14042.got - 2010.06.03 11:33:40.
