data_PCOD9041660
_publ_section_title
;
Structure prediction by ZEFSAII (Michael W. Deem and Ramdas Pophale) SiO2 
 PCOD9041660
Probable space group: P -1
;
_chemical_formula_sum "Si O2"
_cell_formula_units_Z 16
_cell_length_a 10.077102
_cell_length_b 9.986075
_cell_length_c 12.694219
_cell_angle_alpha 97.903178
_cell_angle_beta 73.096721
_cell_angle_gamma 150.348049
_cell_volume 586.503988
_symmetry_space_group_name_H-M "P -1"
_symmetry_group_IT_number 2
_symmetry_cell_setting 'triclinic'
loop_
_space_group_symop_operation_xyz
x,y,z
-x,-y,-z
loop_
_atom_site_type_symbol
_atom_site_label
_atom_site_fract_x
_atom_site_fract_y
_atom_site_fract_z
Si Si1 0.779094 0.763666 0.896558
Si Si2 0.658514 0.576036 0.321386
Si Si3 0.442776 0.853317 0.399539
Si Si4 0.836101 0.665227 0.510492
Si Si5 0.225757 0.574849 0.859813
Si Si6 0.810608 0.052425 0.027816
Si Si7 0.692204 0.199169 0.805304
Si Si8 0.078712 0.913507 0.684658
O O1 0.766910 0.670149 0.779500
O O2 0.799211 0.942812 0.917515
O O3 0.500000 0.500000 0.000000
O O4 0.036201 0.908709 0.915512
O O5 0.851287 0.681692 0.384297
O O6 0.360122 0.372649 0.417341
O O7 0.642328 0.448386 0.224405
O O8 0.795738 0.835109 0.285784
O O9 0.293911 0.588130 0.446191
O O10 0.500000 0.000000 0.500000
O O11 0.283634 0.774595 0.325122
O O12 0.752288 0.069159 0.309139
O O13 0.099837 0.912938 0.554331
O O14 0.027485 0.357769 0.979176
O O15 0.485863 0.898361 0.852378
O O16 0.998138 0.444028 0.815499
O O17 0.500922 0.840469 0.112357
#
# Coordination Sequence:
#
# PCOD9041660 Si02
#       8
#     2   2   2   2   2   2   2   2
#     4  11  26  41  75 102 141 185 236 306 359 425
#     4  10  23  44  66 105 136 184 238 295 357 430
#     4  11  26  45  68 102 143 187 241 292 364 428
#     4  10  24  41  71  97 142 179 239 298 360 419
#     4  12  28  46  75 100 147 192 241 293 359 423
#     4  11  26  47  67 105 140 185 244 292 365 423
#     4  12  29  47  72 104 147 194 241 293 356 433
#     4  11  23  43  72 102 135 185 235 305 355 431
#
# _framework density 27.280291999999999
#
# number of rings (size 3 to 8) (size 9 to 14) (size 15 to 20)
#    0.000    1.000    2.500    1.875   12.250    0.500 
#    0.000    0.000    0.000    0.000    0.000    0.000 
#    0.000    0.000    0.000    0.000    0.000    0.000 
#
# Total GULP energy -89672.779450 kJ/mol
# GULP energy per Si atom -5604.548716 kJ/mol
# Density = 2.721820 g / cm^3
# Si number density = 27.280292 Si / 1000 Ang^3
#
#
#
# Elastic Constant Matrix: (Units=GPa)
#
#
# Indices 1 2 3 4 5 6 
#
# 1 140.7842 33.0955 29.4706 7.8973 2.3769 -4.2157
# 2 33.0955 86.3045 7.4572 7.5728 -2.3903 -19.4751
# 3 29.4706 7.4572 105.4911 19.2786 -7.9405 -11.5142
# 4 7.8973 7.5728 19.2786 38.5783 -5.4928 4.3935
# 5 2.3769 -2.3903 -7.9405 -5.4928 64.6618 1.6422
# 6 -4.2157 -19.4751 -11.5142 4.3935 1.6422 44.5772
#
#
#
# Elastic Compliance Matrix: (Units=1/GPa)
#
#
# Indices 1 2 3 4 5 6 
#
# 1 0.008329 -0.003306 -0.002305 0.000142 -0.000668 -0.001241
# 2 -0.003306 0.014583 0.001303 -0.003554 0.000348 0.006732
# 3 -0.002305 0.001303 0.011605 -0.005890 0.000959 0.003894
# 4 0.000142 -0.003554 -0.005890 0.030501 0.001887 -0.006136
# 5 -0.000668 0.000348 0.000959 0.001887 0.015791 -0.000431
# 6 -0.001241 0.006732 0.003894 -0.006136 -0.000431 0.026883
#
#
# Mechanical properties :
#
#
# Convention : Reuss Voigt Hill
#
# Bulk Modulus (GPa) = 38.60757 52.51404 45.56080
# Shear Modulus (GPa) = 40.01895 47.06722 43.54309
#
# Velocity S-wave (km/s) = 3.83424 4.15820 3.99950
# Velocity P-wave (km/s) = 5.81247 6.50737 6.16971
#
# Compressibility (1/GPa) = 0.02590166
#
# Stress axis : x y z
#
# Youngs Moduli (GPa) = 120.06526 68.57453 86.17064
#
# Poissons Ratio (x) = 0.22669 0.19861
# Poissons Ratio (y) = 0.39691 -0.11230
# Poissons Ratio (z) = 0.27673 -0.08937
#
# Static dielectric constant tensor:
#      x y z
#    x 2.151450 0.076740 0.068310 
#    y 0.076740 2.222610 -0.021950 
#    z 0.068310 -0.021950 2.317130 
# 
# From -- ./inp_files/56843.got.cif
#   From: 2010.05.17/outbox.cif.g08.bks.cpg/sg2_29_cif.got.tgz:56843.got - 2010.06.03 11:33:40.
