data_PCOD9041584
_publ_section_title
;
Structure prediction by ZEFSAII (Michael W. Deem and Ramdas Pophale) SiO2 
 PCOD9041584
Probable space group: P -1
;
_chemical_formula_sum "Si O2"
_cell_formula_units_Z 16
_cell_length_a 15.049670
_cell_length_b 5.767067
_cell_length_c 15.186445
_cell_angle_alpha 120.926999
_cell_angle_beta 39.420218
_cell_angle_gamma 117.821380
_cell_volume 712.078750
_symmetry_space_group_name_H-M "P -1"
_symmetry_group_IT_number 2
_symmetry_cell_setting 'triclinic'
loop_
_space_group_symop_operation_xyz
x,y,z
-x,-y,-z
loop_
_atom_site_type_symbol
_atom_site_label
_atom_site_fract_x
_atom_site_fract_y
_atom_site_fract_z
Si Si1 0.121426 0.144278 0.659274
Si Si2 0.147154 0.767808 0.232915
Si Si3 0.391422 0.597173 0.532077
Si Si4 0.931410 0.779988 0.085918
Si Si5 0.630403 0.603813 0.040626
Si Si6 0.852497 0.311992 0.584958
Si Si7 0.372517 0.194493 0.733501
Si Si8 0.627672 0.720172 0.870903
O O1 0.250822 0.385386 0.599562
O O2 0.079078 0.087746 0.782686
O O3 0.988380 0.223955 0.721922
O O4 0.166033 0.885911 0.522730
O O5 0.127082 0.818981 0.361332
O O6 0.266420 0.010794 0.166854
O O7 0.216820 0.492114 0.109120
O O8 0.500000 0.500000 0.500000
O O9 0.483407 0.639946 0.380993
O O10 0.358505 0.894411 0.644428
O O11 0.769893 0.686034 0.161755
O O12 0.000000 0.500000 0.000000
O O13 0.000000 0.000000 0.000000
O O14 0.626092 0.807290 0.163191
O O15 0.512248 0.340672 0.092213
O O16 0.586060 0.720231 0.005207
O O17 0.721155 0.479673 0.729447
O O18 0.000000 0.500000 0.500000
#
# Coordination Sequence:
#
# PCOD9041584 Si02
#       8
#     2   2   2   2   2   2   2   2
#     4  12  26  47  77 100 145 195 238 317 373 442
#     4  11  24  45  68 107 137 186 241 298 367 452
#     4  11  26  49  68 107 142 191 256 303 376 444
#     4  12  28  49  75 113 151 200 261 315 381 456
#     4  10  24  42  70  99 142 188 228 302 366 441
#     4  11  25  42  69 107 141 180 243 302 367 447
#     4  11  26  46  74 103 147 194 250 312 370 457
#     4  10  23  44  65 104 143 178 239 285 375 444
#
# _framework density 22.469422999999999
#
# number of rings (size 3 to 8) (size 9 to 14) (size 15 to 20)
#    0.000    1.000    2.500    2.250    5.250    3.000 
#    0.000    0.000    0.000    0.000    0.000    0.000 
#    0.000    0.000    0.000    0.000    0.000    0.000 
#
# Total GULP energy -89414.115250 kJ/mol
# GULP energy per Si atom -5588.382203 kJ/mol
# Density = 2.241828 g / cm^3
# Si number density = 22.469423 Si / 1000 Ang^3
#
#
#
# Elastic Constant Matrix: (Units=GPa)
#
#
# Indices 1 2 3 4 5 6 
#
# 1 85.2887 26.7660 56.9865 -2.1611 3.1213 3.0118
# 2 26.7660 93.8787 48.2839 -23.2517 5.4326 7.6664
# 3 56.9865 48.2839 145.3366 -1.9109 20.9028 2.2233
# 4 -2.1611 -23.2517 -1.9109 25.1929 0.0098 -4.9605
# 5 3.1213 5.4326 20.9028 0.0098 60.5325 -0.0789
# 6 3.0118 7.6664 2.2233 -4.9605 -0.0789 30.3814
#
#
#
# Elastic Compliance Matrix: (Units=1/GPa)
#
#
# Indices 1 2 3 4 5 6 
#
# 1 0.016230 -0.001785 -0.005968 -0.000878 0.001383 -0.000862
# 2 -0.001785 0.017656 -0.004973 0.015493 0.000220 -0.001384
# 3 -0.005968 -0.004973 0.011263 -0.004181 -0.003134 0.000331
# 4 -0.000878 0.015493 -0.004181 0.054665 0.000097 0.005409
# 5 0.001383 0.000220 -0.003134 0.000097 0.017511 0.000098
# 6 -0.000862 -0.001384 0.000331 0.005409 0.000098 0.034209
#
#
# Mechanical properties :
#
#
# Convention : Reuss Voigt Hill
#
# Bulk Modulus (GPa) = 50.76638 65.39742 58.08190
# Shear Modulus (GPa) = 27.24013 36.05254 31.64634
#
# Velocity S-wave (km/s) = 3.48562 4.00999 3.75696
# Velocity P-wave (km/s) = 6.23233 7.11395 6.68768
#
# Compressibility (1/GPa) = 0.01969808
#
# Stress axis : x y z
#
# Youngs Moduli (GPa) = 61.61301 56.63813 88.78280
#
# Poissons Ratio (x) = 0.10110 0.52987
# Poissons Ratio (y) = 0.10999 0.44148
# Poissons Ratio (z) = 0.36772 0.28164
#
# Static dielectric constant tensor:
#      x y z
#    x 1.807840 -0.015330 -0.031590 
#    y -0.015330 2.096020 -0.119190 
#    z -0.031590 -0.119190 1.923800 
# 
# From -- ./inp_files/525991.got.cif
#   From: 2010.05.17/outbox.cif.g08.bks.cpg/sg2_263_cif.got.tgz:525991.got - 2010.06.03 11:33:40.
