data_PCOD9041849
_publ_section_title
;
Structure prediction by ZEFSAII (Michael W. Deem and Ramdas Pophale) SiO2 
 PCOD9041849
Probable space group: P -1
;
_chemical_formula_sum "Si O2"
_cell_formula_units_Z 12
_cell_length_a 4.846911
_cell_length_b 19.301581
_cell_length_c 5.411780
_cell_angle_alpha 115.012137
_cell_angle_beta 85.156539
_cell_angle_gamma 98.849473
_cell_volume 453.239896
_symmetry_space_group_name_H-M "P -1"
_symmetry_group_IT_number 2
_symmetry_cell_setting 'triclinic'
loop_
_space_group_symop_operation_xyz
x,y,z
-x,-y,-z
loop_
_atom_site_type_symbol
_atom_site_label
_atom_site_fract_x
_atom_site_fract_y
_atom_site_fract_z
Si Si1 0.289328 0.323971 0.833721
Si Si2 0.123494 0.781266 0.986028
Si Si3 0.156817 0.649346 0.450620
Si Si4 0.445179 0.080598 0.738586
Si Si5 0.089937 0.923392 0.997442
Si Si6 0.322203 0.488086 0.248900
O O1 0.615207 0.330928 0.756013
O O2 0.139339 0.332532 0.596120
O O3 0.139668 0.250534 0.877147
O O4 0.210719 0.398219 0.102802
O O5 0.249113 0.708167 0.753921
O O6 0.033075 0.830794 0.826659
O O7 0.351387 0.840435 0.212661
O O8 0.137877 0.558098 0.364907
O O9 0.116368 0.080563 0.751044
O O10 0.577625 0.071558 0.988804
O O11 0.500000 0.000000 0.500000
O O12 0.000000 0.000000 0.000000
O O13 0.500000 0.500000 0.500000
O O14 0.500000 0.500000 0.000000
#
# Coordination Sequence:
#
# PCOD9041849 Si02
#       6
#     2   2   2   2   2   2
#     4  11  27  47  73 111 149 198 253 309 378 450
#     4  10  28  43  78 100 156 186 248 319 376 444
#     4  11  27  47  73 111 149 198 253 309 378 450
#     4  10  23  44  67  98 133 185 243 296 381 445
#     4  10  23  44  67  98 133 185 243 296 381 445
#     4  10  25  47  81 109 158 208 258 309 381 461
#
# _framework density 26.476046
#
# number of rings (size 3 to 8) (size 9 to 14) (size 15 to 20)
#    1.000    0.667    0.000    1.500   14.000    2.000 
#    0.000    0.000    0.000    0.000    0.000    0.000 
#    0.000    0.000    0.000    0.000    0.000    0.000 
#
# Total GULP energy -66801.196876 kJ/mol
# GULP energy per Si atom -5566.766406 kJ/mol
# Density = 2.641578 g / cm^3
# Si number density = 26.476046 Si / 1000 Ang^3
#
#
#
# Elastic Constant Matrix: (Units=GPa)
#
#
# Indices 1 2 3 4 5 6 
#
# 1 92.9779 15.2436 7.3507 0.6443 -4.1295 6.6848
# 2 15.2436 177.1311 15.7062 13.2980 9.2504 16.1856
# 3 7.3507 15.7062 88.1438 26.9812 2.7643 11.5840
# 4 0.6443 13.2980 26.9812 50.4376 -2.2380 5.9557
# 5 -4.1295 9.2504 2.7643 -2.2380 40.7280 2.9823
# 6 6.6848 16.1856 11.5840 5.9557 2.9823 46.8453
#
#
#
# Elastic Compliance Matrix: (Units=1/GPa)
#
#
# Indices 1 2 3 4 5 6 
#
# 1 0.011126 -0.000903 -0.000892 0.000789 0.001529 -0.001253
# 2 -0.000903 0.006072 -0.000361 -0.001266 -0.001396 -0.001630
# 3 -0.000892 -0.000361 0.014011 -0.007179 -0.001191 -0.002224
# 4 0.000789 -0.001266 -0.007179 0.024224 0.002268 -0.001124
# 5 0.001529 -0.001396 -0.001191 0.002268 0.025329 -0.001342
# 6 -0.001253 -0.001630 -0.002224 -0.001124 -0.001342 0.022867
#
#
# Mechanical properties :
#
#
# Convention : Reuss Voigt Hill
#
# Bulk Modulus (GPa) = 37.17834 48.31710 42.74772
# Shear Modulus (GPa) = 42.76910 48.93234 45.85072
#
# Velocity S-wave (km/s) = 4.02355 4.30370 4.16598
# Velocity P-wave (km/s) = 5.97143 6.55628 6.27068
#
# Compressibility (1/GPa) = 0.02689738
#
# Stress axis : x y z
#
# Youngs Moduli (GPa) = 89.87716 164.68586 71.37316
#
# Poissons Ratio (x) = 0.14871 0.06364
# Poissons Ratio (y) = 0.08116 0.02578
# Poissons Ratio (z) = 0.08014 0.05949
#
# Static dielectric constant tensor:
#      x y z
#    x 2.095630 -0.106530 0.039930 
#    y -0.106530 2.127740 -0.052540 
#    z 0.039930 -0.052540 2.142330 
# 
# From -- ./inp_files/8595.got.cif
#   From: 2010.05.17/outbox.cif.g08.bks.cpg/sg2_5_cif.got.tgz:8595.got - 2010.06.03 11:33:40.
