data_PCOD9041252
_publ_section_title
;
Structure prediction by ZEFSAII (Michael W. Deem and Ramdas Pophale) SiO2 
 PCOD9041252
Probable space group: P -1
;
_chemical_formula_sum "Si O2"
_cell_formula_units_Z 16
_cell_length_a 22.364785
_cell_length_b 17.313935
_cell_length_c 4.935500
_cell_angle_alpha 64.685337
_cell_angle_beta 63.809041
_cell_angle_gamma 20.038493
_cell_volume 587.097457
_symmetry_space_group_name_H-M "P -1"
_symmetry_group_IT_number 2
_symmetry_cell_setting 'triclinic'
loop_
_space_group_symop_operation_xyz
x,y,z
-x,-y,-z
loop_
_atom_site_type_symbol
_atom_site_label
_atom_site_fract_x
_atom_site_fract_y
_atom_site_fract_z
Si Si1 0.177241 0.193371 0.879687
Si Si2 0.989062 0.691155 0.468718
Si Si3 0.489063 0.691153 0.001567
Si Si4 0.198146 0.652752 0.522753
Si Si5 0.698148 0.652750 0.226407
Si Si6 0.322760 0.806628 0.668761
Si Si7 0.636991 0.880033 0.614931
Si Si8 0.136992 0.880031 0.697006
O O1 0.046935 0.299496 0.775531
O O2 0.210107 0.251387 0.644338
O O3 0.364212 0.922602 0.893633
O O4 0.103755 0.267847 0.212728
O O5 0.177271 0.486139 0.545795
O O6 0.864212 0.922602 0.381712
O O7 0.677273 0.486138 0.786701
O O8 0.396248 0.732149 0.931285
O O9 0.453065 0.700503 0.361759
O O10 0.249998 0.500002 0.776081
O O11 0.204475 0.729940 0.577917
O O12 0.988175 0.901862 0.522905
O O13 0.488178 0.901859 0.318809
O O14 0.704476 0.729940 0.914363
O O15 0.289894 0.748612 0.738925
O O16 0.500000 0.000000 0.500000
O O17 0.000000 0.000000 0.000000
#
# Coordination Sequence:
#
# PCOD9041252 Si02
#       8
#     2   2   2   2   2   2   2   2
#     4  10  23  44  70 104 142 182 244 291 355 430
#     4  10  23  43  72 101 141 191 231 297 357 425
#     4  10  23  43  72 101 141 191 231 297 357 425
#     4  11  25  46  70 102 143 189 238 293 365 423
#     4  11  25  46  70 102 143 189 238 293 365 423
#     4  10  23  44  70 104 142 182 244 291 355 430
#     4  11  27  44  70 106 142 186 243 299 349 434
#     4  11  27  44  70 106 142 186 243 299 349 434
#
# _framework density 27.252714999999998
#
# number of rings (size 3 to 8) (size 9 to 14) (size 15 to 20)
#    0.000    1.500    2.500    0.000   10.500    5.000 
#    0.000    0.000    0.000    0.000    0.000    0.000 
#    0.000    0.000    0.000    0.000    0.000    0.000 
#
# Total GULP energy -89649.669061 kJ/mol
# GULP energy per Si atom -5603.104316 kJ/mol
# Density = 2.719069 g / cm^3
# Si number density = 27.252715 Si / 1000 Ang^3
#
#
#
# Elastic Constant Matrix: (Units=GPa)
#
#
# Indices 1 2 3 4 5 6 
#
# 1 59.3622 31.0996 -11.5395 -12.1842 -9.9732 9.8307
# 2 31.0996 206.6117 40.0416 -19.0941 3.0293 17.9745
# 3 -11.5395 40.0416 56.2420 -10.8624 2.4993 9.5551
# 4 -12.1842 -19.0941 -10.8624 40.7665 0.1735 2.1014
# 5 -9.9732 3.0293 2.4993 0.1735 42.5141 -1.6147
# 6 9.8307 17.9745 9.5551 2.1014 -1.6147 35.6199
#
#
#
# Elastic Compliance Matrix: (Units=1/GPa)
#
#
# Indices 1 2 3 4 5 6 
#
# 1 0.025510 -0.004596 0.011355 0.008890 0.005302 -0.008051
# 2 -0.004596 0.006706 -0.005470 0.000353 -0.001264 -0.000726
# 3 0.011355 -0.005470 0.026948 0.008422 0.001129 -0.008048
# 4 0.008890 0.000353 0.008422 0.029932 0.001192 -0.006603
# 5 0.005302 -0.001264 0.001129 0.001192 0.024781 -0.000076
# 6 -0.008051 -0.000726 -0.008048 -0.006603 -0.000076 0.033208
#
#
# Mechanical properties :
#
#
# Convention : Reuss Voigt Hill
#
# Bulk Modulus (GPa) = 16.19616 49.04660 32.62138
# Shear Modulus (GPa) = 30.28700 41.28774 35.78737
#
# Velocity S-wave (km/s) = 3.33729 3.89652 3.62770
# Velocity P-wave (km/s) = 4.56135 6.18707 5.43533
#
# Compressibility (1/GPa) = 0.06174302
#
# Stress axis : x y z
#
# Youngs Moduli (GPa) = 39.20059 149.11553 37.10807
#
# Poissons Ratio (x) = 0.68537 -0.42138
# Poissons Ratio (y) = 0.18018 0.20298
# Poissons Ratio (z) = -0.44514 0.81564
#
# Static dielectric constant tensor:
#      x y z
#    x 2.120730 -0.008440 0.039500 
#    y -0.008440 2.177980 0.005860 
#    z 0.039500 0.005860 2.163790 
# 
# From -- ./inp_files/124649.got.cif
#   From: 2010.05.17/outbox.cif.g08.bks.cpg/sg2_63_cif.got.tgz:124649.got - 2010.06.03 11:33:40.
