data_PCOD9041542
_publ_section_title
;
Structure prediction by ZEFSAII (Michael W. Deem and Ramdas Pophale) SiO2 
 PCOD9041542
Probable space group: P -1
;
_chemical_formula_sum "Si O2"
_cell_formula_units_Z 16
_cell_length_a 11.271700
_cell_length_b 17.662537
_cell_length_c 20.760643
_cell_angle_alpha 19.922283
_cell_angle_beta 139.496093
_cell_angle_gamma 149.851753
_cell_volume 673.069050
_symmetry_space_group_name_H-M "P -1"
_symmetry_group_IT_number 2
_symmetry_cell_setting 'triclinic'
loop_
_space_group_symop_operation_xyz
x,y,z
-x,-y,-z
loop_
_atom_site_type_symbol
_atom_site_label
_atom_site_fract_x
_atom_site_fract_y
_atom_site_fract_z
Si Si1 0.908313 0.967272 0.312299
Si Si2 0.215999 0.579410 0.363727
Si Si3 0.137104 0.392824 0.614181
Si Si4 0.700063 0.710339 0.113255
Si Si5 0.203498 0.269206 0.061314
Si Si6 0.184814 0.453210 0.135172
Si Si7 0.422000 0.897140 0.977204
Si Si8 0.723603 0.350799 0.314156
O O1 0.700674 0.981765 0.200676
O O2 0.096589 0.162390 0.174310
O O3 0.045669 0.125586 0.309744
O O4 0.793774 0.631173 0.522122
O O5 0.304074 0.583663 0.467383
O O6 0.930907 0.403480 0.399780
O O7 0.323186 0.888897 0.128724
O O8 0.308034 0.429204 0.711168
O O9 0.000000 0.500000 0.500000
O O10 0.939782 0.040155 0.791397
O O11 0.462650 0.680147 0.037228
O O12 0.646053 0.506077 0.194800
O O13 0.000000 0.000000 0.000000
O O14 0.500000 0.500000 0.000000
O O15 0.163897 0.476543 0.845474
O O16 0.248212 0.553852 0.156041
O O17 0.000000 0.500000 0.000000
O O18 0.500000 0.000000 0.000000
O O19 0.500000 0.000000 0.500000
#
# Coordination Sequence:
#
# PCOD9041542 Si02
#       8
#     2   2   2   2   2   2   2   2
#     4  10  23  44  64  93 137 180 223 279 340 413
#     4  11  23  41  66  96 137 174 224 282 345 404
#     4  11  24  40  63 105 138 178 223 283 347 410
#     4  12  23  41  70 100 139 177 231 284 342 404
#     4  11  23  39  64  94 138 177 222 273 351 403
#     4  10  24  45  68  95 135 178 227 280 343 408
#     4  11  24  43  71  95 125 177 240 281 334 406
#     4  12  23  39  62 100 139 176 221 280 344 411
#
# _framework density 23.771705999999998
#
# number of rings (size 3 to 8) (size 9 to 14) (size 15 to 20)
#    0.000    1.000    2.500    4.875    3.500    0.000 
#    0.000    0.625    2.750    0.000    0.000    0.000 
#    0.000    0.000    0.000    0.000    0.000    0.000 
#
# Total GULP energy -89243.289013 kJ/mol
# GULP energy per Si atom -5577.705563 kJ/mol
# Density = 2.371760 g / cm^3
# Si number density = 23.771706 Si / 1000 Ang^3
#
#
#
# Elastic Constant Matrix: (Units=GPa)
#
#
# Indices 1 2 3 4 5 6 
#
# 1 57.0057 38.5849 7.9418 -12.7820 13.3977 -14.1198
# 2 38.5849 126.9511 23.6357 -10.5068 -2.0043 -20.6894
# 3 7.9418 23.6357 79.2007 -12.5732 -3.6108 -21.9131
# 4 -12.7820 -10.5068 -12.5732 38.2161 -6.1565 11.0751
# 5 13.3977 -2.0043 -3.6108 -6.1565 41.2916 3.3155
# 6 -14.1198 -20.6894 -21.9131 11.0751 3.3155 69.0223
#
#
#
# Elastic Compliance Matrix: (Units=1/GPa)
#
#
# Indices 1 2 3 4 5 6 
#
# 1 0.026181 -0.007345 0.000786 0.004777 -0.008314 0.003037
# 2 -0.007345 0.010685 -0.002085 -0.000046 0.002639 0.000919
# 3 0.000786 -0.002085 0.014806 0.003717 0.001205 0.003582
# 4 0.004777 -0.000046 0.003717 0.030385 0.003536 -0.002902
# 5 -0.008314 0.002639 0.001205 0.003536 0.027872 -0.002434
# 6 0.003037 0.000919 0.003582 -0.002902 -0.002434 0.017105
#
#
# Mechanical properties :
#
#
# Convention : Reuss Voigt Hill
#
# Bulk Modulus (GPa) = 29.08284 44.83138 36.95711
# Shear Modulus (GPa) = 32.09590 42.57233 37.33412
#
# Velocity S-wave (km/s) = 3.67846 4.23647 3.96729
# Velocity P-wave (km/s) = 5.50474 6.54449 6.04700
#
# Compressibility (1/GPa) = 0.03438453
#
# Stress axis : x y z
#
# Youngs Moduli (GPa) = 38.19518 93.58730 67.54205
#
# Poissons Ratio (x) = 0.68738 -0.05309
# Poissons Ratio (y) = 0.28054 0.14083
# Poissons Ratio (z) = -0.03002 0.19513
#
# Static dielectric constant tensor:
#      x y z
#    x 0.731440 -0.239850 0.233740 
#    y -0.239850 2.061840 0.058710 
#    z 0.233740 0.058710 1.906380 
# 
# From -- ./inp_files/595958.got.cif
#   From: 2010.05.17/outbox.cif.g08.bks.cpg/sg2_298_cif.got.tgz:595958.got - 2010.06.03 11:33:40.
