data_PCOD9041576
_publ_section_title
;
Structure prediction by ZEFSAII (Michael W. Deem and Ramdas Pophale) SiO2 
 PCOD9041576
Probable space group: P -1
;
_chemical_formula_sum "Si O2"
_cell_formula_units_Z 16
_cell_length_a 14.575844
_cell_length_b 11.866891
_cell_length_c 9.961080
_cell_angle_alpha 104.397252
_cell_angle_beta 114.512272
_cell_angle_gamma 133.617922
_cell_volume 662.455344
_symmetry_space_group_name_H-M "P -1"
_symmetry_group_IT_number 2
_symmetry_cell_setting 'triclinic'
loop_
_space_group_symop_operation_xyz
x,y,z
-x,-y,-z
loop_
_atom_site_type_symbol
_atom_site_label
_atom_site_fract_x
_atom_site_fract_y
_atom_site_fract_z
Si Si1 0.243890 0.746308 0.152288
Si Si2 0.410618 0.866090 0.730708
Si Si3 0.237821 0.371225 0.668493
Si Si4 0.482293 0.768099 0.373939
Si Si5 0.934991 0.809516 0.970837
Si Si6 0.612442 0.932195 0.099001
Si Si7 0.145753 0.011846 0.455620
Si Si8 0.959471 0.690415 0.710653
O O1 0.301218 0.667346 0.164641
O O2 0.331957 0.869253 0.094056
O O3 0.384965 0.993285 0.391904
O O4 0.000000 0.500000 0.000000
O O5 0.222820 0.600398 0.453438
O O6 0.328894 0.913379 0.706662
O O7 0.424495 0.812409 0.863189
O O8 0.174752 0.353094 0.475406
O O9 0.038136 0.203644 0.601774
O O10 0.249145 0.244444 0.627316
O O11 0.476275 0.671688 0.957711
O O12 0.332014 0.513078 0.284451
O O13 0.660314 0.883051 0.423377
O O14 0.052604 0.839341 0.949949
O O15 0.019137 0.894806 0.200040
O O16 0.000000 0.000000 0.000000
O O17 0.837061 0.140738 0.210742
#
# Coordination Sequence:
#
# PCOD9041576 Si02
#       8
#     2   2   2   2   2   2   2   2
#     4  11  25  45  70 102 144 183 234 295 352 427
#     4  10  23  44  65 101 136 179 236 288 357 412
#     4  10  25  46  67 104 140 184 237 286 346 420
#     4  11  27  44  70 104 137 191 231 288 362 417
#     4  12  26  45  70 106 139 184 236 290 353 412
#     4  10  24  40  71  98 134 187 231 291 349 413
#     4  11  26  46  70 101 145 183 234 292 348 421
#     4  11  23  45  70 102 137 182 238 289 346 423
#
# _framework density 24.152570000000001
#
# number of rings (size 3 to 8) (size 9 to 14) (size 15 to 20)
#    0.000    1.250    2.500    1.125   10.500    0.500 
#    0.000    2.500    0.000    0.000    0.000    0.000 
#    0.000    0.000    0.000    0.000    0.000    0.000 
#
# Total GULP energy -89357.409282 kJ/mol
# GULP energy per Si atom -5584.838080 kJ/mol
# Density = 2.409760 g / cm^3
# Si number density = 24.152570 Si / 1000 Ang^3
#
#
#
# Elastic Constant Matrix: (Units=GPa)
#
#
# Indices 1 2 3 4 5 6 
#
# 1 154.6365 48.8993 38.2329 22.9957 -8.1340 18.1303
# 2 48.8993 120.8042 47.2034 26.4645 -13.1832 5.7105
# 3 38.2329 47.2034 70.7880 33.7639 -22.6118 -9.1204
# 4 22.9957 26.4645 33.7639 48.1908 4.7119 -2.6715
# 5 -8.1340 -13.1832 -22.6118 4.7119 37.6850 6.7454
# 6 18.1303 5.7105 -9.1204 -2.6715 6.7454 35.7984
#
#
#
# Elastic Compliance Matrix: (Units=1/GPa)
#
#
# Indices 1 2 3 4 5 6 
#
# 1 0.008657 -0.001545 -0.003916 -0.000828 0.000012 -0.005200
# 2 -0.001545 0.012053 -0.006785 -0.001350 0.000530 -0.003069
# 3 -0.003916 -0.006785 0.041095 -0.025069 0.023270 0.007280
# 4 -0.000828 -0.001350 -0.025069 0.041591 -0.021132 0.001333
# 5 0.000012 0.000530 0.023270 -0.021132 0.044052 -0.004040
# 6 -0.005200 -0.003069 0.007280 0.001333 -0.004040 0.033773
#
#
# Mechanical properties :
#
#
# Convention : Reuss Voigt Hill
#
# Bulk Modulus (GPa) = 26.80145 68.32221 47.56183
# Shear Modulus (GPa) = 22.91980 38.46105 30.69042
#
# Velocity S-wave (km/s) = 3.08386 3.99484 3.56854
# Velocity P-wave (km/s) = 4.87863 7.04468 6.05923
#
# Compressibility (1/GPa) = 0.03731141
#
# Stress axis : x y z
#
# Youngs Moduli (GPa) = 115.51067 82.96497 24.33398
#
# Poissons Ratio (x) = 0.12822 0.09530
# Poissons Ratio (y) = 0.17852 0.16511
# Poissons Ratio (z) = 0.45239 0.56292
#
# Static dielectric constant tensor:
#      x y z
#    x 1.922140 -0.038910 -0.006130 
#    y -0.038910 1.986990 -0.054300 
#    z -0.006130 -0.054300 1.985240 
# 
# From -- ./inp_files/428744.got.cif
#   From: 2010.05.17/outbox.cif.g08.bks.cpg/sg2_215_cif.got.tgz:428744.got - 2010.06.03 11:33:40.
