data_PCOD9041841
_publ_section_title
;
Structure prediction by ZEFSAII (Michael W. Deem and Ramdas Pophale) SiO2 
 PCOD9041841
Probable space group: P -1
;
_chemical_formula_sum "Si O2"
_cell_formula_units_Z 16
_cell_length_a 9.037624
_cell_length_b 18.796084
_cell_length_c 12.323320
_cell_angle_alpha 27.983176
_cell_angle_beta 67.612405
_cell_angle_gamma 52.082746
_cell_volume 696.937637
_symmetry_space_group_name_H-M "P -1"
_symmetry_group_IT_number 2
_symmetry_cell_setting 'triclinic'
loop_
_space_group_symop_operation_xyz
x,y,z
-x,-y,-z
loop_
_atom_site_type_symbol
_atom_site_label
_atom_site_fract_x
_atom_site_fract_y
_atom_site_fract_z
Si Si1 0.157522 0.103915 0.413041
Si Si2 0.709219 0.454977 0.964672
Si Si3 0.280337 0.075952 0.838717
Si Si4 0.379570 0.714080 0.192183
Si Si5 0.268766 0.294025 0.989678
Si Si6 0.132477 0.318795 0.342717
Si Si7 0.762224 0.857610 0.995871
Si Si8 0.852335 0.208754 0.061342
O O1 0.170394 0.190253 0.403934
O O2 0.921614 0.256933 0.225411
O O3 0.207244 0.903354 0.702330
O O4 0.302742 0.107184 0.283482
O O5 0.741227 0.411896 0.884498
O O6 0.500000 0.500000 0.000000
O O7 0.719930 0.624519 0.765760
O O8 0.149931 0.211309 0.591572
O O9 0.512145 0.007649 0.854328
O O10 0.195788 0.179489 0.838421
O O11 0.301341 0.880711 0.080952
O O12 0.500000 0.500000 0.500000
O O13 0.535702 0.720825 0.066240
O O14 0.212986 0.762110 0.084998
O O15 0.102362 0.473943 0.871239
O O16 0.172654 0.319177 0.863513
O O17 0.898829 0.915405 0.838812
#
# Coordination Sequence:
#
# PCOD9041841 Si02
#       8
#     2   2   2   2   2   2   2   2
#     4  11  24  45  69 100 143 183 227 276 346 416
#     4  11  26  41  66 107 140 176 228 283 343 403
#     4  10  24  46  68  99 130 190 231 281 345 411
#     4  11  27  46  65 101 135 181 236 286 346 406
#     4  10  23  44  67  98 139 185 220 280 343 416
#     4  11  23  44  70  98 138 188 224 277 348 413
#     4  10  23  44  67  97 138 173 238 278 341 397
#     4  12  25  44  70 105 135 185 224 293 340 401
#
# _framework density 22.957578000000002
#
# number of rings (size 3 to 8) (size 9 to 14) (size 15 to 20)
#    0.000    1.250    3.750    1.875    7.000    6.500 
#    0.000    0.000    0.000    0.000    0.000    0.000 
#    0.000    0.000    0.000    0.000    0.000    0.000 
#
# Total GULP energy -89419.867352 kJ/mol
# GULP energy per Si atom -5588.741710 kJ/mol
# Density = 2.290533 g / cm^3
# Si number density = 22.957578 Si / 1000 Ang^3
#
#
#
# Elastic Constant Matrix: (Units=GPa)
#
#
# Indices 1 2 3 4 5 6 
#
# 1 90.4305 29.3919 5.7600 -5.1386 -15.8618 12.7909
# 2 29.3919 87.4572 -10.1153 10.4756 -13.6987 18.0927
# 3 5.7600 -10.1153 71.2914 2.7921 3.1268 5.5191
# 4 -5.1386 10.4756 2.7921 23.2558 4.9156 -2.6283
# 5 -15.8618 -13.6987 3.1268 4.9156 27.2481 9.9212
# 6 12.7909 18.0927 5.5191 -2.6283 9.9212 46.0384
#
#
#
# Elastic Compliance Matrix: (Units=1/GPa)
#
#
# Indices 1 2 3 4 5 6 
#
# 1 0.014345 -0.003291 -0.001767 0.002747 0.007866 -0.004019
# 2 -0.003291 0.018963 0.003730 -0.013795 0.013574 -0.010698
# 3 -0.001767 0.003730 0.015080 -0.004488 0.001120 -0.003280
# 4 0.002747 -0.013795 -0.004488 0.055902 -0.019489 0.012587
# 5 0.007866 0.013574 0.001120 -0.019489 0.059338 -0.021554
# 6 -0.004019 -0.010698 -0.003280 0.012587 -0.021554 0.032798
#
#
# Mechanical properties :
#
#
# Convention : Reuss Voigt Hill
#
# Bulk Modulus (GPa) = 21.86749 33.25023 27.55886
# Shear Modulus (GPa) = 23.32888 34.25130 28.79009
#
# Velocity S-wave (km/s) = 3.19121 3.86675 3.54511
# Velocity P-wave (km/s) = 4.80877 5.86945 5.36539
#
# Compressibility (1/GPa) = 0.04572998
#
# Stress axis : x y z
#
# Youngs Moduli (GPa) = 69.71223 52.73412 66.31510
#
# Poissons Ratio (x) = 0.17354 0.11721
# Poissons Ratio (y) = 0.22941 -0.24733
# Poissons Ratio (z) = 0.12321 -0.19668
#
# Static dielectric constant tensor:
#      x y z
#    x 1.876900 -0.010740 -0.002230 
#    y -0.010740 1.861080 -0.005950 
#    z -0.002230 -0.005950 1.850680 
# 
# From -- ./inp_files/401655.got.cif
#   From: 2010.05.17/outbox.cif.g08.bks.cpg/sg2_201_cif.got.tgz:401655.got - 2010.06.03 11:33:40.
