data_PCOD9041628
_publ_section_title
;
Structure prediction by ZEFSAII (Michael W. Deem and Ramdas Pophale) SiO2 
 PCOD9041628
Probable space group: P -1
;
_chemical_formula_sum "Si O2"
_cell_formula_units_Z 12
_cell_length_a 24.165503
_cell_length_b 9.052467
_cell_length_c 5.279938
_cell_angle_alpha 120.795097
_cell_angle_beta 56.992698
_cell_angle_gamma 150.873800
_cell_volume 469.606065
_symmetry_space_group_name_H-M "P -1"
_symmetry_group_IT_number 2
_symmetry_cell_setting 'triclinic'
loop_
_space_group_symop_operation_xyz
x,y,z
-x,-y,-z
loop_
_atom_site_type_symbol
_atom_site_label
_atom_site_fract_x
_atom_site_fract_y
_atom_site_fract_z
Si Si1 0.029799 0.364672 0.779811
Si Si2 0.116225 0.155931 0.958032
Si Si3 0.499034 0.175575 0.308291
Si Si4 0.506641 0.706460 0.063499
Si Si5 0.717996 0.764471 0.569035
Si Si6 0.175918 0.634174 0.153010
O O1 0.079419 0.453209 0.454594
O O2 0.127131 0.534025 0.900279
O O3 0.924001 0.011608 0.820330
O O4 0.000000 0.500000 0.000000
O O5 0.211128 0.513537 0.025863
O O6 0.168207 0.107927 0.629526
O O7 0.000000 0.000000 0.000000
O O8 0.441393 0.067551 0.636509
O O9 0.629537 0.520134 0.351422
O O10 0.442659 0.177184 0.239929
O O11 0.500000 0.000000 0.000000
O O12 0.368982 0.463923 0.182308
O O13 0.500000 0.500000 0.000000
O O14 0.747504 0.029136 0.724380
#
# Coordination Sequence:
#
# PCOD9041628 Si02
#       6
#     2   2   2   2   2   2
#     4  11  22  40  68  87 135 182 222 280 335 383
#     4  10  23  44  65  99 137 186 228 274 334 403
#     4  10  23  45  71 100 137 177 222 288 350 409
#     4  10  23  44  71  98 134 175 225 281 350 408
#     4  10  25  41  70 101 139 173 236 276 342 403
#     4  11  24  42  62  96 132 178 228 279 329 397
#
# _framework density 25.553331
#
# number of rings (size 3 to 8) (size 9 to 14) (size 15 to 20)
#    1.000    0.667    1.667    2.000    4.667    1.333 
#    6.000    0.000    0.000    0.000    0.000    0.000 
#    0.000    0.000    0.000    0.000    0.000    0.000 
#
# Total GULP energy -66923.124473 kJ/mol
# GULP energy per Si atom -5576.927039 kJ/mol
# Density = 2.549517 g / cm^3
# Si number density = 25.553331 Si / 1000 Ang^3
#
#
#
# Elastic Constant Matrix: (Units=GPa)
#
#
# Indices 1 2 3 4 5 6 
#
# 1 68.6148 28.0415 8.6448 4.5947 0.3374 -7.8240
# 2 28.0415 141.5189 33.3873 24.2535 3.1830 -11.0670
# 3 8.6448 33.3873 85.1768 11.5165 16.6552 7.5216
# 4 4.5947 24.2535 11.5165 57.4171 -9.2063 -12.7582
# 5 0.3374 3.1830 16.6552 -9.2063 40.5770 7.1195
# 6 -7.8240 -11.0670 7.5216 -12.7582 7.1195 37.5872
#
#
#
# Elastic Compliance Matrix: (Units=1/GPa)
#
#
# Indices 1 2 3 4 5 6 
#
# 1 0.016152 -0.002898 -0.000892 0.000781 0.000122 0.002929
# 2 -0.002898 0.008930 -0.002938 -0.002612 -0.000379 0.001799
# 3 -0.000892 -0.002938 0.015006 -0.003579 -0.006009 -0.004130
# 4 0.000781 -0.002612 -0.003579 0.021459 0.005419 0.006367
# 5 0.000122 -0.000379 -0.006009 0.005419 0.028808 -0.002501
# 6 0.002929 0.001799 -0.004130 0.006367 -0.002501 0.031206
#
#
# Mechanical properties :
#
#
# Convention : Reuss Voigt Hill
#
# Bulk Modulus (GPa) = 37.54666 48.38420 42.96543
# Shear Modulus (GPa) = 34.74820 42.13206 38.44013
#
# Velocity S-wave (km/s) = 3.69159 4.06493 3.88275
# Velocity P-wave (km/s) = 5.73548 6.40369 6.07878
#
# Compressibility (1/GPa) = 0.02663353
#
# Stress axis : x y z
#
# Youngs Moduli (GPa) = 61.91273 111.97750 66.64046
#
# Poissons Ratio (x) = 0.32446 0.05942
# Poissons Ratio (y) = 0.17940 0.19579
# Poissons Ratio (z) = 0.05520 0.32900
#
# Static dielectric constant tensor:
#      x y z
#    x 2.101310 0.028940 -0.054350 
#    y 0.028940 2.217850 0.023560 
#    z -0.054350 0.023560 2.140120 
# 
# From -- ./inp_files/126503.got.cif
#   From: 2010.05.17/outbox.cif.g08.bks.cpg/sg2_64_cif.got.tgz:126503.got - 2010.06.03 11:33:40.
