data_PCOD9041119
_publ_section_title
;
Structure prediction by ZEFSAII (Michael W. Deem and Ramdas Pophale) SiO2 
 PCOD9041119
Probable space group: P -1
;
_chemical_formula_sum "Si O2"
_cell_formula_units_Z 11
_cell_length_a 11.896948
_cell_length_b 14.459646
_cell_length_c 5.589314
_cell_angle_alpha 107.906610
_cell_angle_beta 118.451751
_cell_angle_gamma 31.659578
_cell_volume 433.580730
_symmetry_space_group_name_H-M "P -1"
_symmetry_group_IT_number 2
_symmetry_cell_setting 'triclinic'
loop_
_space_group_symop_operation_xyz
x,y,z
-x,-y,-z
loop_
_atom_site_type_symbol
_atom_site_label
_atom_site_fract_x
_atom_site_fract_y
_atom_site_fract_z
Si Si1 0.690383 0.262608 0.822309
Si Si2 0.757510 0.851846 0.028288
Si Si3 0.000000 0.000000 0.500000
Si Si4 0.169181 0.656809 0.648365
Si Si5 0.393191 0.858915 0.020699
Si Si6 0.089242 0.523419 0.792922
O O1 0.871611 0.147075 0.700151
O O2 0.435027 0.471711 0.666746
O O3 0.635360 0.193093 0.822772
O O4 0.817363 0.242182 0.153441
O O5 0.955303 0.767556 0.344129
O O6 0.887052 0.677556 0.901163
O O7 0.500000 0.000000 0.000000
O O8 0.693842 0.977907 0.876599
O O9 0.762165 0.087848 0.302265
O O10 0.146601 0.591573 0.784636
O O11 0.657560 0.681683 0.044528
O O12 0.000000 0.500000 0.500000
#
# Coordination Sequence:
#
# PCOD9041119 Si02
#       6
#     2   2   1   2   2   2
#     4  10  23  43  71 101 138 180 220 280 344 407
#     4  12  27  45  71 102 135 182 235 283 337 406
#     4  12  22  38  70 104 132 170 222 276 338 400
#     4  10  23  46  69  98 138 181 227 275 342 413
#     4  11  25  43  69 103 141 179 224 281 344 409
#     4  11  26  47  69  98 139 183 230 286 340 400
#
# _framework density 25.370132000000002
#
# number of rings (size 3 to 8) (size 9 to 14) (size 15 to 20)
#    0.000    1.091    0.000    4.909    0.000   11.636 
#    0.000    7.273    0.000    5.455    0.000    0.000 
#    0.000    0.000    0.000    0.000    0.000    0.000 
#
# Total GULP energy -61397.918677 kJ/mol
# GULP energy per Si atom -5581.628971 kJ/mol
# Density = 2.531239 g / cm^3
# Si number density = 25.370132 Si / 1000 Ang^3
#
#
#
# Elastic Constant Matrix: (Units=GPa)
#
#
# Indices 1 2 3 4 5 6 
#
# 1 92.4322 49.1088 29.2254 0.9262 11.5913 -25.5711
# 2 49.1088 229.5320 99.2441 -4.4747 21.3249 -49.4669
# 3 29.2254 99.2441 113.1542 0.1458 32.0722 -37.9185
# 4 0.9262 -4.4747 0.1458 38.8999 -8.5731 2.5168
# 5 11.5913 21.3249 32.0722 -8.5731 35.4960 -8.8868
# 6 -25.5711 -49.4669 -37.9185 2.5168 -8.8868 44.0027
#
#
#
# Elastic Compliance Matrix: (Units=1/GPa)
#
#
# Indices 1 2 3 4 5 6 
#
# 1 0.013559 -0.001722 0.000990 -0.001615 -0.003110 0.006261
# 2 -0.001722 0.007793 -0.006108 0.001311 0.002446 0.002915
# 3 0.000990 -0.006108 0.021195 -0.004623 -0.014595 0.009290
# 4 -0.001615 0.001311 -0.004623 0.028313 0.009992 -0.003051
# 5 -0.003110 0.002446 -0.014595 0.009992 0.042407 -0.003642
# 6 0.006261 0.002915 0.009290 -0.003051 -0.003642 0.037086
#
#
# Mechanical properties :
#
#
# Convention : Reuss Voigt Hill
#
# Bulk Modulus (GPa) = 34.64246 87.80834 61.22540
# Shear Modulus (GPa) = 28.79279 40.84905 34.82092
#
# Velocity S-wave (km/s) = 3.37250 4.01699 3.70877
# Velocity P-wave (km/s) = 5.37117 7.49673 6.52113
#
# Compressibility (1/GPa) = 0.02886631
#
# Stress axis : x y z
#
# Youngs Moduli (GPa) = 73.75181 128.32536 47.18143
#
# Poissons Ratio (x) = 0.22103 -0.04673
# Poissons Ratio (y) = 0.12703 0.28819
# Poissons Ratio (z) = -0.07305 0.78382
#
# Static dielectric constant tensor:
#      x y z
#    x 2.095910 0.062070 -0.116120 
#    y 0.062070 1.984470 -0.065320 
#    z -0.116120 -0.065320 2.129840 
# 
# From -- ./inp_files/64521.got.cif
#   From: 2010.05.17/outbox.cif.g08.bks.cpg/sg2_33_cif.got.tgz:64521.got - 2010.06.03 11:33:40.
