data_PCOD9041923
_publ_section_title
;
Structure prediction by ZEFSAII (Michael W. Deem and Ramdas Pophale) SiO2 
 PCOD9041923
Probable space group: P -1
;
_chemical_formula_sum "Si O2"
_cell_formula_units_Z 16
_cell_length_a 18.608643
_cell_length_b 11.330725
_cell_length_c 9.743666
_cell_angle_alpha 99.760558
_cell_angle_beta 141.291025
_cell_angle_gamma 51.091248
_cell_volume 752.141333
_symmetry_space_group_name_H-M "P -1"
_symmetry_group_IT_number 2
_symmetry_cell_setting 'triclinic'
loop_
_space_group_symop_operation_xyz
x,y,z
-x,-y,-z
loop_
_atom_site_type_symbol
_atom_site_label
_atom_site_fract_x
_atom_site_fract_y
_atom_site_fract_z
Si Si1 0.173310 0.043943 0.226920
Si Si2 0.354125 0.022037 0.235201
Si Si3 0.629336 0.008835 0.234730
Si Si4 0.807507 0.171129 0.341252
Si Si5 0.536606 0.660331 0.277919
Si Si6 0.223072 0.755334 0.369432
Si Si7 0.698758 0.528309 0.222460
Si Si8 0.085096 0.301296 0.634952
O O1 0.221296 0.066777 0.158992
O O2 0.255943 0.068273 0.467107
O O3 0.266761 0.834397 0.356990
O O4 0.950823 0.185247 0.930420
O O5 0.491481 0.802342 0.340937
O O6 0.500000 0.000000 0.500000
O O7 0.225510 0.184926 0.953005
O O8 0.797274 0.859950 0.342842
O O9 0.476129 0.246652 0.052074
O O10 0.500000 0.000000 0.000000
O O11 0.836430 0.148127 0.545553
O O12 0.690565 0.392485 0.184062
O O13 0.658545 0.196856 0.072151
O O14 0.000000 0.000000 0.500000
O O15 0.598550 0.484109 0.401830
O O16 0.700093 0.560134 0.392102
O O17 0.895956 0.388905 0.413469
O O18 0.000000 0.500000 0.500000
#
# Coordination Sequence:
#
# PCOD9041923 Si02
#       8
#     2   2   2   2   2   2   2   2
#     4  11  25  45  69 102 155 185 241 312 376 442
#     4  12  27  46  70 105 151 194 245 307 377 442
#     4  12  24  46  71 104 145 198 247 308 358 445
#     4  11  22  40  74 109 139 185 246 306 361 444
#     4  11  22  44  70 104 142 188 246 302 368 440
#     4  10  23  44  68 105 145 193 236 304 384 435
#     4  11  23  41  74 103 140 183 250 300 362 424
#     4  12  26  46  72 105 138 194 260 294 361 446
#
# _framework density 21.272599
#
# number of rings (size 3 to 8) (size 9 to 14) (size 15 to 20)
#    0.000    0.750    2.500    6.750    1.750    1.500 
#    0.000    1.875    0.000    0.000    0.000    0.000 
#    0.000    0.000    0.000    0.000    0.000    0.000 
#
# Total GULP energy -89296.233334 kJ/mol
# GULP energy per Si atom -5581.014583 kJ/mol
# Density = 2.122418 g / cm^3
# Si number density = 21.272599 Si / 1000 Ang^3
#
#
#
# Elastic Constant Matrix: (Units=GPa)
#
#
# Indices 1 2 3 4 5 6 
#
# 1 78.4526 27.3698 10.9400 -4.6508 0.9233 -1.7326
# 2 27.3698 98.8601 38.9661 -7.7189 -7.1022 -8.3533
# 3 10.9400 38.9661 72.0496 0.0218 -6.9379 -5.3895
# 4 -4.6508 -7.7189 0.0218 41.5794 4.6860 1.1374
# 5 0.9233 -7.1022 -6.9379 4.6860 42.7418 -7.9453
# 6 -1.7326 -8.3533 -5.3895 1.1374 -7.9453 31.6114
#
#
#
# Elastic Compliance Matrix: (Units=1/GPa)
#
#
# Indices 1 2 3 4 5 6 
#
# 1 0.014201 -0.003912 -0.000206 0.001017 -0.001219 -0.000634
# 2 -0.003912 0.014397 -0.006825 0.001975 0.001668 0.002775
# 3 -0.000206 -0.006825 0.017966 -0.001612 0.002314 0.001888
# 4 0.001017 0.001975 -0.001612 0.024898 -0.002932 -0.001330
# 5 -0.001219 0.001668 0.002314 -0.002932 0.025763 0.007350
# 6 -0.000634 0.002775 0.001888 -0.001330 0.007350 0.034550
#
#
# Mechanical properties :
#
#
# Convention : Reuss Voigt Hill
#
# Bulk Modulus (GPa) = 40.52040 44.87937 42.69988
# Shear Modulus (GPa) = 30.88598 34.65894 32.77246
#
# Velocity S-wave (km/s) = 3.81453 4.04081 3.92930
# Velocity P-wave (km/s) = 6.20406 6.55087 6.37982
#
# Compressibility (1/GPa) = 0.02467893
#
# Stress axis : x y z
#
# Youngs Moduli (GPa) = 70.41893 69.45980 55.66077
#
# Poissons Ratio (x) = 0.27175 0.01144
# Poissons Ratio (y) = 0.27550 0.37986
# Poissons Ratio (z) = 0.01447 0.47403
#
# Static dielectric constant tensor:
#      x y z
#    x 1.867080 0.038270 -0.016810 
#    y 0.038270 1.764300 -0.001580 
#    z -0.016810 -0.001580 1.821970 
# 
# From -- ./inp_files/333446.got.cif
#   From: 2010.05.17/outbox.cif.g08.bks.cpg/sg2_167_cif.got.tgz:333446.got - 2010.06.03 11:33:40.
