data_PCOD9041015
_publ_section_title
;
Structure prediction by ZEFSAII (Michael W. Deem and Ramdas Pophale) SiO2 
 PCOD9041015
Probable space group: P -1
;
_chemical_formula_sum "Si O2"
_cell_formula_units_Z 8
_cell_length_a 7.951485
_cell_length_b 8.827119
_cell_length_c 5.258140
_cell_angle_alpha 81.356971
_cell_angle_beta 114.657970
_cell_angle_gamma 110.168170
_cell_volume 314.834255
_symmetry_space_group_name_H-M "P -1"
_symmetry_group_IT_number 2
_symmetry_cell_setting 'triclinic'
loop_
_space_group_symop_operation_xyz
x,y,z
-x,-y,-z
loop_
_atom_site_type_symbol
_atom_site_label
_atom_site_fract_x
_atom_site_fract_y
_atom_site_fract_z
Si Si1 0.630020 0.622423 0.760853
Si Si2 0.584321 0.941512 0.816096
Si Si3 0.874831 0.434175 0.192275
Si Si4 0.966957 0.126469 0.245640
O O1 0.500000 0.500000 0.500000
O O2 0.541824 0.750510 0.803937
O O3 0.293846 0.484076 0.965703
O O4 0.823069 0.747329 0.720181
O O5 0.819332 0.026107 0.962001
O O6 0.500000 0.000000 0.500000
O O7 0.500000 0.000000 0.000000
O O8 0.000000 0.500000 0.500000
O O9 0.847508 0.245116 0.236569
O O10 0.000000 0.500000 0.000000
O O11 0.000000 0.000000 0.500000
#
# Coordination Sequence:
#
# PCOD9041015 Si02
#       4
#     2   2   2   2
#     4  11  25  49  77 112 153 202 254 314 382 457
#     4  12  27  47  74 111 151 197 252 313 377 449
#     4  10  23  43  70 105 145 192 245 305 371 442
#     4  11  24  47  77 110 150 199 253 314 380 454
#
# _framework density 25.410193
#
# number of rings (size 3 to 8) (size 9 to 14) (size 15 to 20)
#    0.000    1.000    0.000    5.250    0.000   12.000 
#    0.000   11.250    0.000    0.000    0.000    0.000 
#    0.000    0.000    0.000    0.000    0.000    0.000 
#
# Total GULP energy -44803.038289 kJ/mol
# GULP energy per Si atom -5600.379786 kJ/mol
# Density = 2.535236 g / cm^3
# Si number density = 25.410193 Si / 1000 Ang^3
#
#
#
# Elastic Constant Matrix: (Units=GPa)
#
#
# Indices 1 2 3 4 5 6 
#
# 1 167.4617 105.1507 91.0061 -2.0589 16.8129 -16.8382
# 2 105.1507 290.2764 117.8858 3.9537 31.3985 -24.2443
# 3 91.0061 117.8858 220.2299 6.2574 50.0436 -8.1469
# 4 -2.0589 3.9537 6.2574 72.4620 -5.6002 10.4639
# 5 16.8129 31.3985 50.0436 -5.6002 66.2735 0.2014
# 6 -16.8382 -24.2443 -8.1469 10.4639 0.2014 85.4219
#
#
#
# Elastic Compliance Matrix: (Units=1/GPa)
#
#
# Indices 1 2 3 4 5 6 
#
# 1 0.008751 -0.002122 -0.002655 0.000543 0.000834 0.000801
# 2 -0.002122 0.005022 -0.001619 -0.000375 -0.000653 0.000900
# 3 -0.002655 -0.001619 0.007505 -0.000948 -0.004306 -0.000141
# 4 0.000543 -0.000375 -0.000948 0.014338 0.001973 -0.001851
# 5 0.000834 -0.000653 -0.004306 0.001973 0.018607 -0.000717
# 6 0.000801 0.000900 -0.000141 -0.001851 -0.000717 0.012335
#
#
# Mechanical properties :
#
#
# Convention : Reuss Voigt Hill
#
# Bulk Modulus (GPa) = 117.86337 145.11702 131.49019
# Shear Modulus (GPa) = 60.84328 69.09317 64.96822
#
# Velocity S-wave (km/s) = 4.89861 5.22017 5.06194
# Velocity P-wave (km/s) = 8.85891 9.67302 9.27490
#
# Compressibility (1/GPa) = 0.00848440
#
# Stress axis : x y z
#
# Youngs Moduli (GPa) = 114.27873 199.11789 133.24842
#
# Poissons Ratio (x) = 0.42256 0.35382
# Poissons Ratio (y) = 0.24252 0.21573
# Poissons Ratio (z) = 0.30345 0.32238
#
# Static dielectric constant tensor:
#      x y z
#    x 2.194900 0.024220 -0.127850 
#    y 0.024220 1.955990 -0.013680 
#    z -0.127850 -0.013680 1.885340 
# 
# From -- ./inp_files/16104.got.cif
#   From: 2010.05.17/outbox.cif.g08.bks.cpg/sg2_9_cif.got.tgz:16104.got - 2010.06.03 11:33:40.
