data_PCOD9041737
_publ_section_title
;
Structure prediction by ZEFSAII (Michael W. Deem and Ramdas Pophale) SiO2 
 PCOD9041737
Probable space group: P -1
;
_chemical_formula_sum "Si O2"
_cell_formula_units_Z 14
_cell_length_a 12.543764
_cell_length_b 19.935153
_cell_length_c 9.399493
_cell_angle_alpha 153.138909
_cell_angle_beta 46.087384
_cell_angle_gamma 144.757409
_cell_volume 607.259826
_symmetry_space_group_name_H-M "P -1"
_symmetry_group_IT_number 2
_symmetry_cell_setting 'triclinic'
loop_
_space_group_symop_operation_xyz
x,y,z
-x,-y,-z
loop_
_atom_site_type_symbol
_atom_site_label
_atom_site_fract_x
_atom_site_fract_y
_atom_site_fract_z
Si Si1 0.421580 0.904587 0.241045
Si Si2 0.447687 0.202451 0.302396
Si Si3 0.686848 0.700645 0.159803
Si Si4 0.797933 0.940278 0.254189
Si Si5 0.135353 0.476609 0.740192
Si Si6 0.212193 0.212751 0.323792
Si Si7 0.874970 0.539360 0.605905
O O1 0.500000 0.000000 0.500000
O O2 0.272759 0.940897 0.412108
O O3 0.562924 0.955842 0.078086
O O4 0.318701 0.686780 0.948923
O O5 0.314722 0.152960 0.465447
O O6 0.380326 0.291554 0.425347
O O7 0.661752 0.347903 0.429356
O O8 0.687654 0.754727 0.099228
O O9 0.500000 0.500000 0.000000
O O10 0.852494 0.682156 0.978786
O O11 0.765983 0.887534 0.017518
O O12 0.019304 0.059548 0.293420
O O13 0.182149 0.355134 0.550895
O O14 0.063182 0.401236 0.503839
O O15 0.000000 0.500000 0.000000
O O16 0.000000 0.500000 0.500000
#
# Coordination Sequence:
#
# PCOD9041737 Si02
#       7
#     2   2   2   2   2   2   2
#     4  11  23  42  66 104 142 179 230 297 349 404
#     4  10  24  42  68 100 135 184 235 282 352 414
#     4  10  23  45  65 100 137 185 235 282 352 418
#     4  11  23  43  70  98 144 186 227 296 352 413
#     4  11  23  42  72 106 135 181 237 282 352 416
#     4  11  23  43  72 105 136 183 239 289 350 418
#     4  10  23  44  66  99 141 180 230 286 345 418
#
# _framework density 23.054382
#
# number of rings (size 3 to 8) (size 9 to 14) (size 15 to 20)
#    0.000    1.429    4.286    0.000    2.000    5.714 
#    2.571    0.000    0.000    0.000    0.000    0.000 
#    0.000    0.000    0.000    0.000    0.000    0.000 
#
# Total GULP energy -78183.719685 kJ/mol
# GULP energy per Si atom -5584.551406 kJ/mol
# Density = 2.300191 g / cm^3
# Si number density = 23.054382 Si / 1000 Ang^3
#
#
#
# Elastic Constant Matrix: (Units=GPa)
#
#
# Indices 1 2 3 4 5 6 
#
# 1 141.3550 40.8502 24.8609 -15.6820 -7.9018 12.4155
# 2 40.8502 95.9844 41.2000 -22.8203 -7.1334 -3.5433
# 3 24.8609 41.2000 106.5086 -47.6349 -6.5967 13.0257
# 4 -15.6820 -22.8203 -47.6349 63.1404 3.3595 -4.6878
# 5 -7.9018 -7.1334 -6.5967 3.3595 30.8810 -3.9808
# 6 12.4155 -3.5433 13.0257 -4.6878 -3.9808 18.0872
#
#
#
# Elastic Compliance Matrix: (Units=1/GPa)
#
#
# Indices 1 2 3 4 5 6 
#
# 1 0.008880 -0.004168 0.000769 0.000721 0.000470 -0.007175
# 2 -0.004168 0.015477 -0.005802 0.000850 0.002577 0.010859
# 3 0.000769 -0.005802 0.017558 0.010480 -0.000028 -0.011599
# 4 0.000721 0.000850 0.010480 0.024118 -0.000220 -0.001673
# 5 0.000470 0.002577 -0.000028 -0.000220 0.034102 0.007651
# 6 -0.007175 0.010859 -0.011599 -0.001673 0.007651 0.071943
#
#
# Mechanical properties :
#
#
# Convention : Reuss Voigt Hill
#
# Bulk Modulus (GPa) = 42.53004 61.96335 52.24669
# Shear Modulus (GPa) = 25.21196 38.21749 31.71473
#
# Velocity S-wave (km/s) = 3.31053 4.07592 3.71300
# Velocity P-wave (km/s) = 5.75331 7.00615 6.41041
#
# Compressibility (1/GPa) = 0.02351280
#
# Stress axis : x y z
#
# Youngs Moduli (GPa) = 112.61087 64.61159 56.95440
#
# Poissons Ratio (x) = 0.26928 -0.04378
# Poissons Ratio (y) = 0.46932 0.33046
# Poissons Ratio (z) = -0.08655 0.37489
#
# Static dielectric constant tensor:
#      x y z
#    x 1.836320 0.003210 0.026860 
#    y 0.003210 1.946580 -0.036900 
#    z 0.026860 -0.036900 1.959840 
# 
# From -- ./inp_files/184784.got.cif
#   From: 2010.05.17/outbox.cif.g08.bks.cpg/sg2_93_cif.got.tgz:184784.got - 2010.06.03 11:33:40.
