data_PCOD9041358
_publ_section_title
;
Structure prediction by ZEFSAII (Michael W. Deem and Ramdas Pophale) SiO2 
 PCOD9041358
Probable space group: P -1
;
_chemical_formula_sum "Si O2"
_cell_formula_units_Z 12
_cell_length_a 11.347178
_cell_length_b 5.523893
_cell_length_c 10.927214
_cell_angle_alpha 88.861108
_cell_angle_beta 55.156155
_cell_angle_gamma 117.988751
_cell_volume 455.499873
_symmetry_space_group_name_H-M "P -1"
_symmetry_group_IT_number 2
_symmetry_cell_setting 'triclinic'
loop_
_space_group_symop_operation_xyz
x,y,z
-x,-y,-z
loop_
_atom_site_type_symbol
_atom_site_label
_atom_site_fract_x
_atom_site_fract_y
_atom_site_fract_z
Si Si1 0.512036 0.690081 0.174970
Si Si2 0.242439 0.792573 0.138397
Si Si3 0.826667 0.652349 0.000699
Si Si4 0.640232 0.164038 0.524371
Si Si5 0.179685 0.016437 0.408629
Si Si6 0.091590 0.304502 0.791357
O O1 0.467486 0.860051 0.292929
O O2 0.340395 0.353166 0.274124
O O3 0.674741 0.693273 0.126966
O O4 0.584722 0.886838 0.007442
O O5 0.243110 0.527311 0.082978
O O6 0.083562 0.737445 0.149900
O O7 0.183418 0.799742 0.309561
O O8 0.845212 0.526921 0.117986
O O9 0.018113 0.961930 0.859436
O O10 0.765838 0.505149 0.399220
O O11 0.500000 0.000000 0.500000
O O12 0.763761 0.061075 0.496826
O O13 0.000000 0.000000 0.500000
#
# Coordination Sequence:
#
# PCOD9041358 Si02
#       6
#     2   2   2   2   2   2
#     4  11  25  45  73 108 146 192 248 304 367 437
#     4  11  24  45  73 104 146 197 251 304 362 443
#     4  10  23  46  74 109 149 197 247 301 372 441
#     4  12  28  49  75 110 151 194 246 306 370 440
#     4  12  29  50  74 109 151 197 246 305 374 439
#     4  10  23  43  73 108 151 196 246 303 365 440
#
# _framework density 26.344684000000001
#
# number of rings (size 3 to 8) (size 9 to 14) (size 15 to 20)
#    0.000    1.000    0.000    5.000    0.000   18.667 
#    0.000    4.167    0.000    0.000    0.000    0.000 
#    0.000    0.000    0.000    0.000    0.000    0.000 
#
# Total GULP energy -67152.052996 kJ/mol
# GULP energy per Si atom -5596.004416 kJ/mol
# Density = 2.628472 g / cm^3
# Si number density = 26.344684 Si / 1000 Ang^3
#
#
#
# Elastic Constant Matrix: (Units=GPa)
#
#
# Indices 1 2 3 4 5 6 
#
# 1 194.9575 40.2142 48.2818 12.9942 7.4344 20.7697
# 2 40.2142 92.9495 35.8773 -0.4064 -10.2417 21.2428
# 3 48.2818 35.8773 138.8879 -4.3267 -10.2629 7.3773
# 4 12.9942 -0.4064 -4.3267 56.5190 2.8585 -4.7552
# 5 7.4344 -10.2417 -10.2629 2.8585 31.8317 -6.3983
# 6 20.7697 21.2428 7.3773 -4.7552 -6.3983 32.8939
#
#
#
# Elastic Compliance Matrix: (Units=1/GPa)
#
#
# Indices 1 2 3 4 5 6 
#
# 1 0.006578 -0.001641 -0.001971 -0.001809 -0.003250 -0.003545
# 2 -0.001641 0.014419 -0.002580 -0.000465 0.002781 -0.007224
# 3 -0.001971 -0.002580 0.008696 0.001103 0.002664 0.001638
# 4 -0.001809 -0.000465 0.001103 0.018525 -0.000267 0.003821
# 5 -0.003250 0.002781 0.002664 -0.000267 0.035254 0.006478
# 6 -0.003545 -0.007224 0.001638 0.003821 0.006478 0.038750
#
#
# Mechanical properties :
#
#
# Convention : Reuss Voigt Hill
#
# Bulk Modulus (GPa) = 57.76966 75.06018 66.41492
# Shear Modulus (GPa) = 35.61870 44.41035 40.01452
#
# Velocity S-wave (km/s) = 3.68098 4.11023 3.90151
# Velocity P-wave (km/s) = 6.32789 7.14694 6.74985
#
# Compressibility (1/GPa) = 0.01731012
#
# Stress axis : x y z
#
# Youngs Moduli (GPa) = 152.01808 69.35065 114.99698
#
# Poissons Ratio (x) = 0.11380 0.22667
# Poissons Ratio (y) = 0.24945 0.29666
# Poissons Ratio (z) = 0.29964 0.17890
#
# Static dielectric constant tensor:
#      x y z
#    x 2.101210 -0.077580 0.001660 
#    y -0.077580 2.231430 0.031910 
#    z 0.001660 0.031910 2.027140 
# 
# From -- ./inp_files/410437.got.cif
#   From: 2010.05.17/outbox.cif.g08.bks.cpg/sg2_206_cif.got.tgz:410437.got - 2010.06.03 11:33:40.
