data_PCOD9041135
_publ_section_title
;
Structure prediction by ZEFSAII (Michael W. Deem and Ramdas Pophale) SiO2 
 PCOD9041135
Probable space group: P -1
;
_chemical_formula_sum "Si O2"
_cell_formula_units_Z 12
_cell_length_a 5.232307
_cell_length_b 13.652122
_cell_length_c 7.943846
_cell_angle_alpha 92.044053
_cell_angle_beta 57.643869
_cell_angle_gamma 90.952288
_cell_volume 479.035729
_symmetry_space_group_name_H-M "P -1"
_symmetry_group_IT_number 2
_symmetry_cell_setting 'triclinic'
loop_
_space_group_symop_operation_xyz
x,y,z
-x,-y,-z
loop_
_atom_site_type_symbol
_atom_site_label
_atom_site_fract_x
_atom_site_fract_y
_atom_site_fract_z
Si Si1 0.136307 0.397349 0.509459
Si Si2 0.906752 0.126668 0.225680
Si Si3 0.379713 0.706536 0.479488
Si Si4 0.226707 0.568256 0.033357
Si Si5 0.803918 0.062088 0.875255
Si Si6 0.500004 0.751712 0.065979
O O1 0.477803 0.372610 0.443575
O O2 0.000000 0.500000 0.500000
O O3 0.962522 0.322827 0.447088
O O4 0.981157 0.392939 0.743242
O O5 0.645948 0.189330 0.411826
O O6 0.859749 0.099782 0.046097
O O7 0.962717 0.019034 0.279853
O O8 0.208032 0.193063 0.105604
O O9 0.544685 0.707732 0.237219
O O10 0.398795 0.672614 0.955097
O O11 0.500000 0.500000 0.000000
O O12 0.000000 0.500000 0.000000
O O13 0.746367 0.162542 0.804185
O O14 0.500000 0.000000 0.000000
#
# Coordination Sequence:
#
# PCOD9041135 Si02
#       6
#     2   2   2   2   2   2
#     4  11  26  47  63 100 138 176 236 288 337 417
#     4  10  23  43  71 102 138 186 230 285 354 408
#     4  11  26  44  70 100 139 181 231 285 350 408
#     4  11  25  43  70 100 134 181 231 278 346 405
#     4   9  21  42  68 104 138 177 237 284 343 421
#     4  10  24  43  70 101 141 182 233 291 335 422
#
# _framework density 25.050325000000001
#
# number of rings (size 3 to 8) (size 9 to 14) (size 15 to 20)
#    0.000    1.667    0.000    2.500   14.000    0.667 
#    0.000    7.500    0.000    0.000    0.000    0.000 
#    0.000    0.000    0.000    0.000    0.000    0.000 
#
# Total GULP energy -66840.391771 kJ/mol
# GULP energy per Si atom -5570.032648 kJ/mol
# Density = 2.499331 g / cm^3
# Si number density = 25.050325 Si / 1000 Ang^3
#
#
#
# Elastic Constant Matrix: (Units=GPa)
#
#
# Indices 1 2 3 4 5 6 
#
# 1 158.2807 71.6598 27.7907 15.9309 27.7730 6.7645
# 2 71.6598 155.0068 20.7350 22.6864 23.5805 -0.5580
# 3 27.7907 20.7350 67.5240 21.5362 10.5984 3.6976
# 4 15.9309 22.6864 21.5362 41.0879 0.8156 8.6908
# 5 27.7730 23.5805 10.5984 0.8156 24.9518 1.1722
# 6 6.7645 -0.5580 3.6976 8.6908 1.1722 54.4086
#
#
#
# Elastic Compliance Matrix: (Units=1/GPa)
#
#
# Indices 1 2 3 4 5 6 
#
# 1 0.009210 -0.002894 -0.001509 -0.000881 -0.006810 -0.000785
# 2 -0.002894 0.009224 0.000593 -0.004433 -0.005662 0.001244
# 3 -0.001509 0.000593 0.019459 -0.009934 -0.006849 0.000606
# 4 -0.000881 -0.004433 -0.009934 0.033168 0.008528 -0.004742
# 5 -0.006810 -0.005662 -0.006849 0.008528 0.055700 -0.001308
# 6 -0.000785 0.001244 0.000606 -0.004742 -0.001308 0.019234
#
#
# Mechanical properties :
#
#
# Convention : Reuss Voigt Hill
#
# Bulk Modulus (GPa) = 33.03309 69.02029 51.02669
# Shear Modulus (GPa) = 30.54243 41.46471 36.00357
#
# Velocity S-wave (km/s) = 3.49555 4.07290 3.79522
# Velocity P-wave (km/s) = 5.43205 7.05198 6.29435
#
# Compressibility (1/GPa) = 0.03027267
#
# Stress axis : x y z
#
# Youngs Moduli (GPa) = 108.57542 108.40804 51.39072
#
# Poissons Ratio (x) = 0.31372 0.07756
# Poissons Ratio (y) = 0.31421 -0.03046
# Poissons Ratio (z) = 0.16385 -0.06425
#
# Static dielectric constant tensor:
#      x y z
#    x 2.211820 -0.009840 -0.007020 
#    y -0.009840 2.008610 -0.028940 
#    z -0.007020 -0.028940 1.897540 
# 
# From -- ./inp_files/130946.got.cif
#   From: 2010.05.17/outbox.cif.g08.bks.cpg/sg2_66_cif.got.tgz:130946.got - 2010.06.03 11:33:40.
