data_PCOD9041640
_publ_section_title
;
Structure prediction by ZEFSAII (Michael W. Deem and Ramdas Pophale) SiO2 
 PCOD9041640
Probable space group: P -1
;
_chemical_formula_sum "Si O2"
_cell_formula_units_Z 12
_cell_length_a 8.693057
_cell_length_b 15.120509
_cell_length_c 23.904613
_cell_angle_alpha 156.613524
_cell_angle_beta 149.064339
_cell_angle_gamma 31.552624
_cell_volume 607.881706
_symmetry_space_group_name_H-M "P -1"
_symmetry_group_IT_number 2
_symmetry_cell_setting 'triclinic'
loop_
_space_group_symop_operation_xyz
x,y,z
-x,-y,-z
loop_
_atom_site_type_symbol
_atom_site_label
_atom_site_fract_x
_atom_site_fract_y
_atom_site_fract_z
Si Si1 0.860015 0.815912 0.879559
Si Si2 0.127249 0.611577 0.442743
Si Si3 0.268109 0.047934 0.900257
Si Si4 0.862088 0.724946 0.549411
Si Si5 0.868535 0.457612 0.080056
Si Si6 0.104522 0.906225 0.417061
O O1 0.942383 0.588107 0.732739
O O2 0.988089 0.697620 0.910425
O O3 0.499798 0.969286 0.873250
O O4 0.000000 0.000000 0.000000
O O5 0.500000 0.500000 0.500000
O O6 0.974764 0.649431 0.477984
O O7 0.026805 0.869062 0.533392
O O8 0.024428 0.903289 0.730880
O O9 0.033386 0.308116 0.990408
O O10 0.500000 0.000000 0.000000
O O11 0.484104 0.815774 0.482422
O O12 0.000000 0.500000 0.500000
O O13 0.959303 0.695319 0.241398
O O14 0.500000 0.500000 0.000000
O O15 0.000000 0.000000 0.500000
#
# Coordination Sequence:
#
# PCOD9041640 Si02
#       6
#     2   2   2   2   2   2
#     4  11  25  44  69 103 140 179 233 285 348 421
#     4  12  26  46  71 103 141 187 238 286 351 413
#     4  10  23  44  66 101 136 181 228 274 355 418
#     4  12  25  44  74 103 140 185 232 294 351 417
#     4  11  25  45  71 100 140 183 226 290 355 413
#     4  12  25  47  71 104 141 180 242 288 346 423
#
# _framework density 19.740683000000001
#
# number of rings (size 3 to 8) (size 9 to 14) (size 15 to 20)
#    0.000    0.667    3.333    4.500    9.333    0.000 
#    0.000    1.667    0.000    0.000    0.000    0.000 
#    0.000    0.000    0.000    0.000    0.000    0.000 
#
# Total GULP energy -66899.614223 kJ/mol
# GULP energy per Si atom -5574.967852 kJ/mol
# Density = 1.969575 g / cm^3
# Si number density = 19.740683 Si / 1000 Ang^3
#
#
#
# Elastic Constant Matrix: (Units=GPa)
#
#
# Indices 1 2 3 4 5 6 
#
# 1 163.2016 89.9148 78.4798 18.4294 -1.1294 -14.9710
# 2 89.9148 156.6868 72.9411 18.3020 18.9208 -18.8280
# 3 78.4798 72.9411 196.7037 29.1371 11.1993 -17.4842
# 4 18.4294 18.3020 29.1371 37.2877 -2.3170 7.5458
# 5 -1.1294 18.9208 11.1993 -2.3170 43.7362 3.3640
# 6 -14.9710 -18.8280 -17.4842 7.5458 3.3640 51.5169
#
#
#
# Elastic Compliance Matrix: (Units=1/GPa)
#
#
# Indices 1 2 3 4 5 6 
#
# 1 0.010056 -0.004988 -0.002208 -0.000667 0.002928 0.000257
# 2 -0.004988 0.011086 -0.001122 -0.003017 -0.005027 0.002992
# 3 -0.002208 -0.001122 0.007387 -0.004707 -0.001887 0.002268
# 4 -0.000667 -0.003017 -0.004707 0.034281 0.004943 -0.008238
# 5 0.002928 -0.005027 -0.001887 0.004943 0.026172 -0.004060
# 6 0.000257 0.002992 0.002268 -0.008238 -0.004060 0.022821
#
#
# Mechanical properties :
#
#
# Convention : Reuss Voigt Hill
#
# Bulk Modulus (GPa) = 84.07424 111.02927 97.55176
# Shear Modulus (GPa) = 37.76401 44.85857 41.31129
#
# Velocity S-wave (km/s) = 4.37854 4.77213 4.57956
# Velocity P-wave (km/s) = 8.26099 9.31291 8.80268
#
# Compressibility (1/GPa) = 0.01189425
#
# Stress axis : x y z
#
# Youngs Moduli (GPa) = 99.44206 90.20787 135.37778
#
# Poissons Ratio (x) = 0.44994 0.29887
# Poissons Ratio (y) = 0.49599 0.15184
# Poissons Ratio (z) = 0.21953 0.10118
#
# Static dielectric constant tensor:
#      x y z
#    x 1.607690 -0.243850 -1.322180 
#    y -0.243850 0.778980 -5.330920 
#    z -1.322180 -5.330920 -30.984390 
# 
# From -- ./inp_files/146178.got.cif
#   From: 2010.05.17/outbox.cif.g08.bks.cpg/sg2_74_cif.got.tgz:146178.got - 2010.06.03 11:33:40.
