data_PCOD9041550
_publ_section_title
;
Structure prediction by ZEFSAII (Michael W. Deem and Ramdas Pophale) SiO2 
 PCOD9041550
Probable space group: P -1
;
_chemical_formula_sum "Si O2"
_cell_formula_units_Z 16
_cell_length_a 9.317022
_cell_length_b 17.242758
_cell_length_c 5.191316
_cell_angle_alpha 58.692844
_cell_angle_beta 86.554199
_cell_angle_gamma 81.210002
_cell_volume 704.003845
_symmetry_space_group_name_H-M "P -1"
_symmetry_group_IT_number 2
_symmetry_cell_setting 'triclinic'
loop_
_space_group_symop_operation_xyz
x,y,z
-x,-y,-z
loop_
_atom_site_type_symbol
_atom_site_label
_atom_site_fract_x
_atom_site_fract_y
_atom_site_fract_z
Si Si1 0.014385 0.694779 0.694576
Si Si2 0.473513 0.749137 0.245272
Si Si3 0.174013 0.744671 0.082199
Si Si4 0.097780 0.439014 0.394204
Si Si5 0.610452 0.572815 0.857891
Si Si6 0.166295 0.957291 0.596789
Si Si7 0.740314 0.699392 0.005107
Si Si8 0.355464 0.953068 0.078162
O O1 0.089441 0.738471 0.371971
O O2 0.993230 0.593887 0.774984
O O3 0.849894 0.736678 0.727599
O O4 0.111645 0.693973 0.938761
O O5 0.343476 0.712843 0.167962
O O6 0.538791 0.666950 0.566283
O O7 0.406524 0.843339 0.226643
O O8 0.604462 0.766985 0.011100
O O9 0.161459 0.849583 0.818020
O O10 0.245740 0.471796 0.231597
O O11 0.000000 0.500000 0.500000
O O12 0.158799 0.343139 0.699240
O O13 0.672693 0.612624 0.043346
O O14 0.500000 0.500000 0.000000
O O15 0.261057 0.971724 0.312369
O O16 0.251671 0.985695 0.790158
O O17 0.000000 0.000000 0.500000
O O18 0.500000 0.000000 0.000000
#
# Coordination Sequence:
#
# PCOD9041550 Si02
#       8
#     2   2   2   2   2   2   2   2
#     4  11  23  44  66 103 131 182 235 277 352 419
#     4  10  25  44  71 103 144 182 239 293 346 430
#     4  11  24  43  73 102 137 184 232 285 355 419
#     4  10  23  44  64  95 138 176 233 293 349 422
#     4  10  24  43  69  99 139 184 236 291 357 409
#     4  11  25  49  69 109 150 182 235 295 352 434
#     4  10  23  45  64 100 139 178 238 293 348 419
#     4  11  25  48  75 109 144 194 237 290 361 424
#
# _framework density 22.727150999999999
#
# number of rings (size 3 to 8) (size 9 to 14) (size 15 to 20)
#    0.000    1.500    1.250    2.250    5.250    8.000 
#    6.750    0.000    0.000    0.000    0.000    0.000 
#    0.000    0.000    0.000    0.000    0.000    0.000 
#
# Total GULP energy -89488.643316 kJ/mol
# GULP energy per Si atom -5593.040207 kJ/mol
# Density = 2.267542 g / cm^3
# Si number density = 22.727151 Si / 1000 Ang^3
#
#
#
# Elastic Constant Matrix: (Units=GPa)
#
#
# Indices 1 2 3 4 5 6 
#
# 1 183.4995 51.7025 83.8063 12.4737 -9.4896 5.7168
# 2 51.7025 37.9860 44.8610 12.8009 -0.7842 13.7375
# 3 83.8063 44.8610 117.3743 34.4707 -10.3381 -1.2614
# 4 12.4737 12.8009 34.4707 28.0486 -3.8511 -2.9484
# 5 -9.4896 -0.7842 -10.3381 -3.8511 41.8475 13.3652
# 6 5.7168 13.7375 -1.2614 -2.9484 13.3652 43.6809
#
#
#
# Elastic Compliance Matrix: (Units=1/GPa)
#
#
# Indices 1 2 3 4 5 6 
#
# 1 0.010520 -0.011519 -0.005143 0.007257 0.000821 0.002336
# 2 -0.011519 0.074487 -0.017597 -0.009563 0.001025 -0.023386
# 3 -0.005143 -0.017597 0.024781 -0.019425 0.001159 0.005257
# 4 0.007257 -0.009563 -0.019425 0.061314 0.000566 0.005462
# 5 0.000821 0.001025 0.001159 0.000566 0.027214 -0.008685
# 6 0.002336 -0.023386 0.005257 0.005462 -0.008685 0.033120
#
#
# Mechanical properties :
#
#
# Convention : Reuss Voigt Hill
#
# Bulk Modulus (GPa) = 24.23053 77.73328 50.98190
# Shear Modulus (GPa) = 15.93822 33.28141 24.60981
#
# Velocity S-wave (km/s) = 2.65105 3.83089 3.29422
# Velocity P-wave (km/s) = 4.47833 7.33789 6.07865
#
# Compressibility (1/GPa) = 0.04127026
#
# Stress axis : x y z
#
# Youngs Moduli (GPa) = 95.05396 13.42514 40.35351
#
# Poissons Ratio (x) = 0.15464 0.20754
# Poissons Ratio (y) = 1.09491 0.71011
# Poissons Ratio (z) = 0.48886 0.23625
#
# Static dielectric constant tensor:
#      x y z
#    x 1.887950 0.003970 0.039050 
#    y 0.003970 1.835060 0.026830 
#    z 0.039050 0.026830 1.901220 
# 
# From -- ./inp_files/43263.got.cif
#   From: 2010.05.17/outbox.cif.g08.bks.cpg/sg2_22_cif.got.tgz:43263.got - 2010.06.03 11:33:40.
