data_PCOD9041707
_publ_section_title
;
Structure prediction by ZEFSAII (Michael W. Deem and Ramdas Pophale) SiO2 
 PCOD9041707
Probable space group: P -1
;
_chemical_formula_sum "Si O2"
_cell_formula_units_Z 13
_cell_length_a 11.773972
_cell_length_b 7.297580
_cell_length_c 10.239089
_cell_angle_alpha 136.133711
_cell_angle_beta 116.268164
_cell_angle_gamma 62.421424
_cell_volume 531.838048
_symmetry_space_group_name_H-M "P -1"
_symmetry_group_IT_number 2
_symmetry_cell_setting 'triclinic'
loop_
_space_group_symop_operation_xyz
x,y,z
-x,-y,-z
loop_
_atom_site_type_symbol
_atom_site_label
_atom_site_fract_x
_atom_site_fract_y
_atom_site_fract_z
Si Si1 0.068093 0.885028 0.339951
Si Si2 0.208108 0.337568 0.552845
Si Si3 0.500000 0.500000 0.500000
Si Si4 0.388580 0.925997 0.114861
Si Si5 0.501444 0.596154 0.245888
Si Si6 0.737791 0.522376 0.628092
Si Si7 0.096068 0.929477 0.891128
O O1 0.159820 0.593466 0.270387
O O2 0.159579 0.080630 0.442320
O O3 0.000000 0.000000 0.500000
O O4 0.965232 0.903483 0.181405
O O5 0.356848 0.335121 0.662868
O O6 0.198857 0.373099 0.410133
O O7 0.118485 0.610414 0.706834
O O8 0.462232 0.619240 0.386612
O O9 0.652335 0.319123 0.431139
O O10 0.407479 0.798013 0.202784
O O11 0.397449 0.242943 0.286335
O O12 0.481041 0.710737 0.959078
O O13 0.239728 0.967825 0.015499
O O14 0.000000 0.000000 0.000000
#
# Coordination Sequence:
#
# PCOD9041707 Si02
#       7
#     2   2   1   2   2   2   2
#     4  12  26  44  71  98 133 184 233 273 328 408
#     4  10  23  46  70  97 136 176 225 288 334 393
#     4  10  24  40  70 106 126 170 236 270 328 410
#     4  10  23  44  66  97 141 177 216 279 348 397
#     4   9  22  46  71  99 134 177 220 282 347 388
#     4  11  25  42  70 103 132 179 228 279 333 400
#     4  11  24  43  68  98 138 182 223 275 345 398
#
# _framework density 24.443531
#
# number of rings (size 3 to 8) (size 9 to 14) (size 15 to 20)
#    0.000    1.538    1.538    1.385    8.615    2.462 
#    0.000    0.000    0.000    0.000    0.000    0.000 
#    0.000    0.000    0.000    0.000    0.000    0.000 
#
# Total GULP energy -72635.903630 kJ/mol
# GULP energy per Si atom -5587.377202 kJ/mol
# Density = 2.438790 g / cm^3
# Si number density = 24.443531 Si / 1000 Ang^3
#
#
#
# Elastic Constant Matrix: (Units=GPa)
#
#
# Indices 1 2 3 4 5 6 
#
# 1 111.1833 63.4479 40.1939 -14.5062 -4.0834 9.0080
# 2 63.4479 203.8455 84.3565 -28.6001 0.7906 -18.5545
# 3 40.1939 84.3565 118.6897 -17.5909 -1.7629 0.4769
# 4 -14.5062 -28.6001 -17.5909 59.8304 -1.9266 4.8841
# 5 -4.0834 0.7906 -1.7629 -1.9266 42.6108 -10.3688
# 6 9.0080 -18.5545 0.4769 4.8841 -10.3688 44.6815
#
#
#
# Elastic Compliance Matrix: (Units=1/GPa)
#
#
# Indices 1 2 3 4 5 6 
#
# 1 0.011867 -0.003244 -0.001516 0.001199 0.000266 -0.003793
# 2 -0.003244 0.008447 -0.004686 0.001549 0.000416 0.004139
# 3 -0.001516 -0.004686 0.012457 0.001211 0.000051 -0.001894
# 4 0.001199 0.001549 0.001211 0.018240 0.000604 -0.001465
# 5 0.000266 0.000416 0.000051 0.000604 0.024936 0.005839
# 6 -0.003793 0.004139 -0.001894 -0.001465 0.005839 0.026399
#
#
# Mechanical properties :
#
#
# Convention : Reuss Voigt Hill
#
# Bulk Modulus (GPa) = 72.05235 89.96834 81.01034
# Shear Modulus (GPa) = 39.72485 45.80588 42.76536
#
# Velocity S-wave (km/s) = 4.03571 4.33361 4.18731
# Velocity P-wave (km/s) = 7.15940 7.86935 7.52276
#
# Compressibility (1/GPa) = 0.01387880
#
# Stress axis : x y z
#
# Youngs Moduli (GPa) = 84.26622 118.38424 80.27664
#
# Poissons Ratio (x) = 0.38409 0.12170
# Poissons Ratio (y) = 0.27340 0.37616
# Poissons Ratio (z) = 0.12775 0.55472
#
# Static dielectric constant tensor:
#      x y z
#    x 2.018320 0.012320 0.128460 
#    y 0.012320 2.026250 0.135970 
#    z 0.128460 0.135970 2.082290 
# 
# From -- ./inp_files/48187.got.cif
#   From: 2010.05.17/outbox.cif.g08.bks.cpg/sg2_25_cif.got.tgz:48187.got - 2010.06.03 11:33:40.
