data_PCOD9041563
_publ_section_title
;
Structure prediction by ZEFSAII (Michael W. Deem and Ramdas Pophale) SiO2 
 PCOD9041563
Probable space group: P -1
;
_chemical_formula_sum "Si O2"
_cell_formula_units_Z 15
_cell_length_a 9.995542
_cell_length_b 12.480558
_cell_length_c 8.318002
_cell_angle_alpha 117.411012
_cell_angle_beta 101.284259
_cell_angle_gamma 49.875197
_cell_volume 696.521561
_symmetry_space_group_name_H-M "P -1"
_symmetry_group_IT_number 2
_symmetry_cell_setting 'triclinic'
loop_
_space_group_symop_operation_xyz
x,y,z
-x,-y,-z
loop_
_atom_site_type_symbol
_atom_site_label
_atom_site_fract_x
_atom_site_fract_y
_atom_site_fract_z
Si Si1 0.270017 0.351720 0.055036
Si Si2 0.522321 0.761187 0.654967
Si Si3 0.462743 0.625535 0.951655
Si Si4 0.043310 0.289290 0.769005
Si Si5 0.103201 0.022521 0.788775
Si Si6 0.500000 0.500000 0.500000
Si Si7 0.837371 0.013567 0.851104
Si Si8 0.324783 0.120496 0.441753
O O1 0.399012 0.247396 0.158969
O O2 0.396424 0.347511 0.956239
O O3 0.130214 0.536032 0.190420
O O4 0.160843 0.300293 0.930370
O O5 0.551785 0.604251 0.519831
O O6 0.631965 0.783193 0.577162
O O7 0.308771 0.898946 0.698387
O O8 0.484641 0.566836 0.732165
O O9 0.500000 0.500000 0.000000
O O10 0.275775 0.799134 0.040377
O O11 0.014074 0.174968 0.762983
O O12 0.159232 0.219895 0.589362
O O13 0.997440 0.954536 0.723704
O O14 0.101356 0.052711 0.999855
O O15 0.716673 0.971287 0.740470
O O16 0.500000 0.000000 0.500000
#
# Coordination Sequence:
#
# PCOD9041563 Si02
#       8
#     2   2   2   2   2   1   2   2
#     4  10  23  44  64  97 137 183 229 281 355 414
#     4  11  24  46  72  98 138 187 228 295 346 426
#     4  11  23  41  69  96 138 190 227 287 350 424
#     4  11  24  42  67 102 138 178 232 288 353 420
#     4  11  23  45  69  99 135 185 223 292 350 411
#     4  10  24  42  64 104 134 178 234 282 350 410
#     4  11  25  43  67 105 136 180 235 286 354 417
#     4  12  26  42  70 106 137 180 237 286 351 420
#
# _framework density 21.535585000000001
#
# number of rings (size 3 to 8) (size 9 to 14) (size 15 to 20)
#    0.000    1.067    4.000    2.400    3.733    4.267 
#    0.000    0.000    0.000    0.000    0.000    0.000 
#    0.000    0.000    0.000    0.000    0.000    0.000 
#
# Total GULP energy -83519.238874 kJ/mol
# GULP energy per Si atom -5567.949258 kJ/mol
# Density = 2.148657 g / cm^3
# Si number density = 21.535585 Si / 1000 Ang^3
#
#
#
# Elastic Constant Matrix: (Units=GPa)
#
#
# Indices 1 2 3 4 5 6 
#
# 1 132.8398 32.6058 31.3237 0.6171 -3.6184 32.0244
# 2 32.6058 53.1283 27.7439 -3.9088 -0.7773 25.9038
# 3 31.3237 27.7439 56.3689 4.5861 -2.2934 8.8266
# 4 0.6171 -3.9088 4.5861 12.7789 4.3144 -8.8161
# 5 -3.6184 -0.7773 -2.2934 4.3144 35.1084 -5.9462
# 6 32.0244 25.9038 8.8266 -8.8161 -5.9462 51.7656
#
#
#
# Elastic Compliance Matrix: (Units=1/GPa)
#
#
# Indices 1 2 3 4 5 6 
#
# 1 0.010148 -0.002152 -0.003462 -0.003596 0.000336 -0.005185
# 2 -0.002152 0.034371 -0.014634 0.008569 -0.003557 -0.012322
# 3 -0.003462 -0.014634 0.027639 -0.013359 0.003249 0.002850
# 4 -0.003596 0.008569 -0.013359 0.100567 -0.010683 0.016115
# 5 0.000336 -0.003557 0.003249 -0.010683 0.030420 0.002693
# 6 -0.005185 -0.012322 0.002850 0.016115 0.002693 0.031259
#
#
# Mechanical properties :
#
#
# Convention : Reuss Voigt Hill
#
# Bulk Modulus (GPa) = 31.58181 47.29819 39.44000
# Shear Modulus (GPa) = 17.51589 29.97481 23.74535
#
# Velocity S-wave (km/s) = 2.85502 3.73483 3.32416
# Velocity P-wave (km/s) = 5.05618 6.37253 5.75213
#
# Compressibility (1/GPa) = 0.03166379
#
# Stress axis : x y z
#
# Youngs Moduli (GPa) = 98.53973 29.09411 36.18032
#
# Poissons Ratio (x) = 0.06261 0.12526
# Poissons Ratio (y) = 0.21205 0.52945
# Poissons Ratio (z) = 0.34114 0.42575
#
# Static dielectric constant tensor:
#      x y z
#    x 1.623000 -0.074740 0.122000 
#    y -0.074740 1.807960 0.040410 
#    z 0.122000 0.040410 1.739530 
# 
# From -- ./inp_files/190135.got.cif
#   From: 2010.05.17/outbox.cif.g08.bks.cpg/sg2_96_cif.got.tgz:190135.got - 2010.06.03 11:33:40.
