data_PCOD9041060
_publ_section_title
;
Structure prediction by ZEFSAII (Michael W. Deem and Ramdas Pophale) SiO2 
 PCOD9041060
Probable space group: P -1
;
_chemical_formula_sum "Si O2"
_cell_formula_units_Z 14
_cell_length_a 7.991905
_cell_length_b 5.326153
_cell_length_c 18.620413
_cell_angle_alpha 68.485423
_cell_angle_beta 47.949642
_cell_angle_gamma 84.250794
_cell_volume 535.265838
_symmetry_space_group_name_H-M "P -1"
_symmetry_group_IT_number 2
_symmetry_cell_setting 'triclinic'
loop_
_space_group_symop_operation_xyz
x,y,z
-x,-y,-z
loop_
_atom_site_type_symbol
_atom_site_label
_atom_site_fract_x
_atom_site_fract_y
_atom_site_fract_z
Si Si1 0.052550 0.151062 0.846044
Si Si2 0.643940 0.215572 0.777313
Si Si3 0.784244 0.046005 0.505680
Si Si4 0.744443 0.670009 0.938967
Si Si5 0.477218 0.574843 0.365102
Si Si6 0.087360 0.272479 0.265979
Si Si7 0.191375 0.788629 0.947009
O O1 0.164775 0.884919 0.863641
O O2 0.810690 0.998696 0.896999
O O3 0.244327 0.336478 0.722836
O O4 0.003763 0.225761 0.934025
O O5 0.589453 0.346825 0.704078
O O6 0.742034 0.471716 0.772737
O O7 0.815337 0.008927 0.735097
O O8 0.412320 0.006463 0.889850
O O9 0.628091 0.748075 0.563455
O O10 0.640325 0.239716 0.567748
O O11 0.000000 0.000000 0.500000
O O12 0.877163 0.194616 0.389245
O O13 0.915679 0.638854 0.826083
O O14 0.500000 0.500000 0.000000
O O15 0.764491 0.516809 0.024563
#
# Coordination Sequence:
#
# PCOD9041060 Si02
#       7
#     2   2   2   2   2   2   2
#     4  10  25  44  68 101 134 189 226 283 343 419
#     4  11  21  40  65 105 131 178 217 286 337 408
#     4  12  22  42  68 104 134 180 232 292 337 399
#     4  12  25  43  68 101 140 183 222 288 342 421
#     4  11  23  42  72  97 138 179 235 285 340 402
#     4  12  25  38  67 101 140 168 230 279 349 389
#     4  10  23  43  70  96 141 175 235 271 352 412
#
# _framework density 26.155227
#
# number of rings (size 3 to 8) (size 9 to 14) (size 15 to 20)
#    0.000    0.857    4.286    2.571    4.000    1.143 
#    0.000    1.429    0.000    0.000    0.000    0.000 
#    0.000    0.000    0.000    0.000    0.000    0.000 
#
# Total GULP energy -78292.608226 kJ/mol
# GULP energy per Si atom -5592.329159 kJ/mol
# Density = 2.609570 g / cm^3
# Si number density = 26.155227 Si / 1000 Ang^3
#
#
#
# Elastic Constant Matrix: (Units=GPa)
#
#
# Indices 1 2 3 4 5 6 
#
# 1 56.4707 14.8782 42.8793 -8.3625 12.8966 11.6960
# 2 14.8782 137.8751 69.9714 -5.2380 -9.8642 35.4843
# 3 42.8793 69.9714 218.5780 -12.8154 5.8828 12.2407
# 4 -8.3625 -5.2380 -12.8154 62.5426 2.7406 -2.2078
# 5 12.8966 -9.8642 5.8828 2.7406 49.6685 -11.3647
# 6 11.6960 35.4843 12.2407 -2.2078 -11.3647 36.9400
#
#
#
# Elastic Compliance Matrix: (Units=1/GPa)
#
#
# Indices 1 2 3 4 5 6 
#
# 1 0.025118 0.001831 -0.004551 0.002565 -0.008178 -0.010566
# 2 0.001831 0.011505 -0.003438 0.000141 -0.000204 -0.010547
# 3 -0.004551 -0.003438 0.006435 0.000504 0.000337 0.002745
# 4 0.002565 0.000141 0.000504 0.016501 -0.001761 -0.000670
# 5 -0.008178 -0.000204 0.000337 -0.001761 0.024593 0.010135
# 6 -0.010566 -0.010547 0.002745 -0.000670 0.010135 0.042716
#
#
# Mechanical properties :
#
#
# Convention : Reuss Voigt Hill
#
# Bulk Modulus (GPa) = 32.52890 74.26461 53.39676
# Shear Modulus (GPa) = 33.46015 48.84320 41.15168
#
# Velocity S-wave (km/s) = 3.58060 4.32607 3.97087
# Velocity P-wave (km/s) = 5.43674 7.30812 6.44076
#
# Compressibility (1/GPa) = 0.03074189
#
# Stress axis : x y z
#
# Youngs Moduli (GPa) = 39.81226 86.91729 155.39504
#
# Poissons Ratio (x) = -0.15916 0.70727
# Poissons Ratio (y) = -0.07290 0.53423
# Poissons Ratio (z) = 0.18120 0.29881
#
# Static dielectric constant tensor:
#      x y z
#    x 2.337560 -0.135450 -0.102290 
#    y -0.135450 2.233070 -0.001390 
#    z -0.102290 -0.001390 2.006560 
# 
# From -- ./inp_files/60733.got.cif
#   From: 2010.05.17/outbox.cif.g08.bks.cpg/sg2_31_cif.got.tgz:60733.got - 2010.06.03 11:33:40.
