data_PCOD9042369
_publ_section_title
;
Structure prediction by ZEFSAII (Michael W. Deem and Ramdas Pophale) SiO2 
 PCOD9042369
Probable space group: P -1
;
_chemical_formula_sum "Si O2"
_cell_formula_units_Z 15
_cell_length_a 13.773523
_cell_length_b 16.472252
_cell_length_c 12.606549
_cell_angle_alpha 25.687745
_cell_angle_beta 32.233954
_cell_angle_gamma 35.385405
_cell_volume 643.671483
_symmetry_space_group_name_H-M "P -1"
_symmetry_group_IT_number 2
_symmetry_cell_setting 'triclinic'
loop_
_space_group_symop_operation_xyz
x,y,z
-x,-y,-z
loop_
_atom_site_type_symbol
_atom_site_label
_atom_site_fract_x
_atom_site_fract_y
_atom_site_fract_z
Si Si1 0.279542 0.265509 0.615211
Si Si2 0.575994 0.697782 0.779983
Si Si3 0.078133 0.599880 0.710890
Si Si4 0.535721 0.166369 0.693743
Si Si5 0.072302 0.979045 0.578237
Si Si6 0.780202 0.017725 0.161210
Si Si7 0.500000 0.500000 0.500000
Si Si8 0.928862 0.426486 0.850902
O O1 0.410292 0.325565 0.332701
O O2 0.371134 0.243292 0.671898
O O3 0.246765 0.064332 0.834512
O O4 0.080343 0.416373 0.629737
O O5 0.693856 0.866761 0.489692
O O6 0.286292 0.485923 0.080332
O O7 0.366932 0.779382 0.920380
O O8 0.299103 0.526720 0.597336
O O9 0.019125 0.827327 0.507101
O O10 0.000000 0.500000 0.000000
O O11 0.987430 0.542315 0.756943
O O12 0.588583 0.330243 0.526057
O O13 0.705795 0.057863 0.591106
O O14 0.500000 0.000000 0.000000
O O15 0.035353 0.792381 0.887110
O O16 0.000000 0.000000 0.500000
O O17 0.000000 0.000000 0.000000
#
# Coordination Sequence:
#
# PCOD9042369 Si02
#       8
#     2   2   2   2   2   2   1   2
#     4  10  23  44  71 100 149 197 234 311 374 425
#     4   9  23  46  72 106 152 191 242 316 373 430
#     4  12  25  45  70 101 150 189 246 308 365 437
#     4  12  25  46  70 104 150 186 245 308 364 444
#     4  12  25  44  70 104 144 198 245 294 378 441
#     4   9  21  47  76 108 146 193 249 303 375 450
#     4  12  24  44  70 104 134 194 244 284 374 432
#     4  12  24  46  73 107 149 196 247 316 364 443
#
# _framework density 23.303813000000002
#
# number of rings (size 3 to 8) (size 9 to 14) (size 15 to 20)
#    0.800    0.267    4.000    2.000    1.867    2.133 
#    2.400    1.333    0.000    0.000    0.000    0.000 
#    0.000    0.000    0.000    0.000    0.000    0.000 
#
# Total GULP energy -83610.258039 kJ/mol
# GULP energy per Si atom -5574.017203 kJ/mol
# Density = 2.325077 g / cm^3
# Si number density = 23.303813 Si / 1000 Ang^3
#
#
#
# Elastic Constant Matrix: (Units=GPa)
#
#
# Indices 1 2 3 4 5 6 
#
# 1 153.3801 59.1075 46.9569 -4.1185 -15.8708 -2.6072
# 2 59.1075 154.4917 33.1781 10.0994 -12.0356 -12.2195
# 3 46.9569 33.1781 62.0932 0.1268 -16.4236 -8.4001
# 4 -4.1185 10.0994 0.1268 38.6729 -10.8470 -12.1693
# 5 -15.8708 -12.0356 -16.4236 -10.8470 31.1190 2.3298
# 6 -2.6072 -12.2195 -8.4001 -12.1693 2.3298 47.9175
#
#
#
# Elastic Compliance Matrix: (Units=1/GPa)
#
#
# Indices 1 2 3 4 5 6 
#
# 1 0.009332 -0.002459 -0.005392 0.001918 0.001680 -0.000659
# 2 -0.002459 0.008130 -0.002396 -0.002118 -0.000186 0.000991
# 3 -0.005392 -0.002396 0.024789 0.004190 0.010568 0.003992
# 4 0.001918 -0.002118 0.004190 0.032822 0.013213 0.007992
# 5 0.001680 -0.000186 0.010568 0.013213 0.042866 0.003168
# 6 -0.000659 0.000991 0.003992 0.007992 0.003168 0.023661
#
#
# Mechanical properties :
#
#
# Convention : Reuss Voigt Hill
#
# Bulk Modulus (GPa) = 45.95901 72.05001 59.00451
# Shear Modulus (GPa) = 29.52503 38.92338 34.22420
#
# Velocity S-wave (km/s) = 3.56330 4.09131 3.83640
# Velocity P-wave (km/s) = 6.05756 7.30091 6.70810
#
# Compressibility (1/GPa) = 0.02175852
#
# Stress axis : x y z
#
# Youngs Moduli (GPa) = 107.15418 122.99465 40.34006
#
# Poissons Ratio (x) = 0.30246 0.21752
# Poissons Ratio (y) = 0.26350 0.09664
# Poissons Ratio (z) = 0.57778 0.29464
#
# Static dielectric constant tensor:
#      x y z
#    x 1.875800 -0.021880 0.031960 
#    y -0.021880 1.900690 0.001870 
#    z 0.031960 0.001870 1.968380 
# 
# From -- ./inp_files/533581.got.cif
#   From: 2010.05.17/outbox.cif.g08.bks.cpg/sg2_267_cif.got.tgz:533581.got - 2010.06.03 11:33:40.
