data_PCOD9042159
_publ_section_title
;
Structure prediction by ZEFSAII (Michael W. Deem and Ramdas Pophale) SiO2 
 PCOD9042159
Probable space group: P -1
;
_chemical_formula_sum "Si O2"
_cell_formula_units_Z 16
_cell_length_a 16.278289
_cell_length_b 8.982728
_cell_length_c 5.567488
_cell_angle_alpha 102.090994
_cell_angle_beta 109.159048
_cell_angle_gamma 61.477737
_cell_volume 674.306222
_symmetry_space_group_name_H-M "P -1"
_symmetry_group_IT_number 2
_symmetry_cell_setting 'triclinic'
loop_
_space_group_symop_operation_xyz
x,y,z
-x,-y,-z
loop_
_atom_site_type_symbol
_atom_site_label
_atom_site_fract_x
_atom_site_fract_y
_atom_site_fract_z
Si Si1 0.264346 0.760796 0.422635
Si Si2 0.860157 0.026127 0.998353
Si Si3 0.365845 0.403675 0.273227
Si Si4 0.145426 0.655661 0.646471
Si Si5 0.666954 0.067194 0.111055
Si Si6 0.477487 0.339451 0.868501
Si Si7 0.031633 0.330103 0.817974
Si Si8 0.763696 0.694940 0.122910
O O1 0.319452 0.606193 0.244357
O O2 0.209925 0.687690 0.519928
O O3 0.342249 0.804014 0.642085
O O4 0.180321 0.931596 0.293755
O O5 0.883317 0.180973 0.152751
O O6 0.764832 0.043829 0.059304
O O7 0.943787 0.840144 0.061981
O O8 0.420798 0.370249 0.569982
O O9 0.425053 0.323095 0.058640
O O10 0.280582 0.342893 0.177056
O O11 0.212302 0.472753 0.758705
O O12 0.050434 0.652293 0.442896
O O13 0.687663 0.885684 0.177669
O O14 0.575115 0.163055 0.887431
O O15 0.500000 0.500000 0.000000
O O16 0.133110 0.302754 0.793802
O O17 0.000000 0.500000 0.000000
#
# Coordination Sequence:
#
# PCOD9042159 Si02
#       8
#     2   2   2   2   2   2   2   2
#     4  11  22  43  71 101 134 187 240 286 350 417
#     4  10  23  44  69  97 137 182 234 288 349 421
#     4  12  25  44  74 103 145 188 236 296 356 423
#     4  11  23  44  70  95 138 182 238 288 346 425
#     4  10  25  43  69 103 138 186 230 291 357 420
#     4  12  25  44  74 108 139 184 247 297 349 427
#     4  11  25  43  67 103 135 182 231 292 356 420
#     4  11  25  48  67 100 145 187 224 292 366 421
#
# _framework density 23.728092
#
# number of rings (size 3 to 8) (size 9 to 14) (size 15 to 20)
#    0.000    1.000    2.500    3.375    3.500    1.500 
#    4.500    0.000    0.000    0.000    0.000    0.000 
#    0.000    0.000    0.000    0.000    0.000    0.000 
#
# Total GULP energy -89433.510145 kJ/mol
# GULP energy per Si atom -5589.594384 kJ/mol
# Density = 2.367409 g / cm^3
# Si number density = 23.728092 Si / 1000 Ang^3
#
#
#
# Elastic Constant Matrix: (Units=GPa)
#
#
# Indices 1 2 3 4 5 6 
#
# 1 61.4214 33.4519 44.5142 -2.1566 9.8077 6.7239
# 2 33.4519 149.0772 47.0453 -21.4421 13.5765 2.9605
# 3 44.5142 47.0453 143.8049 -21.3977 34.2484 7.8085
# 4 -2.1566 -21.4421 -21.3977 34.8594 -0.8719 6.2166
# 5 9.8077 13.5765 34.2484 -0.8719 40.2496 -3.1779
# 6 6.7239 2.9605 7.8085 6.2166 -3.1779 31.6130
#
#
#
# Elastic Compliance Matrix: (Units=1/GPa)
#
#
# Indices 1 2 3 4 5 6 
#
# 1 0.023122 -0.003792 -0.006802 -0.004720 0.001185 -0.001835
# 2 -0.003792 0.008573 -0.000488 0.004877 -0.001524 -0.000988
# 3 -0.006802 -0.000488 0.012763 0.007611 -0.009195 -0.004081
# 4 -0.004720 0.004877 0.007611 0.037573 -0.006900 -0.009415
# 5 0.001185 -0.001524 -0.009195 -0.006900 0.033287 0.006865
# 6 -0.001835 -0.000988 -0.004081 -0.009415 0.006865 0.035665
#
#
# Mechanical properties :
#
#
# Convention : Reuss Voigt Hill
#
# Bulk Modulus (GPa) = 44.85687 67.14736 56.00212
# Shear Modulus (GPa) = 27.68884 36.63053 32.15969
#
# Velocity S-wave (km/s) = 3.41973 3.93334 3.68549
# Velocity P-wave (km/s) = 5.87693 6.99916 6.46245
#
# Compressibility (1/GPa) = 0.02229313
#
# Stress axis : x y z
#
# Youngs Moduli (GPa) = 43.24954 116.64640 78.35094
#
# Poissons Ratio (x) = 0.44236 0.53291
# Poissons Ratio (y) = 0.16402 0.03826
# Poissons Ratio (z) = 0.29417 0.05696
#
# Static dielectric constant tensor:
#      x y z
#    x 1.961770 -0.009850 -0.031010 
#    y -0.009850 1.912700 0.007590 
#    z -0.031010 0.007590 1.935840 
# 
# From -- ./inp_files/107270.got.cif
#   From: 2010.05.17/outbox.cif.g08.bks.cpg/sg2_54_cif.got.tgz:107270.got - 2010.06.03 11:33:40.
