data_PCOD9042166
_publ_section_title
;
Structure prediction by ZEFSAII (Michael W. Deem and Ramdas Pophale) SiO2 
 PCOD9042166
Probable space group: P -1
;
_chemical_formula_sum "Si O2"
_cell_formula_units_Z 14
_cell_length_a 18.177283
_cell_length_b 11.950213
_cell_length_c 9.605627
_cell_angle_alpha 49.650302
_cell_angle_beta 41.327131
_cell_angle_gamma 29.000586
_cell_volume 667.734175
_symmetry_space_group_name_H-M "P -1"
_symmetry_group_IT_number 2
_symmetry_cell_setting 'triclinic'
loop_
_space_group_symop_operation_xyz
x,y,z
-x,-y,-z
loop_
_atom_site_type_symbol
_atom_site_label
_atom_site_fract_x
_atom_site_fract_y
_atom_site_fract_z
Si Si1 0.820266 0.205103 0.005413
Si Si2 0.517388 0.630114 0.275857
Si Si3 0.509860 0.304096 0.280197
Si Si4 0.026486 0.645117 0.838406
Si Si5 0.390611 0.232298 0.748003
Si Si6 0.869199 0.228497 0.598491
Si Si7 0.647532 0.076217 0.982617
O O1 0.876946 0.194831 0.778136
O O2 0.697039 0.436953 0.086719
O O3 0.680948 0.213648 0.167704
O O4 0.000000 0.000000 0.000000
O O5 0.500000 0.500000 0.500000
O O6 0.513169 0.776821 0.261703
O O7 0.371634 0.811056 0.220721
O O8 0.475967 0.196543 0.510082
O O9 0.332880 0.581061 0.316401
O O10 0.520013 0.253527 0.144353
O O11 0.193500 0.502211 0.812388
O O12 0.081463 0.653615 0.604375
O O13 0.000000 0.500000 0.000000
O O14 0.836487 0.903500 0.926403
O O15 0.380235 0.067312 0.900773
O O16 0.000000 0.000000 0.500000
#
# Coordination Sequence:
#
# PCOD9042166 Si02
#       7
#     2   2   2   2   2   2   2
#     4  12  28  41  64 103 138 174 223 280 337 396
#     4  12  26  44  66  97 141 176 222 275 338 399
#     4  11  23  44  67 100 131 172 231 278 332 401
#     4   9  22  40  67  97 128 170 223 270 327 392
#     4  10  23  44  69  98 133 177 219 276 342 396
#     4  11  24  41  71  97 132 175 224 278 334 396
#     4  11  23  43  72  95 133 177 228 275 330 401
#
# _framework density 20.966428000000001
#
# number of rings (size 3 to 8) (size 9 to 14) (size 15 to 20)
#    0.000    1.143    2.857    2.143   10.000    0.000 
#    0.000    0.000    0.000    2.571    0.000    0.000 
#    0.000    0.000    0.000    0.000    0.000    0.000 
#
# Total GULP energy -78078.243888 kJ/mol
# GULP energy per Si atom -5577.017421 kJ/mol
# Density = 2.091871 g / cm^3
# Si number density = 20.966428 Si / 1000 Ang^3
#
#
#
# Elastic Constant Matrix: (Units=GPa)
#
#
# Indices 1 2 3 4 5 6 
#
# 1 97.9959 36.8170 50.2688 -11.4534 3.0486 1.4615
# 2 36.8170 97.8411 42.9560 3.1890 3.1323 -13.7888
# 3 50.2688 42.9560 137.3896 -19.3545 12.3967 3.7914
# 4 -11.4534 3.1890 -19.3545 36.2967 -0.7065 1.5376
# 5 3.0486 3.1323 12.3967 -0.7065 31.1152 2.4252
# 6 1.4615 -13.7888 3.7914 1.5376 2.4252 36.3409
#
#
#
# Elastic Compliance Matrix: (Units=1/GPa)
#
#
# Indices 1 2 3 4 5 6 
#
# 1 0.013838 -0.004131 -0.003345 0.003040 0.000613 -0.001945
# 2 -0.004131 0.014536 -0.003891 -0.004925 -0.000111 0.006303
# 3 -0.003345 -0.003891 0.010799 0.005085 -0.003275 -0.002465
# 4 0.003040 -0.004925 0.005085 0.031800 -0.000809 -0.003813
# 5 0.000613 -0.000111 -0.003275 -0.000809 0.033527 -0.001928
# 6 -0.001945 0.006303 -0.002465 -0.003813 -0.001928 0.030534
#
#
# Mechanical properties :
#
#
# Convention : Reuss Voigt Hill
#
# Bulk Modulus (GPa) = 60.83231 65.92336 63.37784
# Shear Modulus (GPa) = 30.62855 34.29622 32.46239
#
# Velocity S-wave (km/s) = 3.82624 4.04885 3.93912
# Velocity P-wave (km/s) = 6.97117 7.30535 7.14022
#
# Compressibility (1/GPa) = 0.01643863
#
# Stress axis : x y z
#
# Youngs Moduli (GPa) = 72.26680 68.79534 92.60320
#
# Poissons Ratio (x) = 0.28422 0.30972
# Poissons Ratio (y) = 0.29856 0.36030
# Poissons Ratio (z) = 0.24171 0.26767
#
# Static dielectric constant tensor:
#      x y z
#    x 1.739380 -0.028790 -0.031020 
#    y -0.028790 1.823920 -0.007000 
#    z -0.031020 -0.007000 1.779140 
# 
# From -- ./inp_files/184523.got.cif
#   From: 2010.05.17/outbox.cif.g08.bks.cpg/sg2_93_cif.got.tgz:184523.got - 2010.06.03 11:33:40.
