data_PCOD9042051
_publ_section_title
;
Structure prediction by ZEFSAII (Michael W. Deem and Ramdas Pophale) SiO2 
 PCOD9042051
Probable space group: P -1
;
_chemical_formula_sum "Si O2"
_cell_formula_units_Z 16
_cell_length_a 14.740821
_cell_length_b 16.961148
_cell_length_c 6.603807
_cell_angle_alpha 104.490111
_cell_angle_beta 94.748670
_cell_angle_gamma 24.798940
_cell_volume 626.705545
_symmetry_space_group_name_H-M "P -1"
_symmetry_group_IT_number 2
_symmetry_cell_setting 'triclinic'
loop_
_space_group_symop_operation_xyz
x,y,z
-x,-y,-z
loop_
_atom_site_type_symbol
_atom_site_label
_atom_site_fract_x
_atom_site_fract_y
_atom_site_fract_z
Si Si1 0.295962 0.922573 0.020023
Si Si2 0.637947 0.409192 0.675148
Si Si3 0.911400 0.488470 0.073735
Si Si4 0.234627 0.517935 0.305477
Si Si5 0.800262 0.161647 0.889006
Si Si6 0.265158 0.070643 0.847541
Si Si7 0.726114 0.723759 0.555629
Si Si8 0.775689 0.866591 0.596853
O O1 0.491014 0.720883 0.786014
O O2 0.229256 0.911662 0.167468
O O3 0.139326 0.093565 0.926648
O O4 0.333821 0.975827 0.180057
O O5 0.500000 0.500000 0.500000
O O6 0.792183 0.362992 0.639638
O O7 0.786576 0.218367 0.703583
O O8 0.426608 0.613447 0.906269
O O9 0.727020 0.666250 0.320883
O O10 0.814423 0.500861 0.908277
O O11 0.000000 0.500000 0.000000
O O12 0.143638 0.250000 0.034669
O O13 0.057846 0.634429 0.520567
O O14 0.000000 0.000000 0.000000
O O15 0.242061 0.095062 0.617506
O O16 0.546124 0.841472 0.765686
O O17 0.672127 0.862640 0.597232
O O18 0.000000 0.500000 0.500000
#
# Coordination Sequence:
#
# PCOD9042051 Si02
#       8
#     2   2   2   2   2   2   2   2
#     4  11  25  43  66 103 137 185 237 300 368 435
#     4  10  24  48  76 112 147 194 245 313 381 455
#     4  11  23  42  67  93 141 192 232 304 366 427
#     4  10  23  44  69 100 144 181 242 297 372 440
#     4  10  25  46  74 109 150 188 245 309 388 455
#     4  11  25  40  66  96 136 185 244 291 356 440
#     4  12  24  41  64  98 136 187 243 291 362 432
#     4  11  24  41  65  99 134 185 238 293 357 435
#
# _framework density 25.530331
#
# number of rings (size 3 to 8) (size 9 to 14) (size 15 to 20)
#    0.000    1.250    2.500    2.625    7.000    3.500 
#    0.000    3.750    0.000    0.000    0.000    0.000 
#    0.000    0.000    0.000    0.000    0.000    0.000 
#
# Total GULP energy -89159.368429 kJ/mol
# GULP energy per Si atom -5572.460527 kJ/mol
# Density = 2.547222 g / cm^3
# Si number density = 25.530331 Si / 1000 Ang^3
#
#
#
# Elastic Constant Matrix: (Units=GPa)
#
#
# Indices 1 2 3 4 5 6 
#
# 1 173.8197 63.1050 48.6103 -8.7901 15.3903 52.9812
# 2 63.1050 96.8305 10.7345 -1.6678 15.6524 26.6373
# 3 48.6103 10.7345 154.8920 14.5203 7.6370 12.9927
# 4 -8.7901 -1.6678 14.5203 46.4890 0.1627 -1.6774
# 5 15.3903 15.6524 7.6370 0.1627 25.2938 2.7199
# 6 52.9812 26.6373 12.9927 -1.6774 2.7199 55.1922
#
#
#
# Elastic Compliance Matrix: (Units=1/GPa)
#
#
# Indices 1 2 3 4 5 6 
#
# 1 0.010513 -0.004149 -0.002507 0.002366 -0.002301 -0.007314
# 2 -0.004149 0.014834 0.000917 -0.000627 -0.006596 -0.003087
# 3 -0.002507 0.000917 0.007488 -0.002769 -0.001305 0.000181
# 4 0.002366 -0.000627 -0.002769 0.022779 -0.000297 -0.000610
# 5 -0.002301 -0.006596 -0.001305 -0.000297 0.045040 0.003471
# 6 -0.007314 -0.003087 0.000181 -0.000610 0.003471 0.026397
#
#
# Mechanical properties :
#
#
# Convention : Reuss Voigt Hill
#
# Bulk Modulus (GPa) = 46.82076 74.49352 60.65714
# Shear Modulus (GPa) = 34.32937 45.60117 39.96527
#
# Velocity S-wave (km/s) = 3.67093 4.23088 3.96081
# Velocity P-wave (km/s) = 6.02882 7.28759 6.68788
#
# Compressibility (1/GPa) = 0.02135805
#
# Stress axis : x y z
#
# Youngs Moduli (GPa) = 95.11915 67.41270 133.54831
#
# Poissons Ratio (x) = 0.27968 0.33476
# Poissons Ratio (y) = 0.39462 -0.12245
# Poissons Ratio (z) = 0.23843 -0.06181
#
# Static dielectric constant tensor:
#      x y z
#    x 2.109360 -0.032530 -0.065920 
#    y -0.032530 2.462070 -0.041510 
#    z -0.065920 -0.041510 2.006460 
# 
# From -- ./inp_files/318085.got.cif
#   From: 2010.05.17/outbox.cif.g08.bks.cpg/sg2_160_cif.got.tgz:318085.got - 2010.06.03 11:33:40.
