data_PCOD9042518
_publ_section_title
;
Structure prediction by ZEFSAII (Michael W. Deem and Ramdas Pophale) SiO2 
 PCOD9042518
Probable space group: P -1
;
_chemical_formula_sum "Si O2"
_cell_formula_units_Z 12
_cell_length_a 20.415000
_cell_length_b 15.491122
_cell_length_c 13.517566
_cell_angle_alpha 29.369399
_cell_angle_beta 17.456929
_cell_angle_gamma 25.893159
_cell_volume 557.139240
_symmetry_space_group_name_H-M "P -1"
_symmetry_group_IT_number 2
_symmetry_cell_setting 'triclinic'
loop_
_space_group_symop_operation_xyz
x,y,z
-x,-y,-z
loop_
_atom_site_type_symbol
_atom_site_label
_atom_site_fract_x
_atom_site_fract_y
_atom_site_fract_z
Si Si1 0.358609 0.181747 0.094607
Si Si2 0.937548 0.143887 0.855234
Si Si3 0.419960 0.424930 0.089430
Si Si4 0.229178 0.550799 0.792989
Si Si5 0.217152 0.143788 0.743176
Si Si6 0.242959 0.785136 0.366503
O O1 0.168479 0.154649 0.465422
O O2 0.211251 0.362175 0.050440
O O3 0.500000 0.000000 0.000000
O O4 0.553823 0.200040 0.869152
O O5 0.739125 0.366431 0.945090
O O6 0.852837 0.024528 0.023072
O O7 0.000000 0.000000 0.000000
O O8 0.644647 0.284583 0.834914
O O9 0.248595 0.316252 0.463957
O O10 0.500000 0.500000 0.000000
O O11 0.500000 0.500000 0.500000
O O12 0.994907 0.736970 0.991262
O O13 0.213754 0.608298 0.642484
O O14 0.500000 0.000000 0.500000
O O15 0.000000 0.000000 0.500000
#
# Coordination Sequence:
#
# PCOD9042518 Si02
#       6
#     2   2   2   2   2   2
#     4  11  25  46  74 107 150 195 242 304 378 443
#     4  12  27  43  74 108 143 189 251 303 367 438
#     4  12  27  48  74 108 148 195 246 307 372 435
#     4  10  23  44  72 103 145 191 239 305 368 433
#     4  12  24  46  75 104 147 193 245 303 373 441
#     4  11  26  47  75 110 149 192 251 305 367 448
#
# _framework density 21.538601
#
# number of rings (size 3 to 8) (size 9 to 14) (size 15 to 20)
#    0.000    0.667    3.333    4.000    9.333    1.333 
#    0.000    1.667    0.000    0.000    0.000    0.000 
#    0.000    0.000    0.000    0.000    0.000    0.000 
#
# Total GULP energy -66886.474928 kJ/mol
# GULP energy per Si atom -5573.872911 kJ/mol
# Density = 2.148958 g / cm^3
# Si number density = 21.538601 Si / 1000 Ang^3
#
#
#
# Elastic Constant Matrix: (Units=GPa)
#
#
# Indices 1 2 3 4 5 6 
#
# 1 73.3499 38.4302 24.5759 9.9983 16.8978 13.6850
# 2 38.4302 145.8330 38.2704 -2.8750 14.5713 12.2288
# 3 24.5759 38.2704 110.6443 -7.2976 21.8080 -4.7298
# 4 9.9983 -2.8750 -7.2976 47.2069 2.3662 12.8811
# 5 16.8978 14.5713 21.8080 2.3662 39.8820 -1.7263
# 6 13.6850 12.2288 -4.7298 12.8811 -1.7263 43.4979
#
#
#
# Elastic Compliance Matrix: (Units=1/GPa)
#
#
# Indices 1 2 3 4 5 6 
#
# 1 0.018717 -0.003477 -0.002276 -0.003035 -0.005429 -0.004475
# 2 -0.003477 0.008581 -0.002038 0.001532 -0.000726 -0.002023
# 3 -0.002276 -0.002038 0.011338 0.001848 -0.004523 0.001795
# 4 -0.003035 0.001532 0.001848 0.024074 -0.001993 -0.006483
# 5 -0.005429 -0.000726 -0.004523 -0.001993 0.030370 0.003216
# 6 -0.004475 -0.002023 0.001795 -0.006483 0.003216 0.027209
#
#
# Mechanical properties :
#
#
# Convention : Reuss Voigt Hill
#
# Bulk Modulus (GPa) = 43.37665 59.15335 51.26500
# Shear Modulus (GPa) = 34.82963 41.35406 38.09185
#
# Velocity S-wave (km/s) = 4.02566 4.38653 4.20996
# Velocity P-wave (km/s) = 6.46457 7.29240 6.89092
#
# Compressibility (1/GPa) = 0.02305388
#
# Stress axis : x y z
#
# Youngs Moduli (GPa) = 53.42754 116.54213 88.19516
#
# Poissons Ratio (x) = 0.40523 0.20074
# Poissons Ratio (y) = 0.18577 0.17973
# Poissons Ratio (z) = 0.12160 0.23750
#
# Static dielectric constant tensor:
#      x y z
#    x 1.767040 -0.061650 0.013770 
#    y -0.061650 1.786090 -0.019300 
#    z 0.013770 -0.019300 1.755190 
# 
# From -- ./inp_files/541572.got.cif
#   From: 2010.05.17/outbox.cif.g08.bks.cpg/sg2_271_cif.got.tgz:541572.got - 2010.06.03 11:33:40.
