data_PCOD9042644
_publ_section_title
;
Structure prediction by ZEFSAII (Michael W. Deem and Ramdas Pophale) SiO2 
 PCOD9042644
Probable space group: P -1
;
_chemical_formula_sum "Si O2"
_cell_formula_units_Z 14
_cell_length_a 5.617715
_cell_length_b 7.399883
_cell_length_c 21.251768
_cell_angle_alpha 47.972281
_cell_angle_beta 53.445802
_cell_angle_gamma 68.288337
_cell_volume 526.540485
_symmetry_space_group_name_H-M "P -1"
_symmetry_group_IT_number 2
_symmetry_cell_setting 'triclinic'
loop_
_space_group_symop_operation_xyz
x,y,z
-x,-y,-z
loop_
_atom_site_type_symbol
_atom_site_label
_atom_site_fract_x
_atom_site_fract_y
_atom_site_fract_z
Si Si1 0.248069 0.685557 0.015325
Si Si2 0.444518 0.742810 0.312528
Si Si3 0.264569 0.768287 0.589030
Si Si4 0.212871 0.638804 0.489512
Si Si5 0.784076 0.552629 0.798210
Si Si6 0.175796 0.799780 0.870496
Si Si7 0.711043 0.097831 0.823386
O O1 0.105063 0.578009 0.125504
O O2 0.949489 0.296793 0.020320
O O3 0.500000 0.500000 0.000000
O O4 0.415637 0.950374 0.931587
O O5 0.359629 0.836596 0.372618
O O6 0.210941 0.777866 0.286111
O O7 0.984288 0.247593 0.314135
O O8 0.692914 0.924605 0.201658
O O9 0.500000 0.500000 0.500000
O O10 0.115016 0.739399 0.549163
O O11 0.441739 0.525706 0.634498
O O12 0.500000 0.000000 0.500000
O O13 0.000000 0.500000 0.500000
O O14 0.464698 0.662403 0.836408
O O15 0.746945 0.332222 0.806684
O O16 0.930301 0.873020 0.843423
#
# Coordination Sequence:
#
# PCOD9042644 Si02
#       7
#     2   2   2   2   2   2   2
#     4   9  22  44  67 114 151 194 253 313 400 493
#     4  10  23  46  70 105 151 199 256 323 399 481
#     4  11  25  49  78 116 156 210 275 343 402 479
#     4  10  23  44  76 104 147 210 264 326 408 478
#     4  11  23  45  74 109 152 201 263 322 397 477
#     4  10  23  44  73 108 148 199 248 316 401 486
#     4  11  22  45  75 108 154 194 256 321 400 491
#
# _framework density 26.588649
#
# number of rings (size 3 to 8) (size 9 to 14) (size 15 to 20)
#    0.000    1.714    1.429    1.286    2.000    6.286 
#   15.429    4.286    0.000    0.857    0.000    0.000 
#    0.000    0.000    0.000    0.000    0.000    0.000 
#
# Total GULP energy -78013.971131 kJ/mol
# GULP energy per Si atom -5572.426509 kJ/mol
# Density = 2.652813 g / cm^3
# Si number density = 26.588649 Si / 1000 Ang^3
#
#
#
# Elastic Constant Matrix: (Units=GPa)
#
#
# Indices 1 2 3 4 5 6 
#
# 1 71.6049 41.6990 69.9201 -4.3987 5.2942 2.3196
# 2 41.6990 71.3305 86.5656 2.1408 11.0656 0.1553
# 3 69.9201 86.5656 247.2104 28.9827 32.2056 8.1120
# 4 -4.3987 2.1408 28.9827 47.8834 8.1884 -3.4322
# 5 5.2942 11.0656 32.2056 8.1884 64.1225 -8.2701
# 6 2.3196 0.1553 8.1120 -3.4322 -8.2701 48.5725
#
#
#
# Elastic Compliance Matrix: (Units=1/GPa)
#
#
# Indices 1 2 3 4 5 6 
#
# 1 0.023538 -0.008893 -0.004278 0.004968 0.001126 0.000162
# 2 -0.008893 0.028789 -0.007911 0.002880 -0.000398 0.001790
# 3 -0.004278 -0.007911 0.009020 -0.005235 -0.002409 -0.002057
# 4 0.004968 0.002880 -0.005235 0.024734 -0.001156 0.002179
# 5 0.001126 -0.000398 -0.002409 -0.001156 0.017344 0.003221
# 6 0.000162 0.001790 -0.002057 0.002179 0.003221 0.021620
#
#
# Mechanical properties :
#
#
# Convention : Reuss Voigt Hill
#
# Bulk Modulus (GPa) = 52.12334 87.39056 69.75695
# Shear Modulus (GPa) = 28.80140 44.91309 36.85724
#
# Velocity S-wave (km/s) = 3.29480 4.11443 3.72721
# Velocity P-wave (km/s) = 5.84127 7.45052 6.69443
#
# Compressibility (1/GPa) = 0.01918526
#
# Stress axis : x y z
#
# Youngs Moduli (GPa) = 42.48421 34.73521 110.86273
#
# Poissons Ratio (x) = 0.30888 0.47428
# Poissons Ratio (y) = 0.37779 0.87699
# Poissons Ratio (z) = 0.18175 0.27477
#
# Static dielectric constant tensor:
#      x y z
#    x 3.224230 0.208740 0.183500 
#    y 0.208740 2.210260 0.129240 
#    z 0.183500 0.129240 2.249120 
# 
# From -- ./inp_files/580919.got.cif
#   From: 2010.05.17/outbox.cif.g08.bks.cpg/sg2_291_cif.got.tgz:580919.got - 2010.06.03 11:33:40.
