data_PCOD9042956
_publ_section_title
;
Structure prediction by ZEFSAII (Michael W. Deem and Ramdas Pophale) SiO2 
 PCOD9042956
Probable space group: P -1
;
_chemical_formula_sum "Si O2"
_cell_formula_units_Z 16
_cell_length_a 18.306274
_cell_length_b 8.089969
_cell_length_c 5.755337
_cell_angle_alpha 91.443755
_cell_angle_beta 82.434641
_cell_angle_gamma 51.510731
_cell_volume 655.012828
_symmetry_space_group_name_H-M "P -1"
_symmetry_group_IT_number 2
_symmetry_cell_setting 'triclinic'
loop_
_space_group_symop_operation_xyz
x,y,z
-x,-y,-z
loop_
_atom_site_type_symbol
_atom_site_label
_atom_site_fract_x
_atom_site_fract_y
_atom_site_fract_z
Si Si1 0.411494 0.241650 0.981935
Si Si2 0.314435 0.104376 0.710048
Si Si3 0.150698 0.454344 0.453406
Si Si4 0.461823 0.686819 0.339381
Si Si5 0.998024 0.237974 0.153040
Si Si6 0.688938 0.328832 0.834176
Si Si7 0.862933 0.249461 0.870678
Si Si8 0.186641 0.107475 0.094660
O O1 0.346151 0.205490 0.872067
O O2 0.452386 0.333345 0.811596
O O3 0.360441 0.425029 0.209423
O O4 0.500000 0.000000 0.000000
O O5 0.232108 0.292541 0.592163
O O6 0.397465 0.912583 0.508951
O O7 0.272362 0.014124 0.878041
O O8 0.048120 0.590253 0.619532
O O9 0.159221 0.625766 0.353449
O O10 0.164027 0.309631 0.234202
O O11 0.500000 0.500000 0.500000
O O12 0.397957 0.676333 0.178316
O O13 0.090104 0.195314 0.005625
O O14 0.910999 0.307313 0.031830
O O15 0.050830 0.999680 0.214313
O O16 0.762848 0.308461 0.996551
O O17 0.774971 0.075077 0.729212
#
# Coordination Sequence:
#
# PCOD9042956 Si02
#       8
#     2   2   2   2   2   2   2   2
#     4  12  26  45  76 101 143 187 238 300 360 432
#     4  12  27  45  70 105 139 186 235 292 359 422
#     4  12  23  41  69 102 139 184 237 290 350 421
#     4  12  26  46  71 108 140 181 241 295 360 432
#     4  10  23  45  67 103 136 191 239 283 352 412
#     4  11  23  46  69 100 141 183 226 295 359 412
#     4  10  24  43  69 100 144 183 234 290 350 425
#     4  11  24  45  69  98 146 183 235 292 348 425
#
# _framework density 24.427002999999999
#
# number of rings (size 3 to 8) (size 9 to 14) (size 15 to 20)
#    0.000    0.750    1.250    6.000    3.500    3.000 
#    6.750    0.000    0.000    0.000    0.000    0.000 
#    0.000    0.000    0.000    0.000    0.000    0.000 
#
# Total GULP energy -89116.430133 kJ/mol
# GULP energy per Si atom -5569.776883 kJ/mol
# Density = 2.437141 g / cm^3
# Si number density = 24.427003 Si / 1000 Ang^3
#
#
#
# Elastic Constant Matrix: (Units=GPa)
#
#
# Indices 1 2 3 4 5 6 
#
# 1 170.0736 12.6222 20.3950 -9.0430 3.5323 -11.7181
# 2 12.6222 153.9742 19.5073 -9.0886 4.5285 6.2433
# 3 20.3950 19.5073 29.0983 -3.6105 -7.3924 -1.1585
# 4 -9.0430 -9.0886 -3.6105 39.4348 -0.1141 -0.9039
# 5 3.5323 4.5285 -7.3924 -0.1141 22.3898 7.2572
# 6 -11.7181 6.2433 -1.1585 -0.9039 7.2572 30.2439
#
#
#
# Elastic Compliance Matrix: (Units=1/GPa)
#
#
# Indices 1 2 3 4 5 6 
#
# 1 0.006945 0.000216 -0.005787 0.001180 -0.004165 0.003460
# 2 0.000216 0.007412 -0.005810 0.001197 -0.003162 -0.000875
# 3 -0.005787 -0.005810 0.047165 0.001622 0.018873 -0.003716
# 4 0.001180 0.001197 0.001622 0.026078 -0.000109 0.001078
# 5 -0.004165 -0.003162 0.018873 -0.000109 0.056677 -0.013842
# 6 0.003460 -0.000875 -0.003716 0.001078 -0.013842 0.037797
#
#
# Mechanical properties :
#
#
# Convention : Reuss Voigt Hill
#
# Bulk Modulus (GPa) = 25.79921 50.91057 38.35489
# Shear Modulus (GPa) = 22.96158 38.45515 30.70837
#
# Velocity S-wave (km/s) = 3.06928 3.97204 3.54948
# Velocity P-wave (km/s) = 4.81096 6.47482 5.70388
#
# Compressibility (1/GPa) = 0.03876088
#
# Stress axis : x y z
#
# Youngs Moduli (GPa) = 143.98173 134.91548 21.20224
#
# Poissons Ratio (x) = -0.02909 0.12269
# Poissons Ratio (y) = -0.03105 0.12318
# Poissons Ratio (z) = 0.83316 0.78382
#
# Static dielectric constant tensor:
#      x y z
#    x 2.025050 0.036440 -0.028890 
#    y 0.036440 1.957040 -0.012530 
#    z -0.028890 -0.012530 2.046150 
# 
# From -- ./inp_files/106885.got.cif
#   From: 2010.05.17/outbox.cif.g08.bks.cpg/sg2_54_cif.got.tgz:106885.got - 2010.06.03 11:33:40.
