data_PCOD9042873
_publ_section_title
;
Structure prediction by ZEFSAII (Michael W. Deem and Ramdas Pophale) SiO2 
 PCOD9042873
Probable space group: P -1
;
_chemical_formula_sum "Si O2"
_cell_formula_units_Z 12
_cell_length_a 6.920879
_cell_length_b 11.913534
_cell_length_c 7.201496
_cell_angle_alpha 115.178604
_cell_angle_beta 63.149139
_cell_angle_gamma 116.614955
_cell_volume 454.722982
_symmetry_space_group_name_H-M "P -1"
_symmetry_group_IT_number 2
_symmetry_cell_setting 'triclinic'
loop_
_space_group_symop_operation_xyz
x,y,z
-x,-y,-z
loop_
_atom_site_type_symbol
_atom_site_label
_atom_site_fract_x
_atom_site_fract_y
_atom_site_fract_z
Si Si1 0.294251 0.046290 0.568140
Si Si2 0.564080 0.740768 0.876841
Si Si3 0.604747 0.671178 0.390153
Si Si4 0.928287 0.313278 0.932411
Si Si5 0.823540 0.549696 0.732046
Si Si6 0.825770 0.017666 0.856728
O O1 0.373202 0.201862 0.651469
O O2 0.069038 0.993067 0.751361
O O3 0.500000 0.000000 0.500000
O O4 0.232208 0.007790 0.354765
O O5 0.521424 0.692039 0.645851
O O6 0.314677 0.685843 0.037815
O O7 0.762273 0.683674 0.814780
O O8 0.644643 0.898835 0.956055
O O9 0.426216 0.551809 0.279446
O O10 0.868461 0.674953 0.293473
O O11 0.053219 0.423209 0.103537
O O12 0.861112 0.171087 0.967567
O O13 0.000000 0.500000 0.500000
#
# Coordination Sequence:
#
# PCOD9042873 Si02
#       6
#     2   2   2   2   2   2
#     4   9  19  37  67  95 129 169 207 267 325 377
#     4  11  24  44  69  92 134 173 207 276 324 376
#     4  10  23  45  65  96 130 168 222 264 319 389
#     4  11  24  44  66  97 133 165 221 269 317 389
#     4  12  26  44  65  96 132 175 222 260 321 388
#     4   9  21  39  62 102 126 161 220 262 323 385
#
# _framework density 26.389692
#
# number of rings (size 3 to 8) (size 9 to 14) (size 15 to 20)
#    0.000    1.667    1.667    2.500    2.333    4.000 
#    3.000    0.000    0.000    0.000    0.000    0.000 
#    0.000    0.000    0.000    0.000    0.000    0.000 
#
# Total GULP energy -67205.853314 kJ/mol
# GULP energy per Si atom -5600.487776 kJ/mol
# Density = 2.632963 g / cm^3
# Si number density = 26.389692 Si / 1000 Ang^3
#
#
#
# Elastic Constant Matrix: (Units=GPa)
#
#
# Indices 1 2 3 4 5 6 
#
# 1 166.9819 32.3249 44.2747 -3.9266 -29.1516 13.1570
# 2 32.3249 118.9794 20.2627 16.5564 -8.2567 26.7899
# 3 44.2747 20.2627 84.2674 14.0625 -18.0671 13.4746
# 4 -3.9266 16.5564 14.0625 27.0862 8.7316 -4.3177
# 5 -29.1516 -8.2567 -18.0671 8.7316 64.4523 11.3306
# 6 13.1570 26.7899 13.4746 -4.3177 11.3306 43.8268
#
#
#
# Elastic Compliance Matrix: (Units=1/GPa)
#
#
# Indices 1 2 3 4 5 6 
#
# 1 0.007761 -0.001817 -0.003868 0.003673 0.001715 -0.000112
# 2 -0.001817 0.013139 0.002980 -0.013378 0.005466 -0.011133
# 3 -0.003868 0.002980 0.019382 -0.016728 0.008156 -0.010376
# 4 0.003673 -0.013378 -0.016728 0.063585 -0.017396 0.022980
# 5 0.001715 0.005466 0.008156 -0.017396 0.024152 -0.014322
# 6 -0.000112 -0.011133 -0.010376 0.022980 -0.014322 0.038812
#
#
# Mechanical properties :
#
#
# Convention : Reuss Voigt Hill
#
# Bulk Modulus (GPa) = 28.67628 62.66146 45.66887
# Shear Modulus (GPa) = 27.19415 45.29749 36.24582
#
# Velocity S-wave (km/s) = 3.21360 4.14754 3.71007
# Velocity P-wave (km/s) = 4.96585 6.83611 5.97461
#
# Compressibility (1/GPa) = 0.03487202
#
# Stress axis : x y z
#
# Youngs Moduli (GPa) = 128.85761 76.11121 51.59452
#
# Poissons Ratio (x) = 0.13826 0.19956
# Poissons Ratio (y) = 0.23408 -0.15375
# Poissons Ratio (z) = 0.49841 -0.22681
#
# Static dielectric constant tensor:
#      x y z
#    x 2.047880 -0.046610 0.000240 
#    y -0.046610 2.118510 0.006170 
#    z 0.000240 0.006170 2.025290 
# 
# From -- ./inp_files/131082.got.cif
#   From: 2010.05.17/outbox.cif.g08.bks.cpg/sg2_66_cif.got.tgz:131082.got - 2010.06.03 11:33:40.
