data_PCOD9042215
_publ_section_title
;
Structure prediction by ZEFSAII (Michael W. Deem and Ramdas Pophale) SiO2 
 PCOD9042215
Probable space group: P -1
;
_chemical_formula_sum "Si O2"
_cell_formula_units_Z 13
_cell_length_a 4.840748
_cell_length_b 20.235120
_cell_length_c 5.099079
_cell_angle_alpha 78.084454
_cell_angle_beta 87.975840
_cell_angle_gamma 81.987200
_cell_volume 483.926275
_symmetry_space_group_name_H-M "P -1"
_symmetry_group_IT_number 2
_symmetry_cell_setting 'triclinic'
loop_
_space_group_symop_operation_xyz
x,y,z
-x,-y,-z
loop_
_atom_site_type_symbol
_atom_site_label
_atom_site_fract_x
_atom_site_fract_y
_atom_site_fract_z
Si Si1 0.070303 0.585488 0.191637
Si Si2 0.665333 0.772908 0.638233
Si Si3 0.695415 0.563287 0.712781
Si Si4 0.500000 0.000000 0.500000
Si Si5 0.618588 0.121390 0.106260
Si Si6 0.223454 0.677837 0.739411
Si Si7 0.023925 0.107139 0.612181
O O1 0.298401 0.518067 0.240900
O O2 0.881194 0.584588 0.451494
O O3 0.204238 0.653644 0.065224
O O4 0.861391 0.576575 0.962136
O O5 0.582763 0.807633 0.896488
O O6 0.398378 0.737728 0.606561
O O7 0.912133 0.711200 0.668451
O O8 0.773942 0.834648 0.428433
O O9 0.395594 0.608696 0.676116
O O10 0.556178 0.939881 0.774238
O O11 0.777104 0.963815 0.359565
O O12 0.827779 0.117356 0.353673
O O13 0.804384 0.112182 0.851502
#
# Coordination Sequence:
#
# PCOD9042215 Si02
#       7
#     2   2   2   1   2   2   2
#     4  10  23  44  70 101 137 180 233 293 356 419
#     4  11  26  45  73 102 145 186 242 278 359 410
#     4  10  23  44  70 101 137 180 233 293 356 419
#     4  10  24  42  76 112 134 192 228 294 342 418
#     4  11  25  47  71 104 146 184 234 289 346 413
#     4  12  23  48  70 105 138 190 232 298 340 433
#     4  11  25  47  71 104 146 184 234 289 346 413
#
# _framework density 26.863593000000002
#
# number of rings (size 3 to 8) (size 9 to 14) (size 15 to 20)
#    0.000    1.231    3.077    1.385    0.000    9.846 
#    0.000    4.615    0.000    0.000    0.000    0.000 
#    0.000    0.000    0.000    0.000    0.000    0.000 
#
# Total GULP energy -72581.664944 kJ/mol
# GULP energy per Si atom -5583.204996 kJ/mol
# Density = 2.680245 g / cm^3
# Si number density = 26.863593 Si / 1000 Ang^3
#
#
#
# Elastic Constant Matrix: (Units=GPa)
#
#
# Indices 1 2 3 4 5 6 
#
# 1 75.5947 20.4927 69.1372 29.7075 -16.1741 -23.9336
# 2 20.4927 136.6293 24.4243 15.0949 -11.2082 -35.9654
# 3 69.1372 24.4243 140.3669 15.8013 -24.6621 10.6141
# 4 29.7075 15.0949 15.8013 33.4613 0.4044 -24.9100
# 5 -16.1741 -11.2082 -24.6621 0.4044 52.3181 0.6109
# 6 -23.9336 -35.9654 10.6141 -24.9100 0.6109 53.5935
#
#
#
# Elastic Compliance Matrix: (Units=1/GPa)
#
#
# Indices 1 2 3 4 5 6 
#
# 1 0.047623 0.004736 -0.022869 -0.018575 0.004864 0.020286
# 2 0.004736 0.010193 -0.004823 0.001264 0.001242 0.010484
# 3 -0.022869 -0.004823 0.021062 -0.000958 0.002044 -0.018090
# 4 -0.018575 0.001264 -0.000958 0.062682 -0.006664 0.021953
# 5 0.004864 0.001242 0.002044 -0.006664 0.021907 -0.000746
# 6 0.020286 0.010484 -0.018090 0.021953 -0.000746 0.048549
#
#
# Mechanical properties :
#
#
# Convention : Reuss Voigt Hill
#
# Bulk Modulus (GPa) = 30.33419 64.52214 47.42817
# Shear Modulus (GPa) = 18.59313 43.77703 31.18508
#
# Velocity S-wave (km/s) = 2.63369 4.04122 3.41085
# Velocity P-wave (km/s) = 4.53485 6.77095 5.76241
#
# Compressibility (1/GPa) = 0.03296610
#
# Stress axis : x y z
#
# Youngs Moduli (GPa) = 20.99837 98.10747 47.47809
#
# Poissons Ratio (x) = -0.46468 1.08578
# Poissons Ratio (y) = -0.09946 0.22900
# Poissons Ratio (z) = 0.48021 0.47321
#
# Static dielectric constant tensor:
#      x y z
#    x 2.043300 0.106600 -0.054170 
#    y 0.106600 2.155770 -0.002640 
#    z -0.054170 -0.002640 2.005020 
# 
# From -- ./inp_files/8801.got.cif
#   From: 2010.05.17/outbox.cif.g08.bks.cpg/sg2_5_cif.got.tgz:8801.got - 2010.06.03 11:33:40.
