data_PCOD9042719
_publ_section_title
;
Structure prediction by ZEFSAII (Michael W. Deem and Ramdas Pophale) SiO2 
 PCOD9042719
Probable space group: P -1
;
_chemical_formula_sum "Si O2"
_cell_formula_units_Z 12
_cell_length_a 11.574420
_cell_length_b 5.343606
_cell_length_c 18.030659
_cell_angle_alpha 63.732455
_cell_angle_beta 149.573534
_cell_angle_gamma 100.441910
_cell_volume 454.482231
_symmetry_space_group_name_H-M "P -1"
_symmetry_group_IT_number 2
_symmetry_cell_setting 'triclinic'
loop_
_space_group_symop_operation_xyz
x,y,z
-x,-y,-z
loop_
_atom_site_type_symbol
_atom_site_label
_atom_site_fract_x
_atom_site_fract_y
_atom_site_fract_z
Si Si1 0.489433 0.247454 0.638718
Si Si2 0.755194 0.013467 0.587944
Si Si3 0.718963 0.671271 0.140923
Si Si4 0.043802 0.216960 0.114181
Si Si5 0.898583 0.737105 0.480779
Si Si6 0.278702 0.581321 0.961195
O O1 0.391420 0.616990 0.535934
O O2 0.399955 0.145235 0.679445
O O3 0.360343 0.121642 0.520695
O O4 0.788897 0.082652 0.804148
O O5 0.786591 0.848763 0.707429
O O6 0.060693 0.894005 0.760154
O O7 0.778355 0.664733 0.087051
O O8 0.972295 0.494712 0.348967
O O9 0.565011 0.478145 0.109143
O O10 0.500000 0.000000 0.000000
O O11 0.773633 0.340493 0.991894
O O12 0.000000 0.500000 0.000000
O O13 0.000000 0.500000 0.500000
O O14 0.000000 0.000000 0.500000
#
# Coordination Sequence:
#
# PCOD9042719 Si02
#       6
#     2   2   2   2   2   2
#     4  12  23  48  70 100 135 190 229 282 339 420
#     4  10  23  44  74  97 134 181 238 271 340 419
#     4  11  23  43  73  95 139 186 234 280 339 424
#     4  10  24  42  69 103 142 175 228 293 350 402
#     4  12  28  43  70 104 143 178 231 291 350 400
#     4   9  23  40  71  99 135 178 241 270 348 404
#
# _framework density 26.403672
#
# number of rings (size 3 to 8) (size 9 to 14) (size 15 to 20)
#    1.000    0.333    1.667    3.000    7.000    0.000 
#    3.000    3.333    0.000    0.000    0.000    0.000 
#    0.000    0.000    0.000    0.000    0.000    0.000 
#
# Total GULP energy -66802.649005 kJ/mol
# GULP energy per Si atom -5566.887417 kJ/mol
# Density = 2.634358 g / cm^3
# Si number density = 26.403672 Si / 1000 Ang^3
#
#
#
# Elastic Constant Matrix: (Units=GPa)
#
#
# Indices 1 2 3 4 5 6 
#
# 1 188.2687 46.5897 24.9306 -6.9623 20.8303 -34.2221
# 2 46.5897 133.4451 44.7255 -31.5490 -7.5792 -19.5899
# 3 24.9306 44.7255 76.0543 -21.0576 0.9828 -15.1739
# 4 -6.9623 -31.5490 -21.0576 38.7814 -5.0198 10.6513
# 5 20.8303 -7.5792 0.9828 -5.0198 43.5008 -14.9787
# 6 -34.2221 -19.5899 -15.1739 10.6513 -14.9787 41.8324
#
#
#
# Elastic Compliance Matrix: (Units=1/GPa)
#
#
# Indices 1 2 3 4 5 6 
#
# 1 0.006905 -0.002302 -0.000767 -0.002483 -0.002602 0.003993
# 2 -0.002302 0.011890 -0.003876 0.007182 0.004842 0.002184
# 3 -0.000767 -0.003876 0.017830 0.005714 0.000951 0.002911
# 4 -0.002483 0.007182 0.005714 0.036028 0.005113 -0.003938
# 5 -0.002602 0.004842 0.000951 0.005113 0.028932 0.009542
# 6 0.003993 0.002184 0.002911 -0.003938 0.009542 0.033669
#
#
# Mechanical properties :
#
#
# Convention : Reuss Voigt Hill
#
# Bulk Modulus (GPa) = 43.98583 70.02887 57.00735
# Shear Modulus (GPa) = 31.90365 43.59107 37.74736
#
# Velocity S-wave (km/s) = 3.47984 4.06759 3.78514
# Velocity P-wave (km/s) = 5.73069 6.97427 6.38284
#
# Compressibility (1/GPa) = 0.02273460
#
# Stress axis : x y z
#
# Youngs Moduli (GPa) = 144.82964 84.10318 56.08634
#
# Poissons Ratio (x) = 0.19363 0.04300
# Poissons Ratio (y) = 0.33345 0.21739
# Poissons Ratio (z) = 0.11104 0.32598
#
# Static dielectric constant tensor:
#      x y z
#    x 2.277310 -0.260780 -0.215500 
#    y -0.260780 1.164770 -0.885620 
#    z -0.215500 -0.885620 1.297460 
# 
# From -- ./inp_files/129804.got.cif
#   From: 2010.05.17/outbox.cif.g08.bks.cpg/sg2_65_cif.got.tgz:129804.got - 2010.06.03 11:33:40.
