data_PCOD9042672
_publ_section_title
;
Structure prediction by ZEFSAII (Michael W. Deem and Ramdas Pophale) SiO2 
 PCOD9042672
Probable space group: P -1
;
_chemical_formula_sum "Si O2"
_cell_formula_units_Z 16
_cell_length_a 14.998129
_cell_length_b 13.933326
_cell_length_c 15.321891
_cell_angle_alpha 29.397620
_cell_angle_beta 139.427625
_cell_angle_gamma 151.164515
_cell_volume 757.934460
_symmetry_space_group_name_H-M "P -1"
_symmetry_group_IT_number 2
_symmetry_cell_setting 'triclinic'
loop_
_space_group_symop_operation_xyz
x,y,z
-x,-y,-z
loop_
_atom_site_type_symbol
_atom_site_label
_atom_site_fract_x
_atom_site_fract_y
_atom_site_fract_z
Si Si1 0.001315 0.222881 0.920976
Si Si2 0.492884 0.102949 0.775558
Si Si3 0.684856 0.827753 0.555876
Si Si4 0.964599 0.001152 0.253438
Si Si5 0.474038 0.819535 0.547120
Si Si6 0.689094 0.640384 0.081284
Si Si7 0.803499 0.424406 0.615778
Si Si8 0.426727 0.216324 0.826235
O O1 0.035712 0.149643 0.096483
O O2 0.815984 0.944587 0.963395
O O3 0.956478 0.406048 0.754811
O O4 0.172905 0.352853 0.881913
O O5 0.339214 0.041906 0.643876
O O6 0.687136 0.334989 0.688850
O O7 0.474098 0.191949 0.783405
O O8 0.494454 0.872696 0.978750
O O9 0.655854 0.915698 0.555828
O O10 0.516748 0.512754 0.674743
O O11 0.866025 0.867730 0.658637
O O12 0.887284 0.707711 0.422679
O O13 0.793719 0.973007 0.177028
O O14 0.372149 0.538560 0.737950
O O15 0.344674 0.780192 0.405821
O O16 0.500000 0.000000 0.500000
O O17 0.500000 0.500000 0.000000
#
# Coordination Sequence:
#
# PCOD9042672 Si02
#       8
#     2   2   2   2   2   2   2   2
#     4  11  24  42  64  92 130 173 219 275 332 378
#     4  10  23  44  73  99 130 178 213 273 341 392
#     4  11  25  43  68  99 135 173 222 272 331 393
#     4  12  24  42  68  97 134 176 217 274 329 396
#     4  11  23  42  63  95 130 175 221 268 323 388
#     4  11  23  42  64  91 126 174 226 276 324 386
#     4  11  23  42  67  94 136 169 219 274 329 389
#     4  11  22  47  71  96 137 170 219 274 332 402
#
# _framework density 21.110005000000001
#
# number of rings (size 3 to 8) (size 9 to 14) (size 15 to 20)
#    0.000    1.000    5.000    1.875    1.750    3.000 
#    2.250    1.250    0.000    0.000    0.000    0.000 
#    0.000    0.000    0.000    0.000    0.000    0.000 
#
# Total GULP energy -89423.702594 kJ/mol
# GULP energy per Si atom -5588.981412 kJ/mol
# Density = 2.106196 g / cm^3
# Si number density = 21.110005 Si / 1000 Ang^3
#
#
#
# Elastic Constant Matrix: (Units=GPa)
#
#
# Indices 1 2 3 4 5 6 
#
# 1 81.1915 12.6332 41.1784 11.4178 -4.8724 2.3610
# 2 12.6332 65.1169 18.8390 19.7286 -1.9258 19.6751
# 3 41.1784 18.8390 128.3958 30.2715 -0.6781 9.3748
# 4 11.4178 19.7286 30.2715 25.9570 -0.2947 10.4846
# 5 -4.8724 -1.9258 -0.6781 -0.2947 32.0961 2.1088
# 6 2.3610 19.6751 9.3748 10.4846 2.1088 18.8477
#
#
#
# Elastic Compliance Matrix: (Units=1/GPa)
#
#
# Indices 1 2 3 4 5 6 
#
# 1 0.015098 -0.002183 -0.004521 -0.000863 0.001866 0.002907
# 2 -0.002183 0.025115 0.001156 -0.011126 0.002452 -0.020604
# 3 -0.004521 0.001156 0.012171 -0.013427 -0.000538 0.000836
# 4 -0.000863 -0.011126 -0.013427 0.071770 0.000998 -0.021635
# 5 0.001866 0.002452 -0.000538 0.000998 0.032023 -0.006664
# 6 0.002907 -0.020604 0.000836 -0.021635 -0.006664 0.086566
#
#
# Mechanical properties :
#
#
# Convention : Reuss Voigt Hill
#
# Bulk Modulus (GPa) = 24.22070 46.66727 35.44399
# Shear Modulus (GPa) = 18.68452 28.85038 23.76745
#
# Velocity S-wave (km/s) = 2.97829 3.70086 3.35906
# Velocity P-wave (km/s) = 4.82964 6.35740 5.64544
#
# Compressibility (1/GPa) = 0.04128699
#
# Stress axis : x y z
#
# Youngs Moduli (GPa) = 66.23442 39.81660 82.16582
#
# Poissons Ratio (x) = 0.08692 0.37146
# Poissons Ratio (y) = 0.14459 -0.09495
# Poissons Ratio (z) = 0.29943 -0.04601
#
# Static dielectric constant tensor:
#      x y z
#    x 1.738530 0.006760 0.020170 
#    y 0.006760 1.824040 0.023900 
#    z 0.020170 0.023900 1.756000 
# 
# From -- ./inp_files/534141.got.cif
#   From: 2010.05.17/outbox.cif.g08.bks.cpg/sg2_268_cif.got.tgz:534141.got - 2010.06.03 11:33:40.
