data_PCOD9042217
_publ_section_title
;
Structure prediction by ZEFSAII (Michael W. Deem and Ramdas Pophale) SiO2 
 PCOD9042217
Probable space group: P -1
;
_chemical_formula_sum "Si O2"
_cell_formula_units_Z 10
_cell_length_a 5.573208
_cell_length_b 8.149893
_cell_length_c 12.024683
_cell_angle_alpha 58.483704
_cell_angle_beta 112.027347
_cell_angle_gamma 122.614528
_cell_volume 388.864722
_symmetry_space_group_name_H-M "P -1"
_symmetry_group_IT_number 2
_symmetry_cell_setting 'triclinic'
loop_
_space_group_symop_operation_xyz
x,y,z
-x,-y,-z
loop_
_atom_site_type_symbol
_atom_site_label
_atom_site_fract_x
_atom_site_fract_y
_atom_site_fract_z
Si Si1 0.851032 0.242667 0.083549
Si Si2 0.896536 0.681400 0.521862
Si Si3 0.705122 0.723859 0.017507
Si Si4 0.666667 0.025594 0.358523
Si Si5 0.932907 0.283544 0.706702
O O1 0.856668 0.160174 0.238529
O O2 0.515154 0.176802 0.026549
O O3 0.000000 0.500000 0.000000
O O4 0.028956 0.162199 0.061331
O O5 0.735978 0.826451 0.469662
O O6 0.800797 0.454063 0.643161
O O7 0.888976 0.652488 0.399014
O O8 0.223751 0.816199 0.574460
O O9 0.858326 0.694794 0.164083
O O10 0.500000 0.500000 0.000000
O O11 0.340756 0.935699 0.293603
#
# Coordination Sequence:
#
# PCOD9042217 Si02
#       5
#     2   2   2   2   2
#     4  10  23  44  70 101 138 187 232 290 354 416
#     4  10  24  46  66 108 136 188 234 298 350 422
#     4  10  23  44  70 101 138 187 232 290 354 416
#     4  11  24  44  73 100 143 182 241 289 358 422
#     4  11  24  44  73 100 143 182 241 289 358 422
#
# _framework density 25.715883999999999
#
# number of rings (size 3 to 8) (size 9 to 14) (size 15 to 20)
#    0.000    1.600    0.000    3.600    5.600    1.600 
#   28.800    0.000    0.000    0.000    0.000    0.000 
#    0.000    0.000    0.000    0.000    0.000    0.000 
#
# Total GULP energy -55941.672247 kJ/mol
# GULP energy per Si atom -5594.167225 kJ/mol
# Density = 2.565735 g / cm^3
# Si number density = 25.715884 Si / 1000 Ang^3
#
#
#
# Elastic Constant Matrix: (Units=GPa)
#
#
# Indices 1 2 3 4 5 6 
#
# 1 152.6085 27.7640 50.2900 10.2822 9.7135 7.8886
# 2 27.7640 128.4972 43.0471 31.9578 22.5401 14.8468
# 3 50.2900 43.0471 157.9941 39.4947 17.9084 2.6335
# 4 10.2822 31.9578 39.4947 47.1254 0.5491 10.5295
# 5 9.7135 22.5401 17.9084 0.5491 32.1217 3.1157
# 6 7.8886 14.8468 2.6335 10.5295 3.1157 39.8351
#
#
#
# Elastic Compliance Matrix: (Units=1/GPa)
#
#
# Indices 1 2 3 4 5 6 
#
# 1 0.007515 -0.000971 -0.002427 0.001348 -0.000134 -0.001312
# 2 -0.000971 0.011186 -0.000212 -0.006751 -0.007165 -0.001618
# 3 -0.002427 -0.000212 0.009598 -0.007844 -0.004563 0.002355
# 4 0.001348 -0.006751 -0.007844 0.033489 0.008787 -0.006771
# 5 -0.000134 -0.007165 -0.004563 0.008787 0.038823 -0.002361
# 6 -0.001312 -0.001618 0.002355 -0.006771 -0.002361 0.027785
#
#
# Mechanical properties :
#
#
# Convention : Reuss Voigt Hill
#
# Bulk Modulus (GPa) = 47.43995 75.70020 61.57008
# Shear Modulus (GPa) = 35.05285 45.01636 40.03461
#
# Velocity S-wave (km/s) = 3.69600 4.18847 3.94992
# Velocity P-wave (km/s) = 6.05819 7.27269 6.69305
#
# Compressibility (1/GPa) = 0.02107928
#
# Stress axis : x y z
#
# Youngs Moduli (GPa) = 133.07221 89.39854 104.18308
#
# Poissons Ratio (x) = 0.08677 0.25288
# Poissons Ratio (y) = 0.12916 0.02208
# Poissons Ratio (z) = 0.32301 0.01895
#
# Static dielectric constant tensor:
#      x y z
#    x 1.923870 0.137870 0.000410 
#    y 0.137870 1.951960 -0.067420 
#    z 0.000410 -0.067420 2.012710 
# 
# From -- ./inp_files/18067.got.cif
#   From: 2010.05.17/outbox.cif.g08.bks.cpg/sg2_10_cif.got.tgz:18067.got - 2010.06.03 11:33:40.
