data_PCOD9042973
_publ_section_title
;
Structure prediction by ZEFSAII (Michael W. Deem and Ramdas Pophale) SiO2 
 PCOD9042973
Probable space group: P -1
;
_chemical_formula_sum "Si O2"
_cell_formula_units_Z 12
_cell_length_a 9.631140
_cell_length_b 5.344317
_cell_length_c 11.439424
_cell_angle_alpha 90.807772
_cell_angle_beta 64.665345
_cell_angle_gamma 63.910872
_cell_volume 462.878568
_symmetry_space_group_name_H-M "P -1"
_symmetry_group_IT_number 2
_symmetry_cell_setting 'triclinic'
loop_
_space_group_symop_operation_xyz
x,y,z
-x,-y,-z
loop_
_atom_site_type_symbol
_atom_site_label
_atom_site_fract_x
_atom_site_fract_y
_atom_site_fract_z
Si Si1 0.994807 0.658026 0.378729
Si Si2 0.400126 0.831874 0.490750
Si Si3 0.306616 0.816741 0.873211
Si Si4 0.201884 0.394679 0.898546
Si Si5 0.342815 0.719442 0.249872
Si Si6 0.797088 0.814532 0.878594
O O1 0.000000 0.500000 0.500000
O O2 0.155706 0.727908 0.325481
O O3 0.277019 0.333590 0.005354
O O4 0.811482 0.944685 0.418194
O O5 0.500000 0.500000 0.500000
O O6 0.402391 0.786830 0.350814
O O7 0.500000 0.000000 0.500000
O O8 0.232376 0.635512 0.834697
O O9 0.505444 0.601475 0.837082
O O10 0.288309 0.083760 0.808187
O O11 0.326415 0.963669 0.170746
O O12 0.186799 0.971470 0.031484
O O13 0.000000 0.500000 0.000000
O O14 0.042020 0.429911 0.253988
#
# Coordination Sequence:
#
# PCOD9042973 Si02
#       6
#     2   2   2   2   2   2
#     4  12  26  50  81 112 152 207 266 318 384 463
#     4  12  30  52  75 111 154 200 258 324 388 449
#     4  10  25  43  75 113 149 195 256 307 383 447
#     4  10  23  45  67 110 158 198 246 305 391 453
#     4  12  26  48  80 111 153 204 262 318 378 469
#     4  10  25  42  80 103 156 189 263 299 383 450
#
# _framework density 25.924724000000001
#
# number of rings (size 3 to 8) (size 9 to 14) (size 15 to 20)
#    1.000    0.000    1.667    3.500    4.667    4.000 
#    0.000    0.000    0.000    0.000    0.000    0.000 
#    0.000    0.000    0.000    0.000    0.000    0.000 
#
# Total GULP energy -67034.413625 kJ/mol
# GULP energy per Si atom -5586.201135 kJ/mol
# Density = 2.586572 g / cm^3
# Si number density = 25.924724 Si / 1000 Ang^3
#
#
#
# Elastic Constant Matrix: (Units=GPa)
#
#
# Indices 1 2 3 4 5 6 
#
# 1 177.3398 85.4438 35.6987 18.1184 -19.0004 3.2012
# 2 85.4438 214.9803 51.8165 37.5777 -3.7404 -8.8536
# 3 35.6987 51.8165 94.5579 11.1953 1.7806 -6.2199
# 4 18.1184 37.5777 11.1953 52.9802 -18.4633 3.1598
# 5 -19.0004 -3.7404 1.7806 -18.4633 45.3565 10.4976
# 6 3.2012 -8.8536 -6.2199 3.1598 10.4976 54.8396
#
#
#
# Elastic Compliance Matrix: (Units=1/GPa)
#
#
# Indices 1 2 3 4 5 6 
#
# 1 0.007707 -0.002895 -0.001682 0.001296 0.004036 -0.001955
# 2 -0.002895 0.007172 -0.002087 -0.004794 -0.002937 0.001929
# 3 -0.001682 -0.002087 0.012702 -0.001578 -0.002424 0.001757
# 4 0.001296 -0.004794 -0.001578 0.026717 0.012221 -0.004908
# 5 0.004036 -0.002937 -0.002424 0.012221 0.030299 -0.007489
# 6 -0.001955 0.001929 0.001757 -0.004908 -0.007489 0.020576
#
#
# Mechanical properties :
#
#
# Convention : Reuss Voigt Hill
#
# Bulk Modulus (GPa) = 70.15570 92.53291 81.34430
# Shear Modulus (GPa) = 40.56701 51.56318 46.06509
#
# Velocity S-wave (km/s) = 3.96005 4.46461 4.21988
# Velocity P-wave (km/s) = 6.93032 7.89604 7.42889
#
# Compressibility (1/GPa) = 0.01425401
#
# Stress axis : x y z
#
# Youngs Moduli (GPa) = 129.74396 139.43948 78.72641
#
# Poissons Ratio (x) = 0.40366 0.13238
# Poissons Ratio (y) = 0.37559 0.16432
# Poissons Ratio (z) = 0.21817 0.29104
#
# Static dielectric constant tensor:
#      x y z
#    x 2.085080 -0.033100 0.006540 
#    y -0.033100 2.157920 0.016150 
#    z 0.006540 0.016150 2.053300 
# 
# From -- ./inp_files/409286.got.cif
#   From: 2010.05.17/outbox.cif.g08.bks.cpg/sg2_205_cif.got.tgz:409286.got - 2010.06.03 11:33:40.
