data_PCOD9042815
_publ_section_title
;
Structure prediction by ZEFSAII (Michael W. Deem and Ramdas Pophale) SiO2 
 PCOD9042815
Probable space group: P -1
;
_chemical_formula_sum "Si O2"
_cell_formula_units_Z 16
_cell_length_a 9.415076
_cell_length_b 23.019061
_cell_length_c 21.417750
_cell_angle_alpha 20.912288
_cell_angle_beta 151.116016
_cell_angle_gamma 142.803970
_cell_volume 794.152530
_symmetry_space_group_name_H-M "P -1"
_symmetry_group_IT_number 2
_symmetry_cell_setting 'triclinic'
loop_
_space_group_symop_operation_xyz
x,y,z
-x,-y,-z
loop_
_atom_site_type_symbol
_atom_site_label
_atom_site_fract_x
_atom_site_fract_y
_atom_site_fract_z
Si Si1 0.654976 0.861638 0.744453
Si Si2 0.247473 0.771232 0.988632
Si Si3 0.013913 0.817915 0.712366
Si Si4 0.595301 0.327531 0.395988
Si Si5 0.437008 0.101217 0.782608
Si Si6 0.989600 0.953686 0.214515
Si Si7 0.350091 0.422360 0.340015
Si Si8 0.689721 0.395527 0.068862
O O1 0.437299 0.728462 0.808465
O O2 0.500000 0.000000 0.500000
O O3 0.749171 0.952213 0.751986
O O4 0.960370 0.779634 0.914018
O O5 0.412337 0.586092 0.236259
O O6 0.131606 0.806534 0.838730
O O7 0.414412 0.924904 0.918349
O O8 0.219547 0.699835 0.864416
O O9 0.691597 0.763445 0.636290
O O10 0.000000 0.000000 0.500000
O O11 0.540460 0.398903 0.372931
O O12 0.879623 0.196008 0.628346
O O13 0.562306 0.462136 0.192969
O O14 0.179679 0.114568 0.722792
O O15 0.399901 0.254906 0.567364
O O16 0.749853 0.079896 0.959960
O O17 0.998278 0.449482 0.158681
#
# Coordination Sequence:
#
# PCOD9042815 Si02
#       8
#     2   2   2   2   2   2   2   2
#     4  11  23  38  62  95 119 156 203 252 310 365
#     4  11  21  39  60  92 121 157 213 247 297 368
#     4  11  19  35  61  87 125 161 193 251 309 365
#     4  11  21  38  60  92 125 156 199 253 312 360
#     4  10  24  44  64  84 120 170 205 252 303 350
#     4  10  23  45  61  86 122 158 208 251 300 365
#     4  11  22  40  63  92 126 161 201 250 304 368
#     4  11  21  36  58  95 127 154 195 251 317 361
#
# _framework density 20.147262999999999
#
# number of rings (size 3 to 8) (size 9 to 14) (size 15 to 20)
#    0.000    1.250    2.500    6.000    1.750    1.000 
#    2.250    2.500    0.000    0.000    0.000    0.000 
#    0.000    0.000    0.000    0.000    0.000    0.000 
#
# Total GULP energy -89398.281044 kJ/mol
# GULP energy per Si atom -5587.392565 kJ/mol
# Density = 2.010141 g / cm^3
# Si number density = 20.147263 Si / 1000 Ang^3
#
#
#
# Elastic Constant Matrix: (Units=GPa)
#
#
# Indices 1 2 3 4 5 6 
#
# 1 291.6983 -76.8273 85.3853 -61.8292 153.8878 -35.1683
# 2 -76.8273 93.3274 0.0537 -0.2669 -63.2443 3.1472
# 3 85.3853 0.0537 100.9709 -31.3312 28.7769 -3.9313
# 4 -61.8292 -0.2669 -31.3312 39.1965 -30.6441 3.2073
# 5 153.8878 -63.2443 28.7769 -30.6441 144.7446 -28.7571
# 6 -35.1683 3.1472 -3.9313 3.2073 -28.7571 27.4673
#
#
#
# Elastic Compliance Matrix: (Units=1/GPa)
#
#
# Indices 1 2 3 4 5 6 
#
# 1 0.013610 0.006503 -0.005923 0.010988 -0.006608 0.007631
# 2 0.006503 0.021389 -0.003282 0.013329 0.008423 0.012668
# 3 -0.005923 -0.003282 0.015787 0.005227 0.002180 -0.003276
# 4 0.010988 0.013329 0.005227 0.051269 0.006828 0.014452
# 5 -0.006608 0.008423 0.002180 0.006828 0.021033 0.012109
# 6 0.007631 0.012668 -0.003276 0.014452 0.012109 0.055247
#
#
# Mechanical properties :
#
#
# Convention : Reuss Voigt Hill
#
# Bulk Modulus (GPa) = 22.03479 55.91333 38.97406
# Shear Modulus (GPa) = 25.14247 74.10734 49.62491
#
# Velocity S-wave (km/s) = 3.53644 6.07146 4.96836
# Velocity P-wave (km/s) = 5.25698 8.77285 7.23183
#
# Compressibility (1/GPa) = 0.04538279
#
# Stress axis : x y z
#
# Youngs Moduli (GPa) = 73.47532 46.75295 63.34317
#
# Poissons Ratio (x) = -0.30403 0.37516
# Poissons Ratio (y) = -0.47781 0.20789
# Poissons Ratio (z) = 0.43516 0.15344
#
# Static dielectric constant tensor:
#      x y z
#    x 1.707880 -0.016490 0.011110 
#    y -0.016490 1.704150 -0.017510 
#    z 0.011110 -0.017510 1.684860 
# 
# From -- ./inp_files/208665.got.cif
#   From: 2010.05.17/outbox.cif.g08.bks.cpg/sg2_105_cif.got.tgz:208665.got - 2010.06.03 11:33:40.
