data_PCOD9042024
_publ_section_title
;
Structure prediction by ZEFSAII (Michael W. Deem and Ramdas Pophale) SiO2 
 PCOD9042024
Probable space group: P -1
;
_chemical_formula_sum "Si O2"
_cell_formula_units_Z 14
_cell_length_a 8.325188
_cell_length_b 22.160827
_cell_length_c 8.977105
_cell_angle_alpha 41.234942
_cell_angle_beta 147.072048
_cell_angle_gamma 141.690131
_cell_volume 536.238519
_symmetry_space_group_name_H-M "P -1"
_symmetry_group_IT_number 2
_symmetry_cell_setting 'triclinic'
loop_
_space_group_symop_operation_xyz
x,y,z
-x,-y,-z
loop_
_atom_site_type_symbol
_atom_site_label
_atom_site_fract_x
_atom_site_fract_y
_atom_site_fract_z
Si Si1 0.108751 0.813135 0.776153
Si Si2 0.356038 0.406914 0.451133
Si Si3 0.876337 0.024454 0.706436
Si Si4 0.000546 0.122680 0.153032
Si Si5 0.305214 0.750192 0.481128
Si Si6 0.635202 0.288504 0.054582
Si Si7 0.498533 0.397125 0.255669
O O1 0.363820 0.791475 0.915680
O O2 0.247450 0.892107 0.874353
O O3 0.856844 0.701004 0.845369
O O4 0.968840 0.863177 0.450363
O O5 0.500000 0.500000 0.500000
O O6 0.565851 0.414175 0.453124
O O7 0.995891 0.383716 0.154458
O O8 0.361060 0.320277 0.724267
O O9 0.953918 0.957508 0.767302
O O10 0.500000 0.000000 0.500000
O O11 0.000000 0.000000 0.000000
O O12 0.331175 0.166104 0.429022
O O13 0.936813 0.204348 0.850778
O O14 0.358370 0.744436 0.709951
O O15 0.270229 0.645525 0.571168
O O16 0.500000 0.500000 0.000000
#
# Coordination Sequence:
#
# PCOD9042024 Si02
#       7
#     2   2   2   2   2   2   2
#     4  10  24  44  68 100 137 175 223 278 332 401
#     4  11  23  40  61  90 125 173 225 274 325 385
#     4  12  26  45  73 104 135 175 222 277 343 406
#     4  11  23  43  67 100 135 173 217 275 339 401
#     4  11  23  42  68 100 133 174 224 277 330 398
#     4  11  22  40  63  91 128 171 215 275 331 384
#     4  10  23  44  68  99 138 183 228 276 332 395
#
# _framework density 26.107783999999999
#
# number of rings (size 3 to 8) (size 9 to 14) (size 15 to 20)
#    0.000    1.143    0.000    6.000    0.000    8.000 
#    0.000   11.429    0.000    0.000    0.000    0.000 
#    0.000    0.000    0.000    0.000    0.000    0.000 
#
# Total GULP energy -78196.315252 kJ/mol
# GULP energy per Si atom -5585.451089 kJ/mol
# Density = 2.604836 g / cm^3
# Si number density = 26.107784 Si / 1000 Ang^3
#
#
#
# Elastic Constant Matrix: (Units=GPa)
#
#
# Indices 1 2 3 4 5 6 
#
# 1 108.3225 28.5896 41.5136 0.7978 -15.3111 -23.3725
# 2 28.5896 79.0546 42.6409 -6.2730 11.3349 -10.0503
# 3 41.5136 42.6409 192.3947 -11.6265 -3.0337 6.6355
# 4 0.7978 -6.2730 -11.6265 49.7130 -1.7639 -4.9655
# 5 -15.3111 11.3349 -3.0337 -1.7639 51.2876 -4.2641
# 6 -23.3725 -10.0503 6.6355 -4.9655 -4.2641 42.7131
#
#
#
# Elastic Compliance Matrix: (Units=1/GPa)
#
#
# Indices 1 2 3 4 5 6 
#
# 1 0.013339 -0.003411 -0.002309 -0.000267 0.005201 0.007343
# 2 -0.003411 0.016559 -0.002992 0.001501 -0.004620 0.002208
# 3 -0.002309 -0.002992 0.006515 0.000903 0.000151 -0.002860
# 4 -0.000267 0.001501 0.000903 0.020794 0.000568 0.002541
# 5 0.005201 -0.004620 0.000151 0.000568 0.022436 0.004041
# 6 0.007343 0.002208 -0.002860 0.002541 0.004041 0.029093
#
#
# Mechanical properties :
#
#
# Convention : Reuss Voigt Hill
#
# Bulk Modulus (GPa) = 52.66913 67.25111 59.96012
# Shear Modulus (GPa) = 37.73844 46.54459 42.14151
#
# Velocity S-wave (km/s) = 3.80608 4.22689 4.02199
# Velocity P-wave (km/s) = 6.28749 7.04536 6.67718
#
# Compressibility (1/GPa) = 0.01898645
#
# Stress axis : x y z
#
# Youngs Moduli (GPa) = 74.97035 60.38852 153.49903
#
# Poissons Ratio (x) = 0.20601 0.35449
# Poissons Ratio (y) = 0.25576 0.45931
# Poissons Ratio (z) = 0.17314 0.18070
#
# Static dielectric constant tensor:
#      x y z
#    x 2.175120 0.297940 -0.087520 
#    y 0.297940 1.963840 0.112260 
#    z -0.087520 0.112260 1.875090 
# 
# From -- ./inp_files/137376.got.cif
#   From: 2010.05.17/outbox.cif.g08.bks.cpg/sg2_69_cif.got.tgz:137376.got - 2010.06.03 11:33:40.
