data_PCOD9042231
_publ_section_title
;
Structure prediction by ZEFSAII (Michael W. Deem and Ramdas Pophale) SiO2 
 PCOD9042231
Probable space group: P -1
;
_chemical_formula_sum "Si O2"
_cell_formula_units_Z 16
_cell_length_a 5.290492
_cell_length_b 21.299771
_cell_length_c 5.694663
_cell_angle_alpha 67.883390
_cell_angle_beta 89.202689
_cell_angle_gamma 81.507583
_cell_volume 587.365815
_symmetry_space_group_name_H-M "P -1"
_symmetry_group_IT_number 2
_symmetry_cell_setting 'triclinic'
loop_
_space_group_symop_operation_xyz
x,y,z
-x,-y,-z
loop_
_atom_site_type_symbol
_atom_site_label
_atom_site_fract_x
_atom_site_fract_y
_atom_site_fract_z
Si Si1 0.636566 0.604159 0.720314
Si Si2 0.363435 0.895841 0.279686
Si Si3 0.103432 0.651730 0.894939
Si Si4 0.236977 0.024765 0.337678
Si Si5 0.638015 0.727196 0.276966
Si Si6 0.361985 0.772804 0.723034
Si Si7 0.103432 0.151730 0.894939
Si Si8 0.763023 0.475235 0.662322
O O1 0.337626 0.621485 0.761215
O O2 0.681696 0.645569 0.422879
O O3 0.727108 0.523236 0.825923
O O4 0.829303 0.634545 0.851214
O O5 0.318304 0.854431 0.577121
O O6 0.662374 0.878515 0.238786
O O7 0.170697 0.865455 0.148786
O O8 0.272892 0.976764 0.174077
O O9 0.119657 0.732115 0.787787
O O10 0.188877 0.605691 0.184946
O O11 0.500000 0.000000 0.500000
O O12 0.188877 0.105691 0.184946
O O13 0.000000 0.000000 0.500000
O O14 0.500000 0.750000 0.500000
O O15 0.880343 0.767885 0.212213
O O16 0.500000 0.750000 0.000000
O O17 0.500000 0.500000 0.500000
O O18 0.000000 0.500000 0.500000
#
# Coordination Sequence:
#
# PCOD9042231 Si02
#       8
#     2   2   2   2   2   2   2   2
#     4  11  23  43  66  96 134 181 227 281 341 408
#     4  11  23  43  66  96 134 181 227 281 341 408
#     4  11  23  43  66  96 134 181 227 281 341 408
#     4  12  24  40  64  98 134 180 229 284 341 406
#     4  10  23  44  70 102 138 180 228 282 342 408
#     4  10  23  44  70 102 138 180 228 282 342 408
#     4  11  23  43  66  96 134 181 227 281 341 408
#     4  12  24  40  64  98 134 180 229 284 341 406
#
# _framework density 27.240264
#
# number of rings (size 3 to 8) (size 9 to 14) (size 15 to 20)
#    0.000    1.000    0.000    6.750    0.000    4.000 
#    0.000   11.250    0.000    0.000    0.000    0.000 
#    0.000    0.000    0.000    0.000    0.000    0.000 
#
# Total GULP energy -89511.918522 kJ/mol
# GULP energy per Si atom -5594.494908 kJ/mol
# Density = 2.717826 g / cm^3
# Si number density = 27.240264 Si / 1000 Ang^3
#
#
#
# Elastic Constant Matrix: (Units=GPa)
#
#
# Indices 1 2 3 4 5 6 
#
# 1 99.3842 41.0556 51.0450 6.3511 4.7921 -3.3381
# 2 41.0556 71.4744 14.1903 -9.5228 -26.5256 7.9635
# 3 51.0450 14.1903 157.9414 -22.6504 5.4969 10.3115
# 4 6.3511 -9.5228 -22.6504 54.8923 9.1783 -6.5007
# 5 4.7921 -26.5256 5.4969 9.1783 59.2449 9.8054
# 6 -3.3381 7.9635 10.3115 -6.5007 9.8054 53.1276
#
#
#
# Elastic Compliance Matrix: (Units=1/GPa)
#
#
# Indices 1 2 3 4 5 6 
#
# 1 0.019997 -0.014404 -0.006029 -0.005408 -0.007550 0.005317
# 2 -0.014404 0.028472 0.002745 0.004431 0.014262 -0.007796
# 3 -0.006029 0.002745 0.008788 0.004465 0.000549 -0.002051
# 4 -0.005408 0.004431 0.004465 0.021844 -0.001557 0.001090
# 5 -0.007550 0.014262 0.000549 -0.001557 0.025320 -0.007582
# 6 0.005317 -0.007796 -0.002051 0.001090 -0.007582 0.022256
#
#
# Mechanical properties :
#
#
# Convention : Reuss Voigt Hill
#
# Bulk Modulus (GPa) = 45.70019 60.15354 52.92686
# Shear Modulus (GPa) = 29.52518 48.28688 38.90603
#
# Velocity S-wave (km/s) = 3.29581 4.21483 3.78333
# Velocity P-wave (km/s) = 5.59430 6.76882 6.20939
#
# Compressibility (1/GPa) = 0.02188175
#
# Stress axis : x y z
#
# Youngs Moduli (GPa) = 50.00742 35.12256 113.78643
#
# Poissons Ratio (x) = 0.50592 0.68598
# Poissons Ratio (y) = 0.72033 -0.31238
# Poissons Ratio (z) = 0.30148 -0.09642
#
# Static dielectric constant tensor:
#      x y z
#    x 2.067470 -0.060420 0.000570 
#    y -0.060420 2.330980 0.055830 
#    z 0.000570 0.055830 2.167780 
# 
# From -- ./inp_files/12814.got.cif
#   From: 2010.05.17/outbox.cif.g08.bks.cpg/sg2_7_cif.got.tgz:12814.got - 2010.06.03 11:33:40.
