data_PCOD9042477
_publ_section_title
;
Structure prediction by ZEFSAII (Michael W. Deem and Ramdas Pophale) SiO2 
 PCOD9042477
Probable space group: P -1
;
_chemical_formula_sum "Si O2"
_cell_formula_units_Z 16
_cell_length_a 7.729232
_cell_length_b 11.519800
_cell_length_c 19.543622
_cell_angle_alpha 146.990489
_cell_angle_beta 135.406417
_cell_angle_gamma 55.290156
_cell_volume 663.809720
_symmetry_space_group_name_H-M "P -1"
_symmetry_group_IT_number 2
_symmetry_cell_setting 'triclinic'
loop_
_space_group_symop_operation_xyz
x,y,z
-x,-y,-z
loop_
_atom_site_type_symbol
_atom_site_label
_atom_site_fract_x
_atom_site_fract_y
_atom_site_fract_z
Si Si1 0.737221 0.094966 0.460210
Si Si2 0.418697 0.821418 0.333580
Si Si3 0.470637 0.347909 0.151108
Si Si4 0.483941 0.865412 0.728596
Si Si5 0.891738 0.274512 0.326427
Si Si6 0.805796 0.570577 0.749726
Si Si7 0.706789 0.337855 0.995816
Si Si8 0.005981 0.831804 0.134952
O O1 0.674797 0.154756 0.395119
O O2 0.719549 0.320941 0.604370
O O3 0.543437 0.914026 0.345379
O O4 0.000000 0.000000 0.500000
O O5 0.509139 0.594575 0.264743
O O6 0.125901 0.783632 0.217969
O O7 0.500000 0.000000 0.500000
O O8 0.737319 0.282585 0.216613
O O9 0.315070 0.325555 0.166822
O O10 0.286668 0.227604 0.985726
O O11 0.291034 0.817473 0.711267
O O12 0.695691 0.698227 0.718276
O O13 0.599533 0.106931 0.877505
O O14 0.000000 0.500000 0.500000
O O15 0.069913 0.086595 0.270822
O O16 0.098022 0.582398 0.851064
O O17 0.861021 0.298808 0.950519
O O18 0.500000 0.500000 0.000000
#
# Coordination Sequence:
#
# PCOD9042477 Si02
#       8
#     2   2   2   2   2   2   2   2
#     4  12  26  43  66 106 141 192 241 300 365 424
#     4  12  24  43  71 100 144 188 246 295 358 427
#     4  10  23  45  69 103 137 188 242 297 355 427
#     4  11  25  46  70 101 143 185 242 296 362 432
#     4  11  26  46  74 106 144 189 240 299 359 434
#     4  10  23  44  71  99 142 189 237 298 360 427
#     4  11  24  47  73 106 146 186 240 297 364 434
#     4  11  25  45  72 102 142 188 241 296 361 431
#
# _framework density 24.103293000000001
#
# number of rings (size 3 to 8) (size 9 to 14) (size 15 to 20)
#    0.000    1.000    2.500    3.000    5.250    4.000 
#    0.000    0.000    0.000    0.000    0.000    0.000 
#    0.000    0.000    0.000    0.000    0.000    0.000 
#
# Total GULP energy -89481.217499 kJ/mol
# GULP energy per Si atom -5592.576094 kJ/mol
# Density = 2.404843 g / cm^3
# Si number density = 24.103293 Si / 1000 Ang^3
#
#
#
# Elastic Constant Matrix: (Units=GPa)
#
#
# Indices 1 2 3 4 5 6 
#
# 1 31.6582 39.0086 26.9032 -7.2495 2.5602 -8.0100
# 2 39.0086 182.7479 21.7879 -11.3481 5.8442 -11.1192
# 3 26.9032 21.7879 89.5155 -4.6912 10.0322 6.5927
# 4 -7.2495 -11.3481 -4.6912 54.2643 6.0123 1.7271
# 5 2.5602 5.8442 10.0322 6.0123 30.4032 3.5339
# 6 -8.0100 -11.1192 6.5927 1.7271 3.5339 33.1315
#
#
#
# Elastic Compliance Matrix: (Units=1/GPa)
#
#
# Indices 1 2 3 4 5 6 
#
# 1 0.064375 -0.010414 -0.017686 0.004431 -0.000248 0.015383
# 2 -0.010414 0.007576 0.001448 0.000448 -0.001126 -0.000166
# 3 -0.017686 0.001448 0.017043 0.000032 -0.003629 -0.006796
# 4 0.004431 0.000448 0.000032 0.019585 -0.004420 0.000666
# 5 -0.000248 -0.001126 -0.003629 -0.004420 0.035582 -0.003281
# 6 0.015383 -0.000166 -0.006796 0.000666 -0.003281 0.035514
#
#
# Mechanical properties :
#
#
# Convention : Reuss Voigt Hill
#
# Bulk Modulus (GPa) = 28.01830 53.25789 40.63810
# Shear Modulus (GPa) = 20.41859 37.97461 29.19660
#
# Velocity S-wave (km/s) = 2.91371 3.97356 3.48417
# Velocity P-wave (km/s) = 4.79261 6.57236 5.75174
#
# Compressibility (1/GPa) = 0.03569096
#
# Stress axis : x y z
#
# Youngs Moduli (GPa) = 15.53396 131.99592 58.67482
#
# Poissons Ratio (x) = 1.37455 1.03771
# Poissons Ratio (y) = 0.16176 -0.08495
# Poissons Ratio (z) = 0.27473 -0.19110
#
# Static dielectric constant tensor:
#      x y z
#    x 2.032980 -0.083220 -0.015530 
#    y -0.083220 1.976850 -0.076550 
#    z -0.015530 -0.076550 1.981430 
# 
# From -- ./inp_files/187514.got.cif
#   From: 2010.05.17/outbox.cif.g08.bks.cpg/sg2_94_cif.got.tgz:187514.got - 2010.06.03 11:33:40.
