data_PCOD9042980
_publ_section_title
;
Structure prediction by ZEFSAII (Michael W. Deem and Ramdas Pophale) SiO2 
 PCOD9042980
Probable space group: P -1
;
_chemical_formula_sum "Si O2"
_cell_formula_units_Z 16
_cell_length_a 13.210810
_cell_length_b 8.162219
_cell_length_c 11.760909
_cell_angle_alpha 128.651900
_cell_angle_beta 139.592951
_cell_angle_gamma 55.810466
_cell_volume 632.576563
_symmetry_space_group_name_H-M "P -1"
_symmetry_group_IT_number 2
_symmetry_cell_setting 'triclinic'
loop_
_space_group_symop_operation_xyz
x,y,z
-x,-y,-z
loop_
_atom_site_type_symbol
_atom_site_label
_atom_site_fract_x
_atom_site_fract_y
_atom_site_fract_z
Si Si1 0.116737 0.280599 0.273970
Si Si2 0.560318 0.235786 0.437578
Si Si3 0.911037 0.363597 0.778704
Si Si4 0.442785 0.511444 0.252341
Si Si5 0.273826 0.239099 0.626506
Si Si6 0.219675 0.833571 0.046509
Si Si7 0.971327 0.093127 0.391007
Si Si8 0.641711 0.332749 0.128869
O O1 0.090729 0.501084 0.279648
O O2 0.233237 0.280983 0.478636
O O3 0.181740 0.074399 0.163360
O O4 0.947656 0.236091 0.157113
O O5 0.729085 0.326834 0.622967
O O6 0.453054 0.326961 0.277979
O O7 0.485278 0.318515 0.530692
O O8 0.617321 0.987503 0.367469
O O9 0.006272 0.123123 0.757877
O O10 0.000000 0.500000 0.000000
O O11 0.293918 0.668848 0.137880
O O12 0.522837 0.385183 0.156228
O O13 0.348666 0.436282 0.816886
O O14 0.109867 0.225037 0.541055
O O15 0.335564 0.812429 0.028230
O O16 0.803475 0.233974 0.289632
O O17 0.000000 0.000000 0.500000
#
# Coordination Sequence:
#
# PCOD9042980 Si02
#       8
#     2   2   2   2   2   2   2   2
#     4  11  22  42  73  96 128 167 227 275 331 383
#     4  10  23  45  67  93 134 174 227 268 318 402
#     4  11  23  40  69 102 125 166 220 277 331 381
#     4  11  23  45  66  89 137 184 214 266 331 395
#     4  11  22  42  67  99 125 172 226 273 325 381
#     4  11  24  42  68  99 132 169 218 283 325 386
#     4  11  23  40  63  97 139 168 207 275 336 390
#     4  12  24  40  67 100 135 173 218 270 334 392
#
# _framework density 25.293382000000001
#
# number of rings (size 3 to 8) (size 9 to 14) (size 15 to 20)
#    0.000    1.000    2.500    5.250    5.250    0.500 
#    4.500    0.625    0.000    0.000    0.000    0.000 
#    0.000    0.000    0.000    0.000    0.000    0.000 
#
# Total GULP energy -89488.935822 kJ/mol
# GULP energy per Si atom -5593.058489 kJ/mol
# Density = 2.523581 g / cm^3
# Si number density = 25.293382 Si / 1000 Ang^3
#
#
#
# Elastic Constant Matrix: (Units=GPa)
#
#
# Indices 1 2 3 4 5 6 
#
# 1 94.6204 7.6724 31.3569 0.9826 -8.9365 1.8031
# 2 7.6724 128.5366 5.9665 -21.7850 4.8377 -9.7669
# 3 31.3569 5.9665 87.4797 0.6228 -3.3974 9.7029
# 4 0.9826 -21.7850 0.6228 39.0179 15.7375 -7.7737
# 5 -8.9365 4.8377 -3.3974 15.7375 37.9689 0.9384
# 6 1.8031 -9.7669 9.7029 -7.7737 0.9384 45.4873
#
#
#
# Elastic Compliance Matrix: (Units=1/GPa)
#
#
# Indices 1 2 3 4 5 6 
#
# 1 0.012427 -0.001127 -0.004179 -0.002441 0.003715 -0.000337
# 2 -0.001127 0.009801 -0.000956 0.008375 -0.005167 0.003891
# 3 -0.004179 -0.000956 0.013408 -0.001745 0.001141 -0.003222
# 4 -0.002441 0.008375 -0.001745 0.039738 -0.018502 0.009440
# 5 0.003715 -0.005167 0.001141 -0.018502 0.035774 -0.005400
# 6 -0.000337 0.003891 -0.003222 0.009440 -0.005400 0.025245
#
#
# Mechanical properties :
#
#
# Convention : Reuss Voigt Hill
#
# Bulk Modulus (GPa) = 43.26604 44.51425 43.89015
# Shear Modulus (GPa) = 31.92389 42.20421 37.06405
#
# Velocity S-wave (km/s) = 3.55652 4.08927 3.83216
# Velocity P-wave (km/s) = 5.83163 6.31930 6.08035
#
# Compressibility (1/GPa) = 0.02311281
#
# Stress axis : x y z
#
# Youngs Moduli (GPa) = 80.46782 102.02855 74.58041
#
# Poissons Ratio (x) = 0.11498 0.31165
# Poissons Ratio (y) = 0.09068 0.07133
# Poissons Ratio (z) = 0.33625 0.09758
#
# Static dielectric constant tensor:
#      x y z
#    x 2.082250 -0.055620 0.016310 
#    y -0.055620 1.962700 -0.004920 
#    z 0.016310 -0.004920 2.020230 
# 
# From -- ./inp_files/448253.got.cif
#   From: 2010.05.17/outbox.cif.g08.bks.cpg/sg2_225_cif.got.tgz:448253.got - 2010.06.03 11:33:40.
