data_PCOD9042389
_publ_section_title
;
Structure prediction by ZEFSAII (Michael W. Deem and Ramdas Pophale) SiO2 
 PCOD9042389
Probable space group: P -1
;
_chemical_formula_sum "Si O2"
_cell_formula_units_Z 16
_cell_length_a 8.028602
_cell_length_b 16.754073
_cell_length_c 16.409711
_cell_angle_alpha 145.308449
_cell_angle_beta 34.368292
_cell_angle_gamma 137.534495
_cell_volume 697.137922
_symmetry_space_group_name_H-M "P -1"
_symmetry_group_IT_number 2
_symmetry_cell_setting 'triclinic'
loop_
_space_group_symop_operation_xyz
x,y,z
-x,-y,-z
loop_
_atom_site_type_symbol
_atom_site_label
_atom_site_fract_x
_atom_site_fract_y
_atom_site_fract_z
Si Si1 0.936561 0.832829 0.365391
Si Si2 0.520619 0.817046 0.020925
Si Si3 0.679171 0.878483 0.342396
Si Si4 0.450259 0.422074 0.870371
Si Si5 0.183352 0.624631 0.857656
Si Si6 0.051719 0.343243 0.195126
Si Si7 0.611269 0.666606 0.508728
Si Si8 0.650727 0.957650 0.821799
O O1 0.702880 0.823022 0.377848
O O2 0.788721 0.743359 0.424926
O O3 0.000000 0.000000 0.500000
O O4 0.240599 0.788784 0.173110
O O5 0.436045 0.721396 0.892428
O O6 0.801562 0.776158 0.919360
O O7 0.533756 0.980576 0.124245
O O8 0.500691 0.734643 0.256285
O O9 0.500000 0.000000 0.500000
O O10 0.019251 0.943712 0.234902
O O11 0.687055 0.514523 0.792285
O O12 0.500000 0.500000 0.000000
O O13 0.092200 0.412368 0.997094
O O14 0.283060 0.485918 0.660196
O O15 0.050943 0.693191 0.888506
O O16 0.748392 0.364099 0.379553
O O17 0.671617 0.791921 0.659233
O O18 0.500000 0.000000 0.000000
#
# Coordination Sequence:
#
# PCOD9042389 Si02
#       8
#     2   2   2   2   2   2   2   2
#     4  11  23  47  69 100 142 186 239 290 359 423
#     4  11  24  49  74 102 145 193 239 298 357 434
#     4  11  25  45  74 108 138 187 247 295 351 431
#     4  10  23  44  71 102 141 187 242 289 358 429
#     4  11  24  48  74 102 143 192 240 292 363 431
#     4  11  27  43  71 111 143 184 243 293 368 422
#     4  12  26  45  72 104 144 187 236 303 360 429
#     4  11  25  48  73 102 145 190 237 297 373 418
#
# _framework density 22.950980999999999
#
# number of rings (size 3 to 8) (size 9 to 14) (size 15 to 20)
#    0.000    1.000    5.000    1.875    7.000    5.000 
#    0.000    0.000    0.000    0.000    0.000    0.000 
#    0.000    0.000    0.000    0.000    0.000    0.000 
#
# Total GULP energy -89302.457829 kJ/mol
# GULP energy per Si atom -5581.403614 kJ/mol
# Density = 2.289874 g / cm^3
# Si number density = 22.950981 Si / 1000 Ang^3
#
#
#
# Elastic Constant Matrix: (Units=GPa)
#
#
# Indices 1 2 3 4 5 6 
#
# 1 89.0480 14.7897 44.6411 1.2109 -8.7711 -6.4402
# 2 14.7897 68.5833 30.8544 3.3438 0.7334 6.7876
# 3 44.6411 30.8544 126.7192 17.8553 -1.2997 -8.3163
# 4 1.2109 3.3438 17.8553 54.3997 1.5922 10.5357
# 5 -8.7711 0.7334 -1.2997 1.5922 38.6562 4.8457
# 6 -6.4402 6.7876 -8.3163 10.5357 4.8457 24.6624
#
#
#
# Elastic Compliance Matrix: (Units=1/GPa)
#
#
# Indices 1 2 3 4 5 6 
#
# 1 0.014159 -0.001154 -0.004713 0.000936 0.002854 0.001465
# 2 -0.001154 0.017567 -0.004636 0.001925 0.000115 -0.007545
# 3 -0.004713 -0.004636 0.011728 -0.004627 -0.001175 0.006208
# 4 0.000936 0.001925 -0.004627 0.021940 0.000536 -0.011324
# 5 0.002854 0.000115 -0.001175 0.000536 0.027109 -0.005238
# 6 0.001465 -0.007545 0.006208 -0.011324 -0.005238 0.050967
#
#
# Mechanical properties :
#
#
# Convention : Reuss Voigt Hill
#
# Bulk Modulus (GPa) = 44.54918 51.65786 48.10352
# Shear Modulus (GPa) = 29.07684 36.48133 32.77909
#
# Velocity S-wave (km/s) = 3.56323 3.99122 3.78328
# Velocity P-wave (km/s) = 6.03171 6.61790 6.33159
#
# Compressibility (1/GPa) = 0.02244710
#
# Stress axis : x y z
#
# Youngs Moduli (GPa) = 70.62771 56.92532 85.26570
#
# Poissons Ratio (x) = 0.06569 0.40188
# Poissons Ratio (y) = 0.08150 0.39529
# Poissons Ratio (z) = 0.33289 0.26391
#
# Static dielectric constant tensor:
#      x y z
#    x 1.829130 0.023830 -0.004460 
#    y 0.023830 1.983690 0.013780 
#    z -0.004460 0.013780 1.894970 
# 
# From -- ./inp_files/562080.got.cif
#   From: 2010.05.17/outbox.cif.g08.bks.cpg/sg2_282_cif.got.tgz:562080.got - 2010.06.03 11:33:40.
