data_PCOD9042836
_publ_section_title
;
Structure prediction by ZEFSAII (Michael W. Deem and Ramdas Pophale) SiO2 
 PCOD9042836
Probable space group: P -1
;
_chemical_formula_sum "Si O2"
_cell_formula_units_Z 16
_cell_length_a 6.894870
_cell_length_b 20.878816
_cell_length_c 12.774166
_cell_angle_alpha 146.889991
_cell_angle_beta 125.676059
_cell_angle_gamma 60.052135
_cell_volume 815.753871
_symmetry_space_group_name_H-M "P -1"
_symmetry_group_IT_number 2
_symmetry_cell_setting 'triclinic'
loop_
_space_group_symop_operation_xyz
x,y,z
-x,-y,-z
loop_
_atom_site_type_symbol
_atom_site_label
_atom_site_fract_x
_atom_site_fract_y
_atom_site_fract_z
Si Si1 0.778143 0.524247 0.320228
Si Si2 0.993035 0.787782 0.367622
Si Si3 0.500966 0.114066 0.584067
Si Si4 0.392232 0.958857 0.714482
Si Si5 0.916267 0.294119 0.947914
Si Si6 0.540571 0.264329 0.449174
Si Si7 0.593324 0.766114 0.872507
Si Si8 0.318271 0.576755 0.621093
O O1 0.611433 0.637547 0.402308
O O2 0.682750 0.466885 0.319710
O O3 0.048109 0.565102 0.480669
O O4 0.793380 0.421127 0.099302
O O5 0.732116 0.807185 0.356073
O O6 0.118177 0.914701 0.565494
O O7 0.998793 0.726845 0.173008
O O8 0.180655 0.723647 0.417267
O O9 0.501275 0.069981 0.404651
O O10 0.731621 0.193202 0.778357
O O11 0.500000 0.000000 0.500000
O O12 0.513458 0.867272 0.708621
O O13 0.410309 0.093906 0.930961
O O14 0.143779 0.281942 0.079321
O O15 0.479827 0.272504 0.319569
O O16 0.410419 0.708032 0.816153
O O17 0.500000 0.500000 0.500000
#
# Coordination Sequence:
#
# PCOD9042836 Si02
#       8
#     2   2   2   2   2   2   2   2
#     4  11  23  42  64  97 134 170 217 271 323 386
#     4   9  23  45  61  93 135 169 215 265 326 382
#     4  11  22  42  67  96 130 173 221 269 319 383
#     4   9  23  42  64  97 132 169 212 265 325 390
#     4  11  24  39  69  99 125 169 226 269 315 381
#     4  10  23  45  64  92 143 174 204 272 327 388
#     4  12  21  42  72  97 127 174 216 272 328 380
#     4  11  22  41  63  99 133 164 222 275 322 371
#
# _framework density 19.613759000000002
#
# number of rings (size 3 to 8) (size 9 to 14) (size 15 to 20)
#    0.750    0.750    2.500    2.625    3.500    3.500 
#    2.250    1.875    0.000    0.000    0.000    0.000 
#    0.000    0.000    0.000    0.000    0.000    0.000 
#
# Total GULP energy -89311.320734 kJ/mol
# GULP energy per Si atom -5581.957546 kJ/mol
# Density = 1.956912 g / cm^3
# Si number density = 19.613759 Si / 1000 Ang^3
#
#
#
# Elastic Constant Matrix: (Units=GPa)
#
#
# Indices 1 2 3 4 5 6 
#
# 1 89.3079 33.9649 22.7693 -13.4305 -0.6601 -4.5056
# 2 33.9649 66.8783 31.1128 -0.7944 4.1584 -19.5141
# 3 22.7693 31.1128 45.0830 1.7195 1.2740 -7.5939
# 4 -13.4305 -0.7944 1.7195 43.7106 -1.0806 0.0665
# 5 -0.6601 4.1584 1.2740 -1.0806 13.8920 4.0283
# 6 -4.5056 -19.5141 -7.5939 0.0665 4.0283 26.5850
#
#
#
# Elastic Compliance Matrix: (Units=1/GPa)
#
#
# Indices 1 2 3 4 5 6 
#
# 1 0.015708 -0.008094 -0.003550 0.004959 0.005365 -0.005118
# 2 -0.008094 0.032847 -0.014575 -0.001721 -0.015064 0.020862
# 3 -0.003550 -0.014575 0.033780 -0.002646 0.001430 -0.001861
# 4 0.004959 -0.001721 -0.002646 0.024561 0.003414 -0.001757
# 5 0.005365 -0.015064 0.001430 0.003414 0.083372 -0.022381
# 6 -0.005118 0.020862 -0.001861 -0.001757 -0.022381 0.054925
#
#
# Mechanical properties :
#
#
# Convention : Reuss Voigt Hill
#
# Bulk Modulus (GPa) = 33.44924 41.88478 37.66701
# Shear Modulus (GPa) = 16.25493 24.39902 20.32697
#
# Velocity S-wave (km/s) = 2.88193 3.53083 3.22275
# Velocity P-wave (km/s) = 5.30707 6.16632 5.75276
#
# Compressibility (1/GPa) = 0.02989604
#
# Stress axis : x y z
#
# Youngs Moduli (GPa) = 63.66250 30.44385 29.60306
#
# Poissons Ratio (x) = 0.24641 0.10510
# Poissons Ratio (y) = 0.51527 0.43148
# Poissons Ratio (z) = 0.22603 0.44373
#
# Static dielectric constant tensor:
#      x y z
#    x 1.667370 0.007310 0.001260 
#    y 0.007310 1.708840 0.007420 
#    z 0.001260 0.007420 1.688050 
# 
# From -- ./inp_files/370470.got.cif
#   From: 2010.05.17/outbox.cif.g08.bks.cpg/sg2_186_cif.got.tgz:370470.got - 2010.06.03 11:33:40.
