data_PCOD9042430
_publ_section_title
;
Structure prediction by ZEFSAII (Michael W. Deem and Ramdas Pophale) SiO2 
 PCOD9042430
Probable space group: P -1
;
_chemical_formula_sum "Si O2"
_cell_formula_units_Z 16
_cell_length_a 8.634071
_cell_length_b 8.426659
_cell_length_c 15.128141
_cell_angle_alpha 116.618929
_cell_angle_beta 127.881950
_cell_angle_gamma 97.085060
_cell_volume 640.967558
_symmetry_space_group_name_H-M "P -1"
_symmetry_group_IT_number 2
_symmetry_cell_setting 'triclinic'
loop_
_space_group_symop_operation_xyz
x,y,z
-x,-y,-z
loop_
_atom_site_type_symbol
_atom_site_label
_atom_site_fract_x
_atom_site_fract_y
_atom_site_fract_z
Si Si1 0.819295 0.047567 0.219131
Si Si2 0.876792 0.481873 0.045857
Si Si3 0.634936 0.096247 0.662087
Si Si4 0.060213 0.232369 0.091422
Si Si5 0.908878 0.494719 0.365369
Si Si6 0.783700 0.022173 0.407385
Si Si7 0.289609 0.254988 0.355733
Si Si8 0.414793 0.377768 0.090361
O O1 0.831510 0.259678 0.247614
O O2 0.740297 0.997269 0.280553
O O3 0.101586 0.145689 0.342012
O O4 0.685394 0.848047 0.053655
O O5 0.855446 0.275312 0.026685
O O6 0.651065 0.493554 0.966533
O O7 0.101960 0.701719 0.220357
O O8 0.000000 0.500000 0.000000
O O9 0.464360 0.137938 0.669470
O O10 0.650348 0.921253 0.680162
O O11 0.500000 0.000000 0.500000
O O12 0.162385 0.282063 0.236294
O O13 0.253195 0.348457 0.110638
O O14 0.000000 0.000000 0.000000
O O15 0.673980 0.483343 0.249194
O O16 0.000000 0.500000 0.500000
O O17 0.121926 0.733022 0.468973
O O18 0.000000 0.000000 0.500000
O O19 0.500000 0.500000 0.500000
#
# Coordination Sequence:
#
# PCOD9042430 Si02
#       8
#     2   2   2   2   2   2   2   2
#     4  11  23  48  67 106 148 187 248 300 368 437
#     4  10  23  44  71 106 145 187 245 307 365 428
#     4  12  25  47  74 104 144 191 247 308 365 441
#     4  11  23  43  71 109 142 184 246 302 368 423
#     4  10  25  46  72 102 147 193 239 295 372 441
#     4  11  27  45  71 104 147 198 243 297 376 439
#     4  12  24  40  73 110 141 191 252 304 362 434
#     4  11  23  46  73 104 149 195 239 311 364 438
#
# _framework density 24.962263
#
# number of rings (size 3 to 8) (size 9 to 14) (size 15 to 20)
#    0.000    1.000    2.500    3.375   10.500    0.000 
#    0.000    1.875    0.000    0.000    0.000    0.000 
#    0.000    0.000    0.000    0.000    0.000    0.000 
#
# Total GULP energy -89283.582453 kJ/mol
# GULP energy per Si atom -5580.223903 kJ/mol
# Density = 2.490545 g / cm^3
# Si number density = 24.962263 Si / 1000 Ang^3
#
#
#
# Elastic Constant Matrix: (Units=GPa)
#
#
# Indices 1 2 3 4 5 6 
#
# 1 111.3377 36.4194 39.5804 -11.6684 9.3238 -11.1931
# 2 36.4194 122.5919 53.6684 8.1544 2.8020 -41.4608
# 3 39.5804 53.6684 123.4964 -3.2120 8.9547 -7.5246
# 4 -11.6684 8.1544 -3.2120 49.0346 1.4292 2.2390
# 5 9.3238 2.8020 8.9547 1.4292 39.6523 -12.2038
# 6 -11.1931 -41.4608 -7.5246 2.2390 -12.2038 52.6310
#
#
#
# Elastic Compliance Matrix: (Units=1/GPa)
#
#
# Indices 1 2 3 4 5 6 
#
# 1 0.011085 -0.002770 -0.002152 0.003060 -0.002278 -0.000791
# 2 -0.002770 0.015842 -0.005704 -0.004372 0.004785 0.012371
# 3 -0.002152 -0.005704 0.011268 0.001447 -0.002945 -0.004084
# 4 0.003060 -0.004372 0.001447 0.022217 -0.002827 -0.004187
# 5 -0.002278 0.004785 -0.002945 -0.002827 0.029185 0.009751
# 6 -0.000791 0.012371 -0.004084 -0.004187 0.009751 0.030433
#
#
# Mechanical properties :
#
#
# Convention : Reuss Voigt Hill
#
# Bulk Modulus (GPa) = 59.01950 68.52917 63.77433
# Shear Modulus (GPa) = 34.02981 43.44744 38.73863
#
# Velocity S-wave (km/s) = 3.69623 4.17649 3.94367
# Velocity P-wave (km/s) = 6.47387 7.12531 6.80739
#
# Compressibility (1/GPa) = 0.01694355
#
# Stress axis : x y z
#
# Youngs Moduli (GPa) = 90.21348 63.12218 88.74431
#
# Poissons Ratio (x) = 0.17482 0.19102
# Poissons Ratio (y) = 0.24985 0.50619
# Poissons Ratio (z) = 0.19418 0.36004
#
# Static dielectric constant tensor:
#      x y z
#    x 2.068310 0.083340 0.062860 
#    y 0.083340 2.193060 0.049280 
#    z 0.062860 0.049280 2.024170 
# 
# From -- ./inp_files/495657.got.cif
#   From: 2010.05.17/outbox.cif.g08.bks.cpg/sg2_248_cif.got.tgz:495657.got - 2010.06.03 11:33:40.
