data_PCOD9042222
_publ_section_title
;
Structure prediction by ZEFSAII (Michael W. Deem and Ramdas Pophale) SiO2 
 PCOD9042222
Probable space group: P -1
;
_chemical_formula_sum "Si O2"
_cell_formula_units_Z 15
_cell_length_a 8.450698
_cell_length_b 8.975254
_cell_length_c 14.595531
_cell_angle_alpha 40.102274
_cell_angle_beta 95.959774
_cell_angle_gamma 107.870786
_cell_volume 663.041990
_symmetry_space_group_name_H-M "P -1"
_symmetry_group_IT_number 2
_symmetry_cell_setting 'triclinic'
loop_
_space_group_symop_operation_xyz
x,y,z
-x,-y,-z
loop_
_atom_site_type_symbol
_atom_site_label
_atom_site_fract_x
_atom_site_fract_y
_atom_site_fract_z
Si Si1 0.905275 0.319459 0.995146
Si Si2 0.802778 0.476421 0.317077
Si Si3 0.354661 0.616532 0.448824
Si Si4 0.816903 0.752716 0.705382
Si Si5 0.000000 0.000000 0.000000
Si Si6 0.447121 0.547205 0.848686
Si Si7 0.922962 0.757839 0.515083
Si Si8 0.546329 0.144586 0.124677
O O1 0.720820 0.124246 0.107213
O O2 0.848374 0.499851 0.841121
O O3 0.000000 0.500000 0.000000
O O4 0.007110 0.194077 0.996890
O O5 0.700501 0.401509 0.440923
O O6 0.667643 0.417673 0.255265
O O7 0.930028 0.326770 0.394358
O O8 0.914288 0.763913 0.174693
O O9 0.500000 0.500000 0.500000
O O10 0.190550 0.447117 0.462909
O O11 0.425931 0.890224 0.280854
O O12 0.641175 0.719179 0.758954
O O13 0.812037 0.791349 0.577916
O O14 0.975373 0.978401 0.647999
O O15 0.394554 0.642046 0.894792
O O16 0.448909 0.266745 0.990278
#
# Coordination Sequence:
#
# PCOD9042222 Si02
#       8
#     2   2   2   2   1   2   2   2
#     4  11  24  45  74 106 144 193 244 304 364 436
#     4  12  26  44  71 105 144 195 242 308 365 441
#     4  12  27  45  67 103 143 193 241 307 373 437
#     4  10  23  44  70 101 145 192 239 302 365 443
#     4  12  26  44  70 112 144 188 252 296 370 434
#     4  10  23  46  72 106 142 194 245 300 373 436
#     4  11  25  44  67 105 144 189 246 305 370 438
#     4  10  24  44  74 105 144 192 243 307 363 445
#
# _framework density 22.623003000000001
#
# number of rings (size 3 to 8) (size 9 to 14) (size 15 to 20)
#    0.000    1.067    1.333    3.600    5.600    3.200 
#    0.000    3.333    0.000    0.000    0.000    0.000 
#    0.000    0.000    0.000    0.000    0.000    0.000 
#
# Total GULP energy -83623.775943 kJ/mol
# GULP energy per Si atom -5574.918396 kJ/mol
# Density = 2.257151 g / cm^3
# Si number density = 22.623003 Si / 1000 Ang^3
#
#
#
# Elastic Constant Matrix: (Units=GPa)
#
#
# Indices 1 2 3 4 5 6 
#
# 1 63.5423 27.5232 27.2171 19.3833 -6.9278 -15.6148
# 2 27.5232 90.7824 17.5849 7.5031 7.3439 -2.8657
# 3 27.2171 17.5849 106.3566 -5.0169 -26.5425 7.6190
# 4 19.3833 7.5031 -5.0169 39.3565 4.3812 -5.1411
# 5 -6.9278 7.3439 -26.5425 4.3812 35.6356 9.2001
# 6 -15.6148 -2.8657 7.6190 -5.1411 9.2001 29.4576
#
#
#
# Elastic Compliance Matrix: (Units=1/GPa)
#
#
# Indices 1 2 3 4 5 6 
#
# 1 0.029274 -0.005441 -0.008918 -0.012163 -0.002449 0.015937
# 2 -0.005441 0.013597 -0.002394 0.000582 -0.005980 0.001027
# 3 -0.008918 -0.002394 0.016714 0.003703 0.014122 -0.013047
# 4 -0.012163 0.000582 0.003703 0.032063 -0.003498 -0.000660
# 5 -0.002449 -0.005980 0.014122 -0.003498 0.044979 -0.020191
# 6 0.015937 0.001027 -0.013047 -0.000660 -0.020191 0.052060
#
#
# Mechanical properties :
#
#
# Convention : Reuss Voigt Hill
#
# Bulk Modulus (GPa) = 38.34730 45.03687 41.69208
# Shear Modulus (GPa) = 21.65565 33.44701 27.55133
#
# Velocity S-wave (km/s) = 3.09729 3.84923 3.49355
# Velocity P-wave (km/s) = 5.45695 6.30129 5.89426
#
# Compressibility (1/GPa) = 0.02607745
#
# Stress axis : x y z
#
# Youngs Moduli (GPa) = 34.16028 73.54698 59.83000
#
# Poissons Ratio (x) = 0.40018 0.53358
# Poissons Ratio (y) = 0.18587 0.14324
# Poissons Ratio (z) = 0.30465 0.17608
#
# Static dielectric constant tensor:
#      x y z
#    x 1.886010 -0.028060 -0.017070 
#    y -0.028060 1.853940 0.021750 
#    z -0.017070 0.021750 1.835210 
# 
# From -- ./inp_files/494283.got.cif
#   From: 2010.05.17/outbox.cif.g08.bks.cpg/sg2_248_cif.got.tgz:494283.got - 2010.06.03 11:33:40.
