data_PCOD9042446
_publ_section_title
;
Structure prediction by ZEFSAII (Michael W. Deem and Ramdas Pophale) SiO2 
 PCOD9042446
Probable space group: P -1
;
_chemical_formula_sum "Si O2"
_cell_formula_units_Z 14
_cell_length_a 8.528155
_cell_length_b 11.335644
_cell_length_c 11.277123
_cell_angle_alpha 57.544760
_cell_angle_beta 67.959598
_cell_angle_gamma 38.119741
_cell_volume 565.556946
_symmetry_space_group_name_H-M "P -1"
_symmetry_group_IT_number 2
_symmetry_cell_setting 'triclinic'
loop_
_space_group_symop_operation_xyz
x,y,z
-x,-y,-z
loop_
_atom_site_type_symbol
_atom_site_label
_atom_site_fract_x
_atom_site_fract_y
_atom_site_fract_z
Si Si1 0.071972 0.181573 0.435190
Si Si2 0.839633 0.330494 0.063452
Si Si3 0.383221 0.901871 0.151827
Si Si4 0.680044 0.268697 0.923280
Si Si5 0.047059 0.427502 0.784968
Si Si6 0.609960 0.252511 0.531541
Si Si7 0.069189 0.671645 0.351191
O O1 0.020301 0.367792 0.298235
O O2 0.824663 0.235818 0.457261
O O3 0.105926 0.179448 0.568717
O O4 0.300756 0.949868 0.440808
O O5 0.608434 0.494173 0.130018
O O6 0.764507 0.246699 0.045422
O O7 0.121654 0.137420 0.138415
O O8 0.856864 0.454138 0.905371
O O9 0.334193 0.876459 0.047065
O O10 0.665637 0.789261 0.138537
O O11 0.406791 0.760269 0.315590
O O12 0.868862 0.238757 0.802464
O O13 0.027214 0.390238 0.674858
O O14 0.338902 0.461668 0.444700
#
# Coordination Sequence:
#
# PCOD9042446 Si02
#       7
#     2   2   2   2   2   2   2
#     4  11  23  43  65  99 132 166 219 267 323 386
#     4  10  25  45  65  98 126 172 222 261 325 381
#     4  12  23  42  67  96 132 169 220 265 315 391
#     4  10  23  44  71  91 128 173 218 272 312 380
#     4  11  25  44  65  96 138 174 206 270 329 380
#     4  11  25  39  69 101 124 175 219 263 324 383
#     4  11  22  44  66  97 136 168 214 267 327 383
#
# _framework density 24.754359999999998
#
# number of rings (size 3 to 8) (size 9 to 14) (size 15 to 20)
#    0.000    1.143    2.857    2.571    6.000    1.143 
#    2.571    0.000    0.000    0.000    0.000    0.000 
#    0.000    0.000    0.000    0.000    0.000    0.000 
#
# Total GULP energy -78410.564516 kJ/mol
# GULP energy per Si atom -5600.754608 kJ/mol
# Density = 2.469802 g / cm^3
# Si number density = 24.754360 Si / 1000 Ang^3
#
#
#
# Elastic Constant Matrix: (Units=GPa)
#
#
# Indices 1 2 3 4 5 6 
#
# 1 96.4840 31.5864 14.5982 -4.5096 -3.0944 17.9963
# 2 31.5864 118.3257 14.4484 -1.5085 6.6140 21.3166
# 3 14.5982 14.4484 56.4774 2.1757 0.6306 5.9561
# 4 -4.5096 -1.5085 2.1757 28.5231 1.5238 1.4675
# 5 -3.0944 6.6140 0.6306 1.5238 30.0883 1.0940
# 6 17.9963 21.3166 5.9561 1.4675 1.0940 41.3790
#
#
#
# Elastic Compliance Matrix: (Units=1/GPa)
#
#
# Indices 1 2 3 4 5 6 
#
# 1 0.012389 -0.002396 -0.002275 0.002108 0.001885 -0.003951
# 2 -0.002396 0.010123 -0.001555 0.000601 -0.002327 -0.003909
# 3 -0.002275 -0.001555 0.018854 -0.001827 -0.000164 -0.000854
# 4 0.002108 0.000601 -0.001827 0.035762 -0.001609 -0.002189
# 5 0.001885 -0.002327 -0.000164 -0.001609 0.034042 -0.000441
# 6 -0.003951 -0.003909 -0.000854 -0.002189 -0.000441 0.028111
#
#
# Mechanical properties :
#
#
# Convention : Reuss Voigt Hill
#
# Bulk Modulus (GPa) = 34.58599 43.61703 39.10151
# Shear Modulus (GPa) = 30.98440 34.04168 32.51304
#
# Velocity S-wave (km/s) = 3.54174 3.71236 3.62805
# Velocity P-wave (km/s) = 5.54321 6.00281 5.77758
#
# Compressibility (1/GPa) = 0.02891344
#
# Stress axis : x y z
#
# Youngs Moduli (GPa) = 80.71694 98.78825 53.03804
#
# Poissons Ratio (x) = 0.23671 0.12066
# Poissons Ratio (y) = 0.19341 0.08249
# Poissons Ratio (z) = 0.18362 0.15364
#
# Static dielectric constant tensor:
#      x y z
#    x 1.978080 0.021370 -0.010150 
#    y 0.021370 1.945110 -0.012940 
#    z -0.010150 -0.012940 1.990090 
# 
# From -- ./inp_files/261109.got.cif
#   From: 2010.05.17/outbox.cif.g08.bks.cpg/sg2_131_cif.got.tgz:261109.got - 2010.06.03 11:33:40.
