data_PCOD9042497
_publ_section_title
;
Structure prediction by ZEFSAII (Michael W. Deem and Ramdas Pophale) SiO2 
 PCOD9042497
Probable space group: P -1
;
_chemical_formula_sum "Si O2"
_cell_formula_units_Z 12
_cell_length_a 7.444961
_cell_length_b 7.797492
_cell_length_c 18.767345
_cell_angle_alpha 39.586300
_cell_angle_beta 125.225033
_cell_angle_gamma 99.766103
_cell_volume 481.616974
_symmetry_space_group_name_H-M "P -1"
_symmetry_group_IT_number 2
_symmetry_cell_setting 'triclinic'
loop_
_space_group_symop_operation_xyz
x,y,z
-x,-y,-z
loop_
_atom_site_type_symbol
_atom_site_label
_atom_site_fract_x
_atom_site_fract_y
_atom_site_fract_z
Si Si1 0.709709 0.191188 0.792146
Si Si2 0.786285 0.035483 0.384504
Si Si3 0.760305 0.905136 0.047540
Si Si4 0.292919 0.380175 0.086083
Si Si5 0.932812 0.249110 0.219380
Si Si6 0.498660 0.743634 0.476968
O O1 0.551045 0.562367 0.621497
O O2 0.609792 0.981592 0.799672
O O3 0.999979 0.086014 0.865120
O O4 0.706243 0.116930 0.897352
O O5 0.496668 0.347744 0.202195
O O6 0.898655 0.011953 0.338194
O O7 0.716597 0.798259 0.480162
O O8 0.000000 0.000000 0.500000
O O9 0.876854 0.547533 0.159238
O O10 0.500000 0.000000 0.000000
O O11 0.224219 0.063943 0.317080
O O12 0.000000 0.500000 0.000000
O O13 0.254932 0.603276 0.939011
O O14 0.500000 0.500000 0.500000
#
# Coordination Sequence:
#
# PCOD9042497 Si02
#       6
#     2   2   2   2   2   2
#     4  10  23  44  72 101 147 199 243 302 376 443
#     4  12  27  45  76 115 149 192 252 313 374 441
#     4  10  24  44  71 109 147 190 251 309 365 441
#     4  11  22  49  75 105 147 202 250 305 372 449
#     4  11  26  46  79 108 148 199 254 301 380 444
#     4  12  25  50  74 106 152 193 245 309 375 441
#
# _framework density 24.916067999999999
#
# number of rings (size 3 to 8) (size 9 to 14) (size 15 to 20)
#    0.000    1.000    3.333    1.500    2.333    7.333 
#    6.000    0.000    0.000    0.000    0.000    0.000 
#    0.000    0.000    0.000    0.000    0.000    0.000 
#
# Total GULP energy -67049.823266 kJ/mol
# GULP energy per Si atom -5587.485272 kJ/mol
# Density = 2.485936 g / cm^3
# Si number density = 24.916068 Si / 1000 Ang^3
#
#
#
# Elastic Constant Matrix: (Units=GPa)
#
#
# Indices 1 2 3 4 5 6 
#
# 1 156.1736 62.0339 42.4806 5.9753 -2.6766 35.0897
# 2 62.0339 119.9453 49.7889 5.3039 7.3364 23.2931
# 3 42.4806 49.7889 178.6527 2.7298 -12.4045 27.7510
# 4 5.9753 5.3039 2.7298 34.2750 22.9622 2.3764
# 5 -2.6766 7.3364 -12.4045 22.9622 37.5032 -8.6862
# 6 35.0897 23.2931 27.7510 2.3764 -8.6862 46.8018
#
#
#
# Elastic Compliance Matrix: (Units=1/GPa)
#
#
# Indices 1 2 3 4 5 6 
#
# 1 0.009027 -0.003663 -0.000335 -0.001376 0.001055 -0.004480
# 2 -0.003663 0.012111 -0.002503 0.003361 -0.006241 -0.003126
# 3 -0.000335 -0.002503 0.006966 -0.002662 0.003993 -0.001757
# 4 -0.001376 0.003361 -0.002662 0.054522 -0.037035 -0.008705
# 5 0.001055 -0.006241 0.003993 -0.037035 0.054733 0.011986
# 6 -0.004480 -0.003126 -0.001757 -0.008705 0.011986 0.029990
#
#
# Mechanical properties :
#
#
# Convention : Reuss Voigt Hill
#
# Bulk Modulus (GPa) = 66.22540 84.81982 75.52261
# Shear Modulus (GPa) = 26.97107 43.74722 35.35914
#
# Velocity S-wave (km/s) = 3.29367 4.19475 3.77122
# Velocity P-wave (km/s) = 6.41104 7.58798 7.02420
#
# Compressibility (1/GPa) = 0.01509995
#
# Stress axis : x y z
#
# Youngs Moduli (GPa) = 110.78306 82.57168 143.56204
#
# Poissons Ratio (x) = 0.30245 0.04815
# Poissons Ratio (y) = 0.40578 0.35938
# Poissons Ratio (z) = 0.03716 0.20670
#
# Static dielectric constant tensor:
#      x y z
#    x 2.345820 -0.407620 -0.223890 
#    y -0.407620 2.407830 0.269990 
#    z -0.223890 0.269990 2.236440 
# 
# From -- ./inp_files/582975.got.cif
#   From: 2010.05.17/outbox.cif.g08.bks.cpg/sg2_292_cif.got.tgz:582975.got - 2010.06.03 11:33:40.
