data_PCOD9042978
_publ_section_title
;
Structure prediction by ZEFSAII (Michael W. Deem and Ramdas Pophale) SiO2 
 PCOD9042978
Probable space group: P -1
;
_chemical_formula_sum "Si O2"
_cell_formula_units_Z 16
_cell_length_a 18.093543
_cell_length_b 9.995053
_cell_length_c 14.415917
_cell_angle_alpha 152.580207
_cell_angle_beta 147.747826
_cell_angle_gamma 33.148740
_cell_volume 599.623566
_symmetry_space_group_name_H-M "P -1"
_symmetry_group_IT_number 2
_symmetry_cell_setting 'triclinic'
loop_
_space_group_symop_operation_xyz
x,y,z
-x,-y,-z
loop_
_atom_site_type_symbol
_atom_site_label
_atom_site_fract_x
_atom_site_fract_y
_atom_site_fract_z
Si Si1 0.482558 0.622933 0.171062
Si Si2 0.998884 0.585305 0.821812
Si Si3 0.840517 0.152785 0.117583
Si Si4 0.527247 0.893737 0.765490
Si Si5 0.410570 0.651674 0.319134
Si Si6 0.827190 0.864780 0.125044
Si Si7 0.695020 0.884059 0.175659
Si Si8 0.786774 0.714987 0.506578
O O1 0.470332 0.702186 0.314572
O O2 0.625235 0.684320 0.324570
O O3 0.323210 0.805378 0.068940
O O4 0.512423 0.255720 0.964061
O O5 0.028609 0.374282 0.818165
O O6 0.151811 0.401619 0.817528
O O7 0.873604 0.602634 0.625088
O O8 0.951792 0.929313 0.025288
O O9 0.852541 0.487695 0.350880
O O10 0.860432 0.014567 0.159081
O O11 0.388171 0.936069 0.712873
O O12 0.500797 0.719107 0.540377
O O13 0.700295 0.728013 0.874987
O O14 0.250580 0.921687 0.325613
O O15 0.402084 0.312073 0.088543
O O16 0.742217 0.057480 0.246050
#
# Coordination Sequence:
#
# PCOD9042978 Si02
#       8
#     2   2   2   2   2   2   2   2
#     4  11  23  40  67 106 130 156 223 287 321 369
#     4  10  26  44  61  98 139 175 209 262 328 395
#     4  12  22  43  69  98 134 164 219 275 328 380
#     4  11  21  44  72  96 128 170 222 274 318 379
#     4  11  23  40  71  97 125 172 220 270 328 372
#     4  10  23  45  67  92 138 172 213 271 319 387
#     4   9  25  46  61  98 134 175 217 263 316 391
#     4  12  23  39  68 101 129 173 214 269 334 381
#
# _framework density 26.683406000000002
#
# number of rings (size 3 to 8) (size 9 to 14) (size 15 to 20)
#    0.750    0.500    3.750    2.250    1.750    2.500 
#    0.000    3.750    0.000    0.000    0.000    0.000 
#    0.000    0.000    0.000    0.000    0.000    0.000 
#
# Total GULP energy -89382.380004 kJ/mol
# GULP energy per Si atom -5586.398750 kJ/mol
# Density = 2.662267 g / cm^3
# Si number density = 26.683406 Si / 1000 Ang^3
#
#
#
# Elastic Constant Matrix: (Units=GPa)
#
#
# Indices 1 2 3 4 5 6 
#
# 1 77.4240 8.1064 45.1286 6.2317 -18.2452 -14.3208
# 2 8.1064 136.7609 65.8044 -9.0536 -6.2883 7.3905
# 3 45.1286 65.8044 145.7973 1.3294 -39.8789 -7.4155
# 4 6.2317 -9.0536 1.3294 53.8286 -5.2130 -6.4298
# 5 -18.2452 -6.2883 -39.8789 -5.2130 47.3006 -4.4239
# 6 -14.3208 7.3905 -7.4155 -6.4298 -4.4239 28.6899
#
#
#
# Elastic Compliance Matrix: (Units=1/GPa)
#
#
# Indices 1 2 3 4 5 6 
#
# 1 0.017860 0.000748 -0.004346 -0.000475 0.004031 0.008114
# 2 0.000748 0.010360 -0.006186 0.000925 -0.003848 -0.004280
# 3 -0.004346 -0.006186 0.013882 0.000615 0.009707 0.004647
# 4 -0.000475 0.000925 0.000615 0.019611 0.003045 0.004548
# 5 0.004031 -0.003848 0.009707 0.003045 0.031742 0.011089
# 6 0.008114 -0.004280 0.004647 0.004548 0.011089 0.043938
#
#
# Mechanical properties :
#
#
# Convention : Reuss Voigt Hill
#
# Bulk Modulus (GPa) = 44.37889 66.45122 55.41505
# Shear Modulus (GPa) = 30.40028 42.02667 36.21347
#
# Velocity S-wave (km/s) = 3.37901 3.97295 3.68795
# Velocity P-wave (km/s) = 5.64724 6.78258 6.24078
#
# Compressibility (1/GPa) = 0.02253324
#
# Stress axis : x y z
#
# Youngs Moduli (GPa) = 55.99179 96.52742 72.03524
#
# Poissons Ratio (x) = -0.07221 0.31308
# Poissons Ratio (y) = -0.04189 0.44561
# Poissons Ratio (z) = 0.24336 0.59712
#
# Static dielectric constant tensor:
#      x y z
#    x 2.202900 0.111950 0.026990 
#    y 0.111950 2.256720 0.014560 
#    z 0.026990 0.014560 2.046670 
# 
# From -- ./inp_files/541025.got.cif
#   From: 2010.05.17/outbox.cif.g08.bks.cpg/sg2_271_cif.got.tgz:541025.got - 2010.06.03 11:33:40.
