data_PCOD9042064
_publ_section_title
;
Structure prediction by ZEFSAII (Michael W. Deem and Ramdas Pophale) SiO2 
 PCOD9042064
Probable space group: P -1
;
_chemical_formula_sum "Si O2"
_cell_formula_units_Z 14
_cell_length_a 18.835082
_cell_length_b 11.588704
_cell_length_c 5.774260
_cell_angle_alpha 78.122466
_cell_angle_beta 80.074000
_cell_angle_gamma 27.572841
_cell_volume 570.764122
_symmetry_space_group_name_H-M "P -1"
_symmetry_group_IT_number 2
_symmetry_cell_setting 'triclinic'
loop_
_space_group_symop_operation_xyz
x,y,z
-x,-y,-z
loop_
_atom_site_type_symbol
_atom_site_label
_atom_site_fract_x
_atom_site_fract_y
_atom_site_fract_z
Si Si1 0.728641 0.509665 0.966067
Si Si2 0.124838 0.280313 0.328489
Si Si3 0.694036 0.300851 0.273131
Si Si4 0.562089 0.263135 0.398495
Si Si5 0.130582 0.479904 0.890335
Si Si6 0.448098 0.974566 0.712636
Si Si7 0.014861 0.910504 0.284294
O O1 0.565915 0.808098 0.928565
O O2 0.815709 0.385828 0.721090
O O3 0.695693 0.423906 0.094818
O O4 0.840183 0.426907 0.098977
O O5 0.000000 0.500000 0.500000
O O6 0.033370 0.320031 0.200473
O O7 0.286366 0.990085 0.432190
O O8 0.157246 0.354981 0.144174
O O9 0.621653 0.288979 0.206671
O O10 0.587925 0.478525 0.483041
O O11 0.875493 0.019492 0.325251
O O12 0.524116 0.197811 0.320970
O O13 0.268619 0.245957 0.741024
O O14 0.500000 0.000000 0.500000
O O15 0.000000 0.000000 0.500000
O O16 0.000000 0.000000 0.000000
#
# Coordination Sequence:
#
# PCOD9042064 Si02
#       7
#     2   2   2   2   2   2   2
#     4  11  24  43  70 102 145 182 243 301 362 440
#     4  11  24  45  70 101 142 183 236 296 358 431
#     4  10  24  43  66 103 142 190 239 293 367 429
#     4  11  23  42  70  99 143 187 237 293 362 440
#     4  11  25  43  70 106 137 186 234 295 371 421
#     4  12  24  41  70 101 144 187 237 297 365 434
#     4  10  23  44  69 101 143 191 244 296 363 433
#
# _framework density 24.528521999999999
#
# number of rings (size 3 to 8) (size 9 to 14) (size 15 to 20)
#    0.000    1.143    1.429    3.857    2.000    4.000 
#    0.000    4.286    0.000    0.000    0.000    0.000 
#    0.000    0.000    0.000    0.000    0.000    0.000 
#
# Total GULP energy -78195.693977 kJ/mol
# GULP energy per Si atom -5585.406713 kJ/mol
# Density = 2.447269 g / cm^3
# Si number density = 24.528522 Si / 1000 Ang^3
#
#
#
# Elastic Constant Matrix: (Units=GPa)
#
#
# Indices 1 2 3 4 5 6 
#
# 1 177.8725 46.1525 44.8356 7.0068 -24.1712 3.7394
# 2 46.1525 84.3858 4.8893 10.5309 -8.5060 -18.4568
# 3 44.8356 4.8893 55.8761 2.0121 -19.9002 -3.7004
# 4 7.0068 10.5309 2.0121 46.3706 -1.9772 -1.9278
# 5 -24.1712 -8.5060 -19.9002 -1.9772 41.1646 5.4057
# 6 3.7394 -18.4568 -3.7004 -1.9278 5.4057 45.3912
#
#
#
# Elastic Compliance Matrix: (Units=1/GPa)
#
#
# Indices 1 2 3 4 5 6 
#
# 1 0.008805 -0.005058 -0.006308 0.000013 0.001533 -0.003478
# 2 -0.005058 0.016427 0.003580 -0.002779 0.001084 0.007141
# 3 -0.006308 0.003580 0.026160 -0.000476 0.009268 0.002984
# 4 0.000013 -0.002779 -0.000476 0.022217 0.000305 -0.000262
# 5 0.001533 0.001084 0.009268 0.000305 0.030243 -0.002519
# 6 -0.003478 0.007141 0.002984 -0.000262 -0.002519 0.025753
#
#
# Mechanical properties :
#
#
# Convention : Reuss Voigt Hill
#
# Bulk Modulus (GPa) = 27.91588 56.65435 42.28511
# Shear Modulus (GPa) = 31.82325 41.40241 36.61283
#
# Velocity S-wave (km/s) = 3.60585 4.11290 3.86769
# Velocity P-wave (km/s) = 5.36115 6.76033 6.10098
#
# Compressibility (1/GPa) = 0.03582191
#
# Stress axis : x y z
#
# Youngs Moduli (GPa) = 113.56672 60.87442 38.22584
#
# Poissons Ratio (x) = 0.30792 0.24112
# Poissons Ratio (y) = 0.57445 -0.13686
# Poissons Ratio (z) = 0.71634 -0.21795
#
# Static dielectric constant tensor:
#      x y z
#    x 1.915080 0.024990 0.038540 
#    y 0.024990 2.054280 -0.045670 
#    z 0.038540 -0.045670 2.009250 
# 
# From -- ./inp_files/109663.got.cif
#   From: 2010.05.17/outbox.cif.g08.bks.cpg/sg2_55_cif.got.tgz:109663.got - 2010.06.03 11:33:40.
