data_PCOD9043425
_publ_section_title
;
Structure prediction by ZEFSAII (Michael W. Deem and Ramdas Pophale) SiO2 
 PCOD9043425
Probable space group: P -1
;
_chemical_formula_sum "Si O2"
_cell_formula_units_Z 14
_cell_length_a 18.052681
_cell_length_b 7.538087
_cell_length_c 14.255795
_cell_angle_alpha 53.904835
_cell_angle_beta 22.124024
_cell_angle_gamma 55.576249
_cell_volume 589.146327
_symmetry_space_group_name_H-M "P -1"
_symmetry_group_IT_number 2
_symmetry_cell_setting 'triclinic'
loop_
_space_group_symop_operation_xyz
x,y,z
-x,-y,-z
loop_
_atom_site_type_symbol
_atom_site_label
_atom_site_fract_x
_atom_site_fract_y
_atom_site_fract_z
Si Si1 0.781338 0.649049 0.587470
Si Si2 0.949907 0.058162 0.934391
Si Si3 0.310014 0.243060 0.770395
Si Si4 0.636224 0.463922 0.204977
Si Si5 0.586393 0.140540 0.112362
Si Si6 0.006376 0.229343 0.510814
Si Si7 0.612151 0.867695 0.989820
O O1 0.560235 0.649240 0.804433
O O2 0.906497 0.418030 0.501820
O O3 0.834256 0.694151 0.621004
O O4 0.873895 0.838866 0.359553
O O5 0.779648 0.254849 0.077698
O O6 0.880215 0.844651 0.028709
O O7 0.000000 0.000000 0.000000
O O8 0.436169 0.381125 0.508816
O O9 0.276986 0.385376 0.860288
O O10 0.432243 0.012938 0.727654
O O11 0.602828 0.611595 0.105174
O O12 0.529000 0.983532 0.144333
O O13 0.819260 0.168280 0.812729
O O14 0.160106 0.089882 0.308399
O O15 0.500000 0.000000 0.000000
#
# Coordination Sequence:
#
# PCOD9043425 Si02
#       7
#     2   2   2   2   2   2   2
#     4  11  23  40  65 100 136 184 232 289 354 417
#     4  12  24  44  69 103 146 185 239 292 360 427
#     4  10  23  45  71 101 141 187 235 299 353 420
#     4  10  23  45  71 102 142 185 238 297 351 425
#     4  11  22  41  69  95 137 187 233 288 356 413
#     4  11  22  42  64  95 141 176 234 293 340 425
#     4  11  22  42  68 100 139 185 233 293 353 422
#
# _framework density 23.763197000000002
#
# number of rings (size 3 to 8) (size 9 to 14) (size 15 to 20)
#    0.000    1.143    4.286    2.143    0.000    0.571 
#    5.143    0.000    0.000    0.000    0.000    0.000 
#    0.000    0.000    0.000    0.000    0.000    0.000 
#
# Total GULP energy -78127.967301 kJ/mol
# GULP energy per Si atom -5580.569093 kJ/mol
# Density = 2.370911 g / cm^3
# Si number density = 23.763197 Si / 1000 Ang^3
#
#
#
# Elastic Constant Matrix: (Units=GPa)
#
#
# Indices 1 2 3 4 5 6 
#
# 1 94.5673 40.0280 29.4893 -16.6998 6.3626 -27.0295
# 2 40.0280 94.4116 41.8167 -5.9278 -4.1260 -23.3238
# 3 29.4893 41.8167 105.2058 -9.3337 6.6502 -17.0127
# 4 -16.6998 -5.9278 -9.3337 49.6358 -5.7846 7.4698
# 5 6.3626 -4.1260 6.6502 -5.7846 24.5781 -1.1990
# 6 -27.0295 -23.3238 -17.0127 7.4698 -1.1990 42.1711
#
#
#
# Elastic Compliance Matrix: (Units=1/GPa)
#
#
# Indices 1 2 3 4 5 6 
#
# 1 0.015362 -0.004452 -0.001023 0.003095 -0.003410 0.006326
# 2 -0.004452 0.015809 -0.004726 -0.000532 0.005166 0.004225
# 3 -0.001023 -0.004726 0.012192 0.000754 -0.003581 0.001413
# 4 0.003095 -0.000532 0.000754 0.022001 0.003996 -0.001790
# 5 -0.003410 0.005166 -0.003581 0.003996 0.044335 -0.000221
# 6 0.006326 0.004225 0.001413 -0.001790 -0.000221 0.030985
#
#
# Mechanical properties :
#
#
# Convention : Reuss Voigt Hill
#
# Bulk Modulus (GPa) = 43.55359 57.42809 50.49084
# Shear Modulus (GPa) = 29.63113 35.46704 32.54909
#
# Velocity S-wave (km/s) = 3.53503 3.86751 3.70500
# Velocity P-wave (km/s) = 5.91860 6.64551 6.29256
#
# Compressibility (1/GPa) = 0.02296022
#
# Stress axis : x y z
#
# Youngs Moduli (GPa) = 65.09551 63.25630 82.01788
#
# Poissons Ratio (x) = 0.28160 0.08394
# Poissons Ratio (y) = 0.28979 0.38765
# Poissons Ratio (z) = 0.06662 0.29897
#
# Static dielectric constant tensor:
#      x y z
#    x 2.553880 1.827310 0.539960 
#    y 1.827310 7.523750 1.822320 
#    z 0.539960 1.822320 2.526440 
# 
# From -- ./inp_files/224318.got.cif
#   From: 2010.05.17/outbox.cif.g08.bks.cpg/sg2_113_cif.got.tgz:224318.got - 2010.06.03 11:33:40.
