data_PCOD9043454
_publ_section_title
;
Structure prediction by ZEFSAII (Michael W. Deem and Ramdas Pophale) SiO2 
 PCOD9043454
Probable space group: P -1
;
_chemical_formula_sum "Si O2"
_cell_formula_units_Z 15
_cell_length_a 18.010000
_cell_length_b 8.958321
_cell_length_c 4.879136
_cell_angle_alpha 117.937514
_cell_angle_beta 61.605692
_cell_angle_gamma 107.310902
_cell_volume 608.952366
_symmetry_space_group_name_H-M "P -1"
_symmetry_group_IT_number 2
_symmetry_cell_setting 'triclinic'
loop_
_space_group_symop_operation_xyz
x,y,z
-x,-y,-z
loop_
_atom_site_type_symbol
_atom_site_label
_atom_site_fract_x
_atom_site_fract_y
_atom_site_fract_z
Si Si1 0.299274 0.052947 0.137983
Si Si2 0.888302 0.261715 0.125256
Si Si3 0.484712 0.177718 0.051497
Si Si4 0.272108 0.666900 0.874500
Si Si5 0.000000 0.500000 0.000000
Si Si6 0.127369 0.441655 0.214159
Si Si7 0.449686 0.629177 0.372878
Si Si8 0.814842 0.911742 0.139267
O O1 0.387144 0.165028 0.121090
O O2 0.223817 0.106454 0.506212
O O3 0.264537 0.066551 0.904116
O O4 0.309120 0.858585 0.051332
O O5 0.797330 0.292680 0.192320
O O6 0.876680 0.085429 0.148470
O O7 0.918879 0.443861 0.382745
O O8 0.960350 0.294914 0.802959
O O9 0.506678 0.314419 0.369692
O O10 0.543770 0.212599 0.712792
O O11 0.500000 0.000000 0.000000
O O12 0.216580 0.555290 0.096215
O O13 0.351266 0.574822 0.552827
O O14 0.075384 0.427140 0.014182
O O15 0.144439 0.260286 0.141945
O O16 0.500000 0.500000 0.000000
#
# Coordination Sequence:
#
# PCOD9043454 Si02
#       8
#     2   2   2   2   1   2   2   2
#     4  11  24  46  68 103 140 188 248 303 351 435
#     4  10  23  45  71 104 142 190 229 297 358 435
#     4  12  26  45  70  97 137 196 245 301 367 422
#     4  10  24  43  71  95 144 191 242 292 371 425
#     4  10  24  46  72 110 146 180 234 288 366 432
#     4  11  24  46  73 104 141 190 232 298 356 438
#     4  12  28  45  66 106 147 191 246 310 364 426
#     4  11  26  43  75 107 141 189 246 289 357 431
#
# _framework density 24.632466000000001
#
# number of rings (size 3 to 8) (size 9 to 14) (size 15 to 20)
#    0.000    1.067    2.667    2.000   11.200    1.600 
#    0.000    1.333    0.000    0.000    0.000    0.000 
#    0.000    0.000    0.000    0.000    0.000    0.000 
#
# Total GULP energy -83746.513601 kJ/mol
# GULP energy per Si atom -5583.100907 kJ/mol
# Density = 2.457640 g / cm^3
# Si number density = 24.632466 Si / 1000 Ang^3
#
#
#
# Elastic Constant Matrix: (Units=GPa)
#
#
# Indices 1 2 3 4 5 6 
#
# 1 91.5616 51.6996 12.3193 -9.7059 10.8930 22.0719
# 2 51.6996 127.5175 39.4498 -3.3213 -12.8896 8.3237
# 3 12.3193 39.4498 93.4966 -6.0675 -7.4768 11.2705
# 4 -9.7059 -3.3213 -6.0675 40.8846 2.6984 -10.3011
# 5 10.8930 -12.8896 -7.4768 2.6984 42.7260 -9.7783
# 6 22.0719 8.3237 11.2705 -10.3011 -9.7783 37.3525
#
#
#
# Elastic Compliance Matrix: (Units=1/GPa)
#
#
# Indices 1 2 3 4 5 6 
#
# 1 0.020311 -0.009025 0.001951 0.001841 -0.010617 -0.012851
# 2 -0.009025 0.013222 -0.004542 -0.000856 0.006760 0.005291
# 3 0.001951 -0.004542 0.012845 0.001062 -0.000574 -0.003874
# 4 0.001841 -0.000856 0.001062 0.026520 -0.000874 0.005867
# 5 -0.010617 0.006760 -0.000574 -0.000874 0.031041 0.012825
# 6 -0.012851 0.005291 -0.003874 0.005867 0.012825 0.039331
#
#
# Mechanical properties :
#
#
# Convention : Reuss Voigt Hill
#
# Bulk Modulus (GPa) = 43.20362 57.72369 50.46365
# Shear Modulus (GPa) = 28.69976 38.13308 33.41642
#
# Velocity S-wave (km/s) = 3.41709 3.93884 3.68720
# Velocity P-wave (km/s) = 5.75726 6.64611 6.21759
#
# Compressibility (1/GPa) = 0.02314621
#
# Stress axis : x y z
#
# Youngs Moduli (GPa) = 49.23461 75.63232 77.85049
#
# Poissons Ratio (x) = 0.68256 -0.15191
# Poissons Ratio (y) = 0.44433 0.35363
# Poissons Ratio (z) = -0.09607 0.34355
#
# Static dielectric constant tensor:
#      x y z
#    x 1.953290 0.012870 -0.030620 
#    y 0.012870 2.089680 -0.047830 
#    z -0.030620 -0.047830 2.135990 
# 
# From -- ./inp_files/105727.got.cif
#   From: 2010.05.17/outbox.cif.g08.bks.cpg/sg2_53_cif.got.tgz:105727.got - 2010.06.03 11:33:40.
