data_PCOD9043210
_publ_section_title
;
Structure prediction by ZEFSAII (Michael W. Deem and Ramdas Pophale) SiO2 
 PCOD9043210
Probable space group: P -1
;
_chemical_formula_sum "Si O2"
_cell_formula_units_Z 11
_cell_length_a 11.196996
_cell_length_b 11.509625
_cell_length_c 8.569027
_cell_angle_alpha 40.063449
_cell_angle_beta 131.842997
_cell_angle_gamma 136.487770
_cell_volume 473.475055
_symmetry_space_group_name_H-M "P -1"
_symmetry_group_IT_number 2
_symmetry_cell_setting 'triclinic'
loop_
_space_group_symop_operation_xyz
x,y,z
-x,-y,-z
loop_
_atom_site_type_symbol
_atom_site_label
_atom_site_fract_x
_atom_site_fract_y
_atom_site_fract_z
Si Si1 0.699328 0.082860 0.516182
Si Si2 0.773603 0.092157 0.214278
Si Si3 0.000000 0.500000 0.500000
Si Si4 0.805258 0.678317 0.676436
Si Si5 0.702738 0.357401 0.653254
Si Si6 0.382059 0.330675 0.190581
O O1 0.706441 0.119329 0.298338
O O2 0.842596 0.279087 0.525421
O O3 0.500000 0.000000 0.500000
O O4 0.738287 0.886649 0.766655
O O5 0.984184 0.246222 0.232351
O O6 0.766944 0.872015 0.417069
O O7 0.688846 0.156913 0.930541
O O8 0.121654 0.531579 0.413947
O O9 0.708883 0.505647 0.645438
O O10 0.741264 0.609285 0.868592
O O11 0.530318 0.311815 0.447056
O O12 0.500000 0.500000 0.000000
#
# Coordination Sequence:
#
# PCOD9043210 Si02
#       6
#     2   2   1   2   2   2
#     4  11  24  47  72 107 148 190 245 307 367 439
#     4  10  24  44  75 104 145 195 248 297 373 443
#     4  12  26  44  72 114 138 194 254 290 376 438
#     4  10  23  45  69 108 146 190 244 308 365 440
#     4  12  25  44  75 105 146 197 242 305 369 444
#     4  11  27  46  72 108 150 191 249 311 368 439
#
# _framework density 23.232479999999999
#
# number of rings (size 3 to 8) (size 9 to 14) (size 15 to 20)
#    0.000    1.091    3.636    1.091    5.091    4.364 
#    0.000    1.818    0.000    0.000    0.000    0.000 
#    0.000    0.000    0.000    0.000    0.000    0.000 
#
# Total GULP energy -61325.850802 kJ/mol
# GULP energy per Si atom -5575.077346 kJ/mol
# Density = 2.317960 g / cm^3
# Si number density = 23.232480 Si / 1000 Ang^3
#
#
#
# Elastic Constant Matrix: (Units=GPa)
#
#
# Indices 1 2 3 4 5 6 
#
# 1 194.6040 56.5556 21.8909 -11.0403 -43.2230 11.1683
# 2 56.5556 164.9993 29.9986 -16.8607 -12.5128 -2.2671
# 3 21.8909 29.9986 69.2980 1.5382 -5.3225 14.3921
# 4 -11.0403 -16.8607 1.5382 17.6574 9.2769 -3.1067
# 5 -43.2230 -12.5128 -5.3225 9.2769 30.2489 -11.3739
# 6 11.1683 -2.2671 14.3921 -3.1067 -11.3739 51.2896
#
#
#
# Elastic Compliance Matrix: (Units=1/GPa)
#
#
# Indices 1 2 3 4 5 6 
#
# 1 0.008303 -0.002044 -0.000928 -0.002862 0.012058 0.000863
# 2 -0.002044 0.008123 -0.003593 0.008169 -0.001996 0.001864
# 3 -0.000928 -0.003593 0.017533 -0.006639 0.000354 -0.005200
# 4 -0.002862 0.008169 -0.006639 0.076491 -0.024574 0.002031
# 5 0.012058 -0.001996 0.000354 -0.024574 0.060488 0.009112
# 6 0.000863 0.001864 -0.005200 0.002031 0.009112 0.022995
#
#
# Mechanical properties :
#
#
# Convention : Reuss Voigt Hill
#
# Bulk Modulus (GPa) = 48.00391 71.75461 59.87926
# Shear Modulus (GPa) = 23.36385 41.20292 32.28338
#
# Velocity S-wave (km/s) = 3.17465 4.21587 3.73175
# Velocity P-wave (km/s) = 5.84338 7.39260 6.66317
#
# Compressibility (1/GPa) = 0.02083164
#
# Stress axis : x y z
#
# Youngs Moduli (GPa) = 120.43529 123.10310 57.03395
#
# Poissons Ratio (x) = 0.25157 0.05292
# Poissons Ratio (y) = 0.24612 0.20491
# Poissons Ratio (z) = 0.11174 0.44228
#
# Static dielectric constant tensor:
#      x y z
#    x 1.916480 0.005590 0.013630 
#    y 0.005590 1.851980 -0.016670 
#    z 0.013630 -0.016670 1.961030 
# 
# From -- ./inp_files/162316.got.cif
#   From: 2010.05.17/outbox.cif.g08.bks.cpg/sg2_82_cif.got.tgz:162316.got - 2010.06.03 11:33:40.
