data_PCOD9043189
_publ_section_title
;
Structure prediction by ZEFSAII (Michael W. Deem and Ramdas Pophale) SiO2 
 PCOD9043189
Probable space group: P -1
;
_chemical_formula_sum "Si O2"
_cell_formula_units_Z 16
_cell_length_a 23.701261
_cell_length_b 7.994816
_cell_length_c 9.226764
_cell_angle_alpha 78.551433
_cell_angle_beta 42.294057
_cell_angle_gamma 47.254278
_cell_volume 681.765040
_symmetry_space_group_name_H-M "P -1"
_symmetry_group_IT_number 2
_symmetry_cell_setting 'triclinic'
loop_
_space_group_symop_operation_xyz
x,y,z
-x,-y,-z
loop_
_atom_site_type_symbol
_atom_site_label
_atom_site_fract_x
_atom_site_fract_y
_atom_site_fract_z
Si Si1 0.072272 0.510979 0.735104
Si Si2 0.150233 0.207090 0.109769
Si Si3 0.646270 0.275207 0.676910
Si Si4 0.759141 0.812785 0.759539
Si Si5 0.440013 0.113320 0.758555
Si Si6 0.851712 0.198144 0.829438
Si Si7 0.877490 0.105143 0.129160
Si Si8 0.672353 0.969073 0.447833
O O1 0.163418 0.452894 0.445450
O O2 0.189362 0.300430 0.673270
O O3 0.982294 0.539136 0.789027
O O4 0.944304 0.812790 0.008938
O O5 0.153588 0.289062 0.244985
O O6 0.164293 0.979566 0.134818
O O7 0.283429 0.059280 0.793415
O O8 0.736833 0.294027 0.457205
O O9 0.742064 0.999456 0.649564
O O10 0.616643 0.228329 0.589563
O O11 0.500000 0.500000 0.000000
O O12 0.608906 0.988241 0.067615
O O13 0.500000 0.000000 0.500000
O O14 0.559323 0.004860 0.649012
O O15 0.296053 0.463236 0.982229
O O16 0.860610 0.216523 0.983944
O O17 0.000000 0.000000 0.500000
O O18 0.000000 0.000000 0.000000
#
# Coordination Sequence:
#
# PCOD9043189 Si02
#       8
#     2   2   2   2   2   2   2   2
#     4  10  23  45  69 105 140 181 244 290 371 424
#     4  11  22  44  73 105 143 185 241 299 359 441
#     4  11  27  45  70 106 145 197 249 293 373 441
#     4  11  26  43  72 108 140 189 240 303 363 441
#     4  12  27  45  71 110 147 189 241 301 373 436
#     4  11  27  48  73 108 147 190 246 300 374 440
#     4  11  26  45  74 104 147 196 243 308 364 442
#     4  11  24  44  74 100 144 192 233 305 363 441
#
# _framework density 23.468495999999998
#
# number of rings (size 3 to 8) (size 9 to 14) (size 15 to 20)
#    0.000    1.000    3.750    2.250    8.750    3.500 
#    0.000    0.000    0.000    0.000    0.000    0.000 
#    0.000    0.000    0.000    0.000    0.000    0.000 
#
# Total GULP energy -89178.732975 kJ/mol
# GULP energy per Si atom -5573.670811 kJ/mol
# Density = 2.341508 g / cm^3
# Si number density = 23.468496 Si / 1000 Ang^3
#
#
#
# Elastic Constant Matrix: (Units=GPa)
#
#
# Indices 1 2 3 4 5 6 
#
# 1 127.2492 23.6554 47.8375 -16.7397 -11.4142 -17.8677
# 2 23.6554 60.0632 37.7061 -0.2428 -2.5129 -17.0029
# 3 47.8375 37.7061 189.0551 -14.2835 4.4719 -9.1494
# 4 -16.7397 -0.2428 -14.2835 40.2391 -0.7884 2.4671
# 5 -11.4142 -2.5129 4.4719 -0.7884 38.0214 -5.8895
# 6 -17.8677 -17.0029 -9.1494 2.4671 -5.8895 21.0301
#
#
#
# Elastic Compliance Matrix: (Units=1/GPa)
#
#
# Indices 1 2 3 4 5 6 
#
# 1 0.010864 -0.000088 -0.002154 0.003286 0.005008 0.009239
# 2 -0.000088 0.025398 -0.004379 -0.002581 0.005263 0.020331
# 3 -0.002154 -0.004379 0.006725 0.001621 -0.002197 -0.003250
# 4 0.003286 -0.002581 0.001621 0.026887 0.000954 -0.001477
# 5 0.005008 0.005263 -0.002197 0.000954 0.030925 0.016103
# 6 0.009239 0.020331 -0.003250 -0.001477 0.016103 0.075107
#
#
# Mechanical properties :
#
#
# Convention : Reuss Voigt Hill
#
# Bulk Modulus (GPa) = 33.62007 66.08505 49.85256
# Shear Modulus (GPa) = 25.11779 37.66936 31.39358
#
# Velocity S-wave (km/s) = 3.27506 4.01072 3.66141
# Velocity P-wave (km/s) = 5.35332 7.04755 6.25804
#
# Compressibility (1/GPa) = 0.02974413
#
# Stress axis : x y z
#
# Youngs Moduli (GPa) = 92.05086 39.37347 148.69768
#
# Poissons Ratio (x) = 0.00346 0.32036
# Poissons Ratio (y) = 0.00809 0.65111
# Poissons Ratio (z) = 0.19832 0.17241
#
# Static dielectric constant tensor:
#      x y z
#    x 1.840660 0.068730 0.014400 
#    y 0.068730 2.101060 0.067530 
#    z 0.014400 0.067530 2.064720 
# 
# From -- ./inp_files/352168.got.cif
#   From: 2010.05.17/outbox.cif.g08.bks.cpg/sg2_177_cif.got.tgz:352168.got - 2010.06.03 11:33:40.
