data_PCOD9043473
_publ_section_title
;
Structure prediction by ZEFSAII (Michael W. Deem and Ramdas Pophale) SiO2 
 PCOD9043473
Probable space group: P -1
;
_chemical_formula_sum "Si O2"
_cell_formula_units_Z 16
_cell_length_a 9.641335
_cell_length_b 8.872461
_cell_length_c 15.136034
_cell_angle_alpha 81.435457
_cell_angle_beta 119.905721
_cell_angle_gamma 53.963619
_cell_volume 704.180284
_symmetry_space_group_name_H-M "P -1"
_symmetry_group_IT_number 2
_symmetry_cell_setting 'triclinic'
loop_
_space_group_symop_operation_xyz
x,y,z
-x,-y,-z
loop_
_atom_site_type_symbol
_atom_site_label
_atom_site_fract_x
_atom_site_fract_y
_atom_site_fract_z
Si Si1 0.416723 0.378814 0.791588
Si Si2 0.026789 0.140215 0.733815
Si Si3 0.170919 0.692973 0.143494
Si Si4 0.933489 0.958832 0.574472
Si Si5 0.058029 0.302125 0.087576
Si Si6 0.149428 0.296141 0.638394
Si Si7 0.496039 0.149547 0.324028
Si Si8 0.454402 0.354943 0.003052
O O1 0.638545 0.316234 0.826639
O O2 0.354125 0.267548 0.735000
O O3 0.473366 0.285572 0.916271
O O4 0.164780 0.670995 0.687513
O O5 0.990954 0.335606 0.663805
O O6 0.936077 0.196173 0.801951
O O7 0.914633 0.094262 0.636821
O O8 0.326465 0.887649 0.852795
O O9 0.343953 0.414706 0.231817
O O10 0.970557 0.802733 0.991228
O O11 0.668603 0.061969 0.471607
O O12 0.000000 0.000000 0.500000
O O13 0.819002 0.458910 0.060306
O O14 0.295593 0.160784 0.240039
O O15 0.000000 0.500000 0.000000
O O16 0.000000 0.500000 0.500000
O O17 0.283427 0.055934 0.655746
O O18 0.500000 0.500000 0.000000
#
# Coordination Sequence:
#
# PCOD9043473 Si02
#       8
#     2   2   2   2   2   2   2   2
#     4  12  25  45  75 109 147 190 251 303 366 437
#     4  12  27  46  77 112 143 195 250 302 371 434
#     4  11  25  47  73 110 150 193 244 310 363 435
#     4  12  21  48  77  99 144 201 245 292 367 443
#     4  10  23  45  71 106 146 191 241 297 371 421
#     4  12  26  48  73 109 145 194 246 300 372 441
#     4  11  24  46  75 100 147 199 239 302 366 431
#     4  12  25  48  79 107 143 200 251 297 366 447
#
# _framework density 22.721454000000001
#
# number of rings (size 3 to 8) (size 9 to 14) (size 15 to 20)
#    0.000    0.500    6.250    1.500    5.250    2.500 
#    0.000    1.250    0.000    0.000    0.000    0.000 
#    0.000    0.000    0.000    0.000    0.000    0.000 
#
# Total GULP energy -89355.312794 kJ/mol
# GULP energy per Si atom -5584.707050 kJ/mol
# Density = 2.266974 g / cm^3
# Si number density = 22.721454 Si / 1000 Ang^3
#
#
#
# Elastic Constant Matrix: (Units=GPa)
#
#
# Indices 1 2 3 4 5 6 
#
# 1 133.9133 38.7690 63.6169 27.1283 18.5594 -10.2396
# 2 38.7690 116.4220 49.2904 24.2540 7.1558 3.7016
# 3 63.6169 49.2904 168.1457 27.6347 22.1955 1.9279
# 4 27.1283 24.2540 27.6347 52.4013 13.7312 0.6960
# 5 18.5594 7.1558 22.1955 13.7312 41.7641 7.5910
# 6 -10.2396 3.7016 1.9279 0.6960 7.5910 33.4603
#
#
#
# Elastic Compliance Matrix: (Units=1/GPa)
#
#
# Indices 1 2 3 4 5 6 
#
# 1 0.010502 -0.001792 -0.002709 -0.002480 -0.002881 0.004273
# 2 -0.001792 0.010731 -0.002102 -0.003299 0.001503 -0.001887
# 3 -0.002709 -0.002102 0.008102 -0.001310 -0.002214 -0.000534
# 4 -0.002480 -0.003299 -0.001310 0.024054 -0.005628 0.000458
# 5 -0.002881 0.001503 -0.002214 -0.005628 0.029350 -0.007462
# 6 0.004273 -0.001887 -0.000534 0.000458 -0.007462 0.033117
#
#
# Mechanical properties :
#
#
# Convention : Reuss Voigt Hill
#
# Bulk Modulus (GPa) = 62.00240 80.20373 71.10306
# Shear Modulus (GPa) = 37.19149 43.31211 40.25180
#
# Velocity S-wave (km/s) = 4.05018 4.37077 4.21352
# Velocity P-wave (km/s) = 7.01564 7.80043 7.41842
#
# Compressibility (1/GPa) = 0.01612841
#
# Stress axis : x y z
#
# Youngs Moduli (GPa) = 95.22079 93.18596 123.42547
#
# Poissons Ratio (x) = 0.16702 0.33435
# Poissons Ratio (y) = 0.17066 0.25946
# Poissons Ratio (z) = 0.25795 0.19589
#
# Static dielectric constant tensor:
#      x y z
#    x 1.801350 -0.017130 0.000630 
#    y -0.017130 1.835600 -0.020710 
#    z 0.000630 -0.020710 1.812150 
# 
# From -- ./inp_files/494942.got.cif
#   From: 2010.05.17/outbox.cif.g08.bks.cpg/sg2_248_cif.got.tgz:494942.got - 2010.06.03 11:33:40.
