data_PCOD9043834
_publ_section_title
;
Structure prediction by ZEFSAII (Michael W. Deem and Ramdas Pophale) SiO2 
 PCOD9043834
Probable space group: P -1
;
_chemical_formula_sum "Si O2"
_cell_formula_units_Z 14
_cell_length_a 8.659616
_cell_length_b 11.462986
_cell_length_c 5.413331
_cell_angle_alpha 94.717790
_cell_angle_beta 91.862658
_cell_angle_gamma 84.819385
_cell_volume 533.176086
_symmetry_space_group_name_H-M "P -1"
_symmetry_group_IT_number 2
_symmetry_cell_setting 'triclinic'
loop_
_space_group_symop_operation_xyz
x,y,z
-x,-y,-z
loop_
_atom_site_type_symbol
_atom_site_label
_atom_site_fract_x
_atom_site_fract_y
_atom_site_fract_z
Si Si1 0.781455 0.621684 0.927321
Si Si2 0.861264 0.404163 0.190396
Si Si3 0.214323 0.166997 0.710045
Si Si4 0.386469 0.933082 0.803364
Si Si5 0.422555 0.297608 0.436014
Si Si6 0.729364 0.296069 0.662451
Si Si7 0.109247 0.898603 0.139751
O O1 0.793447 0.536288 0.149376
O O2 0.752114 0.756616 0.034393
O O3 0.637544 0.601723 0.740181
O O4 0.951681 0.600941 0.808730
O O5 0.800592 0.352417 0.431812
O O6 0.810394 0.336554 0.926901
O O7 0.264204 0.249660 0.511833
O O8 0.035894 0.150020 0.729028
O O9 0.315932 0.044801 0.659744
O O10 0.481266 0.815733 0.695025
O O11 0.240415 0.889246 0.932757
O O12 0.500000 0.000000 0.000000
O O13 0.544841 0.329651 0.654328
O O14 0.767377 0.154605 0.649789
O O15 0.000000 0.000000 0.000000
#
# Coordination Sequence:
#
# PCOD9043834 Si02
#       7
#     2   2   2   2   2   2   2
#     4  11  26  47  77 109 150 206 262 317 384 456
#     4  11  28  49  80 109 154 206 265 321 380 462
#     4  11  23  45  71 106 151 194 260 305 379 459
#     4  11  22  45  71 109 150 195 245 315 385 457
#     4  12  27  43  78 109 158 201 254 319 400 452
#     4  12  26  50  75 113 157 198 255 324 389 454
#     4  10  23  45  77 106 151 200 254 305 382 462
#
# _framework density 26.257743999999999
#
# number of rings (size 3 to 8) (size 9 to 14) (size 15 to 20)
#    0.000    0.857    2.857    3.000    4.000    2.286 
#    0.000    4.286    0.000    0.000    0.000    0.000 
#    0.000    0.000    0.000    0.000    0.000    0.000 
#
# Total GULP energy -77972.328271 kJ/mol
# GULP energy per Si atom -5569.452019 kJ/mol
# Density = 2.619798 g / cm^3
# Si number density = 26.257744 Si / 1000 Ang^3
#
#
#
# Elastic Constant Matrix: (Units=GPa)
#
#
# Indices 1 2 3 4 5 6 
#
# 1 107.6803 39.0942 61.4228 -19.1480 0.4127 -20.0447
# 2 39.0942 113.1413 36.7203 -17.7284 13.7545 -19.7759
# 3 61.4228 36.7203 120.5040 -46.7414 2.5459 -17.2539
# 4 -19.1480 -17.7284 -46.7414 54.4756 -1.3801 2.4387
# 5 0.4127 13.7545 2.5459 -1.3801 62.9737 -15.5898
# 6 -20.0447 -19.7759 -17.2539 2.4387 -15.5898 24.0322
#
#
#
# Elastic Compliance Matrix: (Units=1/GPa)
#
#
# Indices 1 2 3 4 5 6 
#
# 1 0.014953 -0.002235 -0.006328 -0.001189 0.002570 0.007877
# 2 -0.002235 0.011329 -0.000580 0.002101 -0.000834 0.006288
# 3 -0.006328 -0.000580 0.017293 0.012177 0.001285 0.006258
# 4 -0.001189 0.002101 0.012177 0.028771 0.001562 0.007573
# 5 0.002570 -0.000834 0.001285 0.001562 0.019749 0.015033
# 6 0.007877 0.006288 0.006258 0.007573 0.015033 0.066831
#
#
# Mechanical properties :
#
#
# Convention : Reuss Voigt Hill
#
# Bulk Modulus (GPa) = 39.54430 68.42224 53.98327
# Shear Modulus (GPa) = 26.93354 41.90218 34.41786
#
# Velocity S-wave (km/s) = 3.20619 3.99908 3.62438
# Velocity P-wave (km/s) = 5.36646 6.88753 6.17402
#
# Compressibility (1/GPa) = 0.02528809
#
# Stress axis : x y z
#
# Youngs Moduli (GPa) = 66.87605 88.27267 57.82672
#
# Poissons Ratio (x) = 0.19726 0.36594
# Poissons Ratio (y) = 0.14945 0.03355
# Poissons Ratio (z) = 0.42321 0.05122
#
# Static dielectric constant tensor:
#      x y z
#    x 2.043750 0.043580 0.067270 
#    y 0.043580 2.147400 0.077230 
#    z 0.067270 0.077230 2.179270 
# 
# From -- ./inp_files/27195.got.cif
#   From: 2010.05.17/outbox.cif.g08.bks.cpg/sg2_14_cif.got.tgz:27195.got - 2010.06.03 11:33:40.
