data_PCOD9043340
_publ_section_title
;
Structure prediction by ZEFSAII (Michael W. Deem and Ramdas Pophale) SiO2 
 PCOD9043340
Probable space group: P -1
;
_chemical_formula_sum "Si O2"
_cell_formula_units_Z 16
_cell_length_a 12.443074
_cell_length_b 5.227405
_cell_length_c 26.593952
_cell_angle_alpha 120.354337
_cell_angle_beta 26.271490
_cell_angle_gamma 111.889545
_cell_volume 645.918724
_symmetry_space_group_name_H-M "P -1"
_symmetry_group_IT_number 2
_symmetry_cell_setting 'triclinic'
loop_
_space_group_symop_operation_xyz
x,y,z
-x,-y,-z
loop_
_atom_site_type_symbol
_atom_site_label
_atom_site_fract_x
_atom_site_fract_y
_atom_site_fract_z
Si Si1 0.066115 0.598389 0.144834
Si Si2 0.747086 0.420322 0.119398
Si Si3 0.440451 0.246399 0.677278
Si Si4 0.524929 0.480314 0.115068
Si Si5 0.140038 0.288318 0.187187
Si Si6 0.695542 0.617084 0.464300
Si Si7 0.643687 0.875366 0.705580
Si Si8 0.884588 0.530920 0.486573
O O1 0.168933 0.386792 0.127604
O O2 0.785239 0.583836 0.246388
O O3 0.072774 0.956048 0.185865
O O4 0.239188 0.484980 0.013429
O O5 0.648970 0.716638 0.224358
O O6 0.624340 0.332948 0.111130
O O7 0.639459 0.185769 0.178890
O O8 0.000000 0.500000 0.000000
O O9 0.693971 0.358482 0.576590
O O10 0.521443 0.915614 0.588647
O O11 0.374374 0.295217 0.124784
O O12 0.366604 0.803902 0.231792
O O13 0.928252 0.568263 0.324340
O O14 0.500000 0.500000 0.500000
O O15 0.830049 0.487029 0.446793
O O16 0.780548 0.849020 0.590839
O O17 0.836402 0.624108 0.631866
#
# Coordination Sequence:
#
# PCOD9043340 Si02
#       8
#     2   2   2   2   2   2   2   2
#     4  12  28  49  72 110 153 199 251 307 368 445
#     4  11  24  45  70 108 144 191 242 305 377 447
#     4  11  24  44  71 107 150 190 250 307 373 443
#     4  12  26  45  75 103 147 196 245 311 370 453
#     4  12  29  47  75 107 150 201 253 309 369 440
#     4  12  24  41  71  99 144 190 242 306 362 437
#     4  10  24  44  74 105 141 190 243 308 377 439
#     4  10  23  45  70 106 145 186 247 312 367 447
#
# _framework density 24.770917000000001
#
# number of rings (size 3 to 8) (size 9 to 14) (size 15 to 20)
#    0.000    0.750    2.500    3.750    7.000    1.500 
#    0.000    5.000    0.000    0.000    0.000    0.000 
#    0.000    0.000    0.000    0.000    0.000    0.000 
#
# Total GULP energy -89232.885603 kJ/mol
# GULP energy per Si atom -5577.055350 kJ/mol
# Density = 2.471454 g / cm^3
# Si number density = 24.770917 Si / 1000 Ang^3
#
#
#
# Elastic Constant Matrix: (Units=GPa)
#
#
# Indices 1 2 3 4 5 6 
#
# 1 110.0026 32.9111 2.8737 2.9538 11.9741 19.3515
# 2 32.9111 70.2888 14.2679 -3.8942 0.7311 13.3215
# 3 2.8737 14.2679 115.7677 -4.9972 27.1132 13.6418
# 4 2.9538 -3.8942 -4.9972 42.2664 5.7208 2.5382
# 5 11.9741 0.7311 27.1132 5.7208 52.8315 -7.9230
# 6 19.3515 13.3215 13.6418 2.5382 -7.9230 31.8214
#
#
#
# Elastic Compliance Matrix: (Units=1/GPa)
#
#
# Indices 1 2 3 4 5 6 
#
# 1 0.012396 -0.004736 0.002431 0.000162 -0.005194 -0.007904
# 2 -0.004736 0.017581 -0.001780 0.001821 0.001005 -0.003611
# 3 0.002431 -0.001780 0.011728 0.002617 -0.008023 -0.007967
# 4 0.000162 0.001821 0.002617 0.025102 -0.004904 -0.005206
# 5 -0.005194 0.001005 -0.008023 -0.004904 0.026723 0.013222
# 6 -0.007904 -0.003611 -0.007967 -0.005206 0.013222 0.044867
#
#
# Mechanical properties :
#
#
# Convention : Reuss Voigt Hill
#
# Bulk Modulus (GPa) = 29.82155 44.01827 36.91991
# Shear Modulus (GPa) = 31.69656 41.78430 36.74043
#
# Velocity S-wave (km/s) = 3.58101 4.11156 3.85542
# Velocity P-wave (km/s) = 5.40030 6.35205 5.89542
#
# Compressibility (1/GPa) = 0.03353280
#
# Stress axis : x y z
#
# Youngs Moduli (GPa) = 80.67273 56.87943 85.26617
#
# Poissons Ratio (x) = 0.26941 -0.20728
# Poissons Ratio (y) = 0.38211 0.15182
# Poissons Ratio (z) = -0.19611 0.10127
#
# Static dielectric constant tensor:
#      x y z
#    x 4.776020 2.682610 3.216850 
#    y 2.682610 4.510320 3.022110 
#    z 3.216850 3.022110 5.595480 
# 
# From -- ./inp_files/70778.got.cif
#   From: 2010.05.17/outbox.cif.g08.bks.cpg/sg2_36_cif.got.tgz:70778.got - 2010.06.03 11:33:40.
