data_PCOD9043649
_publ_section_title
;
Structure prediction by ZEFSAII (Michael W. Deem and Ramdas Pophale) SiO2 
 PCOD9043649
Probable space group: P -1
;
_chemical_formula_sum "Si O2"
_cell_formula_units_Z 14
_cell_length_a 9.072151
_cell_length_b 9.383460
_cell_length_c 12.643600
_cell_angle_alpha 137.883100
_cell_angle_beta 63.235752
_cell_angle_gamma 99.861954
_cell_volume 620.235211
_symmetry_space_group_name_H-M "P -1"
_symmetry_group_IT_number 2
_symmetry_cell_setting 'triclinic'
loop_
_space_group_symop_operation_xyz
x,y,z
-x,-y,-z
loop_
_atom_site_type_symbol
_atom_site_label
_atom_site_fract_x
_atom_site_fract_y
_atom_site_fract_z
Si Si1 0.406647 0.227507 0.603032
Si Si2 0.666620 0.908974 0.969115
Si Si3 0.977157 0.706752 0.193670
Si Si4 0.444717 0.514261 0.147734
Si Si5 0.632773 0.266359 0.360452
Si Si6 0.908133 0.235683 0.606862
Si Si7 0.011296 0.842736 0.684490
O O1 0.208762 0.243210 0.665774
O O2 0.419921 0.440564 0.786113
O O3 0.508764 0.198994 0.446299
O O4 0.500000 0.000000 0.500000
O O5 0.674019 0.094510 0.155616
O O6 0.628545 0.691803 0.912867
O O7 0.842469 0.856030 0.815156
O O8 0.500000 0.000000 0.000000
O O9 0.101143 0.621690 0.206402
O O10 0.992802 0.915075 0.231707
O O11 0.000000 0.500000 0.000000
O O12 0.288438 0.731338 0.337972
O O13 0.500000 0.500000 0.000000
O O14 0.500000 0.500000 0.500000
O O15 0.813177 0.253786 0.357419
O O16 0.990094 0.284524 0.497578
O O17 0.000000 0.000000 0.500000
#
# Coordination Sequence:
#
# PCOD9043649 Si02
#       7
#     2   2   2   2   2   2   2
#     4  12  23  47  75 107 144 190 253 301 369 438
#     4  12  31  48  75 111 152 202 249 314 382 451
#     4  11  25  41  78 111 144 192 249 312 367 448
#     4  12  26  46  75 108 151 192 250 310 371 442
#     4  12  27  50  77 108 151 199 250 310 380 454
#     4  10  23  45  73 107 144 194 243 308 371 438
#     4  11  26  52  72 106 158 195 255 308 376 450
#
# _framework density 22.572084
#
# number of rings (size 3 to 8) (size 9 to 14) (size 15 to 20)
#    0.000    0.571    2.857    3.857   12.000    1.714 
#    0.000    0.000    0.000    0.000    0.000    0.000 
#    0.000    0.000    0.000    0.000    0.000    0.000 
#
# Total GULP energy -78098.456412 kJ/mol
# GULP energy per Si atom -5578.461172 kJ/mol
# Density = 2.252071 g / cm^3
# Si number density = 22.572084 Si / 1000 Ang^3
#
#
#
# Elastic Constant Matrix: (Units=GPa)
#
#
# Indices 1 2 3 4 5 6 
#
# 1 128.6761 61.4362 36.6113 -8.2378 -6.2177 -5.1881
# 2 61.4362 137.4347 56.1696 -22.7039 -17.3477 -6.1802
# 3 36.6113 56.1696 124.1535 -30.0821 6.9215 2.3112
# 4 -8.2378 -22.7039 -30.0821 48.0179 4.0282 -7.0987
# 5 -6.2177 -17.3477 6.9215 4.0282 58.0106 -6.5159
# 6 -5.1881 -6.1802 2.3112 -7.0987 -6.5159 38.2426
#
#
#
# Elastic Compliance Matrix: (Units=1/GPa)
#
#
# Indices 1 2 3 4 5 6 
#
# 1 0.010071 -0.004039 -0.001402 -0.000980 0.000180 0.000647
# 2 -0.004039 0.011578 -0.003674 0.002569 0.003585 0.002633
# 3 -0.001402 -0.003674 0.011638 0.005426 -0.003128 -0.001013
# 4 -0.000980 0.002569 0.005426 0.026055 -0.001280 0.004573
# 5 0.000180 0.003585 -0.003128 -0.001280 0.019222 0.003830
# 6 0.000647 0.002633 -0.001013 0.004573 0.003830 0.028225
#
#
# Mechanical properties :
#
#
# Convention : Reuss Voigt Hill
#
# Bulk Modulus (GPa) = 66.41029 77.63316 72.02172
# Shear Modulus (GPa) = 38.45056 44.59070 41.52063
#
# Velocity S-wave (km/s) = 4.13177 4.44946 4.29356
# Velocity P-wave (km/s) = 7.22823 7.80160 7.52038
#
# Compressibility (1/GPa) = 0.01505791
#
# Stress axis : x y z
#
# Youngs Moduli (GPa) = 99.29739 86.36730 85.92533
#
# Poissons Ratio (x) = 0.34884 0.12045
# Poissons Ratio (y) = 0.40106 0.31567
# Poissons Ratio (z) = 0.13920 0.31730
#
# Static dielectric constant tensor:
#      x y z
#    x 1.793340 0.041360 0.165340 
#    y 0.041360 1.824890 0.028780 
#    z 0.165340 0.028780 1.891880 
# 
# From -- ./inp_files/190293.got.cif
#   From: 2010.05.17/outbox.cif.g08.bks.cpg/sg2_96_cif.got.tgz:190293.got - 2010.06.03 11:33:40.
