data_PCOD9043075
_publ_section_title
;
Structure prediction by ZEFSAII (Michael W. Deem and Ramdas Pophale) SiO2 
 PCOD9043075
Probable space group: P -1
;
_chemical_formula_sum "Si O2"
_cell_formula_units_Z 16
_cell_length_a 14.801942
_cell_length_b 12.887019
_cell_length_c 5.561444
_cell_angle_alpha 110.917704
_cell_angle_beta 65.225497
_cell_angle_gamma 137.877878
_cell_volume 644.184304
_symmetry_space_group_name_H-M "P -1"
_symmetry_group_IT_number 2
_symmetry_cell_setting 'triclinic'
loop_
_space_group_symop_operation_xyz
x,y,z
-x,-y,-z
loop_
_atom_site_type_symbol
_atom_site_label
_atom_site_fract_x
_atom_site_fract_y
_atom_site_fract_z
Si Si1 0.835023 0.020368 0.596394
Si Si2 0.694358 0.271509 0.797844
Si Si3 0.936665 0.694800 0.113980
Si Si4 0.151029 0.794834 0.646002
Si Si5 0.146649 0.156760 0.860406
Si Si6 0.700675 0.412543 0.408233
Si Si7 0.452106 0.340167 0.841477
Si Si8 0.601724 0.930441 0.063100
O O1 0.837671 0.891207 0.456075
O O2 0.884511 0.119435 0.381747
O O3 0.686963 0.962434 0.759266
O O4 0.936468 0.132471 0.788249
O O5 0.808538 0.265006 0.643689
O O6 0.712038 0.353177 0.594825
O O7 0.535742 0.103902 0.829490
O O8 0.699041 0.339983 0.102317
O O9 0.847243 0.706232 0.056127
O O10 0.843052 0.589403 0.354667
O O11 0.017253 0.662944 0.849812
O O12 0.287444 0.925312 0.763972
O O13 0.288264 0.224461 0.876906
O O14 0.000000 0.000000 0.000000
O O15 0.564335 0.384981 0.554766
O O16 0.451384 0.232504 0.927256
O O17 0.500000 0.500000 0.000000
#
# Coordination Sequence:
#
# PCOD9043075 Si02
#       8
#     2   2   2   2   2   2   2   2
#     4  11  23  43  70 101 144 182 256 300 367 441
#     4  11  27  47  76 103 149 193 246 309 369 431
#     4  11  27  42  71 101 146 194 248 302 370 443
#     4  11  24  46  72 105 138 193 247 309 360 433
#     4  12  23  43  72 102 147 193 243 306 370 437
#     4  11  29  50  71 111 149 194 246 301 374 446
#     4  11  26  45  74 109 153 192 243 303 376 448
#     4  10  23  45  68 108 139 185 244 305 365 446
#
# _framework density 24.837610999999999
#
# number of rings (size 3 to 8) (size 9 to 14) (size 15 to 20)
#    0.000    1.000    2.500    2.250   14.000    2.000 
#    0.000    0.000    0.000    0.000    0.000    0.000 
#    0.000    0.000    0.000    0.000    0.000    0.000 
#
# Total GULP energy -89374.240359 kJ/mol
# GULP energy per Si atom -5585.890022 kJ/mol
# Density = 2.478108 g / cm^3
# Si number density = 24.837611 Si / 1000 Ang^3
#
#
#
# Elastic Constant Matrix: (Units=GPa)
#
#
# Indices 1 2 3 4 5 6 
#
# 1 74.6990 20.6869 40.4997 -12.3109 -22.4364 -3.0663
# 2 20.6869 77.1090 48.3097 -17.3635 -9.0573 -1.9204
# 3 40.4997 48.3097 164.9344 -13.4310 -30.8478 -6.9322
# 4 -12.3109 -17.3635 -13.4310 50.0810 1.2285 2.4231
# 5 -22.4364 -9.0573 -30.8478 1.2285 44.1484 -4.4984
# 6 -3.0663 -1.9204 -6.9322 2.4231 -4.4984 24.2433
#
#
#
# Elastic Compliance Matrix: (Units=1/GPa)
#
#
# Indices 1 2 3 4 5 6 
#
# 1 0.017852 -0.001894 -0.002103 0.002861 0.007399 0.002594
# 2 -0.001894 0.017076 -0.004340 0.004341 -0.000682 -0.000688
# 3 -0.002103 -0.004340 0.008810 0.000099 0.004472 0.002729
# 4 0.002861 0.004341 0.000099 0.022218 0.001676 -0.001176
# 5 0.007399 -0.000682 0.004472 0.001676 0.030122 0.007582
# 6 0.002594 -0.000688 0.002729 -0.001176 0.007582 0.043827
#
#
# Mechanical properties :
#
#
# Convention : Reuss Voigt Hill
#
# Bulk Modulus (GPa) = 36.94874 59.52613 48.23743
# Shear Modulus (GPa) = 30.19346 37.51094 33.85220
#
# Velocity S-wave (km/s) = 3.49038 3.89041 3.69581
# Velocity P-wave (km/s) = 5.58140 6.64820 6.13802
#
# Compressibility (1/GPa) = 0.02706453
#
# Stress axis : x y z
#
# Youngs Moduli (GPa) = 56.01590 58.56265 113.51202
#
# Poissons Ratio (x) = 0.11091 0.23872
# Poissons Ratio (y) = 0.10609 0.49259
# Poissons Ratio (z) = 0.11780 0.25413
#
# Static dielectric constant tensor:
#      x y z
#    x 1.964760 0.013810 -0.004210 
#    y 0.013810 2.035540 0.024800 
#    z -0.004210 0.024800 1.997940 
# 
# From -- ./inp_files/98396.got.cif
#   From: 2010.05.17/outbox.cif.g08.bks.cpg/sg2_50_cif.got.tgz:98396.got - 2010.06.03 11:33:40.
