data_PCOD9043573
_publ_section_title
;
Structure prediction by ZEFSAII (Michael W. Deem and Ramdas Pophale) SiO2 
 PCOD9043573
Probable space group: P -1
;
_chemical_formula_sum "Si O2"
_cell_formula_units_Z 14
_cell_length_a 12.278078
_cell_length_b 5.174091
_cell_length_c 11.869484
_cell_angle_alpha 91.578119
_cell_angle_beta 131.160375
_cell_angle_gamma 72.401307
_cell_volume 525.455911
_symmetry_space_group_name_H-M "P -1"
_symmetry_group_IT_number 2
_symmetry_cell_setting 'triclinic'
loop_
_space_group_symop_operation_xyz
x,y,z
-x,-y,-z
loop_
_atom_site_type_symbol
_atom_site_label
_atom_site_fract_x
_atom_site_fract_y
_atom_site_fract_z
Si Si1 0.827155 0.653501 0.273412
Si Si2 0.837837 0.774180 0.531043
Si Si3 0.866577 0.786391 0.944689
Si Si4 0.575937 0.470182 0.173661
Si Si5 0.603847 0.682174 0.534441
Si Si6 0.402244 0.099758 0.089853
Si Si7 0.873059 0.155722 0.751423
O O1 0.845138 0.806152 0.401627
O O2 0.751720 0.442162 0.272068
O O3 0.996801 0.485960 0.334161
O O4 0.695154 0.829099 0.094553
O O5 0.687223 0.712530 0.471955
O O6 0.843688 0.031937 0.611930
O O7 0.946331 0.911588 0.097836
O O8 0.721920 0.744968 0.899648
O O9 0.000000 0.500000 0.000000
O O10 0.822013 0.995488 0.813265
O O11 0.536780 0.221828 0.195466
O O12 0.470664 0.772090 0.154865
O O13 0.500000 0.500000 0.000000
O O14 0.500000 0.500000 0.500000
O O15 0.768319 0.480346 0.697684
O O16 0.500000 0.000000 0.500000
#
# Coordination Sequence:
#
# PCOD9043573 Si02
#       7
#     2   2   2   2   2   2   2
#     4  10  23  48  77 113 155 203 257 317 391 470
#     4  11  25  51  76 113 155 206 256 323 388 478
#     4  11  26  45  79 114 157 204 262 329 385 471
#     4  10  23  45  72 107 150 194 251 315 379 454
#     4  12  26  52  78 108 158 206 262 323 384 468
#     4  11  24  47  76 111 152 198 254 319 387 460
#     4  11  25  48  77 115 153 209 264 318 400 456
#
# _framework density 26.643528
#
# number of rings (size 3 to 8) (size 9 to 14) (size 15 to 20)
#    0.000    1.143    1.429    4.286    8.000    1.143 
#   12.857    3.571    0.000    0.000    0.000    0.000 
#    0.000    0.000    0.000    0.000    0.000    0.000 
#
# Total GULP energy -78288.613605 kJ/mol
# GULP energy per Si atom -5592.043829 kJ/mol
# Density = 2.658289 g / cm^3
# Si number density = 26.643528 Si / 1000 Ang^3
#
#
#
# Elastic Constant Matrix: (Units=GPa)
#
#
# Indices 1 2 3 4 5 6 
#
# 1 146.1154 40.4277 11.1118 4.0105 23.0642 -30.1392
# 2 40.4277 141.5471 59.6620 -16.8012 -4.5339 -14.5176
# 3 11.1118 59.6620 116.9012 -2.0359 11.6179 -17.9672
# 4 4.0105 -16.8012 -2.0359 49.6814 0.1090 4.2674
# 5 23.0642 -4.5339 11.6179 0.1090 41.7077 -1.9681
# 6 -30.1392 -14.5176 -17.9672 4.2674 -1.9681 34.0457
#
#
#
# Elastic Compliance Matrix: (Units=1/GPa)
#
#
# Indices 1 2 3 4 5 6 
#
# 1 0.010823 -0.003983 0.003089 -0.002893 -0.006824 0.009481
# 2 -0.003983 0.011185 -0.006093 0.004031 0.005002 -0.002188
# 3 0.003089 -0.006093 0.012957 -0.002363 -0.005646 0.006944
# 4 -0.002893 0.004031 -0.002363 0.022028 0.002417 -0.004711
# 5 -0.006824 0.005002 -0.005646 0.002417 0.029601 -0.005479
# 6 0.009481 -0.002188 0.006944 -0.004711 -0.005479 0.040771
#
#
# Mechanical properties :
#
#
# Convention : Reuss Voigt Hill
#
# Bulk Modulus (GPa) = 47.63747 69.66295 58.65021
# Shear Modulus (GPa) = 33.70716 44.64444 39.17580
#
# Velocity S-wave (km/s) = 3.56071 4.09788 3.83870
# Velocity P-wave (km/s) = 5.90112 6.97088 6.45819
#
# Compressibility (1/GPa) = 0.02099188
#
# Stress axis : x y z
#
# Youngs Moduli (GPa) = 92.39418 89.40735 77.17549
#
# Poissons Ratio (x) = 0.35609 -0.23839
# Poissons Ratio (y) = 0.36799 0.47022
# Poissons Ratio (z) = -0.28539 0.54475
#
# Static dielectric constant tensor:
#      x y z
#    x 2.472610 0.261050 -0.067630 
#    y 0.261050 2.246260 0.048250 
#    z -0.067630 0.048250 2.155280 
# 
# From -- ./inp_files/410329.got.cif
#   From: 2010.05.17/outbox.cif.g08.bks.cpg/sg2_206_cif.got.tgz:410329.got - 2010.06.03 11:33:40.
