data_PCOD9043675
_publ_section_title
;
Structure prediction by ZEFSAII (Michael W. Deem and Ramdas Pophale) SiO2 
 PCOD9043675
Probable space group: P -1
;
_chemical_formula_sum "Si O2"
_cell_formula_units_Z 14
_cell_length_a 11.972149
_cell_length_b 21.439325
_cell_length_c 9.693251
_cell_angle_alpha 26.402857
_cell_angle_beta 142.507265
_cell_angle_gamma 143.572534
_cell_volume 631.540607
_symmetry_space_group_name_H-M "P -1"
_symmetry_group_IT_number 2
_symmetry_cell_setting 'triclinic'
loop_
_space_group_symop_operation_xyz
x,y,z
-x,-y,-z
loop_
_atom_site_type_symbol
_atom_site_label
_atom_site_fract_x
_atom_site_fract_y
_atom_site_fract_z
Si Si1 0.473946 0.559000 0.207932
Si Si2 0.410929 0.121710 0.225271
Si Si3 0.162145 0.967324 0.552307
Si Si4 0.358773 0.234806 0.392005
Si Si5 0.253859 0.232926 0.578333
Si Si6 0.224416 0.724689 0.286254
Si Si7 0.819178 0.576860 0.300039
O O1 0.500000 0.500000 0.500000
O O2 0.302104 0.412086 0.274797
O O3 0.676674 0.583292 0.273470
O O4 0.447487 0.717180 0.897256
O O5 0.500000 0.000000 0.500000
O O6 0.279607 0.041909 0.383631
O O7 0.298208 0.167484 0.895736
O O8 0.957372 0.859732 0.505089
O O9 0.185270 0.107376 0.397417
O O10 0.240341 0.867618 0.927598
O O11 0.387120 0.208942 0.631556
O O12 0.564597 0.254517 0.484330
O O13 0.292358 0.376592 0.028000
O O14 0.179480 0.586567 0.409004
O O15 0.045974 0.683592 0.301805
#
# Coordination Sequence:
#
# PCOD9043675 Si02
#       7
#     2   2   2   2   2   2   2
#     4  10  23  45  73  98 143 194 234 289 360 427
#     4  11  25  47  72 103 141 190 242 297 358 429
#     4  12  25  45  68 107 142 188 243 294 362 420
#     4  12  23  44  71 104 148 185 235 301 356 415
#     4  11  24  45  73 100 147 194 231 295 361 427
#     4  11  25  40  70 108 141 189 237 295 355 427
#     4  11  23  44  69 103 144 182 243 288 359 419
#
# _framework density 22.168012999999998
#
# number of rings (size 3 to 8) (size 9 to 14) (size 15 to 20)
#    0.000    0.857    4.286    2.571    2.000    0.000 
#    0.000    0.714    0.000    0.000    0.000    0.000 
#    0.000    0.000    0.000    0.000    0.000    0.000 
#
# Total GULP energy -78085.524869 kJ/mol
# GULP energy per Si atom -5577.537491 kJ/mol
# Density = 2.211756 g / cm^3
# Si number density = 22.168013 Si / 1000 Ang^3
#
#
#
# Elastic Constant Matrix: (Units=GPa)
#
#
# Indices 1 2 3 4 5 6 
#
# 1 69.4851 23.8663 22.3516 -18.7645 -21.9405 -7.0746
# 2 23.8663 135.7291 16.4391 -22.9393 6.4656 -0.1239
# 3 22.3516 16.4391 58.4127 -28.8700 3.5908 -7.0653
# 4 -18.7645 -22.9393 -28.8700 41.9406 -7.8974 1.3806
# 5 -21.9405 6.4656 3.5908 -7.8974 41.5595 3.2963
# 6 -7.0746 -0.1239 -7.0653 1.3806 3.2963 44.1843
#
#
#
# Elastic Compliance Matrix: (Units=1/GPa)
#
#
# Indices 1 2 3 4 5 6 
#
# 1 0.024312 -0.002933 -0.004905 0.008710 0.015236 0.001691
# 2 -0.002933 0.008481 0.000417 0.003196 -0.002272 -0.000309
# 3 -0.004905 0.000417 0.027556 0.016488 -0.002161 0.003268
# 4 0.008710 0.003196 0.016488 0.042781 0.010655 0.001908
# 5 0.015236 -0.002272 -0.002161 0.010655 0.034737 -0.000837
# 6 0.001691 -0.000309 0.003268 0.001908 -0.000837 0.023428
#
#
# Mechanical properties :
#
#
# Convention : Reuss Voigt Hill
#
# Bulk Modulus (GPa) = 21.97395 43.21566 32.59480
# Shear Modulus (GPa) = 26.13631 38.93486 32.53559
#
# Velocity S-wave (km/s) = 3.43740 4.19543 3.83519
# Velocity P-wave (km/s) = 5.06836 6.55788 5.86063
#
# Compressibility (1/GPa) = 0.04550844
#
# Stress axis : x y z
#
# Youngs Moduli (GPa) = 41.13182 117.91197 36.28985
#
# Poissons Ratio (x) = 0.34584 0.17799
# Poissons Ratio (y) = 0.12064 -0.01515
# Poissons Ratio (z) = 0.20173 -0.04922
#
# Static dielectric constant tensor:
#      x y z
#    x 1.869650 0.042270 -0.016510 
#    y 0.042270 1.865160 -0.034910 
#    z -0.016510 -0.034910 1.796690 
# 
# From -- ./inp_files/281439.got.cif
#   From: 2010.05.17/outbox.cif.g08.bks.cpg/sg2_141_cif.got.tgz:281439.got - 2010.06.03 11:33:40.
