data_PCOD9043585
_publ_section_title
;
Structure prediction by ZEFSAII (Michael W. Deem and Ramdas Pophale) SiO2 
 PCOD9043585
Probable space group: P -1
;
_chemical_formula_sum "Si O2"
_cell_formula_units_Z 14
_cell_length_a 6.718799
_cell_length_b 10.986894
_cell_length_c 8.209576
_cell_angle_alpha 81.875552
_cell_angle_beta 86.159739
_cell_angle_gamma 75.878994
_cell_volume 581.476196
_symmetry_space_group_name_H-M "P -1"
_symmetry_group_IT_number 2
_symmetry_cell_setting 'triclinic'
loop_
_space_group_symop_operation_xyz
x,y,z
-x,-y,-z
loop_
_atom_site_type_symbol
_atom_site_label
_atom_site_fract_x
_atom_site_fract_y
_atom_site_fract_z
Si Si1 0.034827 0.827269 0.829704
Si Si2 0.585496 0.070704 0.237900
Si Si3 0.687386 0.840692 0.065456
Si Si4 0.269152 0.251062 0.394240
Si Si5 0.585617 0.495292 0.683506
Si Si6 0.044414 0.370696 0.702847
Si Si7 0.827016 0.460183 0.133513
O O1 0.186203 0.912779 0.759207
O O2 0.162316 0.684410 0.888668
O O3 0.893908 0.793902 0.701293
O O4 0.872682 0.891201 0.963694
O O5 0.460469 0.130370 0.391238
O O6 0.588248 0.930645 0.201298
O O7 0.475987 0.153858 0.071015
O O8 0.814998 0.705980 0.145834
O O9 0.359232 0.370048 0.311580
O O10 0.156871 0.295560 0.558955
O O11 0.500000 0.500000 0.500000
O O12 0.414233 0.480581 0.827285
O O13 0.799877 0.389834 0.709273
O O14 0.082437 0.511152 0.699106
O O15 0.000000 0.500000 0.000000
#
# Coordination Sequence:
#
# PCOD9043585 Si02
#       7
#     2   2   2   2   2   2   2
#     4  11  21  42  68  93 135 178 225 274 347 408
#     4  10  23  45  72  91 130 189 231 269 350 398
#     4  10  24  45  65  99 133 176 231 293 324 405
#     4  11  23  40  68 100 134 181 230 276 334 425
#     4  12  24  42  69  97 141 191 215 267 358 413
#     4  12  25  42  66 105 143 166 228 288 335 403
#     4  12  24  41  66 106 138 169 224 287 339 405
#
# _framework density 24.076653
#
# number of rings (size 3 to 8) (size 9 to 14) (size 15 to 20)
#    0.000    0.857    5.714    1.714    0.000    2.286 
#    0.000    0.714    0.000    0.000    0.000    0.000 
#    0.000    0.000    0.000    0.000    0.000    0.000 
#
# Total GULP energy -78047.641704 kJ/mol
# GULP energy per Si atom -5574.831550 kJ/mol
# Density = 2.402185 g / cm^3
# Si number density = 24.076653 Si / 1000 Ang^3
#
#
#
# Elastic Constant Matrix: (Units=GPa)
#
#
# Indices 1 2 3 4 5 6 
#
# 1 145.0681 19.2140 34.1573 6.3117 -16.6222 -8.2466
# 2 19.2140 69.6064 26.8443 26.0731 -0.4857 -15.9381
# 3 34.1573 26.8443 78.3000 27.4961 -10.9337 -12.9851
# 4 6.3117 26.0731 27.4961 48.2195 -14.8681 -2.2620
# 5 -16.6222 -0.4857 -10.9337 -14.8681 44.1763 16.9857
# 6 -8.2466 -15.9381 -12.9851 -2.2620 16.9857 37.3032
#
#
#
# Elastic Compliance Matrix: (Units=1/GPa)
#
#
# Indices 1 2 3 4 5 6 
#
# 1 0.008365 -0.002806 -0.003831 0.003852 0.004410 -0.002458
# 2 -0.002806 0.024199 -0.001170 -0.014901 -0.011307 0.013556
# 3 -0.003831 -0.001170 0.019043 -0.010189 -0.002381 0.005748
# 4 0.003852 -0.014901 -0.010189 0.038796 0.017457 -0.014658
# 5 0.004410 -0.011307 -0.002381 0.017457 0.037400 -0.020656
# 6 -0.002458 0.013556 0.005748 -0.014658 -0.020656 0.042574
#
#
# Mechanical properties :
#
#
# Convention : Reuss Voigt Hill
#
# Bulk Modulus (GPa) = 27.78481 50.37840 39.08161
# Shear Modulus (GPa) = 25.25383 40.12374 32.68879
#
# Velocity S-wave (km/s) = 3.24218 4.08671 3.68869
# Velocity P-wave (km/s) = 5.05775 6.57555 5.86595
#
# Compressibility (1/GPa) = 0.03599089
#
# Stress axis : x y z
#
# Youngs Moduli (GPa) = 119.54412 41.32379 52.51350
#
# Poissons Ratio (x) = 0.11596 0.20120
# Poissons Ratio (y) = 0.33546 0.06146
# Poissons Ratio (z) = 0.45803 0.04837
#
# Static dielectric constant tensor:
#      x y z
#    x 1.919760 -0.059710 -0.002290 
#    y -0.059710 1.969490 -0.055870 
#    z -0.002290 -0.055870 2.032010 
# 
# From -- ./inp_files/27014.got.cif
#   From: 2010.05.17/outbox.cif.g08.bks.cpg/sg2_14_cif.got.tgz:27014.got - 2010.06.03 11:33:40.
