data_PCOD9043418
_publ_section_title
;
Structure prediction by ZEFSAII (Michael W. Deem and Ramdas Pophale) SiO2 
 PCOD9043418
Probable space group: P -1
;
_chemical_formula_sum "Si O2"
_cell_formula_units_Z 13
_cell_length_a 8.939568
_cell_length_b 12.005763
_cell_length_c 7.898975
_cell_angle_alpha 121.842326
_cell_angle_beta 61.153887
_cell_angle_gamma 134.395302
_cell_volume 505.538064
_symmetry_space_group_name_H-M "P -1"
_symmetry_group_IT_number 2
_symmetry_cell_setting 'triclinic'
loop_
_space_group_symop_operation_xyz
x,y,z
-x,-y,-z
loop_
_atom_site_type_symbol
_atom_site_label
_atom_site_fract_x
_atom_site_fract_y
_atom_site_fract_z
Si Si1 0.749717 0.618465 0.005228
Si Si2 0.261900 0.232549 0.395906
Si Si3 0.701768 0.460743 0.219824
Si Si4 0.879541 0.347882 0.320071
Si Si5 0.500000 0.000000 0.500000
Si Si6 0.557389 0.960835 0.754366
Si Si7 0.138199 0.042932 0.787083
O O1 0.795261 0.521048 0.032665
O O2 0.801816 0.785965 0.178487
O O3 0.500000 0.500000 0.000000
O O4 0.940861 0.679909 0.820385
O O5 0.449074 0.321183 0.223677
O O6 0.280073 0.383708 0.590633
O O7 0.325541 0.122920 0.358132
O O8 0.028962 0.105564 0.358003
O O9 0.793976 0.394488 0.243800
O O10 0.656144 0.173556 0.355224
O O11 0.000000 0.500000 0.500000
O O12 0.659632 0.098443 0.668432
O O13 0.647032 0.939494 0.311958
O O14 0.500000 0.000000 0.000000
O O15 0.000000 0.000000 0.000000
#
# Coordination Sequence:
#
# PCOD9043418 Si02
#       7
#     2   2   2   2   1   2   2
#     4  12  27  44  72 108 145 190 253 304 370 456
#     4  10  23  45  71 100 149 187 239 305 377 438
#     4  10  24  44  74 103 139 195 244 304 375 454
#     4  11  27  47  73 103 150 195 245 315 381 447
#     4  12  28  44  80 114 148 202 252 310 386 458
#     4  11  25  49  73 109 152 196 254 317 379 455
#     4  12  27  47  73 112 153 198 247 314 376 449
#
# _framework density 25.715178999999999
#
# number of rings (size 3 to 8) (size 9 to 14) (size 15 to 20)
#    0.000    0.923    0.000    5.077   12.923    4.923 
#    0.000    0.000    0.000    0.000    0.000    0.000 
#    0.000    0.000    0.000    0.000    0.000    0.000 
#
# Total GULP energy -72391.296531 kJ/mol
# GULP energy per Si atom -5568.561272 kJ/mol
# Density = 2.565665 g / cm^3
# Si number density = 25.715179 Si / 1000 Ang^3
#
#
#
# Elastic Constant Matrix: (Units=GPa)
#
#
# Indices 1 2 3 4 5 6 
#
# 1 131.6100 47.3279 27.1679 -1.3127 -35.2539 4.7466
# 2 47.3279 112.4894 10.8609 15.4663 -8.9964 19.8393
# 3 27.1679 10.8609 92.7549 -4.6840 -32.9735 14.2908
# 4 -1.3127 15.4663 -4.6840 35.4391 0.5439 -3.0714
# 5 -35.2539 -8.9964 -32.9735 0.5439 53.7519 -8.6889
# 6 4.7466 19.8393 14.2908 -3.0714 -8.6889 65.3629
#
#
#
# Elastic Compliance Matrix: (Units=1/GPa)
#
#
# Indices 1 2 3 4 5 6 
#
# 1 0.011095 -0.004744 -0.000564 0.002458 0.006390 0.001723
# 2 -0.004744 0.012257 -0.000423 -0.005882 -0.001876 -0.003809
# 3 -0.000564 -0.000423 0.014189 0.001761 0.007956 -0.001793
# 4 0.002458 -0.005882 0.001761 0.031335 0.001867 0.002942
# 5 0.006390 -0.001876 0.007956 0.001867 0.027688 0.002134
# 6 0.001723 -0.003809 -0.001793 0.002942 0.002134 0.017144
#
#
# Mechanical properties :
#
#
# Convention : Reuss Voigt Hill
#
# Bulk Modulus (GPa) = 38.34316 56.39644 47.36980
# Shear Modulus (GPa) = 37.35182 47.67727 42.51455
#
# Velocity S-wave (km/s) = 3.81533 4.31054 4.07047
# Velocity P-wave (km/s) = 5.86106 6.83763 6.36809
#
# Compressibility (1/GPa) = 0.02608027
#
# Stress axis : x y z
#
# Youngs Moduli (GPa) = 90.13243 81.58520 70.47625
#
# Poissons Ratio (x) = 0.38706 0.03973
# Poissons Ratio (y) = 0.42761 0.02978
# Poissons Ratio (z) = 0.05081 0.03447
#
# Static dielectric constant tensor:
#      x y z
#    x 1.941500 0.130950 -0.016540 
#    y 0.130950 1.870720 -0.156010 
#    z -0.016540 -0.156010 2.398100 
# 
# From -- ./inp_files/155776.got.cif
#   From: 2010.05.17/outbox.cif.g08.bks.cpg/sg2_78_cif.got.tgz:155776.got - 2010.06.03 11:33:40.
