data_PCOD9043170
_publ_section_title
;
Structure prediction by ZEFSAII (Michael W. Deem and Ramdas Pophale) SiO2 
 PCOD9043170
Probable space group: P -1
;
_chemical_formula_sum "Si O2"
_cell_formula_units_Z 16
_cell_length_a 14.342707
_cell_length_b 13.197310
_cell_length_c 12.478467
_cell_angle_alpha 147.131793
_cell_angle_beta 140.714410
_cell_angle_gamma 29.783837
_cell_volume 627.797923
_symmetry_space_group_name_H-M "P -1"
_symmetry_group_IT_number 2
_symmetry_cell_setting 'triclinic'
loop_
_space_group_symop_operation_xyz
x,y,z
-x,-y,-z
loop_
_atom_site_type_symbol
_atom_site_label
_atom_site_fract_x
_atom_site_fract_y
_atom_site_fract_z
Si Si1 0.057428 0.657074 0.767880
Si Si2 0.447213 0.257809 0.683895
Si Si3 0.873301 0.195569 0.365128
Si Si4 0.981778 0.757753 0.193339
Si Si5 0.808471 0.074660 0.760881
Si Si6 0.139104 0.367884 0.243464
Si Si7 0.432227 0.817104 0.037761
Si Si8 0.324390 0.245661 0.999107
O O1 0.223608 0.470593 0.667973
O O2 0.013943 0.541816 0.718000
O O3 0.124145 0.784663 0.005363
O O4 0.878805 0.865822 0.724613
O O5 0.582662 0.243795 0.704741
O O6 0.500025 0.289914 0.878597
O O7 0.500000 0.000000 0.500000
O O8 0.816710 0.450918 0.569048
O O9 0.919531 0.018335 0.345819
O O10 0.716327 0.214446 0.169851
O O11 0.072394 0.047512 0.347683
O O12 0.202464 0.515443 0.183779
O O13 0.923110 0.694187 0.974010
O O14 0.838453 0.784462 0.177283
O O15 0.321270 0.102218 0.205295
O O16 0.593279 0.734928 0.020114
O O17 0.500000 0.000000 0.000000
#
# Coordination Sequence:
#
# PCOD9043170 Si02
#       8
#     2   2   2   2   2   2   2   2
#     4  11  22  42  63  90 133 177 226 276 326 390
#     4  12  26  41  64  99 133 178 229 274 334 403
#     4  11  23  41  70  98 138 182 223 277 341 394
#     4  10  23  45  69 103 133 173 228 274 341 403
#     4  11  22  41  63  93 131 177 223 276 329 389
#     4  11  21  42  70  95 138 183 221 279 334 396
#     4  11  23  45  66 100 136 174 230 277 338 401
#     4  11  21  44  80  95 135 183 214 282 347 397
#
# _framework density 25.485907000000001
#
# number of rings (size 3 to 8) (size 9 to 14) (size 15 to 20)
#    0.000    1.000    6.250    2.625    1.750    1.000 
#    0.000    7.500    0.000    0.000    0.000    0.000 
#    0.000    0.000    0.000    0.000    0.000    0.000 
#
# Total GULP energy -89582.792332 kJ/mol
# GULP energy per Si atom -5598.924521 kJ/mol
# Density = 2.542790 g / cm^3
# Si number density = 25.485907 Si / 1000 Ang^3
#
#
#
# Elastic Constant Matrix: (Units=GPa)
#
#
# Indices 1 2 3 4 5 6 
#
# 1 146.0095 16.1471 22.2339 -12.6656 13.3608 -28.4464
# 2 16.1471 122.5466 33.0586 14.2220 3.1839 -9.4766
# 3 22.2339 33.0586 126.4614 6.7306 20.4441 8.8503
# 4 -12.6656 14.2220 6.7306 38.2708 12.9621 -1.7660
# 5 13.3608 3.1839 20.4441 12.9621 39.6428 7.1530
# 6 -28.4464 -9.4766 8.8503 -1.7660 7.1530 48.3396
#
#
#
# Elastic Compliance Matrix: (Units=1/GPa)
#
#
# Indices 1 2 3 4 5 6 
#
# 1 0.009472 -0.000920 -0.001304 0.005904 -0.005581 0.006674
# 2 -0.000920 0.009472 -0.002504 -0.003963 0.001893 0.001349
# 3 -0.001304 -0.002504 0.009587 0.000010 -0.003866 -0.002441
# 4 0.005904 -0.003963 0.000010 0.034603 -0.014081 0.006044
# 5 -0.005581 0.001893 -0.003866 -0.014081 0.034977 -0.007895
# 6 0.006674 0.001349 -0.002441 0.006044 -0.007895 0.026715
#
#
# Mechanical properties :
#
#
# Convention : Reuss Voigt Hill
#
# Bulk Modulus (GPa) = 52.42554 59.76630 56.09592
# Shear Modulus (GPa) = 35.55187 46.82251 41.18719
#
# Velocity S-wave (km/s) = 3.73897 4.29090 4.02441
# Velocity P-wave (km/s) = 6.26538 6.93186 6.60703
#
# Compressibility (1/GPa) = 0.01907467
#
# Stress axis : x y z
#
# Youngs Moduli (GPa) = 105.57059 105.57512 104.31206
#
# Poissons Ratio (x) = 0.09718 0.13601
# Poissons Ratio (y) = 0.09718 0.26117
# Poissons Ratio (z) = 0.13765 0.26434
#
# Static dielectric constant tensor:
#      x y z
#    x 2.029140 0.045050 -0.009660 
#    y 0.045050 2.067670 -0.004120 
#    z -0.009660 -0.004120 2.020730 
# 
# From -- ./inp_files/533940.got.cif
#   From: 2010.05.17/outbox.cif.g08.bks.cpg/sg2_267_cif.got.tgz:533940.got - 2010.06.03 11:33:40.
