data_PCOD9043825
_publ_section_title
;
Structure prediction by ZEFSAII (Michael W. Deem and Ramdas Pophale) SiO2 
 PCOD9043825
Probable space group: P -1
;
_chemical_formula_sum "Si O2"
_cell_formula_units_Z 14
_cell_length_a 21.005012
_cell_length_b 5.130284
_cell_length_c 10.225054
_cell_angle_alpha 80.696258
_cell_angle_beta 32.291760
_cell_angle_gamma 75.056561
_cell_volume 565.349415
_symmetry_space_group_name_H-M "P -1"
_symmetry_group_IT_number 2
_symmetry_cell_setting 'triclinic'
loop_
_space_group_symop_operation_xyz
x,y,z
-x,-y,-z
loop_
_atom_site_type_symbol
_atom_site_label
_atom_site_fract_x
_atom_site_fract_y
_atom_site_fract_z
Si Si1 0.635142 0.939595 0.648279
Si Si2 0.611326 0.742150 0.340181
Si Si3 0.130047 0.191623 0.179399
Si Si4 0.971834 0.802485 0.372474
Si Si5 0.675915 0.384495 0.741403
Si Si6 0.883972 0.645384 0.273136
Si Si7 0.468135 0.441195 0.769695
O O1 0.601457 0.664792 0.778842
O O2 0.774276 0.830923 0.362890
O O3 0.657242 0.124156 0.718061
O O4 0.737713 0.827472 0.107822
O O5 0.581025 0.578842 0.530897
O O6 0.604455 0.561820 0.238453
O O7 0.533345 0.135775 0.724278
O O8 0.131218 0.141634 0.338766
O O9 0.049096 0.494244 0.276842
O O10 0.061443 0.991995 0.241111
O O11 0.923603 0.817848 0.307620
O O12 0.812985 0.434904 0.483262
O O13 0.373755 0.592803 0.028101
O O14 0.000000 0.500000 0.000000
O O15 0.500000 0.000000 0.500000
#
# Coordination Sequence:
#
# PCOD9043825 Si02
#       7
#     2   2   2   2   2   2   2
#     4  10  25  44  73 105 141 195 237 298 362 436
#     4  11  28  44  71 108 144 193 236 310 362 430
#     4  10  24  47  71 104 135 191 243 295 361 417
#     4  10  23  45  76  99 143 185 242 299 352 432
#     4  10  24  44  73 103 144 189 243 291 361 435
#     4  10  25  45  70 113 146 188 239 300 368 433
#     4  11  25  46  70 105 147 190 243 299 368 436
#
# _framework density 24.763445000000001
#
# number of rings (size 3 to 8) (size 9 to 14) (size 15 to 20)
#    0.857    0.857    0.000    1.714   10.000    2.857 
#    0.000    0.000    0.000    0.000    0.000    0.000 
#    0.000    0.000    0.000    0.000    0.000    0.000 
#
# Total GULP energy -78404.187743 kJ/mol
# GULP energy per Si atom -5600.299125 kJ/mol
# Density = 2.470708 g / cm^3
# Si number density = 24.763445 Si / 1000 Ang^3
#
#
#
# Elastic Constant Matrix: (Units=GPa)
#
#
# Indices 1 2 3 4 5 6 
#
# 1 78.3300 20.1515 66.3482 8.4489 9.7907 17.9297
# 2 20.1515 119.6565 42.5248 8.9094 -4.1812 12.0429
# 3 66.3482 42.5248 196.1932 -2.1855 -13.6087 6.6972
# 4 8.4489 8.9094 -2.1855 31.4688 -0.6256 -3.3169
# 5 9.7907 -4.1812 -13.6087 -0.6256 48.8354 11.2896
# 6 17.9297 12.0429 6.6972 -3.3169 11.2896 36.9496
#
#
#
# Elastic Compliance Matrix: (Units=1/GPa)
#
#
# Indices 1 2 3 4 5 6 
#
# 1 0.022908 0.000278 -0.007920 -0.007824 -0.004793 -0.009009
# 2 0.000278 0.009668 -0.002039 -0.003304 0.000973 -0.003511
# 3 -0.007920 -0.002039 0.008405 0.003596 0.003268 0.002308
# 4 -0.007824 -0.003304 0.003596 0.035834 0.001105 0.007101
# 5 -0.004793 0.000973 0.003268 0.001105 0.023775 -0.005748
# 6 -0.009009 -0.003511 0.002308 0.007101 -0.005748 0.034555
#
#
# Mechanical properties :
#
#
# Convention : Reuss Voigt Hill
#
# Bulk Modulus (GPa) = 46.25123 72.46985 59.36054
# Shear Modulus (GPa) = 30.91885 41.12777 36.02331
#
# Velocity S-wave (km/s) = 3.53734 4.07974 3.81819
# Velocity P-wave (km/s) = 5.94991 7.17780 6.59251
#
# Compressibility (1/GPa) = 0.02162105
#
# Stress axis : x y z
#
# Youngs Moduli (GPa) = 43.65235 103.42906 118.97481
#
# Poissons Ratio (x) = -0.02879 0.94222
# Poissons Ratio (y) = -0.01215 0.24262
# Poissons Ratio (z) = 0.34570 0.21092
#
# Static dielectric constant tensor:
#      x y z
#    x 1.997860 -0.013250 0.015150 
#    y -0.013250 1.953070 -0.023180 
#    z 0.015150 -0.023180 1.962360 
# 
# From -- ./inp_files/72762.got.cif
#   From: 2010.05.17/outbox.cif.g08.bks.cpg/sg2_37_cif.got.tgz:72762.got - 2010.06.03 11:33:40.
