data_PCOD9043676
_publ_section_title
;
Structure prediction by ZEFSAII (Michael W. Deem and Ramdas Pophale) SiO2 
 PCOD9043676
Probable space group: P -1
;
_chemical_formula_sum "Si O2"
_cell_formula_units_Z 16
_cell_length_a 16.543758
_cell_length_b 7.982243
_cell_length_c 9.257072
_cell_angle_alpha 111.820261
_cell_angle_beta 49.262800
_cell_angle_gamma 127.193105
_cell_volume 737.340368
_symmetry_space_group_name_H-M "P -1"
_symmetry_group_IT_number 2
_symmetry_cell_setting 'triclinic'
loop_
_space_group_symop_operation_xyz
x,y,z
-x,-y,-z
loop_
_atom_site_type_symbol
_atom_site_label
_atom_site_fract_x
_atom_site_fract_y
_atom_site_fract_z
Si Si1 0.450699 0.661521 0.620790
Si Si2 0.747825 0.676012 0.429593
Si Si3 0.376827 0.840126 0.003676
Si Si4 0.020159 0.215032 0.614434
Si Si5 0.358557 0.398466 0.174598
Si Si6 0.276575 0.002818 0.636059
Si Si7 0.209918 0.623764 0.387988
Si Si8 0.241265 0.989578 0.010518
O O1 0.500000 0.500000 0.500000
O O2 0.335489 0.559151 0.612105
O O3 0.572915 0.883541 0.514367
O O4 0.402387 0.674875 0.838785
O O5 0.876503 0.720021 0.359974
O O6 0.673881 0.701491 0.659433
O O7 0.760879 0.840417 0.345807
O O8 0.257268 0.731365 0.212312
O O9 0.345661 0.954681 0.950715
O O10 0.500000 0.000000 0.000000
O O11 0.081335 0.403738 0.487106
O O12 0.000000 0.000000 0.500000
O O13 0.892418 0.170428 0.817230
O O14 0.315563 0.567160 0.284196
O O15 0.500000 0.500000 0.000000
O O16 0.276561 0.220977 0.096743
O O17 0.215173 0.790817 0.547816
O O18 0.241101 0.972707 0.834459
#
# Coordination Sequence:
#
# PCOD9043676 Si02
#       8
#     2   2   2   2   2   2   2   2
#     4  10  24  41  73 103 145 176 230 287 362 425
#     4  10  23  45  73  98 144 186 231 290 356 419
#     4  12  26  46  73 109 144 179 235 295 363 425
#     4  11  25  49  71  99 142 189 251 284 341 426
#     4  11  23  40  71 102 135 184 237 287 364 424
#     4  11  25  45  69 108 141 179 235 297 363 410
#     4  11  25  43  72 101 141 187 234 292 354 413
#     4  12  27  45  70 100 145 189 234 296 346 422
#
# _framework density 21.699611999999998
#
# number of rings (size 3 to 8) (size 9 to 14) (size 15 to 20)
#    0.000    1.000    3.750    2.250   12.250    3.000 
#    0.000    0.000    0.000    0.000    0.000    0.000 
#    0.000    0.000    0.000    0.000    0.000    0.000 
#
# Total GULP energy -89488.149091 kJ/mol
# GULP energy per Si atom -5593.009318 kJ/mol
# Density = 2.165022 g / cm^3
# Si number density = 21.699612 Si / 1000 Ang^3
#
#
#
# Elastic Constant Matrix: (Units=GPa)
#
#
# Indices 1 2 3 4 5 6 
#
# 1 76.6027 -6.4056 17.9197 -2.6480 1.5204 3.2670
# 2 -6.4056 89.4369 31.3364 2.7072 7.8428 15.9332
# 3 17.9197 31.3364 147.8205 -3.4773 21.6079 9.8618
# 4 -2.6480 2.7072 -3.4773 42.3871 10.1773 2.1274
# 5 1.5204 7.8428 21.6079 10.1773 34.4314 -8.4319
# 6 3.2670 15.9332 9.8618 2.1274 -8.4319 38.6867
#
#
#
# Elastic Compliance Matrix: (Units=1/GPa)
#
#
# Indices 1 2 3 4 5 6 
#
# 1 0.013766 0.001959 -0.001882 0.000785 -0.000507 -0.001643
# 2 0.001959 0.013416 -0.002217 0.000151 -0.003225 -0.005837
# 3 -0.001882 -0.002217 0.008584 0.002327 -0.006118 -0.002577
# 4 0.000785 0.000151 0.002327 0.026561 -0.010473 -0.004465
# 5 -0.000507 -0.003225 -0.006118 -0.010473 0.039714 0.012162
# 6 -0.001643 -0.005837 -0.002577 -0.004465 0.012162 0.031945
#
#
# Mechanical properties :
#
#
# Convention : Reuss Voigt Hill
#
# Bulk Modulus (GPa) = 31.76051 44.39569 38.07810
# Shear Modulus (GPa) = 33.61089 41.16834 37.38961
#
# Velocity S-wave (km/s) = 3.93990 4.36040 4.15547
# Velocity P-wave (km/s) = 5.94687 6.77159 6.37259
#
# Compressibility (1/GPa) = 0.03148564
#
# Stress axis : x y z
#
# Youngs Moduli (GPa) = 72.64468 74.53626 116.49508
#
# Poissons Ratio (x) = -0.14599 0.21921
# Poissons Ratio (y) = -0.14229 0.25829
# Poissons Ratio (z) = 0.13670 0.16526
#
# Static dielectric constant tensor:
#      x y z
#    x 1.819500 -0.028740 0.017570 
#    y -0.028740 1.830560 -0.025060 
#    z 0.017570 -0.025060 1.786340 
# 
# From -- ./inp_files/327710.got.cif
#   From: 2010.05.17/outbox.cif.g08.bks.cpg/sg2_164_cif.got.tgz:327710.got - 2010.06.03 11:33:40.
