data_PCOD9043484
_publ_section_title
;
Structure prediction by ZEFSAII (Michael W. Deem and Ramdas Pophale) SiO2 
 PCOD9043484
Probable space group: P -1
;
_chemical_formula_sum "Si O2"
_cell_formula_units_Z 16
_cell_length_a 14.516976
_cell_length_b 16.366239
_cell_length_c 7.878608
_cell_angle_alpha 130.068860
_cell_angle_beta 47.006821
_cell_angle_gamma 153.261542
_cell_volume 612.568075
_symmetry_space_group_name_H-M "P -1"
_symmetry_group_IT_number 2
_symmetry_cell_setting 'triclinic'
loop_
_space_group_symop_operation_xyz
x,y,z
-x,-y,-z
loop_
_atom_site_type_symbol
_atom_site_label
_atom_site_fract_x
_atom_site_fract_y
_atom_site_fract_z
Si Si1 0.156697 0.765902 0.559421
Si Si2 0.736407 0.377428 0.648149
Si Si3 0.862980 0.575133 0.094367
Si Si4 0.558609 0.780097 0.691765
Si Si5 0.330659 0.363947 0.790194
Si Si6 0.797338 0.124739 0.687603
Si Si7 0.279706 0.084279 0.946275
Si Si8 0.186792 0.248887 0.207138
O O1 0.256630 0.744926 0.526882
O O2 0.908284 0.558889 0.563653
O O3 0.267773 0.843137 0.339965
O O4 0.187539 0.904130 0.783559
O O5 0.491897 0.245921 0.777349
O O6 0.829408 0.470343 0.842843
O O7 0.690050 0.421507 0.246633
O O8 0.793346 0.639922 0.183206
O O9 0.094133 0.742676 0.112625
O O10 0.679802 0.762498 0.435719
O O11 0.647829 0.859971 0.875865
O O12 0.607306 0.917407 0.705495
O O13 0.583512 0.570362 0.748165
O O14 0.243480 0.310148 0.020275
O O15 0.992083 0.184633 0.443628
O O16 0.140635 0.092419 0.091696
#
# Coordination Sequence:
#
# PCOD9043484 Si02
#       8
#     2   2   2   2   2   2   2   2
#     4  11  25  43  65  99 121 161 221 260 313 369
#     4  10  23  45  71  88 122 168 213 266 313 362
#     4  11  22  43  63  89 130 172 207 254 317 371
#     4  11  23  39  61  93 129 170 205 245 319 382
#     4  11  21  40  62  92 128 164 214 247 308 383
#     4  12  26  39  63  97 133 164 204 265 307 380
#     4  11  23  44  66  92 128 168 209 260 313 375
#     4  11  23  38  66  96 126 167 209 256 315 371
#
# _framework density 26.119547000000001
#
# number of rings (size 3 to 8) (size 9 to 14) (size 15 to 20)
#    0.000    1.000    3.750    3.750    1.750    6.500 
#    0.000    2.500    0.000    0.000    0.000    0.000 
#    0.000    0.000    0.000    0.000    0.000    0.000 
#
# Total GULP energy -89740.223675 kJ/mol
# GULP energy per Si atom -5608.763980 kJ/mol
# Density = 2.606010 g / cm^3
# Si number density = 26.119547 Si / 1000 Ang^3
#
#
#
# Elastic Constant Matrix: (Units=GPa)
#
#
# Indices 1 2 3 4 5 6 
#
# 1 53.6050 26.4160 5.7091 12.8403 13.1842 -9.7677
# 2 26.4160 121.7902 5.1243 10.3371 2.8672 -29.9106
# 3 5.7091 5.1243 44.2811 17.8336 10.7311 0.2319
# 4 12.8403 10.3371 17.8336 51.5991 -2.2782 1.2891
# 5 13.1842 2.8672 10.7311 -2.2782 33.1998 -1.3864
# 6 -9.7677 -29.9106 0.2319 1.2891 -1.3864 40.7729
#
#
#
# Elastic Compliance Matrix: (Units=1/GPa)
#
#
# Indices 1 2 3 4 5 6 
#
# 1 0.025223 -0.004017 0.002624 -0.006932 -0.010871 0.002930
# 2 -0.004017 0.010928 -0.000592 -0.001116 0.001064 0.007129
# 3 0.002624 -0.000592 0.029595 -0.011263 -0.011330 -0.000004
# 4 -0.006932 -0.001116 -0.011263 0.025654 0.008127 -0.002950
# 5 -0.010871 0.001064 -0.011330 0.008127 0.038536 -0.000706
# 6 0.002930 0.007129 -0.000004 -0.002950 -0.000706 0.030527
#
#
# Mechanical properties :
#
#
# Convention : Reuss Voigt Hill
#
# Bulk Modulus (GPa) = 16.18811 32.68612 24.43711
# Shear Modulus (GPa) = 27.02319 37.27616 32.14968
#
# Velocity S-wave (km/s) = 3.22000 3.78184 3.51218
# Velocity P-wave (km/s) = 4.47613 5.62237 5.08167
#
# Compressibility (1/GPa) = 0.06177373
#
# Stress axis : x y z
#
# Youngs Moduli (GPa) = 39.64571 91.51192 33.78956
#
# Poissons Ratio (x) = 0.36764 -0.08866
# Poissons Ratio (y) = 0.15927 0.02002
# Poissons Ratio (z) = -0.10402 0.05422
#
# Static dielectric constant tensor:
#      x y z
#    x 2.024620 0.026050 -0.008070 
#    y 0.026050 2.070860 -0.024130 
#    z -0.008070 -0.024130 2.085650 
# 
# From -- ./inp_files/315826.got.cif
#   From: 2010.05.17/outbox.cif.g08.bks.cpg/sg2_158_cif.got.tgz:315826.got - 2010.06.03 11:33:40.
