data_PCOD9043694
_publ_section_title
;
Structure prediction by ZEFSAII (Michael W. Deem and Ramdas Pophale) SiO2 
 PCOD9043694
Probable space group: P -1
;
_chemical_formula_sum "Si O2"
_cell_formula_units_Z 13
_cell_length_a 12.052011
_cell_length_b 7.938980
_cell_length_c 9.078182
_cell_angle_alpha 72.734867
_cell_angle_beta 65.612219
_cell_angle_gamma 41.785117
_cell_volume 527.054117
_symmetry_space_group_name_H-M "P -1"
_symmetry_group_IT_number 2
_symmetry_cell_setting 'triclinic'
loop_
_space_group_symop_operation_xyz
x,y,z
-x,-y,-z
loop_
_atom_site_type_symbol
_atom_site_label
_atom_site_fract_x
_atom_site_fract_y
_atom_site_fract_z
Si Si1 0.500000 0.500000 0.000000
Si Si2 0.502685 0.870229 0.392160
Si Si3 0.756282 0.999947 0.727576
Si Si4 0.307403 0.211264 0.968279
Si Si5 0.116675 0.735325 0.084139
Si Si6 0.416777 0.445286 0.328474
Si Si7 0.044220 0.661102 0.444954
O O1 0.696744 0.372073 0.951416
O O2 0.466177 0.700207 0.841710
O O3 0.655377 0.773116 0.224035
O O4 0.509240 0.674577 0.521327
O O5 0.500000 0.000000 0.500000
O O6 0.337609 0.028961 0.333170
O O7 0.935323 0.858904 0.586777
O O8 0.629530 0.299074 0.739795
O O9 0.777618 0.880594 0.901358
O O10 0.180389 0.495255 0.025696
O O11 0.500000 0.000000 0.000000
O O12 0.010360 0.784312 0.274127
O O13 0.000000 0.000000 0.000000
O O14 0.244779 0.503843 0.402049
O O15 0.000000 0.500000 0.500000
#
# Coordination Sequence:
#
# PCOD9043694 Si02
#       7
#     1   2   2   2   2   2   2
#     4  10  24  44  70 102 152 186 250 296 376 434
#     4  11  25  41  72 104 138 190 252 303 365 443
#     4  11  23  44  71  96 147 188 241 302 371 447
#     4  10  23  45  74 102 146 197 243 298 383 438
#     4  11  25  45  76 108 149 197 248 309 375 448
#     4  11  25  42  70 103 139 193 244 300 370 445
#     4  11  23  45  69 101 144 190 237 302 376 435
#
# _framework density 24.665396999999999
#
# number of rings (size 3 to 8) (size 9 to 14) (size 15 to 20)
#    0.000    1.231    1.538    3.692   12.923    0.000 
#    0.000    0.769    0.000    0.000    0.000    0.000 
#    0.000    0.000    0.000    0.000    0.000    0.000 
#
# Total GULP energy -72408.699219 kJ/mol
# GULP energy per Si atom -5569.899940 kJ/mol
# Density = 2.460926 g / cm^3
# Si number density = 24.665397 Si / 1000 Ang^3
#
#
#
# Elastic Constant Matrix: (Units=GPa)
#
#
# Indices 1 2 3 4 5 6 
#
# 1 60.4409 2.5606 8.2349 5.5593 -10.7499 7.4362
# 2 2.5606 98.5210 47.1291 -23.3531 -2.3887 21.9887
# 3 8.2349 47.1291 234.9094 -21.7708 -17.0023 -5.3785
# 4 5.5593 -23.3531 -21.7708 35.1355 0.1686 -3.3123
# 5 -10.7499 -2.3887 -17.0023 0.1686 40.5295 7.0058
# 6 7.4362 21.9887 -5.3785 -3.3123 7.0058 22.8505
#
#
#
# Elastic Compliance Matrix: (Units=1/GPa)
#
#
# Indices 1 2 3 4 5 6 
#
# 1 0.019496 0.001761 -0.001143 -0.003681 0.006694 -0.010894
# 2 0.001761 0.017488 -0.003024 0.007758 0.003309 -0.018004
# 3 -0.001143 -0.003024 0.005245 0.001840 0.000934 0.004497
# 4 -0.003681 0.007758 0.001840 0.035264 0.000244 -0.000797
# 5 0.006694 0.003309 0.000934 0.000244 0.029480 -0.014146
# 6 -0.010894 -0.018004 0.004497 -0.000797 -0.014146 0.069912
#
#
# Mechanical properties :
#
#
# Convention : Reuss Voigt Hill
#
# Bulk Modulus (GPa) = 26.72576 56.63560 41.68068
# Shear Modulus (GPa) = 25.75077 42.09957 33.92517
#
# Velocity S-wave (km/s) = 3.23461 4.13586 3.71268
# Velocity P-wave (km/s) = 4.98088 6.76894 5.94254
#
# Compressibility (1/GPa) = 0.03741709
#
# Stress axis : x y z
#
# Youngs Moduli (GPa) = 51.29342 57.18098 190.66411
#
# Poissons Ratio (x) = -0.10070 0.21791
# Poissons Ratio (y) = -0.09033 0.57658
# Poissons Ratio (z) = 0.05862 0.17292
#
# Static dielectric constant tensor:
#      x y z
#    x 2.206540 0.224160 0.311070 
#    y 0.224160 2.308990 0.417440 
#    z 0.311070 0.417440 2.857870 
# 
# From -- ./inp_files/156089.got.cif
#   From: 2010.05.17/outbox.cif.g08.bks.cpg/sg2_79_cif.got.tgz:156089.got - 2010.06.03 11:33:40.
