data_PCOD9043093
_publ_section_title
;
Structure prediction by ZEFSAII (Michael W. Deem and Ramdas Pophale) SiO2 
 PCOD9043093
Probable space group: P -1
;
_chemical_formula_sum "Si O2"
_cell_formula_units_Z 14
_cell_length_a 11.876320
_cell_length_b 15.329337
_cell_length_c 9.962672
_cell_angle_alpha 27.136036
_cell_angle_beta 46.164387
_cell_angle_gamma 56.601371
_cell_volume 584.640979
_symmetry_space_group_name_H-M "P -1"
_symmetry_group_IT_number 2
_symmetry_cell_setting 'triclinic'
loop_
_space_group_symop_operation_xyz
x,y,z
-x,-y,-z
loop_
_atom_site_type_symbol
_atom_site_label
_atom_site_fract_x
_atom_site_fract_y
_atom_site_fract_z
Si Si1 0.180893 0.091091 0.186013
Si Si2 0.192854 0.291478 0.178095
Si Si3 0.693437 0.282794 0.383351
Si Si4 0.042169 0.809634 0.294527
Si Si5 0.845114 0.464488 0.767177
Si Si6 0.647581 0.700011 0.474910
Si Si7 0.334383 0.037735 0.633903
O O1 0.285995 0.926664 0.295078
O O2 0.236047 0.231290 0.076334
O O3 0.000000 0.000000 0.500000
O O4 0.205065 0.218577 0.856815
O O5 0.273527 0.160696 0.395069
O O6 0.003404 0.214805 0.477713
O O7 0.240230 0.525421 0.843223
O O8 0.516021 0.306949 0.458355
O O9 0.790553 0.286556 0.155745
O O10 0.911310 0.636093 0.582015
O O11 0.217946 0.833557 0.056235
O O12 0.000000 0.000000 0.000000
O O13 0.688481 0.501227 0.770762
O O14 0.000000 0.500000 0.500000
O O15 0.650635 0.837925 0.412136
O O16 0.500000 0.000000 0.500000
#
# Coordination Sequence:
#
# PCOD9043093 Si02
#       7
#     2   2   2   2   2   2   2
#     4  12  27  45  73  98 138 187 234 280 354 414
#     4  10  23  45  68  95 137 185 224 281 346 408
#     4  11  25  45  69  98 145 178 229 290 340 415
#     4   9  18  37  60  89 128 167 221 272 322 394
#     4  11  23  38  69  99 131 179 227 283 340 398
#     4  12  24  44  67 106 138 177 230 289 342 412
#     4  11  22  37  69 101 133 181 228 278 346 405
#
# _framework density 23.94632
#
# number of rings (size 3 to 8) (size 9 to 14) (size 15 to 20)
#    0.000    1.143    4.286    3.429    8.000    1.143 
#    0.000    1.429    0.000    0.000    0.000    0.000 
#    0.000    0.000    0.000    0.000    0.000    0.000 
#
# Total GULP energy -78118.069986 kJ/mol
# GULP energy per Si atom -5579.862142 kJ/mol
# Density = 2.389182 g / cm^3
# Si number density = 23.946320 Si / 1000 Ang^3
#
#
#
# Elastic Constant Matrix: (Units=GPa)
#
#
# Indices 1 2 3 4 5 6 
#
# 1 70.2611 35.4304 9.7732 -1.9852 -6.1049 -3.2105
# 2 35.4304 114.6798 15.3154 17.5112 3.5445 9.2332
# 3 9.7732 15.3154 65.2029 7.5969 2.5946 5.9572
# 4 -1.9852 17.5112 7.5969 41.4664 -6.7053 -4.6402
# 5 -6.1049 3.5445 2.5946 -6.7053 32.6055 10.9329
# 6 -3.2105 9.2332 5.9572 -4.6402 10.9329 39.8017
#
#
#
# Elastic Compliance Matrix: (Units=1/GPa)
#
#
# Indices 1 2 3 4 5 6 
#
# 1 0.018509 -0.006553 -0.002256 0.005097 0.004497 0.002710
# 2 -0.006553 0.012114 -0.000756 -0.006079 -0.002660 -0.003204
# 3 -0.002256 -0.000756 0.016526 -0.003336 -0.001519 -0.002452
# 4 0.005097 -0.006079 -0.003336 0.029034 0.006541 0.003909
# 5 0.004497 -0.002660 -0.001519 0.006541 0.035914 -0.007895
# 6 0.002710 -0.003204 -0.002452 0.003909 -0.007895 0.029078
#
#
# Mechanical properties :
#
#
# Convention : Reuss Voigt Hill
#
# Bulk Modulus (GPa) = 35.68939 41.24242 38.46591
# Shear Modulus (GPa) = 29.47363 35.41636 32.44500
#
# Velocity S-wave (km/s) = 3.51211 3.84994 3.68490
# Velocity P-wave (km/s) = 5.60204 6.08465 5.84832
#
# Compressibility (1/GPa) = 0.02801953
#
# Stress axis : x y z
#
# Youngs Moduli (GPa) = 54.02706 82.55026 60.51206
#
# Poissons Ratio (x) = 0.54092 0.13649
# Poissons Ratio (y) = 0.35402 0.04577
# Poissons Ratio (z) = 0.12186 0.06244
#
# Static dielectric constant tensor:
#      x y z
#    x 2.019320 0.094210 -0.018220 
#    y 0.094210 2.169090 0.143920 
#    z -0.018220 0.143920 1.982530 
# 
# From -- ./inp_files/271305.got.cif
#   From: 2010.05.17/outbox.cif.g08.bks.cpg/sg2_136_cif.got.tgz:271305.got - 2010.06.03 11:33:40.
