data_PCOD9043089
_publ_section_title
;
Structure prediction by ZEFSAII (Michael W. Deem and Ramdas Pophale) SiO2 
 PCOD9043089
Probable space group: P -1
;
_chemical_formula_sum "Si O2"
_cell_formula_units_Z 14
_cell_length_a 8.485802
_cell_length_b 19.290507
_cell_length_c 19.295175
_cell_angle_alpha 158.405372
_cell_angle_beta 34.878870
_cell_angle_gamma 143.885613
_cell_volume 649.329447
_symmetry_space_group_name_H-M "P -1"
_symmetry_group_IT_number 2
_symmetry_cell_setting 'triclinic'
loop_
_space_group_symop_operation_xyz
x,y,z
-x,-y,-z
loop_
_atom_site_type_symbol
_atom_site_label
_atom_site_fract_x
_atom_site_fract_y
_atom_site_fract_z
Si Si1 0.415745 0.133023 0.254238
Si Si2 0.970912 0.168608 0.720853
Si Si3 0.371548 0.707340 0.820562
Si Si4 0.183366 0.019576 0.649312
Si Si5 0.323843 0.548143 0.446649
Si Si6 0.259252 0.399377 0.048363
Si Si7 0.427591 0.554694 0.881772
O O1 0.586842 0.234369 0.220499
O O2 0.557703 0.235216 0.367262
O O3 0.084145 0.146329 0.386207
O O4 0.413724 0.906792 0.034103
O O5 0.186673 0.367313 0.810798
O O6 0.059969 0.103462 0.703216
O O7 0.000000 0.000000 0.500000
O O8 0.679442 0.243983 0.892631
O O9 0.601255 0.588171 0.647086
O O10 0.059672 0.580230 0.831371
O O11 0.500000 0.000000 0.500000
O O12 0.228989 0.172507 0.836751
O O13 0.473999 0.489094 0.269962
O O14 0.000000 0.500000 0.500000
O O15 0.500000 0.500000 0.000000
O O16 0.351742 0.446606 0.137170
#
# Coordination Sequence:
#
# PCOD9043089 Si02
#       7
#     2   2   2   2   2   2   2
#     4  10  23  45  68  95 134 177 228 279 329 403
#     4  11  23  41  63  96 133 174 218 277 342 396
#     4  10  24  45  70  96 132 177 230 280 334 401
#     4  11  23  39  66  98 130 176 220 273 336 400
#     4  12  26  42  67  99 136 182 225 273 343 402
#     4  11  22  41  67  94 129 172 224 277 338 398
#     4  11  24  40  65  95 134 171 220 281 337 399
#
# _framework density 21.560704000000001
#
# number of rings (size 3 to 8) (size 9 to 14) (size 15 to 20)
#    0.000    1.143    1.429    4.714    4.000    1.714 
#    0.000    5.714    0.000    0.000    0.000    0.000 
#    0.000    0.000    0.000    0.000    0.000    0.000 
#
# Total GULP energy -78156.581882 kJ/mol
# GULP energy per Si atom -5582.612992 kJ/mol
# Density = 2.151163 g / cm^3
# Si number density = 21.560704 Si / 1000 Ang^3
#
#
#
# Elastic Constant Matrix: (Units=GPa)
#
#
# Indices 1 2 3 4 5 6 
#
# 1 88.9400 22.7499 44.3432 7.4800 11.7713 17.3309
# 2 22.7499 95.3765 20.2023 -6.4097 0.9463 20.0861
# 3 44.3432 20.2023 123.6128 9.0396 21.7232 15.6506
# 4 7.4800 -6.4097 9.0396 26.7533 7.4377 1.8979
# 5 11.7713 0.9463 21.7232 7.4377 46.9479 -1.5745
# 6 17.3309 20.0861 15.6506 1.8979 -1.5745 43.8352
#
#
#
# Elastic Compliance Matrix: (Units=1/GPa)
#
#
# Indices 1 2 3 4 5 6 
#
# 1 0.014924 -0.002135 -0.004121 -0.002638 -0.001488 -0.003390
# 2 -0.002135 0.012482 -0.000972 0.004279 -0.000103 -0.004717
# 3 -0.004121 -0.000972 0.010725 -0.001539 -0.003727 -0.001822
# 4 -0.002638 0.004279 -0.001539 0.041311 -0.005336 -0.002349
# 5 -0.001488 -0.000103 -0.003727 -0.005336 0.024348 0.003072
# 6 -0.003390 -0.004717 -0.001822 -0.002349 0.003072 0.027177
#
#
# Mechanical properties :
#
#
# Convention : Reuss Voigt Hill
#
# Bulk Modulus (GPa) = 42.23913 53.61333 47.92623
# Shear Modulus (GPa) = 32.61266 38.21621 35.41444
#
# Velocity S-wave (km/s) = 3.89343 4.21467 4.05723
# Velocity P-wave (km/s) = 6.31230 6.97171 6.65018
#
# Compressibility (1/GPa) = 0.02367473
#
# Stress axis : x y z
#
# Youngs Moduli (GPa) = 67.00782 80.11577 93.23949
#
# Poissons Ratio (x) = 0.17108 0.38424
# Poissons Ratio (y) = 0.14309 0.09058
# Poissons Ratio (z) = 0.27614 0.07783
#
# Static dielectric constant tensor:
#      x y z
#    x 1.766370 0.011110 -0.018300 
#    y 0.011110 1.822650 -0.014560 
#    z -0.018300 -0.014560 1.815330 
# 
# From -- ./inp_files/319545.got.cif
#   From: 2010.05.17/outbox.cif.g08.bks.cpg/sg2_160_cif.got.tgz:319545.got - 2010.06.03 11:33:40.
