data_PCOD9043677
_publ_section_title
;
Structure prediction by ZEFSAII (Michael W. Deem and Ramdas Pophale) SiO2 
 PCOD9043677
Probable space group: P -1
;
_chemical_formula_sum "Si O2"
_cell_formula_units_Z 16
_cell_length_a 9.277621
_cell_length_b 14.608861
_cell_length_c 14.297114
_cell_angle_alpha 32.668171
_cell_angle_beta 68.981537
_cell_angle_gamma 91.346215
_cell_volume 745.404046
_symmetry_space_group_name_H-M "P -1"
_symmetry_group_IT_number 2
_symmetry_cell_setting 'triclinic'
loop_
_space_group_symop_operation_xyz
x,y,z
-x,-y,-z
loop_
_atom_site_type_symbol
_atom_site_label
_atom_site_fract_x
_atom_site_fract_y
_atom_site_fract_z
Si Si1 0.511003 0.544335 0.689924
Si Si2 0.031800 0.109361 0.675241
Si Si3 0.642864 0.727913 0.209142
Si Si4 0.571477 0.011668 0.078832
Si Si5 0.779356 0.369298 0.395613
Si Si6 0.943884 0.476005 0.641376
Si Si7 0.332368 0.316585 0.125125
Si Si8 0.063284 0.840166 0.554038
O O1 0.737060 0.777020 0.452321
O O2 0.497534 0.381672 0.757483
O O3 0.353594 0.575488 0.663844
O O4 0.426246 0.418821 0.914931
O O5 0.031265 0.309277 0.527268
O O6 0.984112 0.085403 0.595178
O O7 0.863871 0.892277 0.963485
O O8 0.500000 0.500000 0.500000
O O9 0.666129 0.895152 0.135265
O O10 0.377510 0.863674 0.315186
O O11 0.724107 0.241850 0.896577
O O12 0.500000 0.000000 0.000000
O O13 0.901090 0.331258 0.331694
O O14 0.919246 0.528077 0.312669
O O15 0.000000 0.500000 0.500000
O O16 0.126977 0.270909 0.238140
O O17 0.258955 0.068943 0.356990
O O18 0.500000 0.500000 0.000000
#
# Coordination Sequence:
#
# PCOD9043677 Si02
#       8
#     2   2   2   2   2   2   2   2
#     4  12  26  43  68 102 144 175 227 292 346 407
#     4  11  23  42  71  99 133 187 232 279 344 411
#     4  12  25  43  62  99 146 184 220 278 338 408
#     4  12  22  40  66  94 135 187 237 276 326 402
#     4  11  26  43  62 103 139 177 226 289 342 397
#     4  11  22  40  68  94 130 186 241 276 325 406
#     4  11  23  45  76 101 128 178 231 285 351 410
#     4  10  23  45  73  99 128 175 237 282 338 422
#
# _framework density 21.464870000000001
#
# number of rings (size 3 to 8) (size 9 to 14) (size 15 to 20)
#    0.000    0.750    6.250    1.500    1.750    2.000 
#    0.000    0.625    0.000    0.000    0.000    0.000 
#    0.000    0.000    0.000    0.000    0.000    0.000 
#
# Total GULP energy -89180.930724 kJ/mol
# GULP energy per Si atom -5573.808170 kJ/mol
# Density = 2.141602 g / cm^3
# Si number density = 21.464870 Si / 1000 Ang^3
#
#
#
# Elastic Constant Matrix: (Units=GPa)
#
#
# Indices 1 2 3 4 5 6 
#
# 1 84.6010 8.6018 25.0998 -15.5643 -9.6334 13.0997
# 2 8.6018 90.0755 18.9283 -0.8311 -8.1175 12.2306
# 3 25.0998 18.9283 134.2653 -3.9132 -31.6466 12.4358
# 4 -15.5643 -0.8311 -3.9132 40.7980 3.1862 -10.7207
# 5 -9.6334 -8.1175 -31.6466 3.1862 30.3385 -5.9772
# 6 13.0997 12.2306 12.4358 -10.7207 -5.9772 33.1551
#
#
#
# Elastic Compliance Matrix: (Units=1/GPa)
#
#
# Indices 1 2 3 4 5 6 
#
# 1 0.013786 -0.000364 -0.001801 0.004173 0.001364 -0.003042
# 2 -0.000364 0.012003 -0.000945 -0.001160 0.001435 -0.004046
# 3 -0.001801 -0.000945 0.010317 -0.000825 0.009765 -0.001316
# 4 0.004173 -0.001160 -0.000825 0.028194 -0.001234 0.007983
# 5 0.001364 0.001435 0.009765 -0.001234 0.044670 0.002923
# 6 -0.003042 -0.004046 -0.001316 0.007983 0.002923 0.036457
#
#
# Mechanical properties :
#
#
# Convention : Reuss Voigt Hill
#
# Bulk Modulus (GPa) = 33.45965 46.02243 39.74104
# Shear Modulus (GPa) = 30.93887 37.94577 34.44232
#
# Velocity S-wave (km/s) = 3.80066 4.20909 4.01008
# Velocity P-wave (km/s) = 5.90609 6.71635 6.32421
#
# Compressibility (1/GPa) = 0.02988674
#
# Stress axis : x y z
#
# Youngs Moduli (GPa) = 72.53983 83.31175 96.92475
#
# Poissons Ratio (x) = 0.03029 0.17456
# Poissons Ratio (y) = 0.02637 0.09159
# Poissons Ratio (z) = 0.13065 0.07873
#
# Static dielectric constant tensor:
#      x y z
#    x 1.871350 -0.105280 0.100340 
#    y -0.105280 1.813080 -0.014870 
#    z 0.100340 -0.014870 1.794600 
# 
# From -- ./inp_files/323820.got.cif
#   From: 2010.05.17/outbox.cif.g08.bks.cpg/sg2_162_cif.got.tgz:323820.got - 2010.06.03 11:33:40.
