data_PCOD9043789
_publ_section_title
;
Structure prediction by ZEFSAII (Michael W. Deem and Ramdas Pophale) SiO2 
 PCOD9043789
Probable space group: P -1
;
_chemical_formula_sum "Si O2"
_cell_formula_units_Z 11
_cell_length_a 10.501314
_cell_length_b 7.645013
_cell_length_c 4.904138
_cell_angle_alpha 100.523347
_cell_angle_beta 86.868555
_cell_angle_gamma 101.606727
_cell_volume 379.114419
_symmetry_space_group_name_H-M "P -1"
_symmetry_group_IT_number 2
_symmetry_cell_setting 'triclinic'
loop_
_space_group_symop_operation_xyz
x,y,z
-x,-y,-z
loop_
_atom_site_type_symbol
_atom_site_label
_atom_site_fract_x
_atom_site_fract_y
_atom_site_fract_z
Si Si1 0.707621 0.961371 0.523469
Si Si2 0.470737 0.825164 0.144248
Si Si3 0.709673 0.438423 0.241055
Si Si4 0.000000 0.000000 0.500000
Si Si5 0.781939 0.686520 0.801332
Si Si6 0.046999 0.708810 0.949514
O O1 0.591693 0.836441 0.332538
O O2 0.849327 0.974828 0.383187
O O3 0.722446 0.856098 0.774000
O O4 0.651070 0.140831 0.646334
O O5 0.425842 0.657700 0.901021
O O6 0.500000 0.000000 0.000000
O O7 0.718992 0.527907 0.558701
O O8 0.236762 0.397503 0.925303
O O9 0.809849 0.299975 0.174288
O O10 0.040761 0.854003 0.224241
O O11 0.939446 0.742508 0.744554
O O12 0.000000 0.500000 0.000000
#
# Coordination Sequence:
#
# PCOD9043789 Si02
#       6
#     2   2   2   1   2   2
#     4  11  27  48  73 116 149 203 263 325 385 481
#     4  11  28  48  75 106 161 205 257 322 396 473
#     4  11  25  50  77 111 158 209 251 327 403 456
#     4  12  24  48  84 112 156 206 264 322 400 454
#     4  11  26  47  78 114 155 203 264 326 384 475
#     4  10  23  45  75 115 157 199 257 325 386 467
#
# _framework density 29.014983000000001
#
# number of rings (size 3 to 8) (size 9 to 14) (size 15 to 20)
#    0.000    1.091    1.818    2.727   10.182    5.091 
#    0.000    0.000    0.000    0.000    0.000    0.000 
#    0.000    0.000    0.000    0.000    0.000    0.000 
#
# Total GULP energy -61595.670958 kJ/mol
# GULP energy per Si atom -5599.606451 kJ/mol
# Density = 2.894894 g / cm^3
# Si number density = 29.014983 Si / 1000 Ang^3
#
#
#
# Elastic Constant Matrix: (Units=GPa)
#
#
# Indices 1 2 3 4 5 6 
#
# 1 196.5805 54.6857 37.9537 3.1712 19.1415 -30.6072
# 2 54.6857 114.1130 46.3396 17.8993 5.7979 -14.7331
# 3 37.9537 46.3396 115.8951 27.9039 20.6709 -18.3671
# 4 3.1712 17.8993 27.9039 67.7159 1.1178 8.5840
# 5 19.1415 5.7979 20.6709 1.1178 75.2544 5.8977
# 6 -30.6072 -14.7331 -18.3671 8.5840 5.8977 63.6815
#
#
#
# Elastic Compliance Matrix: (Units=1/GPa)
#
#
# Indices 1 2 3 4 5 6 
#
# 1 0.006407 -0.002518 -0.000506 0.000288 -0.001493 0.002450
# 2 -0.002518 0.011686 -0.003470 -0.001635 0.000667 0.000651
# 3 -0.000506 -0.003470 0.012395 -0.004550 -0.003210 0.003439
# 4 0.000288 -0.001635 -0.004550 0.017551 0.001359 -0.004044
# 5 -0.001493 0.000667 -0.003210 0.001359 0.014716 -0.003035
# 6 0.002450 0.000651 0.003439 -0.004044 -0.003035 0.018850
#
#
# Mechanical properties :
#
#
# Convention : Reuss Voigt Hill
#
# Bulk Modulus (GPa) = 57.14428 78.28293 67.71361
# Shear Modulus (GPa) = 49.78770 60.50432 55.14601
#
# Velocity S-wave (km/s) = 4.14687 4.57144 4.36432
# Velocity P-wave (km/s) = 6.53194 7.40964 6.98459
#
# Compressibility (1/GPa) = 0.01749957
#
# Stress axis : x y z
#
# Youngs Moduli (GPa) = 156.06830 85.57546 80.67902
#
# Poissons Ratio (x) = 0.21548 0.04085
# Poissons Ratio (y) = 0.39298 0.27995
# Poissons Ratio (z) = 0.07901 0.29694
#
# Static dielectric constant tensor:
#      x y z
#    x 2.358750 0.081460 -0.077950 
#    y 0.081460 2.058640 -0.005100 
#    z -0.077950 -0.005100 2.227490 
# 
# From -- ./inp_files/17864.got.cif
#   From: 2010.05.17/outbox.cif.g08.bks.cpg/sg2_9_cif.got.tgz:17864.got - 2010.06.03 11:33:40.
