data_PCOD9043497
_publ_section_title
;
Structure prediction by ZEFSAII (Michael W. Deem and Ramdas Pophale) SiO2 
 PCOD9043497
Probable space group: P -1
;
_chemical_formula_sum "Si O2"
_cell_formula_units_Z 16
_cell_length_a 5.427251
_cell_length_b 25.337898
_cell_length_c 5.109051
_cell_angle_alpha 107.897411
_cell_angle_beta 82.221727
_cell_angle_gamma 67.207319
_cell_volume 589.883945
_symmetry_space_group_name_H-M "P -1"
_symmetry_group_IT_number 2
_symmetry_cell_setting 'triclinic'
loop_
_space_group_symop_operation_xyz
x,y,z
-x,-y,-z
loop_
_atom_site_type_symbol
_atom_site_label
_atom_site_fract_x
_atom_site_fract_y
_atom_site_fract_z
Si Si1 0.771097 0.286119 0.290581
Si Si2 0.406117 0.877711 0.826676
Si Si3 0.473783 0.067792 0.577444
Si Si4 0.178363 0.521003 0.813154
Si Si5 0.633738 0.402219 0.706240
Si Si6 0.569628 0.759240 0.350640
Si Si7 0.910366 0.167022 0.857070
Si Si8 0.727934 0.637207 0.917476
O O1 0.863665 0.336528 0.460126
O O2 0.648312 0.257954 0.486368
O O3 0.502931 0.329032 0.217221
O O4 0.970415 0.225044 0.008284
O O5 0.336960 0.923710 0.660479
O O6 0.626306 0.806804 0.596244
O O7 0.490175 0.905762 0.107584
O O8 0.144047 0.867480 0.942104
O O9 0.165054 0.114572 0.591061
O O10 0.500000 0.000000 0.500000
O O11 0.447820 0.456468 0.609697
O O12 0.982271 0.570500 0.702183
O O13 0.262591 0.563949 0.049519
O O14 0.000000 0.500000 0.000000
O O15 0.428015 0.381935 0.862477
O O16 0.382596 0.801263 0.204019
O O17 0.792567 0.691739 0.111342
#
# Coordination Sequence:
#
# PCOD9043497 Si02
#       8
#     2   2   2   2   2   2   2   2
#     4   9  19  36  62  88 123 166 216 277 343 402
#     4  11  24  46  70 102 139 184 230 284 342 409
#     4  12  28  45  70 107 141 183 237 278 339 421
#     4   9  18  34  55  78 118 167 210 273 329 400
#     4   9  18  35  55  81 118 161 216 270 334 403
#     4   9  19  42  64  92 130 172 221 280 342 404
#     4  10  23  45  71  96 140 179 223 293 347 402
#     4   9  18  35  55  86 120 158 213 275 335 401
#
# _framework density 27.123984
#
# number of rings (size 3 to 8) (size 9 to 14) (size 15 to 20)
#    0.000    2.250    1.250    0.375    3.500    2.500 
#    4.500    9.375    0.000    0.000    0.000    0.000 
#    0.000    0.000    0.000    0.000    0.000    0.000 
#
# Total GULP energy -89550.976189 kJ/mol
# GULP energy per Si atom -5596.936012 kJ/mol
# Density = 2.706225 g / cm^3
# Si number density = 27.123984 Si / 1000 Ang^3
#
#
#
# Elastic Constant Matrix: (Units=GPa)
#
#
# Indices 1 2 3 4 5 6 
#
# 1 57.0357 47.0200 26.3855 14.9205 13.3329 12.4902
# 2 47.0200 180.4012 54.2710 21.3947 17.3106 40.5697
# 3 26.3855 54.2710 116.4356 11.7789 25.0739 18.1058
# 4 14.9205 21.3947 11.7789 55.5955 8.9677 4.8429
# 5 13.3329 17.3106 25.0739 8.9677 48.5345 3.2276
# 6 12.4902 40.5697 18.1058 4.8429 3.2276 45.9052
#
#
#
# Elastic Compliance Matrix: (Units=1/GPa)
#
#
# Indices 1 2 3 4 5 6 
#
# 1 0.024333 -0.004753 -0.002093 -0.003661 -0.003166 -0.000986
# 2 -0.004753 0.008788 -0.001992 -0.001166 -0.000215 -0.005550
# 3 -0.002093 -0.001992 0.011225 -0.000192 -0.004360 -0.001771
# 4 -0.003661 -0.001166 -0.000192 0.019791 -0.002147 0.000166
# 5 -0.003166 -0.000215 -0.004360 -0.002147 0.024113 0.001302
# 6 -0.000986 -0.005550 -0.001771 0.000166 0.001302 0.027546
#
#
# Mechanical properties :
#
#
# Convention : Reuss Voigt Hill
#
# Bulk Modulus (GPa) = 37.49485 67.69173 52.59329
# Shear Modulus (GPa) = 35.12146 45.08676 40.10411
#
# Velocity S-wave (km/s) = 3.60230 4.08149 3.84936
# Velocity P-wave (km/s) = 5.58172 6.87183 6.26010
#
# Compressibility (1/GPa) = 0.02667033
#
# Stress axis : x y z
#
# Youngs Moduli (GPa) = 41.09603 113.78847 89.08695
#
# Poissons Ratio (x) = 0.54081 0.18650
# Poissons Ratio (y) = 0.19532 0.17745
# Poissons Ratio (z) = 0.08603 0.22665
#
# Static dielectric constant tensor:
#      x y z
#    x 2.177440 -0.036660 -0.023000 
#    y -0.036660 2.072900 0.005350 
#    z -0.023000 0.005350 2.225860 
# 
# From -- ./inp_files/14653.got.cif
#   From: 2010.05.17/outbox.cif.g08.bks.cpg/sg2_8_cif.got.tgz:14653.got - 2010.06.03 11:33:40.
