data_PCOD9043516
_publ_section_title
;
Structure prediction by ZEFSAII (Michael W. Deem and Ramdas Pophale) SiO2 
 PCOD9043516
Probable space group: P -1
;
_chemical_formula_sum "Si O2"
_cell_formula_units_Z 14
_cell_length_a 17.077366
_cell_length_b 12.378022
_cell_length_c 11.026283
_cell_angle_alpha 26.721812
_cell_angle_beta 147.719623
_cell_angle_gamma 145.223797
_cell_volume 538.017338
_symmetry_space_group_name_H-M "P -1"
_symmetry_group_IT_number 2
_symmetry_cell_setting 'triclinic'
loop_
_space_group_symop_operation_xyz
x,y,z
-x,-y,-z
loop_
_atom_site_type_symbol
_atom_site_label
_atom_site_fract_x
_atom_site_fract_y
_atom_site_fract_z
Si Si1 0.207015 0.095059 0.953126
Si Si2 0.950357 0.164109 0.424163
Si Si3 0.762234 0.574550 0.568001
Si Si4 0.261486 0.184508 0.203042
Si Si5 0.114216 0.599756 0.663853
Si Si6 0.417055 0.881760 0.319219
Si Si7 0.609165 0.883014 0.180819
O O1 0.268981 0.313267 0.717038
O O2 0.038721 0.984823 0.787961
O O3 0.193758 0.183742 0.980697
O O4 0.331084 0.938405 0.268114
O O5 0.957963 0.379930 0.318698
O O6 0.940159 0.719556 0.662802
O O7 0.778777 0.037021 0.292442
O O8 0.720152 0.288316 0.770067
O O9 0.651943 0.618764 0.485352
O O10 0.442521 0.232044 0.374289
O O11 0.198069 0.895915 0.453080
O O12 0.217526 0.404848 0.996867
O O13 0.000000 0.500000 0.500000
O O14 0.462339 0.106467 0.057610
O O15 0.500000 0.000000 0.000000
#
# Coordination Sequence:
#
# PCOD9043516 Si02
#       7
#     2   2   2   2   2   2   2
#     4   9  23  43  67 100 141 185 233 289 359 424
#     4  10  23  45  71  99 144 188 236 300 351 433
#     4   9  23  43  66 100 132 183 240 286 356 425
#     4  12  27  44  74 106 151 187 240 301 356 420
#     4  12  26  46  71 107 145 191 242 293 356 428
#     4  11  25  42  71 102 139 188 237 295 364 430
#     4  11  24  46  67  99 140 182 242 300 364 421
#
# _framework density 26.021467000000001
#
# number of rings (size 3 to 8) (size 9 to 14) (size 15 to 20)
#    0.857    0.571    1.429    2.143   10.000    1.714 
#    2.571    0.000    0.000    0.000    0.000    0.000 
#    0.000    0.000    0.000    0.000    0.000    0.000 
#
# Total GULP energy -77945.203366 kJ/mol
# GULP energy per Si atom -5567.514526 kJ/mol
# Density = 2.596224 g / cm^3
# Si number density = 26.021467 Si / 1000 Ang^3
#
#
#
# Elastic Constant Matrix: (Units=GPa)
#
#
# Indices 1 2 3 4 5 6 
#
# 1 116.5523 16.9974 39.0736 -17.0996 48.1108 -19.8367
# 2 16.9974 70.3196 23.9834 -8.1292 15.1880 4.8540
# 3 39.0736 23.9834 108.4508 0.5355 34.0757 2.7257
# 4 -17.0996 -8.1292 0.5355 43.9362 -8.5629 15.4126
# 5 48.1108 15.1880 34.0757 -8.5629 54.2066 1.0161
# 6 -19.8367 4.8540 2.7257 15.4126 1.0161 43.7258
#
#
#
# Elastic Compliance Matrix: (Units=1/GPa)
#
#
# Indices 1 2 3 4 5 6 
#
# 1 0.015998 -0.000906 -0.001717 0.000972 -0.012852 0.007421
# 2 -0.000906 0.016330 -0.002782 0.003582 -0.001396 -0.003280
# 3 -0.001717 -0.002782 0.012293 -0.002368 -0.005794 -0.000267
# 4 0.000972 0.003582 -0.002368 0.028100 0.004246 -0.009813
# 5 -0.012852 -0.001396 -0.005794 0.004246 0.034701 -0.007617
# 6 0.007421 -0.003280 -0.000267 -0.009813 -0.007617 0.030253
#
#
# Mechanical properties :
#
#
# Convention : Reuss Voigt Hill
#
# Bulk Modulus (GPa) = 29.57427 50.60348 40.08887
# Shear Modulus (GPa) = 31.29785 42.72493 37.01139
#
# Velocity S-wave (km/s) = 3.47186 4.05645 3.77548
# Velocity P-wave (km/s) = 5.24040 6.43651 5.86901
#
# Compressibility (1/GPa) = 0.03381318
#
# Stress axis : x y z
#
# Youngs Moduli (GPa) = 62.50750 61.23548 81.34462
#
# Poissons Ratio (x) = 0.05546 0.13966
# Poissons Ratio (y) = 0.05661 0.22628
# Poissons Ratio (z) = 0.10732 0.17034
#
# Static dielectric constant tensor:
#      x y z
#    x 2.196640 0.116970 -0.083050 
#    y 0.116970 2.095400 -0.059880 
#    z -0.083050 -0.059880 2.278090 
# 
# From -- ./inp_files/470265.got.cif
#   From: 2010.05.17/outbox.cif.g08.bks.cpg/sg2_236_cif.got.tgz:470265.got - 2010.06.03 11:33:40.
