data_PCOD9043908
_publ_section_title
;
Structure prediction by ZEFSAII (Michael W. Deem and Ramdas Pophale) SiO2 
 PCOD9043908
Probable space group: P -1
;
_chemical_formula_sum "Si O2"
_cell_formula_units_Z 14
_cell_length_a 16.558863
_cell_length_b 7.220535
_cell_length_c 7.231835
_cell_angle_alpha 98.350395
_cell_angle_beta 76.898708
_cell_angle_gamma 62.268552
_cell_volume 713.211733
_symmetry_space_group_name_H-M "P -1"
_symmetry_group_IT_number 2
_symmetry_cell_setting 'triclinic'
loop_
_space_group_symop_operation_xyz
x,y,z
-x,-y,-z
loop_
_atom_site_type_symbol
_atom_site_label
_atom_site_fract_x
_atom_site_fract_y
_atom_site_fract_z
Si Si1 0.607521 0.161754 0.272099
Si Si2 0.430339 0.173269 0.911505
Si Si3 0.447955 0.623883 0.275627
Si Si4 0.959667 0.753090 0.603026
Si Si5 0.723546 0.390642 0.796549
Si Si6 0.120181 0.879589 0.613999
Si Si7 0.814319 0.056096 0.011760
O O1 0.518772 0.366559 0.241421
O O2 0.601806 0.254156 0.491625
O O3 0.791780 0.252953 0.911031
O O4 0.591720 0.958917 0.246742
O O5 0.485193 0.285784 0.813597
O O6 0.332417 0.355419 0.087984
O O7 0.500000 0.000000 0.000000
O O8 0.362115 0.662224 0.191111
O O9 0.000000 0.500000 0.500000
O O10 0.041458 0.805895 0.633284
O O11 0.913519 0.906686 0.467152
O O12 0.881664 0.841971 0.823096
O O13 0.784555 0.313781 0.565675
O O14 0.710867 0.087885 0.120049
O O15 0.139090 0.926374 0.818974
#
# Coordination Sequence:
#
# PCOD9043908 Si02
#       7
#     2   2   2   2   2   2   2
#     4  11  23  39  64  92 128 173 216 261 310 372
#     4  12  23  37  60  90 129 176 219 260 305 364
#     4  11  22  43  60  88 135 173 215 260 310 367
#     4  10  24  45  71  95 122 158 205 262 321 388
#     4  11  22  41  64  90 130 171 213 258 311 373
#     4  10  23  46  66  93 126 162 203 260 324 379
#     4  11  22  43  67  93 128 166 206 260 322 373
#
# _framework density 19.629515000000001
#
# number of rings (size 3 to 8) (size 9 to 14) (size 15 to 20)
#    0.000    1.143    4.286    2.143    2.000    0.571 
#    5.143    0.000    0.000    0.000    0.000    0.000 
#    0.000    0.000    0.000    0.000    0.000    0.000 
#
# Total GULP energy -78208.314439 kJ/mol
# GULP energy per Si atom -5586.308174 kJ/mol
# Density = 1.958484 g / cm^3
# Si number density = 19.629515 Si / 1000 Ang^3
#
#
#
# Elastic Constant Matrix: (Units=GPa)
#
#
# Indices 1 2 3 4 5 6 
#
# 1 78.7068 19.2632 53.1251 9.4570 15.9463 -8.1874
# 2 19.2632 80.1402 53.8679 26.9029 6.2836 -5.5895
# 3 53.1251 53.8679 171.7118 19.9717 -5.6614 -10.9777
# 4 9.4570 26.9029 19.9717 34.5809 -7.5467 -0.1313
# 5 15.9463 6.2836 -5.6614 -7.5467 39.0690 -4.3673
# 6 -8.1874 -5.5895 -10.9777 -0.1313 -4.3673 25.5927
#
#
#
# Elastic Compliance Matrix: (Units=1/GPa)
#
#
# Indices 1 2 3 4 5 6 
#
# 1 0.019283 0.002435 -0.006247 -0.005738 -0.010021 0.002282
# 2 0.002435 0.022139 -0.005987 -0.016258 -0.008391 0.001531
# 3 -0.006247 -0.005987 0.009702 0.001970 0.005501 0.001804
# 4 -0.005738 -0.016258 0.001970 0.044982 0.013711 -0.001971
# 5 -0.010021 -0.008391 0.005501 0.013711 0.034854 0.003339
# 6 0.002282 0.001531 0.001804 -0.001971 0.003339 0.041472
#
#
# Mechanical properties :
#
#
# Convention : Reuss Voigt Hill
#
# Bulk Modulus (GPa) = 31.71826 64.78567 48.25197
# Shear Modulus (GPa) = 24.68674 33.46871 29.07772
#
# Velocity S-wave (km/s) = 3.55016 4.13367 3.85298
# Velocity P-wave (km/s) = 5.74442 7.47388 6.66548
#
# Compressibility (1/GPa) = 0.03152758
#
# Stress axis : x y z
#
# Youngs Moduli (GPa) = 51.85927 45.16878 103.07071
#
# Poissons Ratio (x) = -0.10999 0.64387
# Poissons Ratio (y) = -0.12628 0.61704
# Poissons Ratio (z) = 0.32396 0.27041
#
# Static dielectric constant tensor:
#      x y z
#    x 1.688640 -0.010750 -0.010010 
#    y -0.010750 1.678050 -0.011020 
#    z -0.010010 -0.011020 1.702890 
# 
# From -- ./inp_files/322869.got.cif
#   From: 2010.05.17/outbox.cif.g08.bks.cpg/sg2_162_cif.got.tgz:322869.got - 2010.06.03 11:33:40.
