data_PCOD9043398
_publ_section_title
;
Structure prediction by ZEFSAII (Michael W. Deem and Ramdas Pophale) SiO2 
 PCOD9043398
Probable space group: P -1
;
_chemical_formula_sum "Si O2"
_cell_formula_units_Z 16
_cell_length_a 8.241393
_cell_length_b 12.310358
_cell_length_c 15.777105
_cell_angle_alpha 29.658669
_cell_angle_beta 119.085185
_cell_angle_gamma 107.590664
_cell_volume 664.895331
_symmetry_space_group_name_H-M "P -1"
_symmetry_group_IT_number 2
_symmetry_cell_setting 'triclinic'
loop_
_space_group_symop_operation_xyz
x,y,z
-x,-y,-z
loop_
_atom_site_type_symbol
_atom_site_label
_atom_site_fract_x
_atom_site_fract_y
_atom_site_fract_z
Si Si1 0.607279 0.580871 0.710996
Si Si2 0.471893 0.246270 0.674235
Si Si3 0.999690 0.263466 0.314024
Si Si4 0.187188 0.823405 0.084009
Si Si5 0.832471 0.711169 0.284851
Si Si6 0.843881 0.637973 0.152106
Si Si7 0.638712 0.565605 0.922238
Si Si8 0.410120 0.996005 0.291965
O O1 0.683023 0.353333 0.829120
O O2 0.585500 0.523426 0.841870
O O3 0.418566 0.757468 0.502408
O O4 0.787400 0.700058 0.671590
O O5 0.500000 0.500000 0.500000
O O6 0.680358 0.115281 0.852206
O O7 0.325868 0.240884 0.714830
O O8 0.435048 0.122010 0.663387
O O9 0.905778 0.392482 0.288909
O O10 0.854170 0.407863 0.106739
O O11 0.000000 0.000000 0.500000
O O12 0.045004 0.700254 0.174227
O O13 0.090978 0.063861 0.853409
O O14 0.756958 0.651769 0.214298
O O15 0.000000 0.500000 0.500000
O O16 0.739453 0.817129 0.931265
O O17 0.590033 0.837075 0.742124
O O18 0.500000 0.500000 0.000000
#
# Coordination Sequence:
#
# PCOD9043398 Si02
#       8
#     2   2   2   2   2   2   2   2
#     4  11  24  44  73  99 133 183 223 273 350 396
#     4  12  25  45  67  98 139 179 224 275 341 403
#     4  10  23  45  70  99 137 179 225 281 333 402
#     4  11  24  43  71  98 139 178 222 281 337 403
#     4  12  27  40  67 102 134 177 228 274 338 402
#     4  10  24  45  68 103 138 177 228 283 334 399
#     4  11  25  44  70 102 135 172 228 285 332 403
#     4  11  24  43  71  96 138 177 229 275 340 398
#
# _framework density 24.063941
#
# number of rings (size 3 to 8) (size 9 to 14) (size 15 to 20)
#    0.000    1.000    2.500    3.000    5.250    2.000 
#    2.250    0.000    0.000    0.000    0.000    0.000 
#    0.000    0.000    0.000    0.000    0.000    0.000 
#
# Total GULP energy -89315.883267 kJ/mol
# GULP energy per Si atom -5582.242704 kJ/mol
# Density = 2.400917 g / cm^3
# Si number density = 24.063941 Si / 1000 Ang^3
#
#
#
# Elastic Constant Matrix: (Units=GPa)
#
#
# Indices 1 2 3 4 5 6 
#
# 1 50.5898 14.9392 4.5685 -0.2897 -6.1141 -11.2419
# 2 14.9392 111.3227 50.1467 -7.0878 -5.1092 -28.7754
# 3 4.5685 50.1467 151.3744 -22.5391 8.7931 -10.3677
# 4 -0.2897 -7.0878 -22.5391 55.9269 -1.8977 -1.4173
# 5 -6.1141 -5.1092 8.7931 -1.8977 31.0140 6.3353
# 6 -11.2419 -28.7754 -10.3677 -1.4173 6.3353 35.8830
#
#
#
# Elastic Compliance Matrix: (Units=1/GPa)
#
#
# Indices 1 2 3 4 5 6 
#
# 1 0.021693 -0.001453 0.000029 0.000171 0.002994 0.005118
# 2 -0.001453 0.013241 -0.003737 0.000429 0.001164 0.008895
# 3 0.000029 -0.003737 0.008434 0.002831 -0.002841 0.000062
# 4 0.000171 0.000429 0.002831 0.019129 0.000072 0.001959
# 5 0.002994 0.001164 -0.002841 0.000072 0.034878 -0.005104
# 6 0.005118 0.008895 0.000062 0.001959 -0.005104 0.037601
#
#
# Mechanical properties :
#
#
# Convention : Reuss Voigt Hill
#
# Bulk Modulus (GPa) = 30.26088 50.28840 40.27464
# Shear Modulus (GPa) = 31.98672 40.80696 36.39684
#
# Velocity S-wave (km/s) = 3.64983 4.12244 3.89331
# Velocity P-wave (km/s) = 5.51037 6.60322 6.08139
#
# Compressibility (1/GPa) = 0.03304596
#
# Stress axis : x y z
#
# Youngs Moduli (GPa) = 46.09700 75.52131 118.56698
#
# Poissons Ratio (x) = 0.10973 -0.00340
# Poissons Ratio (y) = 0.06698 0.44310
# Poissons Ratio (z) = -0.00132 0.28223
#
# Static dielectric constant tensor:
#      x y z
#    x 1.952760 0.036830 0.035690 
#    y 0.036830 2.006240 -0.011830 
#    z 0.035690 -0.011830 2.005620 
# 
# From -- ./inp_files/499779.got.cif
#   From: 2010.05.17/outbox.cif.g08.bks.cpg/sg2_250_cif.got.tgz:499779.got - 2010.06.03 11:33:40.
