data_PCOD9043192
_publ_section_title
;
Structure prediction by ZEFSAII (Michael W. Deem and Ramdas Pophale) SiO2 
 PCOD9043192
Probable space group: P -1
;
_chemical_formula_sum "Si O2"
_cell_formula_units_Z 16
_cell_length_a 6.194283
_cell_length_b 22.127697
_cell_length_c 6.265694
_cell_angle_alpha 80.939160
_cell_angle_beta 102.683027
_cell_angle_gamma 123.550609
_cell_volume 697.575250
_symmetry_space_group_name_H-M "P -1"
_symmetry_group_IT_number 2
_symmetry_cell_setting 'triclinic'
loop_
_space_group_symop_operation_xyz
x,y,z
-x,-y,-z
loop_
_atom_site_type_symbol
_atom_site_label
_atom_site_fract_x
_atom_site_fract_y
_atom_site_fract_z
Si Si1 0.838146 0.274935 0.553828
Si Si2 0.301452 0.517341 0.591927
Si Si3 0.449097 0.164124 0.846175
Si Si4 0.454868 0.945996 0.829630
Si Si5 0.462858 0.706025 0.915006
Si Si6 0.077755 0.947718 0.441070
Si Si7 0.252695 0.330639 0.289846
Si Si8 0.989210 0.607112 0.100345
O O1 0.659226 0.200428 0.680772
O O2 0.669031 0.284550 0.331062
O O3 0.078422 0.281521 0.472924
O O4 0.947421 0.340328 0.711538
O O5 0.500000 0.500000 0.500000
O O6 0.470744 0.603684 0.604093
O O7 0.230290 0.471510 0.820124
O O8 0.000000 0.500000 0.500000
O O9 0.164006 0.113923 0.710657
O O10 0.514857 0.117318 0.038877
O O11 0.475222 0.230175 0.947608
O O12 0.184165 0.918108 0.662639
O O13 0.685099 0.998145 0.689866
O O14 0.500000 0.000000 0.000000
O O15 0.715609 0.710684 0.874825
O O16 0.269892 0.630450 0.043205
O O17 0.000000 0.000000 0.500000
O O18 0.124475 0.370735 0.131295
#
# Coordination Sequence:
#
# PCOD9043192 Si02
#       8
#     2   2   2   2   2   2   2   2
#     4  10  23  47  66 101 148 186 244 299 360 446
#     4  12  26  44  81 108 146 200 255 317 388 441
#     4  11  25  48  72 104 149 190 241 297 379 441
#     4  11  25  47  74 108 142 183 240 306 363 440
#     4  10  25  45  68 102 146 195 241 303 365 456
#     4  11  25  47  75 105 145 182 237 306 360 440
#     4  11  24  46  74 103 147 190 250 304 372 441
#     4  10  23  45  69 105 144 189 247 310 371 439
#
# _framework density 22.936591
#
# number of rings (size 3 to 8) (size 9 to 14) (size 15 to 20)
#    0.000    1.250    2.500    1.500    5.250    2.500 
#   18.000    0.000    0.000    0.000    0.000    0.000 
#    0.000    0.000    0.000    0.000    0.000    0.000 
#
# Total GULP energy -89364.277903 kJ/mol
# GULP energy per Si atom -5585.267369 kJ/mol
# Density = 2.288439 g / cm^3
# Si number density = 22.936591 Si / 1000 Ang^3
#
#
#
# Elastic Constant Matrix: (Units=GPa)
#
#
# Indices 1 2 3 4 5 6 
#
# 1 109.0858 39.3711 50.9248 -6.1563 -12.5499 8.0029
# 2 39.3711 76.5029 34.3795 -15.7819 -0.0445 12.0048
# 3 50.9248 34.3795 110.4969 -12.7376 0.1300 16.7082
# 4 -6.1563 -15.7819 -12.7376 37.8005 6.8661 -5.9657
# 5 -12.5499 -0.0445 0.1300 6.8661 52.7680 6.5581
# 6 8.0029 12.0048 16.7082 -5.9657 6.5581 25.1688
#
#
#
# Elastic Compliance Matrix: (Units=1/GPa)
#
#
# Indices 1 2 3 4 5 6 
#
# 1 0.013648 -0.005282 -0.004910 -0.002287 0.003555 -0.000029
# 2 -0.005282 0.018546 -0.002053 0.005826 -0.001492 -0.004034
# 3 -0.004910 -0.002053 0.013002 0.002015 -0.000792 -0.005407
# 4 -0.002287 0.005826 0.002015 0.030984 -0.005237 0.005320
# 5 0.003555 -0.001492 -0.000792 -0.005237 0.021309 -0.006687
# 6 -0.000029 -0.004034 -0.005407 0.005320 -0.006687 0.048258
#
#
# Mechanical properties :
#
#
# Convention : Reuss Voigt Hill
#
# Bulk Modulus (GPa) = 48.29352 60.60405 54.44879
# Shear Modulus (GPa) = 28.22634 34.57481 31.40057
#
# Velocity S-wave (km/s) = 3.51183 3.88675 3.70404
# Velocity P-wave (km/s) = 6.12739 6.82805 6.48718
#
# Compressibility (1/GPa) = 0.02070671
#
# Stress axis : x y z
#
# Youngs Moduli (GPa) = 73.27277 53.91919 76.90950
#
# Poissons Ratio (x) = 0.28482 0.37760
# Poissons Ratio (y) = 0.38706 0.15786
# Poissons Ratio (z) = 0.35975 0.11067
#
# Static dielectric constant tensor:
#      x y z
#    x 1.976520 0.026220 0.028510 
#    y 0.026220 1.847400 -0.006470 
#    z 0.028510 -0.006470 1.854660 
# 
# From -- ./inp_files/11280.got.cif
#   From: 2010.05.17/outbox.cif.g08.bks.cpg/sg2_6_cif.got.tgz:11280.got - 2010.06.03 11:33:40.
