data_PCOD9043634
_publ_section_title
;
Structure prediction by ZEFSAII (Michael W. Deem and Ramdas Pophale) SiO2 
 PCOD9043634
Probable space group: P -1
;
_chemical_formula_sum "Si O2"
_cell_formula_units_Z 16
_cell_length_a 6.920386
_cell_length_b 15.882565
_cell_length_c 22.309648
_cell_angle_alpha 20.741844
_cell_angle_beta 76.942875
_cell_angle_gamma 89.242540
_cell_volume 692.692393
_symmetry_space_group_name_H-M "P -1"
_symmetry_group_IT_number 2
_symmetry_cell_setting 'triclinic'
loop_
_space_group_symop_operation_xyz
x,y,z
-x,-y,-z
loop_
_atom_site_type_symbol
_atom_site_label
_atom_site_fract_x
_atom_site_fract_y
_atom_site_fract_z
Si Si1 0.552518 0.618555 0.692849
Si Si2 0.213055 0.837937 0.119564
Si Si3 0.817736 0.686104 0.506708
Si Si4 0.381491 0.224160 0.649071
Si Si5 0.051574 0.206324 0.951310
Si Si6 0.598209 0.306539 0.006082
Si Si7 0.911454 0.280835 0.242604
Si Si8 0.785665 0.667363 0.930334
O O1 0.707981 0.633310 0.615721
O O2 0.710561 0.942332 0.493853
O O3 0.288665 0.504482 0.761034
O O4 0.527280 0.391219 0.893843
O O5 0.104251 0.530451 0.363772
O O6 0.144879 0.033412 0.026766
O O7 0.112966 0.778484 0.097942
O O8 0.500000 0.000000 0.000000
O O9 0.620751 0.647040 0.500213
O O10 0.035763 0.016639 0.263957
O O11 0.500000 0.500000 0.500000
O O12 0.478851 0.022216 0.769996
O O13 0.118384 0.993650 0.849623
O O14 0.466109 0.365588 0.028527
O O15 0.888097 0.529002 0.847533
O O16 0.077467 0.310532 0.154815
O O17 0.780210 0.429055 0.130329
#
# Coordination Sequence:
#
# PCOD9043634 Si02
#       8
#     2   2   2   2   2   2   2   2
#     4  11  25  44  75 102 142 188 236 298 357 424
#     4  11  23  45  74  98 142 182 242 292 358 423
#     4  11  23  45  68 101 141 189 237 295 357 425
#     4  12  28  44  70 105 147 189 236 295 353 429
#     4  11  26  46  68 106 139 189 235 299 352 423
#     4  12  25  47  71 106 144 191 241 292 358 426
#     4  10  23  49  71 106 144 180 245 298 361 419
#     4  10  23  45  73 105 139 187 232 303 357 431
#
# _framework density 23.098272999999999
#
# number of rings (size 3 to 8) (size 9 to 14) (size 15 to 20)
#    0.000    1.000    2.500    3.000    5.250    1.000 
#    6.750    0.000    0.000    0.000    0.000    0.000 
#    0.000    0.000    0.000    0.000    0.000    0.000 
#
# Total GULP energy -89477.997488 kJ/mol
# GULP energy per Si atom -5592.374843 kJ/mol
# Density = 2.304570 g / cm^3
# Si number density = 23.098273 Si / 1000 Ang^3
#
#
#
# Elastic Constant Matrix: (Units=GPa)
#
#
# Indices 1 2 3 4 5 6 
#
# 1 122.4805 39.8288 44.3065 -15.7497 11.1786 -4.6651
# 2 39.8288 72.7452 35.6632 -5.2836 11.5246 11.3558
# 3 44.3065 35.6632 100.7404 -18.9909 22.0761 5.8980
# 4 -15.7497 -5.2836 -18.9909 43.0078 3.9161 -6.2262
# 5 11.1786 11.5246 22.0761 3.9161 43.0891 4.2606
# 6 -4.6651 11.3558 5.8980 -6.2262 4.2606 35.5078
#
#
#
# Elastic Compliance Matrix: (Units=1/GPa)
#
#
# Indices 1 2 3 4 5 6 
#
# 1 0.011488 -0.005293 -0.002647 0.003093 -0.000914 0.004294
# 2 -0.005293 0.019882 -0.004629 -0.002436 -0.000696 -0.006629
# 3 -0.002647 -0.004629 0.015215 0.005825 -0.006439 0.000399
# 4 0.003093 -0.002436 0.005825 0.028081 -0.006270 0.005894
# 5 -0.000914 -0.000696 -0.006439 -0.006270 0.027823 -0.003266
# 6 0.004294 -0.006629 0.000399 0.005894 -0.003266 0.032206
#
#
# Mechanical properties :
#
#
# Convention : Reuss Voigt Hill
#
# Bulk Modulus (GPa) = 46.62591 59.50699 53.06645
# Shear Modulus (GPa) = 29.94334 36.06546 33.00440
#
# Velocity S-wave (km/s) = 3.60439 3.95573 3.78414
# Velocity P-wave (km/s) = 6.12796 6.83244 6.48976
#
# Compressibility (1/GPa) = 0.02144730
#
# Stress axis : x y z
#
# Youngs Moduli (GPa) = 87.04835 50.29640 65.72408
#
# Poissons Ratio (x) = 0.26622 0.17395
# Poissons Ratio (y) = 0.46075 0.30425
# Poissons Ratio (z) = 0.23039 0.23284
#
# Static dielectric constant tensor:
#      x y z
#    x 1.915890 -0.000360 -0.016750 
#    y -0.000360 1.890220 -0.019510 
#    z -0.016750 -0.019510 1.830840 
# 
# From -- ./inp_files/604955.got.cif
#   From: 2010.05.17/outbox.cif.g08.bks.cpg/sg2_303_cif.got.tgz:604955.got - 2010.06.03 11:33:40.
