data_PCOD9043907
_publ_section_title
;
Structure prediction by ZEFSAII (Michael W. Deem and Ramdas Pophale) SiO2 
 PCOD9043907
Probable space group: P -1
;
_chemical_formula_sum "Si O2"
_cell_formula_units_Z 10
_cell_length_a 6.743304
_cell_length_b 15.122938
_cell_length_c 11.536798
_cell_angle_alpha 24.680332
_cell_angle_beta 57.505947
_cell_angle_gamma 66.740550
_cell_volume 399.562883
_symmetry_space_group_name_H-M "P -1"
_symmetry_group_IT_number 2
_symmetry_cell_setting 'triclinic'
loop_
_space_group_symop_operation_xyz
x,y,z
-x,-y,-z
loop_
_atom_site_type_symbol
_atom_site_label
_atom_site_fract_x
_atom_site_fract_y
_atom_site_fract_z
Si Si1 0.583696 0.306166 0.993370
Si Si2 0.879427 0.681210 0.575630
Si Si3 0.056187 0.222296 0.293927
Si Si4 0.639243 0.322217 0.707137
Si Si5 0.527464 0.109324 0.603223
O O1 0.318730 0.350725 0.009407
O O2 0.533202 0.045168 0.307933
O O3 0.727468 0.426281 0.914370
O O4 0.729380 0.388463 0.731469
O O5 0.895647 0.778866 0.582346
O O6 0.702918 0.794326 0.422744
O O7 0.142254 0.695591 0.422989
O O8 0.793951 0.274013 0.311571
O O9 0.000000 0.000000 0.500000
O O10 0.500000 0.500000 0.500000
O O11 0.470091 0.073821 0.080147
#
# Coordination Sequence:
#
# PCOD9043907 Si02
#       5
#     2   2   2   2   2
#     4   9  23  45  65 103 140 173 225 281 334 405
#     4  12  23  43  75 100 136 182 225 280 343 399
#     4  10  23  46  66 106 136 178 225 282 338 406
#     4  10  24  46  69 100 140 179 226 282 337 406
#     4   9  24  44  70 101 137 173 234 274 338 401
#
# _framework density 25.027350999999999
#
# number of rings (size 3 to 8) (size 9 to 14) (size 15 to 20)
#    1.200    0.800    0.000    1.800    2.800    6.400 
#    3.600    0.000    0.000    0.000    0.000    0.000 
#    0.000    0.000    0.000    0.000    0.000    0.000 
#
# Total GULP energy -55748.007745 kJ/mol
# GULP energy per Si atom -5574.800775 kJ/mol
# Density = 2.497039 g / cm^3
# Si number density = 25.027351 Si / 1000 Ang^3
#
#
#
# Elastic Constant Matrix: (Units=GPa)
#
#
# Indices 1 2 3 4 5 6 
#
# 1 87.3913 45.0129 42.6675 18.6676 -8.7423 -11.6736
# 2 45.0129 149.2432 28.1110 5.8127 -14.8851 -16.4464
# 3 42.6675 28.1110 64.5078 15.9607 -15.3743 -8.7924
# 4 18.6676 5.8127 15.9607 33.5452 0.4289 -5.8488
# 5 -8.7423 -14.8851 -15.3743 0.4289 44.8177 -6.5607
# 6 -11.6736 -16.4464 -8.7924 -5.8488 -6.5607 62.1002
#
#
#
# Elastic Compliance Matrix: (Units=1/GPa)
#
#
# Indices 1 2 3 4 5 6 
#
# 1 0.019388 -0.003766 -0.009965 -0.005271 -0.000740 0.000662
# 2 -0.003766 0.008316 -0.000734 0.001279 0.002016 0.001724
# 3 -0.009965 -0.000734 0.025917 -0.006446 0.007019 0.001736
# 4 -0.005271 0.001279 -0.006446 0.035889 -0.002938 0.001505
# 5 -0.000740 0.002016 0.007019 -0.002938 0.025836 0.003841
# 6 0.000662 0.001724 0.001736 0.001505 0.003841 0.017477
#
#
# Mechanical properties :
#
#
# Convention : Reuss Voigt Hill
#
# Bulk Modulus (GPa) = 40.49983 59.19167 49.84575
# Shear Modulus (GPa) = 29.41468 40.44934 34.93201
#
# Velocity S-wave (km/s) = 3.43199 4.02457 3.74003
# Velocity P-wave (km/s) = 5.64996 6.73040 6.21371
#
# Compressibility (1/GPa) = 0.02469146
#
# Stress axis : x y z
#
# Youngs Moduli (GPa) = 51.57816 120.25288 38.58456
#
# Poissons Ratio (x) = 0.45290 0.38448
# Poissons Ratio (y) = 0.19426 0.02831
# Poissons Ratio (z) = 0.51396 0.08824
#
# Static dielectric constant tensor:
#      x y z
#    x 1.993080 -0.002630 0.041430 
#    y -0.002630 2.003990 -0.056100 
#    z 0.041430 -0.056100 2.021130 
# 
# From -- ./inp_files/58066.got.cif
#   From: 2010.05.17/outbox.cif.g08.bks.cpg/sg2_30_cif.got.tgz:58066.got - 2010.06.03 11:33:40.
