data_PCOD9044408
_publ_section_title
;
Structure prediction by ZEFSAII (Michael W. Deem and Ramdas Pophale) SiO2 
 PCOD9044408
Probable space group: P -1
;
_chemical_formula_sum "Si O2"
_cell_formula_units_Z 14
_cell_length_a 10.598273
_cell_length_b 8.001446
_cell_length_c 15.167660
_cell_angle_alpha 54.983370
_cell_angle_beta 133.505417
_cell_angle_gamma 145.495945
_cell_volume 528.401316
_symmetry_space_group_name_H-M "P -1"
_symmetry_group_IT_number 2
_symmetry_cell_setting 'triclinic'
loop_
_space_group_symop_operation_xyz
x,y,z
-x,-y,-z
loop_
_atom_site_type_symbol
_atom_site_label
_atom_site_fract_x
_atom_site_fract_y
_atom_site_fract_z
Si Si1 0.745274 0.684787 0.437289
Si Si2 0.080983 0.178139 0.701646
Si Si3 0.161546 0.811248 0.914317
Si Si4 0.738729 0.837537 0.970243
Si Si5 0.336163 0.735088 0.738604
Si Si6 0.408495 0.754121 0.175191
Si Si7 0.424425 0.091837 0.512009
O O1 0.802534 0.624254 0.389918
O O2 0.539880 0.675344 0.310472
O O3 0.654675 0.437922 0.536719
O O4 0.000000 0.000000 0.500000
O O5 0.132190 0.384121 0.741445
O O6 0.194565 0.046327 0.800738
O O7 0.787157 0.936312 0.618447
O O8 0.879594 0.498659 0.850098
O O9 0.329115 0.750405 0.036895
O O10 0.176328 0.944764 0.974813
O O11 0.595375 0.831483 0.824012
O O12 0.500000 0.500000 0.000000
O O13 0.000000 0.000000 0.000000
O O14 0.389756 0.898018 0.805817
O O15 0.321370 0.887780 0.608885
O O16 0.500000 0.000000 0.500000
#
# Coordination Sequence:
#
# PCOD9044408 Si02
#       7
#     2   2   2   2   2   2   2
#     4  12  28  46  72 107 144 194 245 307 382 445
#     4  12  25  46  75 104 144 190 248 309 368 456
#     4  10  23  46  74 104 146 192 247 306 381 445
#     4  11  25  45  75 110 148 196 252 316 372 454
#     4  11  25  45  72 107 142 193 246 303 375 448
#     4  10  24  46  71 103 147 186 245 307 378 449
#     4  12  27  45  71 102 145 193 244 308 364 454
#
# _framework density 26.495011000000002
#
# number of rings (size 3 to 8) (size 9 to 14) (size 15 to 20)
#    0.000    0.857    4.286    1.286    8.000    1.714 
#    2.571    0.000    0.000    0.000    0.000    0.000 
#    0.000    0.000    0.000    0.000    0.000    0.000 
#
# Total GULP energy -77957.582646 kJ/mol
# GULP energy per Si atom -5568.398760 kJ/mol
# Density = 2.643471 g / cm^3
# Si number density = 26.495011 Si / 1000 Ang^3
#
#
#
# Elastic Constant Matrix: (Units=GPa)
#
#
# Indices 1 2 3 4 5 6 
#
# 1 46.7339 4.7643 23.2370 -0.2643 9.2676 -2.8727
# 2 4.7643 156.7531 43.1357 -7.2782 7.4891 -14.8668
# 3 23.2370 43.1357 174.6487 -0.6479 30.5219 13.0056
# 4 -0.2643 -7.2782 -0.6479 43.4224 -0.5674 -6.3586
# 5 9.2676 7.4891 30.5219 -0.5674 43.6386 3.6334
# 6 -2.8727 -14.8668 13.0056 -6.3586 3.6334 19.9357
#
#
#
# Elastic Compliance Matrix: (Units=1/GPa)
#
#
# Indices 1 2 3 4 5 6 
#
# 1 0.024181 0.001181 -0.003458 0.001376 -0.003543 0.007706
# 2 0.001181 0.008080 -0.002729 0.002617 -0.000435 0.008890
# 3 -0.003458 -0.002729 0.008092 -0.001520 -0.003844 -0.007597
# 4 0.001376 0.002617 -0.001520 0.025090 -0.000284 0.011196
# 5 -0.003543 -0.000435 -0.003844 -0.000284 0.026701 -0.003284
# 6 0.007706 0.008890 -0.007597 0.011196 -0.003284 0.067027
#
#
# Mechanical properties :
#
#
# Convention : Reuss Voigt Hill
#
# Bulk Modulus (GPa) = 32.96073 57.82331 45.39202
# Shear Modulus (GPa) = 27.88676 41.86592 34.87634
#
# Velocity S-wave (km/s) = 3.24779 3.97941 3.63207
# Velocity P-wave (km/s) = 5.15088 6.55636 5.89565
#
# Compressibility (1/GPa) = 0.03033914
#
# Stress axis : x y z
#
# Youngs Moduli (GPa) = 41.35485 123.76269 123.58147
#
# Poissons Ratio (x) = -0.14613 0.42740
# Poissons Ratio (y) = -0.04883 0.33726
# Poissons Ratio (z) = 0.14302 0.33775
#
# Static dielectric constant tensor:
#      x y z
#    x 2.291430 0.035860 0.011210 
#    y 0.035860 2.160550 -0.044500 
#    z 0.011210 -0.044500 2.114680 
# 
# From -- ./inp_files/53040.got.cif
#   From: 2010.05.17/outbox.cif.g08.bks.cpg/sg2_27_cif.got.tgz:53040.got - 2010.06.03 11:33:40.
