data_PCOD9044009
_publ_section_title
;
Structure prediction by ZEFSAII (Michael W. Deem and Ramdas Pophale) SiO2 
 PCOD9044009
Probable space group: P -1
;
_chemical_formula_sum "Si O2"
_cell_formula_units_Z 14
_cell_length_a 12.056899
_cell_length_b 17.090702
_cell_length_c 10.741769
_cell_angle_alpha 139.285412
_cell_angle_beta 140.608050
_cell_angle_gamma 21.907142
_cell_volume 516.203831
_symmetry_space_group_name_H-M "P -1"
_symmetry_group_IT_number 2
_symmetry_cell_setting 'triclinic'
loop_
_space_group_symop_operation_xyz
x,y,z
-x,-y,-z
loop_
_atom_site_type_symbol
_atom_site_label
_atom_site_fract_x
_atom_site_fract_y
_atom_site_fract_z
Si Si1 0.122771 0.646524 0.606163
Si Si2 0.868286 0.264076 0.545080
Si Si3 0.156717 0.501762 0.040851
Si Si4 0.634000 0.746974 0.716046
Si Si5 0.777719 0.199520 0.954599
Si Si6 0.760609 0.068904 0.170711
Si Si7 0.672338 0.748456 0.483980
O O1 0.017835 0.762169 0.523898
O O2 0.342746 0.409272 0.477758
O O3 0.804905 0.783418 0.561185
O O4 0.309418 0.634912 0.839383
O O5 0.500000 0.500000 0.500000
O O6 0.914580 0.098207 0.403297
O O7 0.944222 0.309732 0.776542
O O8 0.536541 0.236811 0.741421
O O9 0.990355 0.574303 0.854206
O O10 0.000000 0.500000 0.000000
O O11 0.427311 0.887839 0.829243
O O12 0.542713 0.858567 0.641214
O O13 0.512726 0.265506 0.091919
O O14 0.975749 0.137757 0.934542
O O15 0.000000 0.000000 0.000000
O O16 0.000000 0.500000 0.500000
#
# Coordination Sequence:
#
# PCOD9044009 Si02
#       7
#     2   2   2   2   2   2   2
#     4  11  22  43  68  99 133 177 220 274 329 401
#     4  10  17  33  62  99 123 162 223 271 322 376
#     4   9  17  33  65  95 121 165 224 271 311 384
#     4  10  21  43  67  92 131 176 227 265 320 405
#     4  12  27  43  67 102 139 171 218 281 343 384
#     4  10  21  39  63  97 131 166 219 281 326 384
#     4  10  27  46  65  96 138 181 222 265 331 408
#
# _framework density 27.121068000000001
#
# number of rings (size 3 to 8) (size 9 to 14) (size 15 to 20)
#    0.000    1.714    5.714    0.000    4.000    3.429 
#    7.714    0.714    0.000    0.000    0.000    0.000 
#    0.000    0.000    0.000    0.000    0.000    0.000 
#
# Total GULP energy -78359.745979 kJ/mol
# GULP energy per Si atom -5597.124713 kJ/mol
# Density = 2.705934 g / cm^3
# Si number density = 27.121068 Si / 1000 Ang^3
#
#
#
# Elastic Constant Matrix: (Units=GPa)
#
#
# Indices 1 2 3 4 5 6 
#
# 1 141.2636 28.1949 38.7991 -22.0335 -38.5511 -25.8369
# 2 28.1949 88.9753 45.0972 -23.9742 -11.8728 0.6766
# 3 38.7991 45.0972 176.2913 -25.8105 -7.0242 -9.1309
# 4 -22.0335 -23.9742 -25.8105 45.5440 -4.1757 -1.4085
# 5 -38.5511 -11.8728 -7.0242 -4.1757 48.7578 4.5081
# 6 -25.8369 0.6766 -9.1309 -1.4085 4.5081 32.7702
#
#
#
# Elastic Compliance Matrix: (Units=1/GPa)
#
#
# Indices 1 2 3 4 5 6 
#
# 1 0.012604 -0.000646 -0.000844 0.006413 0.009432 0.008694
# 2 -0.000646 0.014997 -0.002727 0.006298 0.003453 -0.001783
# 3 -0.000844 -0.002727 0.006927 0.002100 -0.000287 0.001451
# 4 0.006413 0.006298 0.002100 0.030564 0.009008 0.005586
# 5 0.009432 0.003453 -0.000287 0.009008 0.029200 0.003655
# 6 0.008694 -0.001783 0.001451 0.005586 0.003655 0.037548
#
#
# Mechanical properties :
#
#
# Convention : Reuss Voigt Hill
#
# Bulk Modulus (GPa) = 38.32151 70.07918 54.20034
# Shear Modulus (GPa) = 33.56351 45.04366 39.30359
#
# Velocity S-wave (km/s) = 3.52169 4.07976 3.81095
# Velocity P-wave (km/s) = 5.54048 6.93455 6.27634
#
# Compressibility (1/GPa) = 0.02609500
#
# Stress axis : x y z
#
# Youngs Moduli (GPa) = 79.33998 66.67924 144.36399
#
# Poissons Ratio (x) = 0.04307 0.12180
# Poissons Ratio (y) = 0.05124 0.39368
# Poissons Ratio (z) = 0.06694 0.18183
#
# Static dielectric constant tensor:
#      x y z
#    x 2.245160 -0.058300 -0.054680 
#    y -0.058300 2.237120 0.036790 
#    z -0.054680 0.036790 2.158450 
# 
# From -- ./inp_files/280735.got.cif
#   From: 2010.05.17/outbox.cif.g08.bks.cpg/sg2_141_cif.got.tgz:280735.got - 2010.06.03 11:33:40.
