data_PCOD9044655
_publ_section_title
;
Structure prediction by ZEFSAII (Michael W. Deem and Ramdas Pophale) SiO2 
 PCOD9044655
Probable space group: P -1
;
_chemical_formula_sum "Si O2"
_cell_formula_units_Z 10
_cell_length_a 6.779824
_cell_length_b 13.441330
_cell_length_c 5.138708
_cell_angle_alpha 58.327450
_cell_angle_beta 99.168167
_cell_angle_gamma 92.404001
_cell_volume 392.967271
_symmetry_space_group_name_H-M "P -1"
_symmetry_group_IT_number 2
_symmetry_cell_setting 'triclinic'
loop_
_space_group_symop_operation_xyz
x,y,z
-x,-y,-z
loop_
_atom_site_type_symbol
_atom_site_label
_atom_site_fract_x
_atom_site_fract_y
_atom_site_fract_z
Si Si1 0.095000 0.624337 0.787585
Si Si2 0.374272 0.621170 0.348474
Si Si3 0.218452 0.959996 0.011566
Si Si4 0.410663 0.871878 0.667239
Si Si5 0.688789 0.780083 0.471816
O O1 0.213188 0.612461 0.557255
O O2 0.909255 0.719327 0.603614
O O3 0.253781 0.650171 0.015472
O O4 0.000000 0.500000 0.000000
O O5 0.500000 0.500000 0.500000
O O6 0.541203 0.707661 0.363890
O O7 0.713871 0.126558 0.625749
O O8 0.316013 0.086620 0.822820
O O9 0.260632 0.887596 0.856770
O O10 0.000000 0.000000 0.000000
O O11 0.601046 0.787338 0.738824
O O12 0.500000 0.000000 0.500000
#
# Coordination Sequence:
#
# PCOD9044655 Si02
#       5
#     2   2   2   2   2
#     4  12  28  50  77 112 152 198 258 310 374 454
#     4  12  28  50  77 110 155 201 251 313 378 447
#     4  11  25  48  74 111 149 195 254 308 369 450
#     4  10  23  47  70 103 150 192 243 309 368 438
#     4  11  27  49  79 109 157 202 247 314 382 443
#
# _framework density 25.447413999999998
#
# number of rings (size 3 to 8) (size 9 to 14) (size 15 to 20)
#    0.000    0.800    2.000    4.200    2.800    9.600 
#    0.000    0.000    0.000    0.000    0.000    0.000 
#    0.000    0.000    0.000    0.000    0.000    0.000 
#
# Total GULP energy -55990.006551 kJ/mol
# GULP energy per Si atom -5599.000655 kJ/mol
# Density = 2.538949 g / cm^3
# Si number density = 25.447414 Si / 1000 Ang^3
#
#
#
# Elastic Constant Matrix: (Units=GPa)
#
#
# Indices 1 2 3 4 5 6 
#
# 1 170.8490 82.4954 71.7789 19.1681 -10.8763 -48.5232
# 2 82.4954 198.6597 67.4409 13.4193 -5.9137 -32.7567
# 3 71.7789 67.4409 188.0027 40.3261 -15.3566 -41.1746
# 4 19.1681 13.4193 40.3261 61.0035 -14.4354 -13.4616
# 5 -10.8763 -5.9137 -15.3566 -14.4354 53.3606 -1.8870
# 6 -48.5232 -32.7567 -41.1746 -13.4616 -1.8870 75.9019
#
#
#
# Elastic Compliance Matrix: (Units=1/GPa)
#
#
# Indices 1 2 3 4 5 6 
#
# 1 0.008862 -0.002492 -0.001546 -0.000102 0.001191 0.003762
# 2 -0.002492 0.006603 -0.001371 0.000350 -0.000056 0.000573
# 3 -0.001546 -0.001371 0.007684 -0.003665 0.000822 0.001958
# 4 -0.000102 0.000350 -0.003665 0.020232 0.004500 0.001798
# 5 0.001191 -0.000056 0.000822 0.004500 0.020519 0.002491
# 6 0.003762 0.000573 0.001958 0.001798 0.002491 0.017271
#
#
# Mechanical properties :
#
#
# Convention : Reuss Voigt Hill
#
# Bulk Modulus (GPa) = 81.10979 111.21577 96.16278
# Shear Modulus (GPa) = 52.02904 60.43962 56.23433
#
# Velocity S-wave (km/s) = 4.52660 4.87877 4.70598
# Velocity P-wave (km/s) = 7.69823 8.69112 8.20970
#
# Compressibility (1/GPa) = 0.01232897
#
# Stress axis : x y z
#
# Youngs Moduli (GPa) = 112.84061 151.43502 130.14897
#
# Poissons Ratio (x) = 0.37744 0.20124
# Poissons Ratio (y) = 0.28125 0.17848
# Poissons Ratio (z) = 0.17448 0.20768
#
# Static dielectric constant tensor:
#      x y z
#    x 2.117320 0.120220 -0.075720 
#    y 0.120220 2.230250 -0.142740 
#    z -0.075720 -0.142740 2.256480 
# 
# From -- ./inp_files/2473.got.cif
#   From: 2010.05.17/outbox.cif.g08.bks.cpg/sg2_2_cif.got.tgz:2473.got - 2010.06.03 11:33:40.
