data_PCOD9044539
_publ_section_title
;
Structure prediction by ZEFSAII (Michael W. Deem and Ramdas Pophale) SiO2 
 PCOD9044539
Probable space group: P -1
;
_chemical_formula_sum "Si O2"
_cell_formula_units_Z 16
_cell_length_a 16.314515
_cell_length_b 23.037335
_cell_length_c 5.531383
_cell_angle_alpha 120.121331
_cell_angle_beta 60.421306
_cell_angle_gamma 158.773100
_cell_volume 648.842270
_symmetry_space_group_name_H-M "P -1"
_symmetry_group_IT_number 2
_symmetry_cell_setting 'triclinic'
loop_
_space_group_symop_operation_xyz
x,y,z
-x,-y,-z
loop_
_atom_site_type_symbol
_atom_site_label
_atom_site_fract_x
_atom_site_fract_y
_atom_site_fract_z
Si Si1 0.503244 0.163585 0.154468
Si Si2 0.214267 0.281213 0.816043
Si Si3 0.704287 0.085383 0.794011
Si Si4 0.201981 0.965386 0.783832
Si Si5 0.546035 0.439885 0.046982
Si Si6 0.934408 0.893700 0.717494
Si Si7 0.767617 0.439687 0.627068
Si Si8 0.030938 0.616267 0.096770
O O1 0.574830 0.261258 0.462567
O O2 0.313689 0.985579 0.132556
O O3 0.734981 0.273652 0.989304
O O4 0.386879 0.122481 0.008760
O O5 0.430149 0.388902 0.858621
O O6 0.073313 0.126000 0.596225
O O7 0.293972 0.394104 0.764987
O O8 0.038950 0.203565 0.088747
O O9 0.680638 0.026839 0.462236
O O10 0.908986 0.268616 0.830642
O O11 0.500000 0.000000 0.000000
O O12 0.109269 0.951401 0.676297
O O13 0.668152 0.448643 0.847281
O O14 0.330090 0.291163 0.222684
O O15 0.000000 0.000000 0.000000
O O16 0.910630 0.536714 0.368012
O O17 0.898927 0.503192 0.814529
#
# Coordination Sequence:
#
# PCOD9044539 Si02
#       8
#     2   2   2   2   2   2   2   2
#     4  11  27  45  73 104 151 194 251 312 383 446
#     4  10  23  47  66 100 140 184 247 300 370 443
#     4  10  25  45  74 105 145 193 249 310 373 451
#     4  11  25  42  75 101 146 192 245 306 381 442
#     4  10  25  42  72  97 138 190 242 302 366 441
#     4  11  26  42  70 105 147 186 244 305 377 448
#     4  12  28  47  76 109 148 200 253 314 378 453
#     4  11  28  48  74 107 151 196 257 310 380 451
#
# _framework density 24.659307999999999
#
# number of rings (size 3 to 8) (size 9 to 14) (size 15 to 20)
#    0.000    1.250    0.000    2.625   17.500    2.000 
#    0.000    0.000    0.000    0.000    0.000    0.000 
#    0.000    0.000    0.000    0.000    0.000    0.000 
#
# Total GULP energy -89311.408140 kJ/mol
# GULP energy per Si atom -5581.963009 kJ/mol
# Density = 2.460318 g / cm^3
# Si number density = 24.659308 Si / 1000 Ang^3
#
#
#
# Elastic Constant Matrix: (Units=GPa)
#
#
# Indices 1 2 3 4 5 6 
#
# 1 63.2519 26.7781 24.0018 -4.9754 -9.2323 19.9164
# 2 26.7781 91.7608 38.9209 -9.3282 0.8785 5.5476
# 3 24.0018 38.9209 126.5439 1.7465 -18.0763 10.4821
# 4 -4.9754 -9.3282 1.7465 53.1381 2.9229 3.3389
# 5 -9.2323 0.8785 -18.0763 2.9229 44.2212 6.7181
# 6 19.9164 5.5476 10.4821 3.3389 6.7181 42.7805
#
#
#
# Elastic Compliance Matrix: (Units=1/GPa)
#
#
# Indices 1 2 3 4 5 6 
#
# 1 0.022908 -0.005552 -0.000898 0.001545 0.006064 -0.010797
# 2 -0.005552 0.014383 -0.004088 0.002204 -0.003582 0.002112
# 3 -0.000898 -0.004088 0.010161 -0.001246 0.004455 -0.002144
# 4 0.001545 0.002204 -0.001246 0.019586 -0.001216 -0.002037
# 5 0.006064 -0.003582 0.004455 -0.001216 0.027006 -0.007596
# 6 -0.010797 0.002112 -0.002144 -0.002037 -0.007596 0.030005
#
#
# Mechanical properties :
#
#
# Convention : Reuss Voigt Hill
#
# Bulk Modulus (GPa) = 37.91379 51.21757 44.56568
# Shear Modulus (GPa) = 32.48509 40.81836 36.65173
#
# Velocity S-wave (km/s) = 3.63348 4.07294 3.85947
# Velocity P-wave (km/s) = 5.74555 6.55238 6.16218
#
# Compressibility (1/GPa) = 0.02637563
#
# Stress axis : x y z
#
# Youngs Moduli (GPa) = 43.65357 69.52830 98.41426
#
# Poissons Ratio (x) = 0.38605 0.08836
# Poissons Ratio (y) = 0.24238 0.40228
# Poissons Ratio (z) = 0.03920 0.28420
#
# Static dielectric constant tensor:
#      x y z
#    x 1.979230 -0.074770 0.086600 
#    y -0.074770 1.988060 -0.018130 
#    z 0.086600 -0.018130 2.085670 
# 
# From -- ./inp_files/113273.got.cif
#   From: 2010.05.17/outbox.cif.g08.bks.cpg/sg2_57_cif.got.tgz:113273.got - 2010.06.03 11:33:40.
