data_PCOD9044186
_publ_section_title
;
Structure prediction by ZEFSAII (Michael W. Deem and Ramdas Pophale) SiO2 
 PCOD9044186
Probable space group: P -1
;
_chemical_formula_sum "Si O2"
_cell_formula_units_Z 16
_cell_length_a 12.396677
_cell_length_b 12.261838
_cell_length_c 11.377734
_cell_angle_alpha 103.055896
_cell_angle_beta 77.428216
_cell_angle_gamma 35.638001
_cell_volume 694.305132
_symmetry_space_group_name_H-M "P -1"
_symmetry_group_IT_number 2
_symmetry_cell_setting 'triclinic'
loop_
_space_group_symop_operation_xyz
x,y,z
-x,-y,-z
loop_
_atom_site_type_symbol
_atom_site_label
_atom_site_fract_x
_atom_site_fract_y
_atom_site_fract_z
Si Si1 0.116170 0.050514 0.415241
Si Si2 0.214719 0.754357 0.184997
Si Si3 0.081897 0.018605 0.075979
Si Si4 0.681981 0.532171 0.771585
Si Si5 0.330549 0.194709 0.198249
Si Si6 0.945499 0.348405 0.318656
Si Si7 0.566534 0.109189 0.504819
Si Si8 0.736154 0.770682 0.207732
O O1 0.134227 0.110059 0.308416
O O2 0.811686 0.347001 0.588491
O O3 0.208506 0.840694 0.319861
O O4 0.270931 0.959861 0.465567
O O5 0.179013 0.657241 0.196482
O O6 0.032794 0.991252 0.199363
O O7 0.500000 0.500000 0.000000
O O8 0.955130 0.257182 0.180608
O O9 0.380851 0.778542 0.920428
O O10 0.000000 0.000000 0.000000
O O11 0.724584 0.623386 0.761241
O O12 0.072237 0.355375 0.292706
O O13 0.506149 0.009658 0.226487
O O14 0.500000 0.000000 0.000000
O O15 0.636298 0.648161 0.479074
O O16 0.379369 0.217220 0.672115
O O17 0.747517 0.863165 0.320887
O O18 0.000000 0.500000 0.000000
#
# Coordination Sequence:
#
# PCOD9044186 Si02
#       8
#     2   2   2   2   2   2   2   2
#     4  11  24  46  74 102 150 184 241 306 362 442
#     4   9  22  45  70  98 132 186 241 291 365 429
#     4  10  23  46  71 101 141 182 239 304 360 429
#     4  11  24  42  71 103 134 188 237 283 372 428
#     4  12  24  44  73 106 152 189 242 304 357 453
#     4  11  24  46  70 107 145 193 234 294 376 427
#     4  11  26  45  71 107 147 193 242 305 367 427
#     4  11  26  45  67 105 148 195 251 292 363 445
#
# _framework density 23.044623000000001
#
# number of rings (size 3 to 8) (size 9 to 14) (size 15 to 20)
#    0.000    1.250    2.500    1.875    8.750    1.000 
#    4.500    1.250    0.000    0.000    0.000    0.000 
#    0.000    0.000    0.000    0.000    0.000    0.000 
#
# Total GULP energy -89124.953499 kJ/mol
# GULP energy per Si atom -5570.309594 kJ/mol
# Density = 2.299217 g / cm^3
# Si number density = 23.044623 Si / 1000 Ang^3
#
#
#
# Elastic Constant Matrix: (Units=GPa)
#
#
# Indices 1 2 3 4 5 6 
#
# 1 120.6471 74.1457 35.1979 1.9424 25.7776 20.8554
# 2 74.1457 108.1369 13.3720 -0.3287 11.1192 8.1458
# 3 35.1979 13.3720 124.6478 16.9620 25.4650 4.7365
# 4 1.9424 -0.3287 16.9620 34.1479 1.5493 8.8273
# 5 25.7776 11.1192 25.4650 1.5493 38.5769 -1.6685
# 6 20.8554 8.1458 4.7365 8.8273 -1.6685 39.7863
#
#
#
# Elastic Compliance Matrix: (Units=1/GPa)
#
#
# Indices 1 2 3 4 5 6 
#
# 1 0.019187 -0.011347 -0.002531 0.002596 -0.008345 -0.008359
# 2 -0.011347 0.016470 0.000914 -0.000446 0.002365 0.002665
# 3 -0.002531 0.000914 0.010338 -0.004953 -0.005163 0.000792
# 4 0.002596 -0.000446 -0.004953 0.033704 -0.000043 -0.008160
# 5 -0.008345 0.002365 -0.005163 -0.000043 0.034484 0.005961
# 6 -0.008359 0.002665 0.000792 -0.008160 0.005961 0.030936
#
#
# Mechanical properties :
#
#
# Convention : Reuss Voigt Hill
#
# Bulk Modulus (GPa) = 49.83944 66.54033 58.18988
# Shear Modulus (GPa) = 28.13145 37.88330 33.00738
#
# Velocity S-wave (km/s) = 3.49770 4.05892 3.78871
# Velocity P-wave (km/s) = 6.16329 7.13468 6.66670
#
# Compressibility (1/GPa) = 0.02006443
#
# Stress axis : x y z
#
# Youngs Moduli (GPa) = 52.11900 60.71827 96.72986
#
# Poissons Ratio (x) = 0.68898 0.24487
# Poissons Ratio (y) = 0.59140 -0.08837
# Poissons Ratio (z) = 0.13194 -0.05547
#
# Static dielectric constant tensor:
#      x y z
#    x 2.002830 0.019640 0.074080 
#    y 0.019640 1.980550 -0.071220 
#    z 0.074080 -0.071220 1.990510 
# 
# From -- ./inp_files/428555.got.cif
#   From: 2010.05.17/outbox.cif.g08.bks.cpg/sg2_215_cif.got.tgz:428555.got - 2010.06.03 11:33:40.
