data_PCOD9044162
_publ_section_title
;
Structure prediction by ZEFSAII (Michael W. Deem and Ramdas Pophale) SiO2 
 PCOD9044162
Probable space group: P -1
;
_chemical_formula_sum "Si O2"
_cell_formula_units_Z 16
_cell_length_a 9.390234
_cell_length_b 12.608534
_cell_length_c 22.551839
_cell_angle_alpha 161.335983
_cell_angle_beta 114.165638
_cell_angle_gamma 65.675631
_cell_volume 776.940129
_symmetry_space_group_name_H-M "P -1"
_symmetry_group_IT_number 2
_symmetry_cell_setting 'triclinic'
loop_
_space_group_symop_operation_xyz
x,y,z
-x,-y,-z
loop_
_atom_site_type_symbol
_atom_site_label
_atom_site_fract_x
_atom_site_fract_y
_atom_site_fract_z
Si Si1 0.525283 0.326744 0.549038
Si Si2 0.351389 0.843435 0.332714
Si Si3 0.229770 0.076422 0.696924
Si Si4 0.965211 0.620084 0.276086
Si Si5 0.697310 0.685806 0.862288
Si Si6 0.767029 0.212427 0.237993
Si Si7 0.935192 0.634474 0.409138
Si Si8 0.818249 0.616640 0.023996
O O1 0.618477 0.151680 0.418359
O O2 0.628849 0.596420 0.739936
O O3 0.355187 0.512239 0.607859
O O4 0.495745 0.036088 0.437333
O O5 0.382833 0.547098 0.227490
O O6 0.219347 0.107747 0.477484
O O7 0.273654 0.676401 0.174532
O O8 0.086047 0.839701 0.552836
O O9 0.174404 0.331620 0.769441
O O10 0.247450 0.261336 0.859323
O O11 0.938329 0.471622 0.257885
O O12 0.117979 0.438179 0.175236
O O13 0.000000 0.000000 0.500000
O O14 0.685245 0.052085 0.081693
O O15 0.913299 0.379174 0.323307
O O16 0.805668 0.918780 0.134985
O O17 0.000000 0.500000 0.000000
#
# Coordination Sequence:
#
# PCOD9044162 Si02
#       8
#     2   2   2   2   2   2   2   2
#     4  11  22  37  57  88 120 157 188 239 306 349
#     4  10  20  36  61  88 114 153 203 240 279 352
#     4  11  20  37  65  85 121 159 195 234 298 338
#     4  10  17  33  63  93 114 148 199 245 280 342
#     4  11  18  37  61  84 123 157 193 239 296 341
#     4  10  25  37  59  89 121 150 198 243 291 349
#     4  10  18  38  59  90 119 147 193 249 285 342
#     4  11  22  42  66  83 113 156 204 245 283 344
#
# _framework density 20.593606999999999
#
# number of rings (size 3 to 8) (size 9 to 14) (size 15 to 20)
#    0.000    1.500    6.250    1.500    0.000    3.000 
#    0.000    0.000    5.500    0.000    0.000    0.000 
#    0.000    0.000    0.000    0.000    0.000    0.000 
#
# Total GULP energy -89342.753452 kJ/mol
# GULP energy per Si atom -5583.922091 kJ/mol
# Density = 2.054674 g / cm^3
# Si number density = 20.593607 Si / 1000 Ang^3
#
#
#
# Elastic Constant Matrix: (Units=GPa)
#
#
# Indices 1 2 3 4 5 6 
#
# 1 80.1177 13.7946 29.1802 -3.3275 -20.5522 12.4666
# 2 13.7946 60.0978 14.8638 -15.8306 -10.4617 1.4906
# 3 29.1802 14.8638 59.0892 -21.8951 -17.4554 4.2707
# 4 -3.3275 -15.8306 -21.8951 39.6941 3.5553 -3.4417
# 5 -20.5522 -10.4617 -17.4554 3.5553 32.7386 -6.4592
# 6 12.4666 1.4906 4.2707 -3.4417 -6.4592 17.4375
#
#
#
# Elastic Compliance Matrix: (Units=1/GPa)
#
#
# Indices 1 2 3 4 5 6 
#
# 1 0.018599 -0.002499 -0.008328 -0.005368 0.004997 -0.010252
# 2 -0.002499 0.019934 0.000251 0.007741 0.004747 0.003307
# 3 -0.008328 0.000251 0.029028 0.015008 0.009766 0.005403
# 4 -0.005368 0.007741 0.015008 0.036411 0.004823 0.008474
# 5 0.004997 0.004747 0.009766 0.004823 0.041873 0.010092
# 6 -0.010252 0.003307 0.005403 0.008474 0.010092 0.068482
#
#
# Mechanical properties :
#
#
# Convention : Reuss Voigt Hill
#
# Bulk Modulus (GPa) = 21.54698 34.99798 28.27248
# Shear Modulus (GPa) = 19.92422 27.40512 23.66467
#
# Velocity S-wave (km/s) = 3.11383 3.65191 3.39355
# Velocity P-wave (km/s) = 4.83876 5.90029 5.39569
#
# Compressibility (1/GPa) = 0.04641021
#
# Stress axis : x y z
#
# Youngs Moduli (GPa) = 53.76493 50.16449 34.44897
#
# Poissons Ratio (x) = 0.12537 0.28690
# Poissons Ratio (y) = 0.13437 -0.00866
# Poissons Ratio (z) = 0.44776 -0.01261
#
# Static dielectric constant tensor:
#      x y z
#    x 1.737060 0.003030 0.016340 
#    y 0.003030 1.769290 -0.002990 
#    z 0.016340 -0.002990 1.737710 
# 
# From -- ./inp_files/189232.got.cif
#   From: 2010.05.17/outbox.cif.g08.bks.cpg/sg2_95_cif.got.tgz:189232.got - 2010.06.03 11:33:40.
