data_PCOD9044163
_publ_section_title
;
Structure prediction by ZEFSAII (Michael W. Deem and Ramdas Pophale) SiO2 
 PCOD9044163
Probable space group: P -1
;
_chemical_formula_sum "Si O2"
_cell_formula_units_Z 16
_cell_length_a 15.216642
_cell_length_b 15.694822
_cell_length_c 8.407994
_cell_angle_alpha 90.463082
_cell_angle_beta 72.238611
_cell_angle_gamma 28.364639
_cell_volume 719.083959
_symmetry_space_group_name_H-M "P -1"
_symmetry_group_IT_number 2
_symmetry_cell_setting 'triclinic'
loop_
_space_group_symop_operation_xyz
x,y,z
-x,-y,-z
loop_
_atom_site_type_symbol
_atom_site_label
_atom_site_fract_x
_atom_site_fract_y
_atom_site_fract_z
Si Si1 0.091001 0.825906 0.472988
Si Si2 0.173807 0.622760 0.146431
Si Si3 0.513554 0.205519 0.146568
Si Si4 0.279953 0.145155 0.023487
Si Si5 0.652930 0.374387 0.150903
Si Si6 0.766013 0.659356 0.430254
Si Si7 0.874710 0.024347 0.910326
Si Si8 0.747820 0.856789 0.335237
O O1 0.077777 0.772197 0.333386
O O2 0.378294 0.588724 0.354284
O O3 0.000000 0.000000 0.500000
O O4 0.928548 0.934427 0.712087
O O5 0.362828 0.395294 0.117326
O O6 0.953085 0.752626 0.211895
O O7 0.305427 0.567455 0.940189
O O8 0.325410 0.316021 0.366450
O O9 0.710257 0.103273 0.112357
O O10 0.673453 0.994447 0.977239
O O11 0.013956 0.405935 0.225979
O O12 0.288620 0.147099 0.825885
O O13 0.500000 0.000000 0.000000
O O14 0.728628 0.237912 0.977168
O O15 0.859371 0.184831 0.167059
O O16 0.814788 0.720093 0.410495
O O17 0.512948 0.877765 0.470640
#
# Coordination Sequence:
#
# PCOD9044163 Si02
#       8
#     2   2   2   2   2   2   2   2
#     4  12  24  44  69 101 133 184 233 281 347 406
#     4  12  24  46  68  98 144 179 227 288 340 408
#     4  11  25  43  66 101 140 180 229 279 341 400
#     4  11  24  44  71 102 133 177 231 280 337 410
#     4  11  23  45  70  94 142 178 226 292 346 400
#     4  10  23  46  70  97 140 177 225 276 343 405
#     4  11  24  45  68 101 135 179 233 286 339 407
#     4  10  24  46  69 102 137 180 224 282 345 403
#
# _framework density 22.250530999999999
#
# number of rings (size 3 to 8) (size 9 to 14) (size 15 to 20)
#    0.000    1.000    2.500    4.125    1.750    5.500 
#    6.750    0.000    0.000    0.000    0.000    0.000 
#    0.000    0.000    0.000    0.000    0.000    0.000 
#
# Total GULP energy -89307.595852 kJ/mol
# GULP energy per Si atom -5581.724741 kJ/mol
# Density = 2.219989 g / cm^3
# Si number density = 22.250531 Si / 1000 Ang^3
#
#
#
# Elastic Constant Matrix: (Units=GPa)
#
#
# Indices 1 2 3 4 5 6 
#
# 1 116.2958 38.7779 42.2572 4.1148 -25.9177 7.5856
# 2 38.7779 98.1119 55.2420 29.0032 -5.1539 26.4737
# 3 42.2572 55.2420 119.8860 24.6087 -14.6499 8.4276
# 4 4.1148 29.0032 24.6087 41.6367 9.8672 -4.9129
# 5 -25.9177 -5.1539 -14.6499 9.8672 34.6743 0.2483
# 6 7.5856 26.4737 8.4276 -4.9129 0.2483 48.2312
#
#
#
# Elastic Compliance Matrix: (Units=1/GPa)
#
#
# Indices 1 2 3 4 5 6 
#
# 1 0.012120 -0.003722 -0.001828 0.000752 0.007516 0.000494
# 2 -0.003722 0.021877 -0.004706 -0.014125 0.002587 -0.012052
# 3 -0.001828 -0.004706 0.012821 -0.005260 0.004848 0.000069
# 4 0.000752 -0.014125 -0.005260 0.042174 -0.015853 0.012931
# 5 0.007516 0.002587 0.004848 -0.015853 0.041440 -0.005277
# 6 0.000494 -0.012052 0.000069 0.012931 -0.005277 0.028603
#
#
# Mechanical properties :
#
#
# Convention : Reuss Voigt Hill
#
# Bulk Modulus (GPa) = 38.01309 67.42754 52.72031
# Shear Modulus (GPa) = 26.55128 38.10956 32.33042
#
# Velocity S-wave (km/s) = 3.45815 4.14303 3.81598
# Velocity P-wave (km/s) = 5.75033 7.29766 6.56971
#
# Compressibility (1/GPa) = 0.02630673
#
# Stress axis : x y z
#
# Youngs Moduli (GPa) = 82.50659 45.71054 77.99754
#
# Poissons Ratio (x) = 0.17015 0.14255
# Poissons Ratio (y) = 0.30711 0.36704
# Poissons Ratio (z) = 0.15079 0.21510
#
# Static dielectric constant tensor:
#      x y z
#    x 1.852940 -0.024240 0.011340 
#    y -0.024240 1.848960 -0.038800 
#    z 0.011340 -0.038800 1.864780 
# 
# From -- ./inp_files/315230.got.cif
#   From: 2010.05.17/outbox.cif.g08.bks.cpg/sg2_158_cif.got.tgz:315230.got - 2010.06.03 11:33:40.
