data_PCOD9044462
_publ_section_title
;
Structure prediction by ZEFSAII (Michael W. Deem and Ramdas Pophale) SiO2 
 PCOD9044462
Probable space group: P -1
;
_chemical_formula_sum "Si O2"
_cell_formula_units_Z 14
_cell_length_a 6.524672
_cell_length_b 23.102778
_cell_length_c 16.955507
_cell_angle_alpha 159.523959
_cell_angle_beta 55.764414
_cell_angle_gamma 132.292352
_cell_volume 638.258462
_symmetry_space_group_name_H-M "P -1"
_symmetry_group_IT_number 2
_symmetry_cell_setting 'triclinic'
loop_
_space_group_symop_operation_xyz
x,y,z
-x,-y,-z
loop_
_atom_site_type_symbol
_atom_site_label
_atom_site_fract_x
_atom_site_fract_y
_atom_site_fract_z
Si Si1 0.184601 0.215412 0.204639
Si Si2 0.301603 0.603921 0.931676
Si Si3 0.096979 0.173164 0.981988
Si Si4 0.703617 0.195936 0.661718
Si Si5 0.865183 0.441230 0.366667
Si Si6 0.658742 0.408100 0.799566
Si Si7 0.266079 0.242976 0.530851
O O1 0.150608 0.204705 0.103710
O O2 0.518855 0.308692 0.274734
O O3 0.082539 0.366740 0.443996
O O4 0.000000 0.000000 0.000000
O O5 0.594035 0.775261 0.053427
O O6 0.309563 0.408383 0.671805
O O7 0.996100 0.563509 0.915584
O O8 0.289820 0.643734 0.077656
O O9 0.001687 0.316333 0.147616
O O10 0.846772 0.958378 0.743867
O O11 0.625181 0.236314 0.644005
O O12 0.008021 0.211688 0.604817
O O13 0.500000 0.000000 0.500000
O O14 0.000000 0.500000 0.500000
O O15 0.533117 0.324158 0.634593
O O16 0.500000 0.500000 0.000000
#
# Coordination Sequence:
#
# PCOD9044462 Si02
#       7
#     2   2   2   2   2   2   2
#     4  10  23  46  75  97 127 171 210 258 338 413
#     4  11  23  41  61  91 137 172 222 279 319 370
#     4  11  25  42  65  99 136 167 215 277 325 383
#     4  11  21  40  63  87 128 179 224 268 321 381
#     4   9  22  44  69  99 126 162 211 257 331 403
#     4  11  21  40  66  88 124 186 231 262 319 378
#     4  11  23  40  62  96 129 176 226 272 320 370
#
# _framework density 21.934688999999999
#
# number of rings (size 3 to 8) (size 9 to 14) (size 15 to 20)
#    0.000    1.429    4.286    0.857    0.000   10.857 
#    2.571    0.000    0.000    0.000    0.000    0.000 
#    0.000    0.000    0.000    0.000    0.000    0.000 
#
# Total GULP energy -78189.970510 kJ/mol
# GULP energy per Si atom -5584.997894 kJ/mol
# Density = 2.188477 g / cm^3
# Si number density = 21.934689 Si / 1000 Ang^3
#
#
#
# Elastic Constant Matrix: (Units=GPa)
#
#
# Indices 1 2 3 4 5 6 
#
# 1 127.2702 21.9186 41.4247 4.0946 15.7943 14.9875
# 2 21.9186 36.7801 3.3354 7.7796 -2.8556 3.4515
# 3 41.4247 3.3354 112.4165 10.8727 4.1495 9.0895
# 4 4.0946 7.7796 10.8727 34.1818 -1.9860 1.7939
# 5 15.7943 -2.8556 4.1495 -1.9860 37.9002 -0.1094
# 6 14.9875 3.4515 9.0895 1.7939 -0.1094 18.4218
#
#
#
# Elastic Compliance Matrix: (Units=1/GPa)
#
#
# Indices 1 2 3 4 5 6 
#
# 1 0.011427 -0.006530 -0.003434 0.001272 -0.004830 -0.006532
# 2 -0.006530 0.032842 0.002032 -0.007012 0.004602 -0.001133
# 3 -0.003434 0.002032 0.010611 -0.003281 0.000243 -0.002502
# 4 0.001272 -0.007012 -0.003281 0.031862 0.000967 -0.001199
# 5 -0.004830 0.004602 0.000243 0.000967 0.028778 0.003024
# 6 -0.006532 -0.001133 -0.002502 -0.001199 0.003024 0.061179
#
#
# Mechanical properties :
#
#
# Convention : Reuss Voigt Hill
#
# Bulk Modulus (GPa) = 25.62957 45.53605 35.58281
# Shear Modulus (GPa) = 24.32286 32.08663 28.20474
#
# Velocity S-wave (km/s) = 3.33359 3.82884 3.58977
# Velocity P-wave (km/s) = 5.15043 6.35229 5.78267
#
# Compressibility (1/GPa) = 0.03901744
#
# Stress axis : x y z
#
# Youngs Moduli (GPa) = 87.51087 30.44848 94.24070
#
# Poissons Ratio (x) = 0.19881 0.32359
# Poissons Ratio (y) = 0.57140 -0.19146
# Poissons Ratio (z) = 0.30048 -0.06186
#
# Static dielectric constant tensor:
#      x y z
#    x 1.816000 0.016920 -0.020650 
#    y 0.016920 1.796210 -0.008500 
#    z -0.020650 -0.008500 1.876000 
# 
# From -- ./inp_files/47261.got.cif
#   From: 2010.05.17/outbox.cif.g08.bks.cpg/sg2_24_cif.got.tgz:47261.got - 2010.06.03 11:33:40.
