data_PCOD9044126
_publ_section_title
;
Structure prediction by ZEFSAII (Michael W. Deem and Ramdas Pophale) SiO2 
 PCOD9044126
Probable space group: P -1
;
_chemical_formula_sum "Si O2"
_cell_formula_units_Z 16
_cell_length_a 9.718938
_cell_length_b 11.328384
_cell_length_c 10.354801
_cell_angle_alpha 143.995757
_cell_angle_beta 66.011763
_cell_angle_gamma 114.231297
_cell_volume 605.199025
_symmetry_space_group_name_H-M "P -1"
_symmetry_group_IT_number 2
_symmetry_cell_setting 'triclinic'
loop_
_space_group_symop_operation_xyz
x,y,z
-x,-y,-z
loop_
_atom_site_type_symbol
_atom_site_label
_atom_site_fract_x
_atom_site_fract_y
_atom_site_fract_z
Si Si1 0.278581 0.632073 0.167744
Si Si2 0.230117 0.065295 0.501042
Si Si3 0.860041 0.755231 0.551664
Si Si4 0.494061 0.613387 0.292249
Si Si5 0.558892 0.687034 0.737529
Si Si6 0.960964 0.257135 0.284994
Si Si7 0.919842 0.775352 0.056509
Si Si8 0.763235 0.265070 0.143349
O O1 0.377273 0.694839 0.313168
O O2 0.237817 0.828531 0.287909
O O3 0.387921 0.511649 0.935411
O O4 0.137524 0.465314 0.113409
O O5 0.122284 0.151114 0.513862
O O6 0.396213 0.196206 0.520902
O O7 0.183324 0.123636 0.715196
O O8 0.711560 0.811386 0.733627
O O9 0.811820 0.511419 0.337210
O O10 0.900727 0.186953 0.945694
O O11 0.406730 0.437835 0.260124
O O12 0.500000 0.500000 0.500000
O O13 0.406684 0.789690 0.893141
O O14 0.797615 0.212690 0.234710
O O15 0.000000 0.500000 0.500000
O O16 0.000137 0.189630 0.353393
O O17 0.075042 0.192161 0.072698
#
# Coordination Sequence:
#
# PCOD9044126 Si02
#       8
#     2   2   2   2   2   2   2   2
#     4  10  22  38  61  93 125 167 202 257 312 376
#     4  11  21  37  61  97 128 158 205 264 309 370
#     4  10  18  33  60  95 123 157 214 259 309 366
#     4  10  20  39  63  87 125 162 216 248 311 377
#     4  10  17  33  63  90 115 160 214 257 305 366
#     4   8  16  34  59  89 119 165 210 253 307 370
#     4   9  20  38  64  88 121 171 205 248 310 382
#     4   8  17  33  58  90 116 168 208 246 309 368
#
# _framework density 26.437586
#
# number of rings (size 3 to 8) (size 9 to 14) (size 15 to 20)
#    0.750    1.750    2.500    1.125    0.000    0.500 
#    0.000    1.250    2.750    0.750    0.000    0.000 
#    0.000    0.000    0.000    0.000    0.000    0.000 
#
# Total GULP energy -89482.178864 kJ/mol
# GULP energy per Si atom -5592.636179 kJ/mol
# Density = 2.637741 g / cm^3
# Si number density = 26.437586 Si / 1000 Ang^3
#
#
#
# Elastic Constant Matrix: (Units=GPa)
#
#
# Indices 1 2 3 4 5 6 
#
# 1 100.3073 47.7686 3.2113 13.1798 -5.4325 -15.2170
# 2 47.7686 156.6792 16.2240 11.1651 -0.3179 -15.7526
# 3 3.2113 16.2240 54.6498 11.9349 -1.1631 -0.9691
# 4 13.1798 11.1651 11.9349 35.9441 -0.9620 -2.6796
# 5 -5.4325 -0.3179 -1.1631 -0.9620 40.6799 0.5520
# 6 -15.2170 -15.7526 -0.9691 -2.6796 0.5520 57.8846
#
#
#
# Elastic Compliance Matrix: (Units=1/GPa)
#
#
# Indices 1 2 3 4 5 6 
#
# 1 0.012468 -0.003437 0.001165 -0.003687 0.001555 0.002176
# 2 -0.003437 0.007784 -0.002007 -0.000417 -0.000481 0.001167
# 3 0.001165 -0.002007 0.020261 -0.006531 0.000567 -0.000209
# 4 -0.003687 -0.000417 -0.006531 0.031492 0.000059 0.000265
# 5 0.001555 -0.000481 0.000567 0.000059 0.024803 0.000053
# 6 0.002176 0.001167 -0.000209 0.000265 0.000053 0.018174
#
#
# Mechanical properties :
#
#
# Convention : Reuss Voigt Hill
#
# Bulk Modulus (GPa) = 31.29634 49.56046 40.42840
# Shear Modulus (GPa) = 37.26003 43.19721 40.22862
#
# Velocity S-wave (km/s) = 3.75822 4.04658 3.90506
# Velocity P-wave (km/s) = 5.54038 6.37338 5.97142
#
# Compressibility (1/GPa) = 0.03195262
#
# Stress axis : x y z
#
# Youngs Moduli (GPa) = 80.20749 128.46431 49.35696
#
# Poissons Ratio (x) = 0.44154 -0.05748
# Poissons Ratio (y) = 0.27568 0.09908
# Poissons Ratio (z) = -0.09341 0.25788
#
# Static dielectric constant tensor:
#      x y z
#    x 2.118120 -0.061270 -0.080450 
#    y -0.061270 2.171000 0.078530 
#    z -0.080450 0.078530 2.216420 
# 
# From -- ./inp_files/429216.got.cif
#   From: 2010.05.17/outbox.cif.g08.bks.cpg/sg2_215_cif.got.tgz:429216.got - 2010.06.03 11:33:40.
