data_PCOD9044140
_publ_section_title
;
Structure prediction by ZEFSAII (Michael W. Deem and Ramdas Pophale) SiO2 
 PCOD9044140
Probable space group: P -1
;
_chemical_formula_sum "Si O2"
_cell_formula_units_Z 12
_cell_length_a 7.581733
_cell_length_b 9.387658
_cell_length_c 7.457586
_cell_angle_alpha 77.265539
_cell_angle_beta 75.684893
_cell_angle_gamma 93.924684
_cell_volume 497.396983
_symmetry_space_group_name_H-M "P -1"
_symmetry_group_IT_number 2
_symmetry_cell_setting 'triclinic'
loop_
_space_group_symop_operation_xyz
x,y,z
-x,-y,-z
loop_
_atom_site_type_symbol
_atom_site_label
_atom_site_fract_x
_atom_site_fract_y
_atom_site_fract_z
Si Si1 0.072696 0.350983 0.970687
Si Si2 0.733422 0.293185 0.637553
Si Si3 0.148415 0.903926 0.064828
Si Si4 0.486222 0.828336 0.599879
Si Si5 0.701849 0.590900 0.466686
Si Si6 0.596724 0.808310 0.979767
O O1 0.178896 0.376527 0.748336
O O2 0.232148 0.286033 0.061920
O O3 0.893201 0.231908 0.023901
O O4 0.000000 0.500000 0.000000
O O5 0.865127 0.183581 0.717839
O O6 0.682011 0.249401 0.457741
O O7 0.790232 0.468042 0.592850
O O8 0.550026 0.257994 0.816693
O O9 0.317176 0.030996 0.016506
O O10 0.000000 0.000000 0.000000
O O11 0.656545 0.743646 0.517607
O O12 0.500000 0.000000 0.500000
O O13 0.494709 0.814571 0.814955
O O14 0.500000 0.500000 0.500000
#
# Coordination Sequence:
#
# PCOD9044140 Si02
#       6
#     2   2   2   2   2   2
#     4  11  25  48  72 105 148 194 240 300 376 426
#     4  11  23  46  73 102 150 185 247 306 346 436
#     4  10  24  42  68 103 147 190 232 300 366 428
#     4  11  23  40  74 109 136 186 248 294 357 424
#     4  10  23  46  70 106 144 183 250 299 347 437
#     4  11  23  46  73 102 145 193 244 298 359 436
#
# _framework density 24.125599000000001
#
# number of rings (size 3 to 8) (size 9 to 14) (size 15 to 20)
#    0.000    1.333    5.000    0.500    2.333    4.000 
#    0.000    0.833    0.000    0.000    0.000    0.000 
#    0.000    0.000    0.000    0.000    0.000    0.000 
#
# Total GULP energy -66969.598050 kJ/mol
# GULP energy per Si atom -5580.799837 kJ/mol
# Density = 2.407069 g / cm^3
# Si number density = 24.125599 Si / 1000 Ang^3
#
#
#
# Elastic Constant Matrix: (Units=GPa)
#
#
# Indices 1 2 3 4 5 6 
#
# 1 159.3438 63.9969 67.0586 -1.3591 18.7171 -1.4399
# 2 63.9969 197.5736 48.6723 -9.9015 8.0910 -37.9682
# 3 67.0586 48.6723 125.2028 0.9879 28.2603 -12.3033
# 4 -1.3591 -9.9015 0.9879 46.0152 -10.5679 13.4650
# 5 18.7171 8.0910 28.2603 -10.5679 46.1322 -0.0996
# 6 -1.4399 -37.9682 -12.3033 13.4650 -0.0996 25.3796
#
#
#
# Elastic Compliance Matrix: (Units=1/GPa)
#
#
# Indices 1 2 3 4 5 6 
#
# 1 0.009471 -0.003319 -0.004529 0.001876 -0.000073 -0.007619
# 2 -0.003319 0.008800 -0.000056 -0.002552 -0.000716 0.014301
# 3 -0.004529 -0.000056 0.012866 -0.004445 -0.007035 0.008227
# 4 0.001876 -0.002552 -0.004445 0.029770 0.009183 -0.021625
# 5 -0.000073 -0.000716 -0.007035 0.009183 0.028225 -0.009247
# 6 -0.007619 0.014301 0.008227 -0.021625 -0.009247 0.075788
#
#
# Mechanical properties :
#
#
# Convention : Reuss Voigt Hill
#
# Bulk Modulus (GPa) = 65.24230 93.50844 79.37537
# Shear Modulus (GPa) = 26.90506 43.66488 35.28497
#
# Velocity S-wave (km/s) = 3.34310 4.25891 3.82848
# Velocity P-wave (km/s) = 6.48099 7.93899 7.24675
#
# Compressibility (1/GPa) = 0.01532748
#
# Stress axis : x y z
#
# Youngs Moduli (GPa) = 105.59029 113.63694 77.72359
#
# Poissons Ratio (x) = 0.37717 0.35203
# Poissons Ratio (y) = 0.35046 0.00437
# Poissons Ratio (z) = 0.47825 0.00639
#
# Static dielectric constant tensor:
#      x y z
#    x 2.081210 -0.022110 0.055710 
#    y -0.022110 1.922880 -0.028880 
#    z 0.055710 -0.028880 1.877350 
# 
# From -- ./inp_files/145586.got.cif
#   From: 2010.05.17/outbox.cif.g08.bks.cpg/sg2_73_cif.got.tgz:145586.got - 2010.06.03 11:33:40.
