data_PCOD9044669
_publ_section_title
;
Structure prediction by ZEFSAII (Michael W. Deem and Ramdas Pophale) SiO2 
 PCOD9044669
Probable space group: P -1
;
_chemical_formula_sum "Si O2"
_cell_formula_units_Z 16
_cell_length_a 6.924330
_cell_length_b 9.136602
_cell_length_c 20.286477
_cell_angle_alpha 44.530989
_cell_angle_beta 124.656659
_cell_angle_gamma 122.990939
_cell_volume 718.508912
_symmetry_space_group_name_H-M "P -1"
_symmetry_group_IT_number 2
_symmetry_cell_setting 'triclinic'
loop_
_space_group_symop_operation_xyz
x,y,z
-x,-y,-z
loop_
_atom_site_type_symbol
_atom_site_label
_atom_site_fract_x
_atom_site_fract_y
_atom_site_fract_z
Si Si1 0.103992 0.825958 0.473845
Si Si2 0.262443 0.490044 0.413038
Si Si3 0.977206 0.824093 0.302704
Si Si4 0.280776 0.314040 0.197227
Si Si5 0.454275 0.037748 0.872939
Si Si6 0.406577 0.313042 0.371101
Si Si7 0.147730 0.749895 0.019860
Si Si8 0.408946 0.281808 0.093318
O O1 0.965030 0.777183 0.393206
O O2 0.328551 0.714246 0.550683
O O3 0.930430 0.724654 0.531794
O O4 0.222443 0.078969 0.421410
O O5 0.500000 0.500000 0.500000
O O6 0.139068 0.683329 0.344649
O O7 0.326751 0.474944 0.353930
O O8 0.112063 0.075092 0.241908
O O9 0.716539 0.802612 0.226802
O O10 0.397220 0.355451 0.278194
O O11 0.137203 0.497056 0.097743
O O12 0.460076 0.323651 0.167171
O O13 0.483136 0.904400 0.856454
O O14 0.710122 0.152878 0.917677
O O15 0.314597 0.868143 0.954770
O O16 0.881371 0.785193 0.950338
O O17 0.500000 0.500000 0.000000
#
# Coordination Sequence:
#
# PCOD9044669 Si02
#       8
#     2   2   2   2   2   2   2   2
#     4  10  23  47  70  98 145 177 232 290 343 417
#     4  12  25  44  74 103 140 190 227 286 359 410
#     4  11  24  45  71 104 138 185 236 285 344 416
#     4  11  24  45  70 102 142 179 238 284 339 422
#     4  11  25  45  71 103 139 181 231 292 349 412
#     4  10  24  47  70 102 138 185 230 291 344 415
#     4  11  24  47  69 102 146 174 229 299 344 413
#     4  12  23  45  75  98 138 192 227 281 360 411
#
# _framework density 22.268338
#
# number of rings (size 3 to 8) (size 9 to 14) (size 15 to 20)
#    0.000    1.000    3.750    2.250    1.750    2.000 
#   11.250    0.000    0.000    0.000    0.000    0.000 
#    0.000    0.000    0.000    0.000    0.000    0.000 
#
# Total GULP energy -89595.072812 kJ/mol
# GULP energy per Si atom -5599.692051 kJ/mol
# Density = 2.221765 g / cm^3
# Si number density = 22.268338 Si / 1000 Ang^3
#
#
#
# Elastic Constant Matrix: (Units=GPa)
#
#
# Indices 1 2 3 4 5 6 
#
# 1 107.6937 49.2312 39.2073 1.5489 -6.4339 -25.0632
# 2 49.2312 92.8842 40.1852 5.0149 -2.7808 -6.6682
# 3 39.2073 40.1852 111.6208 11.8565 0.1245 -15.4510
# 4 1.5489 5.0149 11.8565 26.5400 -9.9789 -8.9442
# 5 -6.4339 -2.7808 0.1245 -9.9789 46.1869 -2.4292
# 6 -25.0632 -6.6682 -15.4510 -8.9442 -2.4292 46.0306
#
#
#
# Elastic Compliance Matrix: (Units=1/GPa)
#
#
# Indices 1 2 3 4 5 6 
#
# 1 0.015069 -0.006573 -0.002431 0.005238 0.003243 0.007625
# 2 -0.006573 0.015654 -0.003497 -0.002232 -0.000601 -0.002951
# 3 -0.002431 -0.003497 0.011721 -0.004626 -0.001521 0.001125
# 4 0.005238 -0.002232 -0.004626 0.047862 0.011521 0.010883
# 5 0.003243 -0.000601 -0.001521 0.011521 0.024808 0.004716
# 6 0.007625 -0.002951 0.001125 0.010883 0.004716 0.028190
#
#
# Mechanical properties :
#
#
# Convention : Reuss Voigt Hill
#
# Bulk Modulus (GPa) = 57.33955 63.27181 60.30568
# Shear Modulus (GPa) = 28.71592 35.98982 32.35287
#
# Velocity S-wave (km/s) = 3.59491 4.02455 3.81578
# Velocity P-wave (km/s) = 6.56022 7.07609 6.82303
#
# Compressibility (1/GPa) = 0.01743997
#
# Stress axis : x y z
#
# Youngs Moduli (GPa) = 66.36353 63.88162 85.31936
#
# Poissons Ratio (x) = 0.41992 0.20740
# Poissons Ratio (y) = 0.43623 0.29840
# Poissons Ratio (z) = 0.16132 0.22342
#
# Static dielectric constant tensor:
#      x y z
#    x 1.785070 0.011530 -0.025410 
#    y 0.011530 1.838690 -0.006560 
#    z -0.025410 -0.006560 1.822110 
# 
# From -- ./inp_files/323573.got.cif
#   From: 2010.05.17/outbox.cif.g08.bks.cpg/sg2_162_cif.got.tgz:323573.got - 2010.06.03 11:33:40.
