data_PCOD9044471
_publ_section_title
;
Structure prediction by ZEFSAII (Michael W. Deem and Ramdas Pophale) SiO2 
 PCOD9044471
Probable space group: P -1
;
_chemical_formula_sum "Si O2"
_cell_formula_units_Z 14
_cell_length_a 6.409252
_cell_length_b 20.463598
_cell_length_c 5.459836
_cell_angle_alpha 87.732705
_cell_angle_beta 101.938631
_cell_angle_gamma 124.953111
_cell_volume 571.438976
_symmetry_space_group_name_H-M "P -1"
_symmetry_group_IT_number 2
_symmetry_cell_setting 'triclinic'
loop_
_space_group_symop_operation_xyz
x,y,z
-x,-y,-z
loop_
_atom_site_type_symbol
_atom_site_label
_atom_site_fract_x
_atom_site_fract_y
_atom_site_fract_z
Si Si1 0.527804 0.974324 0.284834
Si Si2 0.359444 0.518328 0.660506
Si Si3 0.205660 0.785925 0.152758
Si Si4 0.128865 0.028102 0.300674
Si Si5 0.459386 0.783813 0.693141
Si Si6 0.130065 0.575167 0.208598
Si Si7 0.405134 0.325069 0.035576
O O1 0.326727 0.877821 0.234227
O O2 0.832378 0.992449 0.360996
O O3 0.370455 0.011861 0.365837
O O4 0.500000 0.000000 0.000000
O O5 0.500000 0.500000 0.500000
O O6 0.241492 0.556105 0.467033
O O7 0.128442 0.437030 0.746123
O O8 0.540153 0.591230 0.875702
O O9 0.289587 0.757658 0.410259
O O10 0.895155 0.734381 0.093112
O O11 0.315282 0.782871 0.910905
O O12 0.294699 0.125210 0.312343
O O13 0.000000 0.000000 0.000000
O O14 0.545610 0.724580 0.755089
O O15 0.372666 0.649035 0.117985
O O16 0.000000 0.500000 0.000000
#
# Coordination Sequence:
#
# PCOD9044471 Si02
#       7
#     2   2   2   2   2   2   2
#     4  11  23  43  69 103 145 191 255 322 373 456
#     4  10  23  46  76 109 147 189 251 305 385 458
#     4  11  27  48  72 110 154 201 256 315 396 443
#     4  11  23  43  70 103 139 199 252 313 388 443
#     4  11  27  49  70 109 159 193 261 324 374 467
#     4   9  22  45  68 108 140 187 245 297 378 460
#     4  11  27  45  78 106 151 204 251 313 393 450
#
# _framework density 24.499552999999999
#
# number of rings (size 3 to 8) (size 9 to 14) (size 15 to 20)
#    0.000    1.429    0.000    4.286    8.000    6.857 
#    0.000    0.000    0.000    0.000    0.000    0.000 
#    0.000    0.000    0.000    0.000    0.000    0.000 
#
# Total GULP energy -78126.363624 kJ/mol
# GULP energy per Si atom -5580.454545 kJ/mol
# Density = 2.444379 g / cm^3
# Si number density = 24.499553 Si / 1000 Ang^3
#
#
#
# Elastic Constant Matrix: (Units=GPa)
#
#
# Indices 1 2 3 4 5 6 
#
# 1 204.2182 111.0019 110.2047 4.1725 -12.0812 30.2928
# 2 111.0019 154.3297 57.0383 1.2371 10.8981 37.6068
# 3 110.2047 57.0383 196.3712 -7.7137 14.5492 22.1133
# 4 4.1725 1.2371 -7.7137 40.2265 -9.4662 0.3077
# 5 -12.0812 10.8981 14.5492 -9.4662 83.9617 -0.9664
# 6 30.2928 37.6068 22.1133 0.3077 -0.9664 50.7593
#
#
#
# Elastic Compliance Matrix: (Units=1/GPa)
#
#
# Indices 1 2 3 4 5 6 
#
# 1 0.011156 -0.006594 -0.004659 -0.001110 0.003147 0.000324
# 2 -0.006594 0.012486 0.000927 -0.000140 -0.002812 -0.005772
# 3 -0.004659 0.000927 0.007795 0.001492 -0.001989 -0.001350
# 4 -0.001110 -0.000140 0.001492 0.025857 0.002515 0.000007
# 5 0.003147 -0.002812 -0.001989 0.002515 0.013371 0.001311
# 6 0.000324 -0.005772 -0.001350 0.000007 0.001311 0.024397
#
#
# Mechanical properties :
#
#
# Convention : Reuss Voigt Hill
#
# Bulk Modulus (GPa) = 92.71712 123.48987 108.10349
# Shear Modulus (GPa) = 41.90786 53.43444 47.67115
#
# Velocity S-wave (km/s) = 4.14037 4.67522 4.41590
# Velocity P-wave (km/s) = 7.79638 8.92513 8.37978
#
# Compressibility (1/GPa) = 0.01078550
#
# Stress axis : x y z
#
# Youngs Moduli (GPa) = 89.63967 80.08758 128.27939
#
# Poissons Ratio (x) = 0.52813 0.59759
# Poissons Ratio (y) = 0.59112 -0.11890
# Poissons Ratio (z) = 0.41759 -0.07423
#
# Static dielectric constant tensor:
#      x y z
#    x 2.021110 0.000500 0.028900 
#    y 0.000500 1.991300 0.002310 
#    z 0.028900 0.002310 2.030450 
# 
# From -- ./inp_files/10891.got.cif
#   From: 2010.05.17/outbox.cif.g08.bks.cpg/sg2_6_cif.got.tgz:10891.got - 2010.06.03 11:33:40.
