data_PCOD9044618
_publ_section_title
;
Structure prediction by ZEFSAII (Michael W. Deem and Ramdas Pophale) SiO2 
 PCOD9044618
Probable space group: P -1
;
_chemical_formula_sum "Si O2"
_cell_formula_units_Z 16
_cell_length_a 11.519669
_cell_length_b 11.725455
_cell_length_c 11.603775
_cell_angle_alpha 136.802807
_cell_angle_beta 61.111630
_cell_angle_gamma 85.854725
_cell_volume 663.171123
_symmetry_space_group_name_H-M "P -1"
_symmetry_group_IT_number 2
_symmetry_cell_setting 'triclinic'
loop_
_space_group_symop_operation_xyz
x,y,z
-x,-y,-z
loop_
_atom_site_type_symbol
_atom_site_label
_atom_site_fract_x
_atom_site_fract_y
_atom_site_fract_z
Si Si1 0.518871 0.532649 0.881922
Si Si2 0.848984 0.076346 0.792953
Si Si3 0.852462 0.679112 0.526051
Si Si4 0.721001 0.719197 0.375608
Si Si5 0.071915 0.183672 0.768739
Si Si6 0.201612 0.438743 0.305006
Si Si7 0.327735 0.922079 0.662105
Si Si8 0.105909 0.024662 0.054845
O O1 0.629865 0.607681 0.864661
O O2 0.623376 0.297408 0.584080
O O3 0.500000 0.500000 0.000000
O O4 0.316658 0.722345 0.060780
O O5 0.031940 0.026191 0.643886
O O6 0.855263 0.871777 0.635439
O O7 0.814616 0.140001 0.992709
O O8 0.754314 0.674777 0.464004
O O9 0.750722 0.718820 0.724012
O O10 0.073855 0.455239 0.285218
O O11 0.783458 0.848988 0.405554
O O12 0.516031 0.863187 0.532178
O O13 0.873458 0.456179 0.054600
O O14 0.157848 0.132148 0.816724
O O15 0.052418 0.706520 0.625510
O O16 0.268185 0.954656 0.846797
O O17 0.000000 0.000000 0.000000
#
# Coordination Sequence:
#
# PCOD9044618 Si02
#       8
#     2   2   2   2   2   2   2   2
#     4  12  28  44  73 108 149 197 249 300 361 448
#     4  11  25  46  69 107 143 195 248 295 367 442
#     4  10  24  45  69 101 142 194 235 304 365 424
#     4  11  26  43  72 107 142 196 242 306 360 441
#     4  11  24  46  70 101 149 187 249 294 371 436
#     4  10  23  47  69 105 148 188 248 294 369 437
#     4  12  24  46  73 109 146 188 245 307 363 434
#     4  11  21  43  77 106 136 190 243 304 367 429
#
# _framework density 24.126503
#
# number of rings (size 3 to 8) (size 9 to 14) (size 15 to 20)
#    0.000    1.000    3.750    1.875    5.250    1.500 
#    6.750    0.000    0.000    0.000    0.000    0.000 
#    0.000    0.000    0.000    0.000    0.000    0.000 
#
# Total GULP energy -89506.402521 kJ/mol
# GULP energy per Si atom -5594.150158 kJ/mol
# Density = 2.407159 g / cm^3
# Si number density = 24.126503 Si / 1000 Ang^3
#
#
#
# Elastic Constant Matrix: (Units=GPa)
#
#
# Indices 1 2 3 4 5 6 
#
# 1 131.1882 60.3918 33.7104 -8.7578 -26.5850 -2.8267
# 2 60.3918 138.7130 27.0070 -11.4609 -25.6410 3.0453
# 3 33.7104 27.0070 62.6411 -8.0765 -15.2832 5.1606
# 4 -8.7578 -11.4609 -8.0765 30.8712 6.1888 -6.9541
# 5 -26.5850 -25.6410 -15.2832 6.1888 48.7577 -4.6721
# 6 -2.8267 3.0453 5.1606 -6.9541 -4.6721 48.8388
#
#
#
# Elastic Compliance Matrix: (Units=1/GPa)
#
#
# Indices 1 2 3 4 5 6 
#
# 1 0.010831 -0.003427 -0.003667 0.000594 0.003032 0.001603
# 2 -0.003427 0.009586 -0.001452 0.001670 0.002489 -0.000167
# 3 -0.003667 -0.001452 0.019751 0.002649 0.002943 -0.001550
# 4 0.000594 0.001670 0.002649 0.035288 -0.002017 0.004482
# 5 0.003032 0.002489 0.002943 -0.002017 0.024823 0.001797
# 6 0.001603 -0.000167 -0.001550 0.004482 0.001797 0.021553
#
#
# Mechanical properties :
#
#
# Convention : Reuss Voigt Hill
#
# Bulk Modulus (GPa) = 43.33651 63.86228 53.59940
# Shear Modulus (GPa) = 34.10290 39.78907 36.94598
#
# Velocity S-wave (km/s) = 3.76374 4.06542 3.91748
# Velocity P-wave (km/s) = 6.07362 6.96879 6.53655
#
# Compressibility (1/GPa) = 0.02307523
#
# Stress axis : x y z
#
# Youngs Moduli (GPa) = 92.32514 104.32145 50.63137
#
# Poissons Ratio (x) = 0.35754 0.18566
# Poissons Ratio (y) = 0.31643 0.07352
# Poissons Ratio (z) = 0.33855 0.15148
#
# Static dielectric constant tensor:
#      x y z
#    x 1.935500 0.040840 0.045260 
#    y 0.040840 1.983020 0.008570 
#    z 0.045260 0.008570 1.987500 
# 
# From -- ./inp_files/428878.got.cif
#   From: 2010.05.17/outbox.cif.g08.bks.cpg/sg2_215_cif.got.tgz:428878.got - 2010.06.03 11:33:40.
