data_PCOD9044601
_publ_section_title
;
Structure prediction by ZEFSAII (Michael W. Deem and Ramdas Pophale) SiO2 
 PCOD9044601
Probable space group: P -1
;
_chemical_formula_sum "Si O2"
_cell_formula_units_Z 16
_cell_length_a 24.286499
_cell_length_b 8.030510
_cell_length_c 11.427799
_cell_angle_alpha 40.041526
_cell_angle_beta 33.556250
_cell_angle_gamma 32.441724
_cell_volume 646.139183
_symmetry_space_group_name_H-M "P -1"
_symmetry_group_IT_number 2
_symmetry_cell_setting 'triclinic'
loop_
_space_group_symop_operation_xyz
x,y,z
-x,-y,-z
loop_
_atom_site_type_symbol
_atom_site_label
_atom_site_fract_x
_atom_site_fract_y
_atom_site_fract_z
Si Si1 0.375947 0.590143 0.113390
Si Si2 0.336801 0.947670 0.331501
Si Si3 0.400009 0.405089 0.896879
Si Si4 0.997348 0.205134 0.620281
Si Si5 0.834465 0.989676 0.063068
Si Si6 0.264156 0.571647 0.527891
Si Si7 0.182111 0.257133 0.011400
Si Si8 0.078420 0.406576 0.665118
O O1 0.392367 0.487424 0.004810
O O2 0.324390 0.435197 0.368233
O O3 0.500000 0.500000 0.000000
O O4 0.272786 0.972189 0.090722
O O5 0.342510 0.682189 0.387593
O O6 0.348470 0.189823 0.101670
O O7 0.204667 0.129712 0.528751
O O8 0.458170 0.785218 0.283453
O O9 0.307893 0.732879 0.818041
O O10 0.905568 0.148027 0.877327
O O11 0.956208 0.288971 0.512138
O O12 0.000000 0.500000 0.500000
O O13 0.129075 0.883177 0.576561
O O14 0.854731 0.890955 0.945044
O O15 0.884896 0.680445 0.218036
O O16 0.254080 0.361703 0.753203
O O17 0.052371 0.547579 0.135384
#
# Coordination Sequence:
#
# PCOD9044601 Si02
#       8
#     2   2   2   2   2   2   2   2
#     4  11  24  46  74  95 133 183 222 280 344 394
#     4  11  24  43  70  98 136 180 229 274 336 408
#     4  10  23  47  68  98 135 180 232 277 331 410
#     4  12  24  41  68  99 137 180 221 281 340 401
#     4  11  25  44  65  99 140 172 232 283 327 410
#     4  12  24  44  69 103 139 173 226 285 336 402
#     4  11  27  42  68 106 135 174 229 279 338 411
#     4  12  24  42  68  99 134 181 220 274 349 393
#
# _framework density 24.762467999999998
#
# number of rings (size 3 to 8) (size 9 to 14) (size 15 to 20)
#    0.000    0.750    6.250    0.375    1.750    3.500 
#    2.250    0.000    0.000    0.000    0.000    0.000 
#    0.000    0.000    0.000    0.000    0.000    0.000 
#
# Total GULP energy -89426.019620 kJ/mol
# GULP energy per Si atom -5589.126226 kJ/mol
# Density = 2.470611 g / cm^3
# Si number density = 24.762468 Si / 1000 Ang^3
#
#
#
# Elastic Constant Matrix: (Units=GPa)
#
#
# Indices 1 2 3 4 5 6 
#
# 1 80.2409 32.3790 42.6127 -9.5591 -10.8346 -8.8858
# 2 32.3790 79.7803 39.6828 4.6523 -21.7491 -22.1965
# 3 42.6127 39.6828 140.9454 6.7168 -9.3409 -9.9393
# 4 -9.5591 4.6523 6.7168 47.0440 -6.2100 -2.7949
# 5 -10.8346 -21.7491 -9.3409 -6.2100 29.7419 -5.2949
# 6 -8.8858 -22.1965 -9.9393 -2.7949 -5.2949 44.4902
#
#
#
# Elastic Compliance Matrix: (Units=1/GPa)
#
#
# Indices 1 2 3 4 5 6 
#
# 1 0.017466 -0.004097 -0.004056 0.005053 0.003372 0.001257
# 2 -0.004097 0.024160 -0.003545 0.000320 0.017359 0.012529
# 3 -0.004056 -0.003545 0.009242 -0.002075 -0.001752 -0.000853
# 4 0.005053 0.000320 -0.002075 0.023637 0.006895 0.003011
# 5 0.003372 0.017359 -0.001752 0.006895 0.051188 0.015468
# 6 0.001257 0.012529 -0.000853 0.003011 0.015468 0.030818
#
#
# Mechanical properties :
#
#
# Convention : Reuss Voigt Hill
#
# Bulk Modulus (GPa) = 36.40004 58.92396 47.66200
# Shear Modulus (GPa) = 26.44617 36.67469 31.56043
#
# Velocity S-wave (km/s) = 3.27156 3.85263 3.57392
# Velocity P-wave (km/s) = 5.38539 6.60588 6.02661
#
# Compressibility (1/GPa) = 0.02747249
#
# Stress axis : x y z
#
# Youngs Moduli (GPa) = 57.25406 41.39098 108.20419
#
# Poissons Ratio (x) = 0.16958 0.43885
# Poissons Ratio (y) = 0.23457 0.38355
# Poissons Ratio (z) = 0.23221 0.14672
#
# Static dielectric constant tensor:
#      x y z
#    x 2.009550 0.044690 0.019360 
#    y 0.044690 1.975350 0.044070 
#    z 0.019360 0.044070 1.977910 
# 
# From -- ./inp_files/476366.got.cif
#   From: 2010.05.17/outbox.cif.g08.bks.cpg/sg2_239_cif.got.tgz:476366.got - 2010.06.03 11:33:40.
