data_PCOD9044155
_publ_section_title
;
Structure prediction by ZEFSAII (Michael W. Deem and Ramdas Pophale) SiO2 
 PCOD9044155
Probable space group: P -1
;
_chemical_formula_sum "Si O2"
_cell_formula_units_Z 16
_cell_length_a 16.364795
_cell_length_b 14.772875
_cell_length_c 15.472844
_cell_angle_alpha 29.361422
_cell_angle_beta 27.359009
_cell_angle_gamma 25.876932
_cell_volume 699.610020
_symmetry_space_group_name_H-M "P -1"
_symmetry_group_IT_number 2
_symmetry_cell_setting 'triclinic'
loop_
_space_group_symop_operation_xyz
x,y,z
-x,-y,-z
loop_
_atom_site_type_symbol
_atom_site_label
_atom_site_fract_x
_atom_site_fract_y
_atom_site_fract_z
Si Si1 0.616601 0.112298 0.266177
Si Si2 0.256178 0.167882 0.973356
Si Si3 0.282456 0.571444 0.356420
Si Si4 0.349280 0.735833 0.322718
Si Si5 0.800693 0.802023 0.193332
Si Si6 0.228467 0.692514 0.936727
Si Si7 0.233371 0.589812 0.717478
Si Si8 0.169154 0.568837 0.285891
O O1 0.764487 0.094758 0.220957
O O2 0.417455 0.362252 0.230844
O O3 0.500000 0.000000 0.500000
O O4 0.725075 0.999262 0.168588
O O5 0.002665 0.284211 0.128628
O O6 0.366642 0.941838 0.112896
O O7 0.305404 0.119422 0.866004
O O8 0.291488 0.358429 0.810788
O O9 0.223063 0.719350 0.374514
O O10 0.250522 0.372139 0.575357
O O11 0.530035 0.481653 0.177945
O O12 0.147224 0.685168 0.301734
O O13 0.243103 0.742162 0.508417
O O14 0.580285 0.502059 0.310301
O O15 0.054001 0.698216 0.035671
O O16 0.165989 0.658930 0.119724
O O17 0.000000 0.500000 0.500000
#
# Coordination Sequence:
#
# PCOD9044155 Si02
#       8
#     2   2   2   2   2   2   2   2
#     4  11  21  39  60  88 126 175 225 266 319 388
#     4  11  24  42  70 100 132 171 221 277 338 408
#     4  11  22  41  62  95 135 168 222 279 330 393
#     4  11  23  43  71  97 132 173 216 278 342 403
#     4  12  23  41  62  96 132 172 221 282 329 388
#     4  11  23  40  64  86 134 181 217 269 332 379
#     4  10  23  46  70  95 132 172 217 275 346 407
#     4  11  22  40  62  88 128 181 222 263 324 386
#
# _framework density 22.869886000000001
#
# number of rings (size 3 to 8) (size 9 to 14) (size 15 to 20)
#    0.000    1.000    5.000    3.375    3.500    0.000 
#    0.000    0.000    2.750    0.000    0.000    0.000 
#    0.000    0.000    0.000    0.000    0.000    0.000 
#
# Total GULP energy -89316.157918 kJ/mol
# GULP energy per Si atom -5582.259870 kJ/mol
# Density = 2.281783 g / cm^3
# Si number density = 22.869886 Si / 1000 Ang^3
#
#
#
# Elastic Constant Matrix: (Units=GPa)
#
#
# Indices 1 2 3 4 5 6 
#
# 1 117.4805 9.9915 25.6118 -7.2449 15.3316 -7.4331
# 2 9.9915 37.8462 3.6450 2.3645 5.8584 -8.6954
# 3 25.6118 3.6450 130.9219 -2.5310 6.1096 -16.5559
# 4 -7.2449 2.3645 -2.5310 37.7902 -9.8256 -0.6104
# 5 15.3316 5.8584 6.1096 -9.8256 37.2446 1.7133
# 6 -7.4331 -8.6954 -16.5559 -0.6104 1.7133 25.3960
#
#
#
# Elastic Compliance Matrix: (Units=1/GPa)
#
#
# Indices 1 2 3 4 5 6 
#
# 1 0.009548 -0.001586 -0.001457 0.001013 -0.003246 0.001545
# 2 -0.001586 0.030344 0.001044 -0.003439 -0.005700 0.010908
# 3 -0.001457 0.001044 0.008669 0.000003 -0.001246 0.005667
# 4 0.001013 -0.003439 0.000003 0.028882 0.007775 -0.000709
# 5 -0.003246 -0.005700 -0.001246 0.007775 0.031598 -0.005659
# 6 0.001545 0.010908 0.005667 -0.000709 -0.005659 0.047622
#
#
# Mechanical properties :
#
#
# Convention : Reuss Voigt Hill
#
# Bulk Modulus (GPa) = 22.44008 40.52727 31.48367
# Shear Modulus (GPa) = 28.48730 36.55285 32.52007
#
# Velocity S-wave (km/s) = 3.53317 4.00221 3.77498
# Velocity P-wave (km/s) = 5.14565 6.25429 5.72686
#
# Compressibility (1/GPa) = 0.04456312
#
# Stress axis : x y z
#
# Youngs Moduli (GPa) = 104.72850 32.95508 115.35412
#
# Poissons Ratio (x) = 0.05228 0.16811
# Poissons Ratio (y) = 0.16614 -0.12048
# Poissons Ratio (z) = 0.15263 -0.03442
#
# Static dielectric constant tensor:
#      x y z
#    x 1.901920 0.009550 -0.035040 
#    y 0.009550 1.865670 -0.007430 
#    z -0.035040 -0.007430 1.876460 
# 
# From -- ./inp_files/534044.got.cif
#   From: 2010.05.17/outbox.cif.g08.bks.cpg/sg2_268_cif.got.tgz:534044.got - 2010.06.03 11:33:40.
