data_PCOD9044179
_publ_section_title
;
Structure prediction by ZEFSAII (Michael W. Deem and Ramdas Pophale) SiO2 
 PCOD9044179
Probable space group: P -1
;
_chemical_formula_sum "Si O2"
_cell_formula_units_Z 16
_cell_length_a 14.694278
_cell_length_b 9.294178
_cell_length_c 15.241471
_cell_angle_alpha 37.899831
_cell_angle_beta 38.458225
_cell_angle_gamma 41.623089
_cell_volume 748.079325
_symmetry_space_group_name_H-M "P -1"
_symmetry_group_IT_number 2
_symmetry_cell_setting 'triclinic'
loop_
_space_group_symop_operation_xyz
x,y,z
-x,-y,-z
loop_
_atom_site_type_symbol
_atom_site_label
_atom_site_fract_x
_atom_site_fract_y
_atom_site_fract_z
Si Si1 0.374245 0.619911 0.960027
Si Si2 0.118483 0.761541 0.221842
Si Si3 0.561153 0.430019 0.585985
Si Si4 0.383141 0.282300 0.947058
Si Si5 0.185938 0.230897 0.478620
Si Si6 0.527210 0.947883 0.402721
Si Si7 0.877638 0.045062 0.493522
Si Si8 0.069071 0.256933 0.123443
O O1 0.393708 0.430746 0.955830
O O2 0.398038 0.868220 0.786760
O O3 0.500000 0.500000 0.000000
O O4 0.205806 0.699881 0.093894
O O5 0.193057 0.507560 0.344611
O O6 0.935087 0.802191 0.343150
O O7 0.136945 0.004261 0.135894
O O8 0.500000 0.500000 0.500000
O O9 0.436055 0.405825 0.762600
O O10 0.705899 0.176708 0.596146
O O11 0.616601 0.657857 0.462581
O O12 0.209025 0.282359 0.063698
O O13 0.500000 0.000000 0.000000
O O14 0.353295 0.023605 0.458219
O O15 0.117567 0.192891 0.453700
O O16 0.500000 0.000000 0.500000
O O17 0.929349 0.219552 0.302776
O O18 0.000000 0.000000 0.500000
O O19 0.000000 0.500000 0.000000
#
# Coordination Sequence:
#
# PCOD9044179 Si02
#       8
#     2   2   2   2   2   2   2   2
#     4  12  26  45  71 105 140 188 241 290 353 422
#     4  10  24  43  75  96 136 189 232 284 363 411
#     4  12  26  46  75 102 142 191 230 295 364 411
#     4  12  28  46  72 107 144 184 239 292 349 436
#     4  10  23  46  71 100 139 183 239 293 348 421
#     4  12  26  46  69 101 144 183 240 294 352 422
#     4  11  25  43  72 103 137 182 237 283 349 427
#     4  11  26  46  68 102 145 179 228 295 357 415
#
# _framework density 21.388106000000001
#
# number of rings (size 3 to 8) (size 9 to 14) (size 15 to 20)
#    0.000    0.750    3.750    2.250   10.500    4.000 
#    0.000    1.250    0.000    0.000    0.000    0.000 
#    0.000    0.000    0.000    0.000    0.000    0.000 
#
# Total GULP energy -89482.813746 kJ/mol
# GULP energy per Si atom -5592.675859 kJ/mol
# Density = 2.133943 g / cm^3
# Si number density = 21.388106 Si / 1000 Ang^3
#
#
#
# Elastic Constant Matrix: (Units=GPa)
#
#
# Indices 1 2 3 4 5 6 
#
# 1 88.2540 22.7864 13.8873 -0.1383 5.7816 19.5148
# 2 22.7864 95.1854 30.5719 4.7428 -4.6077 26.5689
# 3 13.8873 30.5719 126.1466 4.8371 2.0968 22.3150
# 4 -0.1383 4.7428 4.8371 48.8491 -1.4193 -1.3433
# 5 5.7816 -4.6077 2.0968 -1.4193 29.2362 5.2702
# 6 19.5148 26.5689 22.3150 -1.3433 5.2702 36.9965
#
#
#
# Elastic Compliance Matrix: (Units=1/GPa)
#
#
# Indices 1 2 3 4 5 6 
#
# 1 0.013093 -0.001709 -0.000044 0.000005 -0.001885 -0.005384
# 2 -0.001709 0.014230 -0.001697 -0.001341 0.004250 -0.008949
# 3 -0.000044 -0.001697 0.009135 -0.000863 -0.000185 -0.004274
# 4 0.000005 -0.001341 -0.000863 0.020760 0.000467 0.002168
# 5 -0.001885 0.004250 -0.000185 0.000467 0.036570 -0.007139
# 6 -0.005384 -0.008949 -0.004274 0.002168 -0.007139 0.039969
#
#
# Mechanical properties :
#
#
# Convention : Reuss Voigt Hill
#
# Bulk Modulus (GPa) = 33.82953 49.34192 41.58572
# Shear Modulus (GPa) = 33.22037 39.17237 36.19637
#
# Velocity S-wave (km/s) = 3.94536 4.28425 4.11829
# Velocity P-wave (km/s) = 6.05028 6.89876 6.48840
#
# Compressibility (1/GPa) = 0.02955998
#
# Stress axis : x y z
#
# Youngs Moduli (GPa) = 76.37648 70.27252 109.46352
#
# Poissons Ratio (x) = 0.12009 0.00478
# Poissons Ratio (y) = 0.13052 0.18574
# Poissons Ratio (z) = 0.00333 0.11924
#
# Static dielectric constant tensor:
#      x y z
#    x 1.785330 -0.040040 0.005170 
#    y -0.040040 1.576210 0.074450 
#    z 0.005170 0.074450 1.786270 
# 
# From -- ./inp_files/529275.got.cif
#   From: 2010.05.17/outbox.cif.g08.bks.cpg/sg2_265_cif.got.tgz:529275.got - 2010.06.03 11:33:40.
