data_PCOD9044509
_publ_section_title
;
Structure prediction by ZEFSAII (Michael W. Deem and Ramdas Pophale) SiO2 
 PCOD9044509
Probable space group: P -1
;
_chemical_formula_sum "Si O2"
_cell_formula_units_Z 14
_cell_length_a 5.331903
_cell_length_b 6.613227
_cell_length_c 20.966384
_cell_angle_alpha 108.168221
_cell_angle_beta 62.374174
_cell_angle_gamma 80.895404
_cell_volume 580.697393
_symmetry_space_group_name_H-M "P -1"
_symmetry_group_IT_number 2
_symmetry_cell_setting 'triclinic'
loop_
_space_group_symop_operation_xyz
x,y,z
-x,-y,-z
loop_
_atom_site_type_symbol
_atom_site_label
_atom_site_fract_x
_atom_site_fract_y
_atom_site_fract_z
Si Si1 0.407664 0.849395 0.046491
Si Si2 0.043889 0.570841 0.072494
Si Si3 0.329970 0.529375 0.780138
Si Si4 0.283890 0.997654 0.328563
Si Si5 0.243449 0.175754 0.211796
Si Si6 0.350566 0.404902 0.425449
Si Si7 0.681822 0.163747 0.487351
O O1 0.086253 0.813777 0.089129
O O2 0.431709 0.963321 0.122809
O O3 0.628238 0.611381 0.966901
O O4 0.500000 0.000000 0.000000
O O5 0.820186 0.511419 0.140126
O O6 0.000000 0.500000 0.000000
O O7 0.560758 0.663511 0.779633
O O8 0.060532 0.671122 0.776628
O O9 0.501777 0.263563 0.715551
O O10 0.177267 0.062266 0.273975
O O11 0.405065 0.202597 0.349931
O O12 0.031055 0.033775 0.417126
O O13 0.563230 0.292135 0.447844
O O14 0.395433 0.641946 0.430377
O O15 0.000000 0.500000 0.500000
O O16 0.500000 0.000000 0.500000
#
# Coordination Sequence:
#
# PCOD9044509 Si02
#       7
#     2   2   2   2   2   2   2
#     4  11  24  45  74 104 150 200 258 320 375 445
#     4  11  25  43  75 107 145 202 264 322 382 453
#     4  12  30  48  76 114 156 205 263 312 397 462
#     4  11  28  48  75 107 160 196 252 322 387 459
#     4  12  30  49  75 113 157 209 258 319 393 461
#     4   9  22  45  70 106 139 189 241 303 378 455
#     4  10  23  46  79 108 146 190 256 308 385 458
#
# _framework density 24.108944999999999
#
# number of rings (size 3 to 8) (size 9 to 14) (size 15 to 20)
#    0.000    1.143    1.429    1.714   12.000    8.000 
#    0.000    0.000    0.000    0.000    0.000    0.000 
#    0.000    0.000    0.000    0.000    0.000    0.000 
#
# Total GULP energy -78051.234202 kJ/mol
# GULP energy per Si atom -5575.088157 kJ/mol
# Density = 2.405407 g / cm^3
# Si number density = 24.108945 Si / 1000 Ang^3
#
#
#
# Elastic Constant Matrix: (Units=GPa)
#
#
# Indices 1 2 3 4 5 6 
#
# 1 102.2787 42.6431 12.7192 7.3679 3.4388 16.1930
# 2 42.6431 114.5563 47.9945 -7.4460 -5.6658 30.2086
# 3 12.7192 47.9945 100.2820 7.5092 8.0306 12.2992
# 4 7.3679 -7.4460 7.5092 52.1654 -0.0022 1.0278
# 5 3.4388 -5.6658 8.0306 -0.0022 36.4751 -0.4504
# 6 16.1930 30.2086 12.2992 1.0278 -0.4504 54.9219
#
#
#
# Elastic Compliance Matrix: (Units=1/GPa)
#
#
# Indices 1 2 3 4 5 6 
#
# 1 0.012174 -0.005133 0.001421 -0.002636 -0.002271 -0.001054
# 2 -0.005133 0.015344 -0.006661 0.003982 0.004267 -0.005474
# 3 0.001421 -0.006661 0.013514 -0.003102 -0.004141 0.000243
# 4 -0.002636 0.003982 -0.003102 0.020579 0.001538 -0.001091
# 5 -0.002271 0.004267 -0.004141 0.001538 0.029198 -0.000539
# 6 -0.001054 -0.005474 0.000243 -0.001091 -0.000539 0.021491
#
#
# Mechanical properties :
#
#
# Convention : Reuss Voigt Hill
#
# Bulk Modulus (GPa) = 49.29581 58.20339 53.74960
# Shear Modulus (GPa) = 35.76376 42.96316 39.36346
#
# Velocity S-wave (km/s) = 3.85570 4.22600 4.04509
# Velocity P-wave (km/s) = 6.34928 6.92866 6.64529
#
# Compressibility (1/GPa) = 0.02028570
#
# Stress axis : x y z
#
# Youngs Moduli (GPa) = 82.14549 65.17177 73.99883
#
# Poissons Ratio (x) = 0.33451 -0.10515
# Poissons Ratio (y) = 0.42163 0.49291
# Poissons Ratio (z) = -0.11672 0.43411
#
# Static dielectric constant tensor:
#      x y z
#    x 2.269710 0.357580 -0.176240 
#    y 0.357580 2.593370 -0.200140 
#    z -0.176240 -0.200140 2.058540 
# 
# From -- ./inp_files/102948.got.cif
#   From: 2010.05.17/outbox.cif.g08.bks.cpg/sg2_52_cif.got.tgz:102948.got - 2010.06.03 11:33:40.
