data_PCOD9044822
_publ_section_title
;
Structure prediction by ZEFSAII (Michael W. Deem and Ramdas Pophale) SiO2 
 PCOD9044822
Probable space group: P -1
;
_chemical_formula_sum "Si O2"
_cell_formula_units_Z 10
_cell_length_a 15.682952
_cell_length_b 12.673423
_cell_length_c 8.631626
_cell_angle_alpha 31.067277
_cell_angle_beta 140.122334
_cell_angle_gamma 152.846180
_cell_volume 403.943306
_symmetry_space_group_name_H-M "P -1"
_symmetry_group_IT_number 2
_symmetry_cell_setting 'triclinic'
loop_
_space_group_symop_operation_xyz
x,y,z
-x,-y,-z
loop_
_atom_site_type_symbol
_atom_site_label
_atom_site_fract_x
_atom_site_fract_y
_atom_site_fract_z
Si Si1 0.196807 0.617075 0.070278
Si Si2 0.823991 0.864453 0.272144
Si Si3 0.332769 0.178570 0.605123
Si Si4 0.561537 0.462074 0.975929
Si Si5 0.124529 0.460571 0.802713
O O1 0.224981 0.428121 0.428374
O O2 0.191277 0.587352 0.912365
O O3 0.000000 0.500000 0.000000
O O4 0.344182 0.948659 0.911598
O O5 0.842581 0.945865 0.377015
O O6 0.639806 0.797348 0.054861
O O7 0.984500 0.118656 0.066157
O O8 0.500000 0.500000 0.500000
O O9 0.329643 0.248560 0.336777
O O10 0.500000 0.500000 0.000000
O O11 0.700573 0.420919 0.207386
O O12 0.000000 0.500000 0.500000
#
# Coordination Sequence:
#
# PCOD9044822 Si02
#       5
#     2   2   2   2   2
#     4  12  24  45  83 112 147 208 259 315 390 455
#     4  11  25  51  77 109 154 199 266 317 376 468
#     4  10  23  47  74 114 147 196 260 320 372 460
#     4  11  27  47  73 110 160 201 251 320 388 452
#     4  12  28  49  75 116 159 200 258 321 388 460
#
# _framework density 24.755948
#
# number of rings (size 3 to 8) (size 9 to 14) (size 15 to 20)
#    0.000    0.800    4.000    1.800    5.600    4.800 
#    0.000    0.000    0.000    0.000    0.000    0.000 
#    0.000    0.000    0.000    0.000    0.000    0.000 
#
# Total GULP energy -55876.557758 kJ/mol
# GULP energy per Si atom -5587.655776 kJ/mol
# Density = 2.469960 g / cm^3
# Si number density = 24.755948 Si / 1000 Ang^3
#
#
#
# Elastic Constant Matrix: (Units=GPa)
#
#
# Indices 1 2 3 4 5 6 
#
# 1 214.3249 45.4462 54.1852 15.3507 15.2186 22.1787
# 2 45.4462 92.7817 66.7721 -11.0731 19.1679 10.9664
# 3 54.1852 66.7721 168.4421 -4.4566 32.1419 1.9383
# 4 15.3507 -11.0731 -4.4566 46.3511 -1.1506 13.2590
# 5 15.2186 19.1679 32.1419 -1.1506 47.1989 8.4915
# 6 22.1787 10.9664 1.9383 13.2590 8.4915 41.5371
#
#
#
# Elastic Compliance Matrix: (Units=1/GPa)
#
#
# Indices 1 2 3 4 5 6 
#
# 1 0.005695 -0.002051 -0.001048 -0.001955 -0.000009 -0.001824
# 2 -0.002051 0.017485 -0.005779 0.005618 -0.001515 -0.004735
# 3 -0.001048 -0.005779 0.009303 -0.001057 -0.004188 0.002845
# 4 -0.001955 0.005618 -0.001057 0.026064 0.001320 -0.008979
# 5 -0.000009 -0.001515 -0.004188 0.001320 0.025599 -0.005054
# 6 -0.001824 -0.004735 0.002845 -0.008979 -0.005054 0.030066
#
#
# Mechanical properties :
#
#
# Convention : Reuss Voigt Hill
#
# Bulk Modulus (GPa) = 67.90391 89.81732 78.86061
# Shear Modulus (GPa) = 36.52918 47.62711 42.07814
#
# Velocity S-wave (km/s) = 3.84548 4.39095 4.12724
# Velocity P-wave (km/s) = 6.87065 7.87827 7.39165
#
# Compressibility (1/GPa) = 0.01472669
#
# Stress axis : x y z
#
# Youngs Moduli (GPa) = 175.58658 57.19247 107.48989
#
# Poissons Ratio (x) = 0.11732 0.11264
# Poissons Ratio (y) = 0.36018 0.62119
# Poissons Ratio (z) = 0.18400 0.33052
#
# Static dielectric constant tensor:
#      x y z
#    x 2.069540 -0.064000 -0.056660 
#    y -0.064000 2.236080 0.124480 
#    z -0.056660 0.124480 2.014570 
# 
# From -- ./inp_files/16022.got.cif
#   From: 2010.05.17/outbox.cif.g08.bks.cpg/sg2_9_cif.got.tgz:16022.got - 2010.06.03 11:33:40.
