data_PCOD9044402
_publ_section_title
;
Structure prediction by ZEFSAII (Michael W. Deem and Ramdas Pophale) SiO2 
 PCOD9044402
Probable space group: P -1
;
_chemical_formula_sum "Si O2"
_cell_formula_units_Z 16
_cell_length_a 11.528443
_cell_length_b 18.173985
_cell_length_c 21.298299
_cell_angle_alpha 20.159474
_cell_angle_beta 154.862988
_cell_angle_gamma 151.579919
_cell_volume 639.732738
_symmetry_space_group_name_H-M "P -1"
_symmetry_group_IT_number 2
_symmetry_cell_setting 'triclinic'
loop_
_space_group_symop_operation_xyz
x,y,z
-x,-y,-z
loop_
_atom_site_type_symbol
_atom_site_label
_atom_site_fract_x
_atom_site_fract_y
_atom_site_fract_z
Si Si1 0.916148 0.643045 0.480302
Si Si2 0.868522 0.372533 0.209972
Si Si3 0.377627 0.750557 0.161704
Si Si4 0.339068 0.681846 0.547849
Si Si5 0.326271 0.917179 0.546158
Si Si6 0.278284 0.650393 0.989355
Si Si7 0.645495 0.880319 0.317737
Si Si8 0.850891 0.198965 0.773894
O O1 0.585572 0.619408 0.333053
O O2 0.992622 0.407034 0.718490
O O3 0.098108 0.718024 0.448575
O O4 0.026555 0.819391 0.446705
O O5 0.055669 0.622096 0.102177
O O6 0.099174 0.225110 0.452480
O O7 0.652767 0.281554 0.234714
O O8 0.751122 0.327047 0.118721
O O9 0.462116 0.752512 0.274653
O O10 0.500000 0.000000 0.000000
O O11 0.453053 0.459843 0.783771
O O12 0.208152 0.709193 0.395442
O O13 0.602106 0.871070 0.544610
O O14 0.500000 0.000000 0.500000
O O15 0.000000 0.500000 0.000000
O O16 0.287370 0.862647 0.866930
O O17 0.447856 0.881071 0.279330
O O18 0.000000 0.000000 0.000000
#
# Coordination Sequence:
#
# PCOD9044402 Si02
#       8
#     2   2   2   2   2   2   2   2
#     4  11  24  48  71 101 150 191 249 305 381 447
#     4  12  23  46  73 109 147 194 254 311 375 448
#     4  12  27  43  76 109 149 196 251 312 380 450
#     4  11  26  48  71 104 150 195 249 314 381 445
#     4  10  23  46  74 102 145 195 239 309 374 445
#     4  12  26  43  72 107 149 199 253 311 377 451
#     4  12  24  44  70 105 144 188 251 310 374 444
#     4  12  26  45  73 107 145 194 249 310 380 447
#
# _framework density 25.010444
#
# number of rings (size 3 to 8) (size 9 to 14) (size 15 to 20)
#    0.000    0.500    2.500    5.625    5.250    0.000 
#    0.000    3.125    0.000    0.000    0.000    0.000 
#    0.000    0.000    0.000    0.000    0.000    0.000 
#
# Total GULP energy -89324.216486 kJ/mol
# GULP energy per Si atom -5582.763530 kJ/mol
# Density = 2.495352 g / cm^3
# Si number density = 25.010444 Si / 1000 Ang^3
#
#
#
# Elastic Constant Matrix: (Units=GPa)
#
#
# Indices 1 2 3 4 5 6 
#
# 1 119.7453 13.2517 33.3740 13.5617 -19.9487 11.9076
# 2 13.2517 116.5364 23.1730 -22.9029 -0.3835 -15.7842
# 3 33.3740 23.1730 119.5263 -1.4426 3.8107 -16.7630
# 4 13.5617 -22.9029 -1.4426 48.7901 -5.3164 -7.4937
# 5 -19.9487 -0.3835 3.8107 -5.3164 32.6577 -5.7233
# 6 11.9076 -15.7842 -16.7630 -7.4937 -5.7233 38.1283
#
#
#
# Elastic Compliance Matrix: (Units=1/GPa)
#
#
# Indices 1 2 3 4 5 6 
#
# 1 0.011914 -0.002399 -0.004029 -0.004942 0.005760 -0.006592
# 2 -0.002399 0.011267 -0.000518 0.007091 0.001063 0.006739
# 3 -0.004029 -0.000518 0.010482 0.001791 -0.002410 0.005643
# 4 -0.004942 0.007091 0.001791 0.027314 0.003251 0.011122
# 5 0.005760 0.001063 -0.002410 0.003251 0.035586 0.003562
# 6 -0.006592 0.006739 0.005643 0.011122 0.003562 0.036277
#
#
# Mechanical properties :
#
#
# Convention : Reuss Voigt Hill
#
# Bulk Modulus (GPa) = 50.57976 55.04504 52.81240
# Shear Modulus (GPa) = 32.61119 42.98250 37.79684
#
# Velocity S-wave (km/s) = 3.61488 4.15008 3.89169
# Velocity P-wave (km/s) = 6.13926 6.70975 6.43083
#
# Compressibility (1/GPa) = 0.01977075
#
# Stress axis : x y z
#
# Youngs Moduli (GPa) = 83.93268 88.75849 95.40501
#
# Poissons Ratio (x) = 0.21290 0.38443
# Poissons Ratio (y) = 0.20132 0.04940
# Poissons Ratio (z) = 0.33820 0.04596
#
# Static dielectric constant tensor:
#      x y z
#    x 2.108150 0.154130 -0.128040 
#    y 0.154130 2.186930 -0.172990 
#    z -0.128040 -0.172990 2.067360 
# 
# From -- ./inp_files/595982.got.cif
#   From: 2010.05.17/outbox.cif.g08.bks.cpg/sg2_298_cif.got.tgz:595982.got - 2010.06.03 11:33:40.
