data_PCOD9044724
_publ_section_title
;
Structure prediction by ZEFSAII (Michael W. Deem and Ramdas Pophale) SiO2 
 PCOD9044724
Probable space group: P -1
;
_chemical_formula_sum "Si O2"
_cell_formula_units_Z 16
_cell_length_a 8.910164
_cell_length_b 22.389879
_cell_length_c 8.367113
_cell_angle_alpha 130.542743
_cell_angle_beta 81.694818
_cell_angle_gamma 136.592690
_cell_volume 678.563061
_symmetry_space_group_name_H-M "P -1"
_symmetry_group_IT_number 2
_symmetry_cell_setting 'triclinic'
loop_
_space_group_symop_operation_xyz
x,y,z
-x,-y,-z
loop_
_atom_site_type_symbol
_atom_site_label
_atom_site_fract_x
_atom_site_fract_y
_atom_site_fract_z
Si Si1 0.472375 0.530824 0.228912
Si Si2 0.232802 0.140075 0.591387
Si Si3 0.447247 0.585045 0.792192
Si Si4 0.003670 0.869546 0.689022
Si Si5 0.789457 0.277958 0.329423
Si Si6 0.356948 0.050801 0.237568
Si Si7 0.267622 0.581198 0.500958
Si Si8 0.433222 0.941041 0.230900
O O1 0.430629 0.445127 0.220554
O O2 0.240889 0.499212 0.234072
O O3 0.763447 0.705180 0.493048
O O4 0.500000 0.500000 0.000000
O O5 0.416447 0.147601 0.515774
O O6 0.099105 0.119824 0.419048
O O7 0.413661 0.286538 0.900610
O O8 0.000000 0.000000 0.500000
O O9 0.465122 0.626603 0.682008
O O10 0.111296 0.428003 0.588365
O O11 0.267500 0.940258 0.693085
O O12 0.117095 0.961859 0.989766
O O13 0.632837 0.157482 0.274845
O O14 0.636007 0.296066 0.382106
O O15 0.736607 0.212647 0.052929
O O16 0.270990 0.939303 0.161911
O O17 0.000000 0.500000 0.500000
O O18 0.500000 0.000000 0.500000
#
# Coordination Sequence:
#
# PCOD9044724 Si02
#       8
#     2   2   2   2   2   2   2   2
#     4  12  24  46  72 107 143 184 250 295 358 429
#     4  12  27  43  66 106 144 185 240 297 360 431
#     4  11  25  46  70 105 145 188 238 301 363 428
#     4  11  24  45  70 102 139 193 238 298 362 430
#     4  10  23  47  72 102 141 186 245 292 368 426
#     4  11  24  44  72  98 139 192 237 295 362 432
#     4  10  25  46  69 102 143 192 230 299 367 426
#     4  11  24  44  73 104 144 189 240 301 356 436
#
# _framework density 23.579238
#
# number of rings (size 3 to 8) (size 9 to 14) (size 15 to 20)
#    0.000    1.000    1.250    5.250    7.000    2.500 
#   11.250    0.000    0.000    0.000    0.000    0.000 
#    0.000    0.000    0.000    0.000    0.000    0.000 
#
# Total GULP energy -89376.823572 kJ/mol
# GULP energy per Si atom -5586.051473 kJ/mol
# Density = 2.352557 g / cm^3
# Si number density = 23.579238 Si / 1000 Ang^3
#
#
#
# Elastic Constant Matrix: (Units=GPa)
#
#
# Indices 1 2 3 4 5 6 
#
# 1 105.8788 27.1191 54.8244 -14.5225 -30.9205 -17.5578
# 2 27.1191 85.1549 56.1845 -2.7836 -4.7711 1.1679
# 3 54.8244 56.1845 163.1970 1.4515 -26.2489 5.2775
# 4 -14.5225 -2.7836 1.4515 42.1630 2.8076 1.5124
# 5 -30.9205 -4.7711 -26.2489 2.8076 41.4555 -0.4061
# 6 -17.5578 1.1679 5.2775 1.5124 -0.4061 44.5835
#
#
#
# Elastic Compliance Matrix: (Units=1/GPa)
#
#
# Indices 1 2 3 4 5 6 
#
# 1 0.016391 -0.002368 -0.003421 0.004727 0.009534 0.006849
# 2 -0.002368 0.015726 -0.005122 0.000644 -0.003251 -0.000790
# 3 -0.003421 -0.005122 0.009623 -0.001971 0.003063 -0.002258
# 4 0.004727 0.000644 -0.001971 0.025369 0.000645 0.001223
# 5 0.009534 -0.003251 0.003063 0.000645 0.032792 0.003754
# 6 0.006849 -0.000790 -0.002258 0.001223 0.003754 0.025408
#
#
# Mechanical properties :
#
#
# Convention : Reuss Voigt Hill
#
# Bulk Modulus (GPa) = 50.20322 70.05407 60.12865
# Shear Modulus (GPa) = 32.51591 40.04726 36.28158
#
# Velocity S-wave (km/s) = 3.71753 4.12565 3.92689
# Velocity P-wave (km/s) = 6.30588 7.24356 6.79093
#
# Compressibility (1/GPa) = 0.01991904
#
# Stress axis : x y z
#
# Youngs Moduli (GPa) = 61.00902 63.58717 103.91284
#
# Poissons Ratio (x) = 0.15057 0.35551
# Poissons Ratio (y) = 0.14447 0.53221
# Poissons Ratio (z) = 0.20873 0.32568
#
# Static dielectric constant tensor:
#      x y z
#    x 1.962330 0.006060 -0.042410 
#    y 0.006060 1.951250 -0.018470 
#    z -0.042410 -0.018470 1.909350 
# 
# From -- ./inp_files/226654.got.cif
#   From: 2010.05.17/outbox.cif.g08.bks.cpg/sg2_114_cif.got.tgz:226654.got - 2010.06.03 11:33:40.
