data_PCOD9044596
_publ_section_title
;
Structure prediction by ZEFSAII (Michael W. Deem and Ramdas Pophale) SiO2 
 PCOD9044596
Probable space group: P -1
;
_chemical_formula_sum "Si O2"
_cell_formula_units_Z 16
_cell_length_a 18.228643
_cell_length_b 11.802509
_cell_length_c 22.378412
_cell_angle_alpha 39.344144
_cell_angle_beta 160.612525
_cell_angle_gamma 151.323825
_cell_volume 721.083621
_symmetry_space_group_name_H-M "P -1"
_symmetry_group_IT_number 2
_symmetry_cell_setting 'triclinic'
loop_
_space_group_symop_operation_xyz
x,y,z
-x,-y,-z
loop_
_atom_site_type_symbol
_atom_site_label
_atom_site_fract_x
_atom_site_fract_y
_atom_site_fract_z
Si Si1 0.651339 0.256624 0.953494
Si Si2 0.937538 0.837459 0.313989
Si Si3 0.136929 0.762177 0.607359
Si Si4 0.208572 0.796407 0.040588
Si Si5 0.012855 0.193864 0.313973
Si Si6 0.142411 0.033872 0.264166
Si Si7 0.371601 0.431585 0.611954
Si Si8 0.693458 0.516063 0.089680
O O1 0.658354 0.124791 0.956756
O O2 0.620555 0.436721 0.829570
O O3 0.330598 0.049003 0.826591
O O4 0.955463 0.366355 0.178506
O O5 0.975943 0.694413 0.447322
O O6 0.071624 0.087959 0.349244
O O7 0.568044 0.654665 0.092188
O O8 0.117234 0.920430 0.355255
O O9 0.186459 0.598217 0.742438
O O10 0.922868 0.739732 0.500682
O O11 0.479323 0.038780 0.748735
O O12 0.000000 0.500000 0.000000
O O13 0.037268 0.881573 0.892240
O O14 0.257484 0.314850 0.505767
O O15 0.472820 0.286817 0.391120
O O16 0.971414 0.814295 0.173335
O O17 0.500000 0.500000 0.000000
#
# Coordination Sequence:
#
# PCOD9044596 Si02
#       8
#     2   2   2   2   2   2   2   2
#     4  11  21  37  60  95 134 172 207 260 330 394
#     4  11  23  41  70  97 123 174 233 263 318 393
#     4  12  24  43  72  96 125 181 221 265 325 398
#     4  12  22  39  66  97 132 170 211 266 335 387
#     4  11  22  36  65  97 132 172 216 261 330 395
#     4  11  25  45  63  96 137 172 215 281 319 379
#     4  12  25  40  65 101 137 168 213 271 339 385
#     4  10  23  47  68  91 131 175 225 272 321 375
#
# _framework density 22.188825999999999
#
# number of rings (size 3 to 8) (size 9 to 14) (size 15 to 20)
#    0.000    0.750    7.500    1.125    1.750    4.000 
#    0.000    0.625    0.000    0.000    0.000    0.000 
#    0.000    0.000    0.000    0.000    0.000    0.000 
#
# Total GULP energy -89260.938919 kJ/mol
# GULP energy per Si atom -5578.808682 kJ/mol
# Density = 2.213832 g / cm^3
# Si number density = 22.188826 Si / 1000 Ang^3
#
#
#
# Elastic Constant Matrix: (Units=GPa)
#
#
# Indices 1 2 3 4 5 6 
#
# 1 32.9614 4.0986 22.4741 -4.2523 -10.1278 2.2692
# 2 4.0986 100.8087 42.8476 11.0728 -17.0411 -11.6457
# 3 22.4741 42.8476 93.7739 -24.3779 -20.0277 1.7075
# 4 -4.2523 11.0728 -24.3779 36.1920 -1.6106 4.4070
# 5 -10.1278 -17.0411 -20.0277 -1.6106 33.1878 -5.6526
# 6 2.2692 -11.6457 1.7075 4.4070 -5.6526 21.0030
#
#
#
# Elastic Compliance Matrix: (Units=1/GPa)
#
#
# Indices 1 2 3 4 5 6 
#
# 1 0.039154 0.005543 -0.011491 -0.004836 0.008133 0.002981
# 2 0.005543 0.020570 -0.014250 -0.017066 0.005737 0.017090
# 3 -0.011491 -0.014250 0.027095 0.022979 0.004519 -0.012468
# 4 -0.004836 -0.017066 0.022979 0.050395 0.002549 -0.020697
# 5 0.008133 0.005737 0.004519 0.002549 0.040505 0.012301
# 6 0.002981 0.017090 -0.012468 -0.020697 0.012301 0.065433
#
#
# Mechanical properties :
#
#
# Convention : Reuss Voigt Hill
#
# Bulk Modulus (GPa) = 21.54115 40.70940 31.12528
# Shear Modulus (GPa) = 16.72118 28.61812 22.66965
#
# Velocity S-wave (km/s) = 2.74813 3.59521 3.19982
# Velocity P-wave (km/s) = 4.44958 5.96831 5.26400
#
# Compressibility (1/GPa) = 0.04642277
#
# Stress axis : x y z
#
# Youngs Moduli (GPa) = 25.54013 48.61539 36.90745
#
# Poissons Ratio (x) = -0.26946 0.42410
# Poissons Ratio (y) = -0.14156 0.52592
# Poissons Ratio (z) = 0.29348 0.69275
#
# Static dielectric constant tensor:
#      x y z
#    x 1.831740 0.009260 -0.019790 
#    y 0.009260 1.939630 -0.015480 
#    z -0.019790 -0.015480 1.912710 
# 
# From -- ./inp_files/600074.got.cif
#   From: 2010.05.17/outbox.cif.g08.bks.cpg/sg2_301_cif.got.tgz:600074.got - 2010.06.03 11:33:40.
