data_PCOD9044364
_publ_section_title
;
Structure prediction by ZEFSAII (Michael W. Deem and Ramdas Pophale) SiO2 
 PCOD9044364
Probable space group: P -1
;
_chemical_formula_sum "Si O2"
_cell_formula_units_Z 16
_cell_length_a 9.173177
_cell_length_b 14.080213
_cell_length_c 11.076724
_cell_angle_alpha 83.685472
_cell_angle_beta 120.774468
_cell_angle_gamma 138.235953
_cell_volume 720.610880
_symmetry_space_group_name_H-M "P -1"
_symmetry_group_IT_number 2
_symmetry_cell_setting 'triclinic'
loop_
_space_group_symop_operation_xyz
x,y,z
-x,-y,-z
loop_
_atom_site_type_symbol
_atom_site_label
_atom_site_fract_x
_atom_site_fract_y
_atom_site_fract_z
Si Si1 0.158544 0.631076 0.446536
Si Si2 0.683252 0.902923 0.792875
Si Si3 0.919862 0.699609 0.227288
Si Si4 0.072640 0.880231 0.509719
Si Si5 0.667970 0.766955 0.013451
Si Si6 0.717756 0.311995 0.942069
Si Si7 0.397988 0.219442 0.577149
Si Si8 0.351569 0.916628 0.157301
O O1 0.422165 0.804650 0.604456
O O2 0.336753 0.652792 0.419334
O O3 0.000000 0.500000 0.500000
O O4 0.927602 0.592451 0.284796
O O5 0.693034 0.990456 0.887982
O O6 0.632123 0.780085 0.856875
O O7 0.999470 0.048315 0.847857
O O8 0.682194 0.661985 0.072282
O O9 0.996075 0.783463 0.374997
O O10 0.174767 0.816489 0.219959
O O11 0.797421 0.777373 0.489630
O O12 0.197108 0.037072 0.489161
O O13 0.317500 0.948311 0.688529
O O14 0.434233 0.716800 0.999639
O O15 0.508655 0.243164 0.753118
O O16 0.748332 0.210160 0.961647
O O17 0.000000 0.500000 0.000000
#
# Coordination Sequence:
#
# PCOD9044364 Si02
#       8
#     2   2   2   2   2   2   2   2
#     4  12  25  40  65  94 132 166 204 264 318 370
#     4  10  23  42  63  97 127 160 213 261 312 369
#     4  11  19  38  65  96 120 160 216 251 311 373
#     4  10  17  33  68  98 111 151 207 274 292 365
#     4  10  23  40  67  89 128 167 208 262 307 371
#     4  11  23  38  62  91 127 169 208 252 310 381
#     4  10  21  36  63  97 121 156 213 254 320 361
#     4  10  20  35  67  95 120 162 211 259 307 368
#
# _framework density 22.203382999999999
#
# number of rings (size 3 to 8) (size 9 to 14) (size 15 to 20)
#    0.000    1.500    5.000    1.875    5.250    0.500 
#    0.000    7.500    2.750    0.000    0.000    0.000 
#    0.000    0.000    0.000    0.000    0.000    0.000 
#
# Total GULP energy -89234.844616 kJ/mol
# GULP energy per Si atom -5577.177789 kJ/mol
# Density = 2.215285 g / cm^3
# Si number density = 22.203383 Si / 1000 Ang^3
#
#
#
# Elastic Constant Matrix: (Units=GPa)
#
#
# Indices 1 2 3 4 5 6 
#
# 1 118.0126 33.6794 14.0394 7.4939 11.1170 13.5052
# 2 33.6794 87.7175 6.2645 -7.4552 3.6973 9.3782
# 3 14.0394 6.2645 44.5845 -12.2187 12.7759 -14.1054
# 4 7.4939 -7.4552 -12.2187 28.7025 -5.4555 -4.7855
# 5 11.1170 3.6973 12.7759 -5.4555 26.9500 -3.6213
# 6 13.5052 9.3782 -14.1054 -4.7855 -3.6213 28.5665
#
#
#
# Elastic Compliance Matrix: (Units=1/GPa)
#
#
# Indices 1 2 3 4 5 6 
#
# 1 0.013159 -0.003890 -0.009156 -0.011166 -0.004413 -0.011895
# 2 -0.003890 0.013457 -0.000284 0.004152 0.000470 -0.001964
# 3 -0.009156 -0.000284 0.043369 0.024070 -0.007994 0.028855
# 4 -0.011166 0.004152 0.024070 0.054763 0.007189 0.025886
# 5 -0.004413 0.000470 -0.007994 0.007189 0.044760 0.004863
# 6 -0.011895 -0.001964 0.028855 0.025886 0.004863 0.060475
#
#
# Mechanical properties :
#
#
# Convention : Reuss Voigt Hill
#
# Bulk Modulus (GPa) = 23.08133 39.80901 31.44517
# Shear Modulus (GPa) = 18.44448 29.93258 24.18853
#
# Velocity S-wave (km/s) = 2.88532 3.67564 3.30420
# Velocity P-wave (km/s) = 4.63876 5.99850 5.36191
#
# Compressibility (1/GPa) = 0.04332505
#
# Stress axis : x y z
#
# Youngs Moduli (GPa) = 75.99412 74.31027 23.05816
#
# Poissons Ratio (x) = 0.28905 0.21112
# Poissons Ratio (y) = 0.29560 0.00655
# Poissons Ratio (z) = 0.69579 0.02111
#
# Static dielectric constant tensor:
#      x y z
#    x 1.869450 -0.060900 0.027140 
#    y -0.060900 1.839030 0.022360 
#    z 0.027140 0.022360 1.850720 
# 
# From -- ./inp_files/389278.got.cif
#   From: 2010.05.17/outbox.cif.g08.bks.cpg/sg2_195_cif.got.tgz:389278.got - 2010.06.03 11:33:40.
