data_PCOD9044041
_publ_section_title
;
Structure prediction by ZEFSAII (Michael W. Deem and Ramdas Pophale) SiO2 
 PCOD9044041
Probable space group: P -1
;
_chemical_formula_sum "Si O2"
_cell_formula_units_Z 13
_cell_length_a 11.675376
_cell_length_b 10.624802
_cell_length_c 15.054304
_cell_angle_alpha 136.636064
_cell_angle_beta 151.305411
_cell_angle_gamma 61.632044
_cell_volume 535.581647
_symmetry_space_group_name_H-M "P -1"
_symmetry_group_IT_number 2
_symmetry_cell_setting 'triclinic'
loop_
_space_group_symop_operation_xyz
x,y,z
-x,-y,-z
loop_
_atom_site_type_symbol
_atom_site_label
_atom_site_fract_x
_atom_site_fract_y
_atom_site_fract_z
Si Si1 0.293300 0.362521 0.209324
Si Si2 0.741794 0.219636 0.866869
Si Si3 0.905661 0.649108 0.301121
Si Si4 0.000000 0.000000 0.000000
Si Si5 0.398612 0.336818 0.574423
Si Si6 0.480372 0.032751 0.108436
Si Si7 0.654852 0.407073 0.174939
O O1 0.500000 0.500000 0.500000
O O2 0.347970 0.514511 0.241361
O O3 0.352783 0.178840 0.123304
O O4 0.994331 0.254022 0.993181
O O5 0.486617 0.202059 0.628995
O O6 0.720970 0.032260 0.817234
O O7 0.851006 0.436685 0.105740
O O8 0.860466 0.590459 0.343994
O O9 0.203286 0.837618 0.578498
O O10 0.653794 0.679666 0.116084
O O11 0.853393 0.801579 0.731429
O O12 0.342377 0.492500 0.676919
O O13 0.500000 0.000000 0.000000
O O14 0.311599 0.796586 0.907931
#
# Coordination Sequence:
#
# PCOD9044041 Si02
#       7
#     2   2   2   1   2   2   2
#     4  12  23  46  69 101 140 186 237 292 352 420
#     4  11  25  44  72 101 143 185 234 292 359 422
#     4  10  23  46  69 101 142 185 233 301 350 427
#     4  12  24  42  68 104 140 178 236 286 354 424
#     4  11  24  47  69 103 141 187 235 295 357 424
#     4  12  24  42  70 105 137 187 237 287 358 421
#     4  10  24  45  71 101 142 185 239 292 361 421
#
# _framework density 24.272676000000001
#
# number of rings (size 3 to 8) (size 9 to 14) (size 15 to 20)
#    0.000    0.923    4.615    1.385    2.154    1.846 
#    0.000    1.538    0.000    0.000    0.000    0.000 
#    0.000    0.000    0.000    0.000    0.000    0.000 
#
# Total GULP energy -72558.981243 kJ/mol
# GULP energy per Si atom -5581.460096 kJ/mol
# Density = 2.421743 g / cm^3
# Si number density = 24.272676 Si / 1000 Ang^3
#
#
#
# Elastic Constant Matrix: (Units=GPa)
#
#
# Indices 1 2 3 4 5 6 
#
# 1 93.6007 -5.9144 13.7954 14.0296 -13.1876 -21.3636
# 2 -5.9144 106.7174 11.6876 5.7702 -15.5860 -33.0340
# 3 13.7954 11.6876 95.1952 -7.0571 -12.9872 -4.4187
# 4 14.0296 5.7702 -7.0571 34.1268 -11.5262 2.4058
# 5 -13.1876 -15.5860 -12.9872 -11.5262 37.9802 2.0540
# 6 -21.3636 -33.0340 -4.4187 2.4058 2.0540 25.8726
#
#
#
# Elastic Compliance Matrix: (Units=1/GPa)
#
#
# Indices 1 2 3 4 5 6 
#
# 1 0.025235 0.016854 -0.003768 -0.014384 0.007730 0.042436
# 2 0.016854 0.028150 -0.003180 -0.012531 0.009826 0.049700
# 3 -0.003768 -0.003180 0.012145 0.006294 0.003773 -0.005982
# 4 -0.014384 -0.012531 0.006294 0.043145 0.006805 -0.031353
# 5 0.007730 0.009826 0.003773 0.006805 0.035529 0.016119
# 6 0.042436 0.049700 -0.005982 -0.031353 0.016119 0.137762
#
#
# Mechanical properties :
#
#
# Convention : Reuss Voigt Hill
#
# Bulk Modulus (GPa) = 11.71775 37.18340 24.45057
# Shear Modulus (GPa) = 17.20568 37.99224 27.59896
#
# Velocity S-wave (km/s) = 2.66531 3.96059 3.37566
# Velocity P-wave (km/s) = 3.78284 6.02223 5.02878
#
# Compressibility (1/GPa) = 0.08534064
#
# Stress axis : x y z
#
# Youngs Moduli (GPa) = 39.62806 35.52395 82.33871
#
# Poissons Ratio (x) = -0.59871 0.31027
# Poissons Ratio (y) = -0.66788 0.26184
# Poissons Ratio (z) = 0.14933 0.11297
#
# Static dielectric constant tensor:
#      x y z
#    x 2.031520 0.202040 -0.033640 
#    y 0.202040 2.252100 -0.073090 
#    z -0.033640 -0.073090 1.900830 
# 
# From -- ./inp_files/378127.got.cif
#   From: 2010.05.17/outbox.cif.g08.bks.cpg/sg2_190_cif.got.tgz:378127.got - 2010.06.03 11:33:40.
