data_PCOD9045366
_publ_section_title
;
Structure prediction by ZEFSAII (Michael W. Deem and Ramdas Pophale) SiO2 
 PCOD9045366
Probable space group: P -1
;
_chemical_formula_sum "Si O2"
_cell_formula_units_Z 15
_cell_length_a 9.696229
_cell_length_b 5.391898
_cell_length_c 17.948967
_cell_angle_alpha 92.211619
_cell_angle_beta 128.547105
_cell_angle_gamma 110.735963
_cell_volume 641.818736
_symmetry_space_group_name_H-M "P -1"
_symmetry_group_IT_number 2
_symmetry_cell_setting 'triclinic'
loop_
_space_group_symop_operation_xyz
x,y,z
-x,-y,-z
loop_
_atom_site_type_symbol
_atom_site_label
_atom_site_fract_x
_atom_site_fract_y
_atom_site_fract_z
Si Si1 0.003847 0.172730 0.690405
Si Si2 0.245864 0.586182 0.645209
Si Si3 0.153314 0.769095 0.213260
Si Si4 0.000000 0.000000 0.000000
Si Si5 0.979669 0.799311 0.559437
Si Si6 0.372160 0.209442 0.907982
Si Si7 0.233056 0.750704 0.986502
Si Si8 0.330620 0.390299 0.207494
O O1 0.089278 0.388987 0.653351
O O2 0.197638 0.211717 0.801536
O O3 0.869627 0.224490 0.705514
O O4 0.905837 0.872625 0.611225
O O5 0.175552 0.496584 0.534753
O O6 0.448855 0.574108 0.724747
O O7 0.207908 0.852124 0.647034
O O8 0.296946 0.636318 0.236970
O O9 0.935378 0.560880 0.100721
O O10 0.210964 0.083584 0.207000
O O11 0.138787 0.862129 0.017433
O O12 0.206203 0.307467 0.088624
O O13 0.000000 0.000000 0.500000
O O14 0.270571 0.948221 0.927961
O O15 0.500000 0.500000 0.000000
O O16 0.543592 0.187711 0.918229
#
# Coordination Sequence:
#
# PCOD9045366 Si02
#       8
#     2   2   2   1   2   2   2   2
#     4  11  23  39  73  94 132 182 225 283 345 400
#     4  10  24  43  71 101 129 172 237 286 336 405
#     4  11  25  45  63  99 143 179 218 276 346 401
#     4  10  24  40  62  92 138 186 222 260 340 400
#     4   9  22  44  70  99 131 165 229 295 345 396
#     4  11  23  38  65  97 135 173 236 281 328 391
#     4  10  24  41  59  93 140 181 228 280 323 404
#     4  11  27  43  68  98 143 183 226 278 337 411
#
# _framework density 23.371084
#
# number of rings (size 3 to 8) (size 9 to 14) (size 15 to 20)
#    0.000    1.600    1.333    1.600   11.200    2.133 
#    0.000    1.333    0.000    0.000    0.000    0.000 
#    0.000    0.000    0.000    0.000    0.000    0.000 
#
# Total GULP energy -83527.001769 kJ/mol
# GULP energy per Si atom -5568.466785 kJ/mol
# Density = 2.331789 g / cm^3
# Si number density = 23.371084 Si / 1000 Ang^3
#
#
#
# Elastic Constant Matrix: (Units=GPa)
#
#
# Indices 1 2 3 4 5 6 
#
# 1 81.9993 15.4706 9.2264 3.3264 -3.4294 -20.3889
# 2 15.4706 70.6942 -9.2461 -9.8971 -2.1288 2.1783
# 3 9.2264 -9.2461 43.5490 -8.4200 -13.7670 -2.3999
# 4 3.3264 -9.8971 -8.4200 26.5828 -14.5458 -1.0798
# 5 -3.4294 -2.1288 -13.7670 -14.5458 44.2306 -1.2925
# 6 -20.3889 2.1783 -2.3999 -1.0798 -1.2925 40.8403
#
#
#
# Elastic Compliance Matrix: (Units=1/GPa)
#
#
# Indices 1 2 3 4 5 6 
#
# 1 0.016186 -0.005947 -0.007008 -0.008158 -0.003672 0.007654
# 2 -0.005947 0.019692 0.011585 0.016875 0.009567 -0.002590
# 3 -0.007008 0.011585 0.039683 0.029888 0.022186 -0.000292
# 4 -0.008158 0.016875 0.029888 0.072634 0.033362 -0.000240
# 5 -0.003672 0.009567 0.022186 0.033362 0.040695 0.001130
# 6 0.007654 -0.002590 -0.000292 -0.000240 0.001130 0.028457
#
#
# Mechanical properties :
#
#
# Convention : Reuss Voigt Hill
#
# Bulk Modulus (GPa) = 13.73211 25.23826 19.48518
# Shear Modulus (GPa) = 20.46138 34.38354 27.42246
#
# Velocity S-wave (km/s) = 2.96209 3.83978 3.42914
# Velocity P-wave (km/s) = 4.19370 5.52096 4.90245
#
# Compressibility (1/GPa) = 0.07282203
#
# Stress axis : x y z
#
# Youngs Moduli (GPa) = 61.78028 50.78080 25.19947
#
# Poissons Ratio (x) = 0.30201 0.17660
# Poissons Ratio (y) = 0.36742 -0.29194
# Poissons Ratio (z) = 0.43296 -0.58831
#
# Static dielectric constant tensor:
#      x y z
#    x 1.911620 -0.038960 -0.045520 
#    y -0.038960 2.089800 -0.012650 
#    z -0.045520 -0.012650 2.018370 
# 
# From -- ./inp_files/85264.got.cif
#   From: 2010.05.17/outbox.cif.g08.bks.cpg/sg2_43_cif.got.tgz:85264.got - 2010.06.03 11:33:40.
