data_PCOD9045642
_publ_section_title
;
Structure prediction by ZEFSAII (Michael W. Deem and Ramdas Pophale) SiO2 
 PCOD9045642
Probable space group: P -1
;
_chemical_formula_sum "Si O2"
_cell_formula_units_Z 12
_cell_length_a 14.300158
_cell_length_b 7.509458
_cell_length_c 5.041400
_cell_angle_alpha 64.921133
_cell_angle_beta 76.807814
_cell_angle_gamma 93.785294
_cell_volume 469.198271
_symmetry_space_group_name_H-M "P -1"
_symmetry_group_IT_number 2
_symmetry_cell_setting 'triclinic'
loop_
_space_group_symop_operation_xyz
x,y,z
-x,-y,-z
loop_
_atom_site_type_symbol
_atom_site_label
_atom_site_fract_x
_atom_site_fract_y
_atom_site_fract_z
Si Si1 0.279701 0.337620 0.431436
Si Si2 0.641387 0.227798 0.679761
Si Si3 0.561288 0.882697 0.350053
Si Si4 0.079920 0.110417 0.677372
Si Si5 0.151338 0.779538 0.517013
Si Si6 0.868877 0.483557 0.826441
O O1 0.312982 0.545660 0.424281
O O2 0.372192 0.233855 0.445806
O O3 0.185228 0.188234 0.702832
O O4 0.230072 0.417909 0.152909
O O5 0.530186 0.244950 0.664741
O O6 0.733376 0.168629 0.498397
O O7 0.624300 0.049523 0.018967
O O8 0.500000 0.000000 0.500000
O O9 0.057605 0.321767 0.451675
O O10 0.103002 0.967299 0.514377
O O11 0.000000 0.000000 0.000000
O O12 0.146768 0.692856 0.274704
O O13 0.107715 0.601380 0.857224
#
# Coordination Sequence:
#
# PCOD9045642 Si02
#       6
#     2   2   2   2   2   2
#     4   9  22  42  64  95 137 174 228 281 343 406
#     4  10  24  41  64  98 135 180 227 279 349 409
#     4  11  23  40  66  98 130 180 228 281 345 412
#     4  10  24  44  72 105 137 183 235 286 348 413
#     4  11  23  46  72  96 146 181 230 288 348 411
#     4   9  25  43  69 103 133 188 229 287 348 408
#
# _framework density 25.575541999999999
#
# number of rings (size 3 to 8) (size 9 to 14) (size 15 to 20)
#    1.000    1.000    0.000    1.500    9.333    6.000 
#    6.000    1.667    0.000    0.000    0.000    0.000 
#    0.000    0.000    0.000    0.000    0.000    0.000 
#
# Total GULP energy -66946.733471 kJ/mol
# GULP energy per Si atom -5578.894456 kJ/mol
# Density = 2.551733 g / cm^3
# Si number density = 25.575542 Si / 1000 Ang^3
#
#
#
# Elastic Constant Matrix: (Units=GPa)
#
#
# Indices 1 2 3 4 5 6 
#
# 1 140.3218 48.9514 37.7448 -9.1316 -8.3421 -30.3670
# 2 48.9514 101.1164 7.1586 -13.7585 -11.7455 -6.7302
# 3 37.7448 7.1586 79.0304 -3.0692 -23.6191 7.9686
# 4 -9.1316 -13.7585 -3.0692 22.8276 3.4645 -1.6817
# 5 -8.3421 -11.7455 -23.6191 3.4645 47.0215 -12.2205
# 6 -30.3670 -6.7302 7.9686 -1.6817 -12.2205 53.8008
#
#
#
# Elastic Compliance Matrix: (Units=1/GPa)
#
#
# Indices 1 2 3 4 5 6 
#
# 1 0.012031 -0.004735 -0.006080 0.001721 -0.000394 0.007063
# 2 -0.004735 0.013133 0.002248 0.005830 0.003011 -0.000497
# 3 -0.006080 0.002248 0.017994 -0.000093 0.007456 -0.004125
# 4 0.001721 0.005830 -0.000093 0.048379 -0.001075 0.002983
# 5 -0.000394 0.003011 0.007456 -0.001075 0.027119 0.005176
# 6 0.007063 -0.000497 -0.004125 0.002983 0.005176 0.024392
#
#
# Mechanical properties :
#
#
# Convention : Reuss Voigt Hill
#
# Bulk Modulus (GPa) = 38.42590 56.46426 47.44508
# Shear Modulus (GPa) = 29.61096 39.83757 34.72427
#
# Velocity S-wave (km/s) = 3.40631 3.95098 3.68871
# Velocity P-wave (km/s) = 5.52519 6.55279 6.06081
#
# Compressibility (1/GPa) = 0.02602412
#
# Stress axis : x y z
#
# Youngs Moduli (GPa) = 83.11854 76.14567 55.57331
#
# Poissons Ratio (x) = 0.36057 0.33789
# Poissons Ratio (y) = 0.39359 -0.12495
# Poissons Ratio (z) = 0.50536 -0.17120
#
# Static dielectric constant tensor:
#      x y z
#    x 1.971570 -0.045160 -0.013680 
#    y -0.045160 1.982020 -0.001940 
#    z -0.013680 -0.001940 1.935130 
# 
# From -- ./inp_files/106048.got.cif
#   From: 2010.05.17/outbox.cif.g08.bks.cpg/sg2_54_cif.got.tgz:106048.got - 2010.06.03 11:33:40.
