data_PCOD9045825
_publ_section_title
;
Structure prediction by ZEFSAII (Michael W. Deem and Ramdas Pophale) SiO2 
 PCOD9045825
Probable space group: P -1
;
_chemical_formula_sum "Si O2"
_cell_formula_units_Z 14
_cell_length_a 5.009362
_cell_length_b 13.081293
_cell_length_c 10.950397
_cell_angle_alpha 125.780849
_cell_angle_beta 96.468040
_cell_angle_gamma 63.606222
_cell_volume 510.632219
_symmetry_space_group_name_H-M "P -1"
_symmetry_group_IT_number 2
_symmetry_cell_setting 'triclinic'
loop_
_space_group_symop_operation_xyz
x,y,z
-x,-y,-z
loop_
_atom_site_type_symbol
_atom_site_label
_atom_site_fract_x
_atom_site_fract_y
_atom_site_fract_z
Si Si1 0.476500 0.615018 0.871886
Si Si2 0.370310 0.376836 0.603922
Si Si3 0.035592 0.927555 0.583343
Si Si4 0.995505 0.204196 0.846529
Si Si5 0.294291 0.860754 0.865456
Si Si6 0.182143 0.201658 0.332302
Si Si7 0.667808 0.653959 0.153744
O O1 0.479954 0.496774 0.698879
O O2 0.491500 0.746536 0.899952
O O3 0.127909 0.783730 0.730262
O O4 0.136872 0.699014 0.973175
O O5 0.169725 0.351043 0.473876
O O6 0.207841 0.398710 0.742895
O O7 0.664102 0.222246 0.507175
O O8 0.785287 0.890455 0.606142
O O9 0.693902 0.274368 0.796423
O O10 0.000000 0.000000 0.500000
O O11 0.308217 0.438836 0.032113
O O12 0.247929 0.227310 0.807137
O O13 0.057618 0.044051 0.754362
O O14 0.548184 0.873717 0.805057
O O15 0.000000 0.000000 0.000000
#
# Coordination Sequence:
#
# PCOD9045825 Si02
#       7
#     2   2   2   2   2   2   2
#     4  10  27  47  77 106 150 206 250 310 376 445
#     4  12  26  47  73 114 158 192 248 316 383 452
#     4  12  24  46  74 112 153 196 241 313 378 450
#     4  10  24  41  72 102 144 191 255 287 374 433
#     4  12  28  53  80 106 152 201 262 316 366 453
#     4  12  29  48  77 114 149 199 258 310 383 441
#     4  10  24  44  73 110 147 196 253 305 373 448
#
# _framework density 27.416993000000002
#
# number of rings (size 3 to 8) (size 9 to 14) (size 15 to 20)
#    0.857    0.000    2.857    2.571    4.000    4.000 
#    0.000    0.000    0.000    0.000    0.000    0.000 
#    0.000    0.000    0.000    0.000    0.000    0.000 
#
# Total GULP energy -78227.580043 kJ/mol
# GULP energy per Si atom -5587.684289 kJ/mol
# Density = 2.735459 g / cm^3
# Si number density = 27.416993 Si / 1000 Ang^3
#
#
#
# Elastic Constant Matrix: (Units=GPa)
#
#
# Indices 1 2 3 4 5 6 
#
# 1 115.3667 0.3333 36.6489 -12.1729 -5.5090 41.3863
# 2 0.3333 26.6074 36.4934 -12.2491 -38.2526 78.4012
# 3 36.6489 36.4934 140.6065 20.0577 -6.8362 15.3689
# 4 -12.1729 -12.2491 20.0577 58.6477 12.1028 11.8009
# 5 -5.5090 -38.2526 -6.8362 12.1028 34.1964 2.8107
# 6 41.3863 78.4012 15.3689 11.8009 2.8107 16.9862
#
#
#
# Elastic Compliance Matrix: (Units=1/GPa)
#
#
# Indices 1 2 3 4 5 6 
#
# 1 0.009164 -0.004748 -0.001798 0.002518 -0.005110 0.000309
# 2 -0.004748 0.000372 0.000319 -0.003407 -0.000061 0.011939
# 3 -0.001798 0.000319 0.008441 -0.003239 0.003148 -0.003000
# 4 0.002518 -0.003407 -0.003239 0.020222 -0.011237 0.000330
# 5 -0.005110 -0.000061 0.003148 -0.011237 0.031938 0.012405
# 6 0.000309 0.011939 -0.003000 0.000330 0.012405 0.003447
#
#
# Mechanical properties :
#
#
# Convention : Reuss Voigt Hill
#
# Bulk Modulus (GPa) = 181.03277 47.72574 114.37926
# Shear Modulus (GPa) = 56.89704 35.90640 46.40172
#
# Velocity S-wave (km/s) = 4.56043 3.62282 4.11840
# Velocity P-wave (km/s) = 9.69034 5.91142 8.02645
#
# Compressibility (1/GPa) = 0.00552386
#
# Stress axis : x y z
#
# Youngs Moduli (GPa) = 109.12776 2688.63528 118.47168
#
# Poissons Ratio (x) = 12.76443 0.21297
# Poissons Ratio (y) = 0.51809 -0.03779
# Poissons Ratio (z) = 0.19617 -0.85758
#
# Static dielectric constant tensor:
#      x y z
#    x 2.197500 -0.101280 0.038340 
#    y -0.101280 2.247300 -0.046390 
#    z 0.038340 -0.046390 2.202730 
# 
# From -- ./inp_files/365163.got.cif
#   From: 2010.05.17/outbox.cif.g08.bks.cpg/sg2_183_cif.got.tgz:365163.got - 2010.06.03 11:33:40.
