data_PCOD9045799
_publ_section_title
;
Structure prediction by ZEFSAII (Michael W. Deem and Ramdas Pophale) SiO2 
 PCOD9045799
Probable space group: P -1
;
_chemical_formula_sum "Si O2"
_cell_formula_units_Z 16
_cell_length_a 15.877154
_cell_length_b 14.744789
_cell_length_c 23.152494
_cell_angle_alpha 160.243072
_cell_angle_beta 156.123217
_cell_angle_gamma 34.574101
_cell_volume 713.675488
_symmetry_space_group_name_H-M "P -1"
_symmetry_group_IT_number 2
_symmetry_cell_setting 'triclinic'
loop_
_space_group_symop_operation_xyz
x,y,z
-x,-y,-z
loop_
_atom_site_type_symbol
_atom_site_label
_atom_site_fract_x
_atom_site_fract_y
_atom_site_fract_z
Si Si1 0.416400 0.795179 0.682997
Si Si2 0.863885 0.225288 0.038339
Si Si3 0.730159 0.285646 0.864286
Si Si4 0.792086 0.160889 0.214433
Si Si5 0.731529 0.730178 0.469189
Si Si6 0.499424 0.227988 0.409106
Si Si7 0.926338 0.174092 0.429437
Si Si8 0.046011 0.624867 0.167678
O O1 0.368628 0.461143 0.460207
O O2 0.456469 0.861578 0.681134
O O3 0.217506 0.885135 0.638805
O O4 0.628113 0.942901 0.940820
O O5 0.853744 0.328449 0.028211
O O6 0.625394 0.039340 0.793808
O O7 0.944168 0.500926 0.293074
O O8 0.000000 0.000000 0.000000
O O9 0.489415 0.327554 0.740866
O O10 0.711462 0.967062 0.643502
O O11 0.864419 0.468794 0.006132
O O12 0.751130 0.455565 0.349404
O O13 0.766432 0.115853 0.239453
O O14 0.041234 0.167713 0.361027
O O15 0.722195 0.390699 0.675403
O O16 0.060760 0.951722 0.374842
O O17 0.000000 0.500000 0.000000
#
# Coordination Sequence:
#
# PCOD9045799 Si02
#       8
#     2   2   2   2   2   2   2   2
#     4  11  24  46  72 104 143 190 240 302 356 431
#     4  12  27  47  76 106 148 188 243 300 358 432
#     4  11  25  46  73 100 144 189 237 293 362 423
#     4  11  24  42  71 105 142 180 246 293 356 421
#     4  10  24  41  70 103 140 181 237 296 357 419
#     4  11  27  45  73 105 144 190 242 292 367 425
#     4  12  26  45  73 107 143 192 242 291 366 428
#     4  12  28  49  73 106 149 189 239 303 361 430
#
# _framework density 22.419153000000001
#
# number of rings (size 3 to 8) (size 9 to 14) (size 15 to 20)
#    0.000    0.750    1.250    4.875   12.250    3.500 
#    0.000    0.000    0.000    0.000    0.000    0.000 
#    0.000    0.000    0.000    0.000    0.000    0.000 
#
# Total GULP energy -89534.836294 kJ/mol
# GULP energy per Si atom -5595.927268 kJ/mol
# Density = 2.236813 g / cm^3
# Si number density = 22.419153 Si / 1000 Ang^3
#
#
#
# Elastic Constant Matrix: (Units=GPa)
#
#
# Indices 1 2 3 4 5 6 
#
# 1 71.9307 14.1671 19.3294 0.6894 -10.2802 6.4054
# 2 14.1671 88.1701 8.8526 -0.3482 -2.8713 -18.5787
# 3 19.3294 8.8526 86.2449 -12.7013 1.1402 2.3012
# 4 0.6894 -0.3482 -12.7013 39.3083 5.3545 -1.2615
# 5 -10.2802 -2.8713 1.1402 5.3545 37.7530 -6.6013
# 6 6.4054 -18.5787 2.3012 -1.2615 -6.6013 36.5640
#
#
#
# Elastic Compliance Matrix: (Units=1/GPa)
#
#
# Indices 1 2 3 4 5 6 
#
# 1 0.016352 -0.002860 -0.003650 -0.002154 0.004051 -0.003431
# 2 -0.002860 0.013592 -0.001002 -0.000130 0.001662 0.007766
# 3 -0.003650 -0.001002 0.013252 0.004619 -0.002293 -0.000959
# 4 -0.002154 -0.000130 0.004619 0.027604 -0.004627 0.000137
# 5 0.004051 0.001662 -0.002293 -0.004627 0.029392 0.005426
# 6 -0.003431 0.007766 -0.000959 0.000137 0.005426 0.032941
#
#
# Mechanical properties :
#
#
# Convention : Reuss Voigt Hill
#
# Bulk Modulus (GPa) = 35.49974 36.78264 36.14119
# Shear Modulus (GPa) = 31.73638 36.32485 34.03062
#
# Velocity S-wave (km/s) = 3.76652 4.02961 3.90028
# Velocity P-wave (km/s) = 5.89784 6.17193 6.03644
#
# Compressibility (1/GPa) = 0.02816922
#
# Stress axis : x y z
#
# Youngs Moduli (GPa) = 61.15579 73.57285 75.46040
#
# Poissons Ratio (x) = 0.21045 0.27545
# Poissons Ratio (y) = 0.17493 0.07564
# Poissons Ratio (z) = 0.22324 0.07375
#
# Static dielectric constant tensor:
#      x y z
#    x 1.833180 -0.023800 0.020880 
#    y -0.023800 1.822250 -0.015370 
#    z 0.020880 -0.015370 1.830510 
# 
# From -- ./inp_files/613277.got.cif
#   From: 2010.05.17/outbox.cif.g08.bks.cpg/sg2_307_cif.got.tgz:613277.got - 2010.06.03 11:33:40.
