data_PCOD9045091
_publ_section_title
;
Structure prediction by ZEFSAII (Michael W. Deem and Ramdas Pophale) SiO2 
 PCOD9045091
Probable space group: P -1
;
_chemical_formula_sum "Si O2"
_cell_formula_units_Z 14
_cell_length_a 11.053116
_cell_length_b 11.502157
_cell_length_c 10.677179
_cell_angle_alpha 38.913843
_cell_angle_beta 56.361017
_cell_angle_gamma 85.446866
_cell_volume 525.446325
_symmetry_space_group_name_H-M "P -1"
_symmetry_group_IT_number 2
_symmetry_cell_setting 'triclinic'
loop_
_space_group_symop_operation_xyz
x,y,z
-x,-y,-z
loop_
_atom_site_type_symbol
_atom_site_label
_atom_site_fract_x
_atom_site_fract_y
_atom_site_fract_z
Si Si1 0.803620 0.550000 0.817266
Si Si2 0.142048 0.865134 0.556652
Si Si3 0.408946 0.436038 0.875298
Si Si4 0.943617 0.039800 0.207425
Si Si5 0.823131 0.204503 0.940248
Si Si6 0.442227 0.805588 0.361921
Si Si7 0.253646 0.484127 0.502277
O O1 0.960600 0.648147 0.756474
O O2 0.898260 0.793140 0.476504
O O3 0.615085 0.475308 0.055745
O O4 0.763844 0.331083 0.949118
O O5 0.078051 0.853295 0.745489
O O6 0.309418 0.853315 0.458357
O O7 0.229770 0.134814 0.228839
O O8 0.403530 0.582309 0.646560
O O9 0.598867 0.473494 0.716514
O O10 0.803561 0.009776 0.207528
O O11 0.154715 0.242248 0.850461
O O12 0.670919 0.047585 0.047731
O O13 0.059607 0.410102 0.617153
O O14 0.373648 0.713855 0.336758
#
# Coordination Sequence:
#
# PCOD9045091 Si02
#       7
#     2   2   2   2   2   2   2
#     4  11  21  43  73 103 136 179 235 285 340 411
#     4  11  22  41  71 105 133 182 234 285 337 411
#     4  11  25  41  72 105 136 182 234 281 349 411
#     4   9  21  42  70  99 139 180 229 284 343 402
#     4  10  25  44  72 104 137 183 231 284 341 411
#     4  12  24  43  72 104 139 180 235 280 344 414
#     4  10  23  49  69  99 142 182 227 286 347 406
#
# _framework density 26.644016000000001
#
# number of rings (size 3 to 8) (size 9 to 14) (size 15 to 20)
#    0.857    0.571    1.429    4.714    0.000    6.286 
#    2.571    3.571    3.143    0.000    0.000    0.000 
#    0.000    0.000    0.000    0.000    0.000    0.000 
#
# Total GULP energy -78605.508161 kJ/mol
# GULP energy per Si atom -5614.679154 kJ/mol
# Density = 2.658337 g / cm^3
# Si number density = 26.644016 Si / 1000 Ang^3
#
#
#
# Elastic Constant Matrix: (Units=GPa)
#
#
# Indices 1 2 3 4 5 6 
#
# 1 155.7268 50.4543 44.1959 -3.9127 -22.1626 13.5572
# 2 50.4543 154.2688 48.5314 9.7359 -33.9995 -0.9728
# 3 44.1959 48.5314 135.8895 6.1926 -24.8120 5.4351
# 4 -3.9127 9.7359 6.1926 39.6398 -9.8687 -8.4989
# 5 -22.1626 -33.9995 -24.8120 -9.8687 48.2199 -1.7421
# 6 13.5572 -0.9728 5.4351 -8.4989 -1.7421 47.1490
#
#
#
# Elastic Compliance Matrix: (Units=1/GPa)
#
#
# Indices 1 2 3 4 5 6 
#
# 1 0.007907 -0.001795 -0.001602 0.001536 0.001794 -0.001783
# 2 -0.001795 0.008595 -0.001715 -0.000773 0.004227 0.000908
# 3 -0.001602 -0.001715 0.009010 -0.000650 0.002535 -0.000637
# 4 0.001536 -0.000773 -0.000650 0.028158 0.005766 0.004906
# 5 0.001794 0.004227 0.002535 0.005766 0.027076 0.001319
# 6 -0.001783 0.000908 -0.000637 0.004906 0.001319 0.022747
#
#
# Mechanical properties :
#
#
# Convention : Reuss Voigt Hill
#
# Bulk Modulus (GPa) = 65.40650 81.36092 73.38371
# Shear Modulus (GPa) = 42.08334 47.18197 44.63265
#
# Velocity S-wave (km/s) = 3.97856 4.21269 4.09730
# Velocity P-wave (km/s) = 6.76068 7.36647 7.07007
#
# Compressibility (1/GPa) = 0.01528900
#
# Stress axis : x y z
#
# Youngs Moduli (GPa) = 126.47493 116.34774 110.98447
#
# Poissons Ratio (x) = 0.20882 0.17775
# Poissons Ratio (y) = 0.22700 0.19035
# Poissons Ratio (z) = 0.20256 0.19954
#
# Static dielectric constant tensor:
#      x y z
#    x 2.077920 0.017720 0.008540 
#    y 0.017720 2.004980 -0.021030 
#    z 0.008540 -0.021030 2.126300 
# 
# From -- ./inp_files/422729.got.cif
#   From: 2010.05.17/outbox.cif.g08.bks.cpg/sg2_212_cif.got.tgz:422729.got - 2010.06.03 11:33:40.
