data_PCOD9045016
_publ_section_title
;
Structure prediction by ZEFSAII (Michael W. Deem and Ramdas Pophale) SiO2 
 PCOD9045016
Probable space group: P -1
;
_chemical_formula_sum "Si O2"
_cell_formula_units_Z 16
_cell_length_a 5.025385
_cell_length_b 24.310660
_cell_length_c 5.106644
_cell_angle_alpha 105.597821
_cell_angle_beta 91.199121
_cell_angle_gamma 103.722666
_cell_volume 581.355121
_symmetry_space_group_name_H-M "P -1"
_symmetry_group_IT_number 2
_symmetry_cell_setting 'triclinic'
loop_
_space_group_symop_operation_xyz
x,y,z
-x,-y,-z
loop_
_atom_site_type_symbol
_atom_site_label
_atom_site_fract_x
_atom_site_fract_y
_atom_site_fract_z
Si Si1 0.130210 0.658356 0.801085
Si Si2 0.704646 0.961763 0.361878
Si Si3 0.126435 0.440160 0.708670
Si Si4 0.422729 0.242892 0.249288
Si Si5 0.226282 0.868113 0.394249
Si Si6 0.880596 0.887920 0.898500
Si Si7 0.089453 0.261804 0.754479
Si Si8 0.379082 0.567469 0.935207
O O1 0.269845 0.716977 0.714317
O O2 0.357394 0.623902 0.842568
O O3 0.910506 0.610123 0.573243
O O4 0.021376 0.683465 0.089055
O O5 0.548021 0.899030 0.409158
O O6 0.748704 0.941789 0.039801
O O7 0.500000 0.000000 0.500000
O O8 0.000000 0.000000 0.500000
O O9 0.255740 0.506800 0.698379
O O10 0.333110 0.432491 0.932434
O O11 0.833038 0.435571 0.831178
O O12 0.268995 0.268296 0.507603
O O13 0.357976 0.172854 0.203400
O O14 0.281447 0.250114 0.980129
O O15 0.073760 0.880913 0.142140
O O16 0.155771 0.797886 0.340818
O O17 0.082016 0.893283 0.663332
#
# Coordination Sequence:
#
# PCOD9045016 Si02
#       8
#     2   2   2   2   2   2   2   2
#     4  12  26  40  76 109 152 190 258 322 390 446
#     4  12  25  46  76 115 150 196 259 314 371 442
#     4  10  25  47  72 105 148 201 253 309 386 465
#     4  10  25  45  73 110 150 197 251 311 383 460
#     4  10  23  48  73 105 153 203 248 308 383 452
#     4  10  23  48  73 105 153 203 248 308 383 452
#     4  10  25  45  73 110 150 197 251 311 383 460
#     4  10  25  47  72 105 148 201 253 309 386 465
#
# _framework density 27.521906000000001
#
# number of rings (size 3 to 8) (size 9 to 14) (size 15 to 20)
#    0.000    1.500    1.250    1.125    7.000    2.000 
#    0.000   11.250    0.000    2.250    0.000    0.000 
#    0.000    0.000    0.000    0.000    0.000    0.000 
#
# Total GULP energy -89877.729336 kJ/mol
# GULP energy per Si atom -5617.358083 kJ/mol
# Density = 2.745926 g / cm^3
# Si number density = 27.521906 Si / 1000 Ang^3
#
#
#
# Elastic Constant Matrix: (Units=GPa)
#
#
# Indices 1 2 3 4 5 6 
#
# 1 97.4533 33.2933 53.6779 11.7466 -7.7578 13.5739
# 2 33.2933 131.1154 57.6134 21.5355 -14.6396 23.6121
# 3 53.6779 57.6134 200.1366 24.1258 -16.2567 23.8019
# 4 11.7466 21.5355 24.1258 52.4868 -4.7100 5.5105
# 5 -7.7578 -14.6396 -16.2567 -4.7100 42.8312 -7.5099
# 6 13.5739 23.6121 23.8019 5.5105 -7.5099 43.2651
#
#
#
# Elastic Compliance Matrix: (Units=1/GPa)
#
#
# Indices 1 2 3 4 5 6 
#
# 1 0.012578 -0.001614 -0.002611 -0.000764 0.000395 -0.001463
# 2 -0.001614 0.009945 -0.001589 -0.002481 0.001626 -0.003449
# 3 -0.002611 -0.001589 0.006613 -0.001544 0.001048 -0.001573
# 4 -0.000764 -0.002481 -0.001544 0.021027 0.000721 -0.000110
# 5 0.000395 0.001626 0.001048 0.000721 0.024916 0.002645
# 6 -0.001463 -0.003449 -0.001573 -0.000110 0.002645 0.026793
#
#
# Mechanical properties :
#
#
# Convention : Reuss Voigt Hill
#
# Bulk Modulus (GPa) = 57.11256 79.76382 68.43819
# Shear Modulus (GPa) = 41.89917 46.65799 44.27858
#
# Velocity S-wave (km/s) = 3.90602 4.12187 4.01540
# Velocity P-wave (km/s) = 6.41400 7.19013 6.81313
#
# Compressibility (1/GPa) = 0.01750928
#
# Stress axis : x y z
#
# Youngs Moduli (GPa) = 79.50423 100.55424 151.22808
#
# Poissons Ratio (x) = 0.16225 0.39482
# Poissons Ratio (y) = 0.12828 0.24026
# Poissons Ratio (z) = 0.20757 0.15975
#
# Static dielectric constant tensor:
#      x y z
#    x 2.137320 -0.038660 0.038440 
#    y -0.038660 2.151060 -0.013150 
#    z 0.038440 -0.013150 2.095620 
# 
# From -- ./inp_files/14676.got.cif
#   From: 2010.05.17/outbox.cif.g08.bks.cpg/sg2_8_cif.got.tgz:14676.got - 2010.06.03 11:33:40.
