data_PCOD9045594
_publ_section_title
;
Structure prediction by ZEFSAII (Michael W. Deem and Ramdas Pophale) SiO2 
 PCOD9045594
Probable space group: P -1
;
_chemical_formula_sum "Si O2"
_cell_formula_units_Z 14
_cell_length_a 9.064976
_cell_length_b 11.746288
_cell_length_c 18.679826
_cell_angle_alpha 30.738448
_cell_angle_beta 129.726540
_cell_angle_gamma 137.832068
_cell_volume 682.457095
_symmetry_space_group_name_H-M "P -1"
_symmetry_group_IT_number 2
_symmetry_cell_setting 'triclinic'
loop_
_space_group_symop_operation_xyz
x,y,z
-x,-y,-z
loop_
_atom_site_type_symbol
_atom_site_label
_atom_site_fract_x
_atom_site_fract_y
_atom_site_fract_z
Si Si1 0.974176 0.346981 0.811894
Si Si2 0.950626 0.214024 0.651830
Si Si3 0.996348 0.830138 0.791702
Si Si4 0.780490 0.850283 0.109698
Si Si5 0.358439 0.701995 0.985240
Si Si6 0.885670 0.132061 0.350669
Si Si7 0.589693 0.058586 0.741479
O O1 0.136505 0.287080 0.847525
O O2 0.089655 0.630664 0.723779
O O3 0.762935 0.273363 0.734068
O O4 0.894860 0.145237 0.961627
O O5 0.733470 0.071576 0.710587
O O6 0.000000 0.500000 0.500000
O O7 0.140482 0.201971 0.763139
O O8 0.947722 0.061852 0.662576
O O9 0.233819 0.866043 0.868126
O O10 0.987977 0.764813 0.740999
O O11 0.822794 0.591941 0.912806
O O12 0.524471 0.743198 0.077881
O O13 0.495232 0.804019 0.898930
O O14 0.630099 0.942966 0.352974
O O15 0.000000 0.000000 0.500000
#
# Coordination Sequence:
#
# PCOD9045594 Si02
#       7
#     2   2   2   2   2   2   2
#     4   9  20  41  65  97 123 164 228 264 309 383
#     4  11  25  42  64  94 136 171 209 270 327 386
#     4  10  24  41  61 100 133 158 220 274 320 379
#     4   9  20  39  66  92 122 171 217 264 316 384
#     4   9  20  43  64  97 125 164 217 274 317 374
#     4  11  25  42  66  94 134 179 211 262 328 397
#     4   9  22  44  66  94 125 174 217 260 324 380
#
# _framework density 20.514109999999999
#
# number of rings (size 3 to 8) (size 9 to 14) (size 15 to 20)
#    0.000    2.286    0.000    0.857   12.000    2.857 
#   10.286    1.429    0.000    0.000    0.000    0.000 
#    0.000    0.000    0.000    0.000    0.000    0.000 
#
# Total GULP energy -78096.010835 kJ/mol
# GULP energy per Si atom -5578.286488 kJ/mol
# Density = 2.046742 g / cm^3
# Si number density = 20.514110 Si / 1000 Ang^3
#
#
#
# Elastic Constant Matrix: (Units=GPa)
#
#
# Indices 1 2 3 4 5 6 
#
# 1 61.7226 23.9196 28.0380 -14.9016 -4.6834 5.8337
# 2 23.9196 39.2986 23.5551 14.6055 -3.5982 14.4248
# 3 28.0380 23.5551 66.2329 8.6464 16.5574 6.7045
# 4 -14.9016 14.6055 8.6464 37.3562 -1.5941 9.7876
# 5 -4.6834 -3.5982 16.5574 -1.5941 21.3836 -4.7922
# 6 5.8337 14.4248 6.7045 9.7876 -4.7922 28.7041
#
#
#
# Elastic Compliance Matrix: (Units=1/GPa)
#
#
# Indices 1 2 3 4 5 6 
#
# 1 0.045755 -0.026323 -0.020682 0.034052 0.024419 0.001225
# 2 -0.026323 0.061816 -0.006850 -0.029396 0.004770 -0.013295
# 3 -0.020682 -0.006850 0.037579 -0.015302 -0.036366 -0.001985
# 4 0.034052 -0.029396 -0.015302 0.057514 0.017466 -0.005269
# 5 0.024419 0.004770 -0.036366 0.017466 0.084455 0.009278
# 6 0.001225 -0.013295 -0.001985 -0.005269 0.009278 0.045080
#
#
# Mechanical properties :
#
#
# Convention : Reuss Voigt Hill
#
# Bulk Modulus (GPa) = 26.70871 35.36437 31.03654
# Shear Modulus (GPa) = 11.05246 23.60487 17.32867
#
# Velocity S-wave (km/s) = 2.32367 3.39583 2.90956
# Velocity P-wave (km/s) = 4.49969 5.71419 5.14292
#
# Compressibility (1/GPa) = 0.03744097
#
# Stress axis : x y z
#
# Youngs Moduli (GPa) = 21.85530 16.17715 26.61058
#
# Poissons Ratio (x) = 0.42582 0.55036
# Poissons Ratio (y) = 0.57529 0.18229
# Poissons Ratio (z) = 0.45201 0.11082
#
# Static dielectric constant tensor:
#      x y z
#    x 1.745200 -0.012600 -0.017350 
#    y -0.012600 1.793050 0.020070 
#    z -0.017350 0.020070 1.718810 
# 
# From -- ./inp_files/255781.got.cif
#   From: 2010.05.17/outbox.cif.g08.bks.cpg/sg2_128_cif.got.tgz:255781.got - 2010.06.03 11:33:40.
