data_PCOD9045579
_publ_section_title
;
Structure prediction by ZEFSAII (Michael W. Deem and Ramdas Pophale) SiO2 
 PCOD9045579
Probable space group: P -1
;
_chemical_formula_sum "Si O2"
_cell_formula_units_Z 14
_cell_length_a 10.971285
_cell_length_b 9.579498
_cell_length_c 7.073541
_cell_angle_alpha 66.892953
_cell_angle_beta 68.245971
_cell_angle_gamma 106.778465
_cell_volume 546.968213
_symmetry_space_group_name_H-M "P -1"
_symmetry_group_IT_number 2
_symmetry_cell_setting 'triclinic'
loop_
_space_group_symop_operation_xyz
x,y,z
-x,-y,-z
loop_
_atom_site_type_symbol
_atom_site_label
_atom_site_fract_x
_atom_site_fract_y
_atom_site_fract_z
Si Si1 0.602254 0.990924 0.705229
Si Si2 0.098214 0.431001 0.873072
Si Si3 0.377607 0.355740 0.415056
Si Si4 0.887229 0.615340 0.547206
Si Si5 0.647581 0.345707 0.112821
Si Si6 0.513657 0.759727 0.243726
Si Si7 0.063594 0.879830 0.606966
O O1 0.442558 0.862801 0.756772
O O2 0.591835 0.159493 0.682325
O O3 0.759130 0.039127 0.488244
O O4 0.600360 0.881003 0.949866
O O5 0.082748 0.423731 0.660657
O O6 0.038146 0.237192 0.096495
O O7 0.264957 0.558783 0.796630
O O8 0.000000 0.500000 0.000000
O O9 0.210761 0.287171 0.469802
O O10 0.502623 0.371940 0.186799
O O11 0.428331 0.553797 0.347489
O O12 0.382886 0.237949 0.644448
O O13 0.030408 0.741784 0.526265
O O14 0.772457 0.442893 0.826963
O O15 0.000000 0.000000 0.500000
#
# Coordination Sequence:
#
# PCOD9045579 Si02
#       7
#     2   2   2   2   2   2   2
#     4  11  25  47  68 114 154 180 245 313 374 424
#     4  11  28  48  75 106 146 201 253 291 364 455
#     4  11  22  43  75 108 140 189 260 291 362 451
#     4  11  25  49  77 104 146 199 245 302 361 447
#     4  11  25  45  81 108 143 194 249 309 368 437
#     4  10  24  40  75 105 146 191 241 310 368 431
#     4  11  28  48  73 108 156 193 239 306 378 438
#
# _framework density 25.595637
#
# number of rings (size 3 to 8) (size 9 to 14) (size 15 to 20)
#    0.000    1.143    1.429    3.000   10.000    5.714 
#    5.143    0.000    0.000    0.000    0.000    0.000 
#    0.000    0.000    0.000    0.000    0.000    0.000 
#
# Total GULP energy -78355.045249 kJ/mol
# GULP energy per Si atom -5596.788946 kJ/mol
# Density = 2.553738 g / cm^3
# Si number density = 25.595637 Si / 1000 Ang^3
#
#
#
# Elastic Constant Matrix: (Units=GPa)
#
#
# Indices 1 2 3 4 5 6 
#
# 1 85.9479 29.3303 24.1690 -10.9806 -6.6111 4.3354
# 2 29.3303 130.5455 62.6626 9.9833 6.1118 -9.1454
# 3 24.1690 62.6626 158.2405 -2.4338 25.6703 15.0464
# 4 -10.9806 9.9833 -2.4338 43.4944 -9.2606 8.0512
# 5 -6.6111 6.1118 25.6703 -9.2606 42.9305 0.9684
# 6 4.3354 -9.1454 15.0464 8.0512 0.9684 53.6028
#
#
#
# Elastic Compliance Matrix: (Units=1/GPa)
#
#
# Indices 1 2 3 4 5 6 
#
# 1 0.014406 -0.003445 -0.001301 0.005810 0.004793 -0.002347
# 2 -0.003445 0.011128 -0.004229 -0.004553 -0.000659 0.004060
# 3 -0.001301 -0.004229 0.009314 0.000713 -0.004941 -0.003249
# 4 0.005810 -0.004553 0.000713 0.028179 0.007326 -0.005812
# 5 0.004793 -0.000659 -0.004941 0.007326 0.028677 -0.000732
# 6 -0.002347 0.004060 -0.003249 -0.005812 -0.000732 0.021336
#
#
# Mechanical properties :
#
#
# Convention : Reuss Voigt Hill
#
# Bulk Modulus (GPa) = 59.18332 67.45087 63.31709
# Shear Modulus (GPa) = 36.59691 45.24368 40.92029
#
# Velocity S-wave (km/s) = 3.78539 4.20888 4.00274
# Velocity P-wave (km/s) = 6.50216 7.07314 6.79365
#
# Compressibility (1/GPa) = 0.01689665
#
# Stress axis : x y z
#
# Youngs Moduli (GPa) = 69.41616 89.86438 107.36008
#
# Poissons Ratio (x) = 0.30961 0.13968
# Poissons Ratio (y) = 0.23916 0.45408
# Poissons Ratio (z) = 0.09031 0.38008
#
# Static dielectric constant tensor:
#      x y z
#    x 2.053140 0.031780 0.020600 
#    y 0.031780 2.054110 -0.005750 
#    z 0.020600 -0.005750 2.032890 
# 
# From -- ./inp_files/261523.got.cif
#   From: 2010.05.17/outbox.cif.g08.bks.cpg/sg2_131_cif.got.tgz:261523.got - 2010.06.03 11:33:40.
