data_PCOD9045987
_publ_section_title
;
Structure prediction by ZEFSAII (Michael W. Deem and Ramdas Pophale) SiO2 
 PCOD9045987
Probable space group: P -1
;
_chemical_formula_sum "Si O2"
_cell_formula_units_Z 14
_cell_length_a 16.981852
_cell_length_b 23.164204
_cell_length_c 5.467272
_cell_angle_alpha 53.209286
_cell_angle_beta 115.620918
_cell_angle_gamma 157.962474
_cell_volume 589.880878
_symmetry_space_group_name_H-M "P -1"
_symmetry_group_IT_number 2
_symmetry_cell_setting 'triclinic'
loop_
_space_group_symop_operation_xyz
x,y,z
-x,-y,-z
loop_
_atom_site_type_symbol
_atom_site_label
_atom_site_fract_x
_atom_site_fract_y
_atom_site_fract_z
Si Si1 0.187203 0.086309 0.134627
Si Si2 0.377409 0.087438 0.286890
Si Si3 0.817078 0.121972 0.913880
Si Si4 0.117718 0.539772 0.856094
Si Si5 0.505957 0.441075 0.848254
Si Si6 0.119654 0.231095 0.133486
Si Si7 0.230035 0.773396 0.182046
O O1 0.239390 0.055758 0.124559
O O2 0.422541 0.305991 0.950083
O O3 0.088025 0.976552 0.527616
O O4 0.000000 0.000000 0.000000
O O5 0.644520 0.312030 0.107746
O O6 0.282006 0.981237 0.688354
O O7 0.349230 0.014185 0.198883
O O8 0.027093 0.228166 0.865873
O O9 0.881277 0.254001 0.710853
O O10 0.211594 0.674306 0.458707
O O11 0.928155 0.343154 0.977836
O O12 0.000000 0.500000 0.000000
O O13 0.500000 0.500000 0.500000
O O14 0.750030 0.629098 0.825023
O O15 0.304347 0.313958 0.080384
O O16 0.500000 0.000000 0.000000
#
# Coordination Sequence:
#
# PCOD9045987 Si02
#       7
#     2   2   2   2   2   2   2
#     4  11  22  43  70  95 141 185 229 289 354 404
#     4  11  26  46  72 106 142 184 244 287 353 426
#     4  11  25  46  74 101 141 189 235 288 353 421
#     4  11  26  45  71 108 142 184 237 293 353 426
#     4  11  22  41  65  98 133 179 237 284 348 416
#     4  10  24  42  65  98 137 180 236 287 346 420
#     4  11  24  46  74 100 144 185 231 289 360 417
#
# _framework density 23.733606000000002
#
# number of rings (size 3 to 8) (size 9 to 14) (size 15 to 20)
#    0.000    1.143    2.857    2.143    8.000    2.286 
#    2.571    0.000    0.000    0.000    0.000    0.000 
#    0.000    0.000    0.000    0.000    0.000    0.000 
#
# Total GULP energy -78074.805175 kJ/mol
# GULP energy per Si atom -5576.771798 kJ/mol
# Density = 2.367959 g / cm^3
# Si number density = 23.733606 Si / 1000 Ang^3
#
#
#
# Elastic Constant Matrix: (Units=GPa)
#
#
# Indices 1 2 3 4 5 6 
#
# 1 102.2923 37.4559 1.6634 4.7635 17.8882 -16.2714
# 2 37.4559 150.8740 18.3137 -6.0018 4.7374 -27.5464
# 3 1.6634 18.3137 45.2525 -9.1609 4.0930 -13.2532
# 4 4.7635 -6.0018 -9.1609 30.6783 -4.4568 7.6720
# 5 17.8882 4.7374 4.0930 -4.4568 30.8635 4.2037
# 6 -16.2714 -27.5464 -13.2532 7.6720 4.2037 56.8943
#
#
#
# Elastic Compliance Matrix: (Units=1/GPa)
#
#
# Indices 1 2 3 4 5 6 
#
# 1 0.013045 -0.002600 0.001670 -0.004298 -0.008559 0.004073
# 2 -0.002600 0.008025 -0.002312 0.000713 0.000347 0.002481
# 3 0.001670 -0.002312 0.025837 0.005184 -0.003967 0.004971
# 4 -0.004298 0.000713 0.005184 0.037412 0.007818 -0.005299
# 5 -0.008559 0.000347 -0.003967 0.007818 0.039945 -0.007210
# 6 0.004073 0.002481 0.004971 -0.005299 -0.007210 0.022348
#
#
# Mechanical properties :
#
#
# Convention : Reuss Voigt Hill
#
# Bulk Modulus (GPa) = 24.73924 45.92052 35.32988
# Shear Modulus (GPa) = 30.01722 39.75294 34.88508
#
# Velocity S-wave (km/s) = 3.56020 4.09707 3.83803
# Velocity P-wave (km/s) = 5.22938 6.46310 5.87869
#
# Compressibility (1/GPa) = 0.04042161
#
# Stress axis : x y z
#
# Youngs Moduli (GPa) = 76.65508 124.61543 38.70460
#
# Poissons Ratio (x) = 0.32399 -0.06462
# Poissons Ratio (y) = 0.19930 0.08950
# Poissons Ratio (z) = -0.12799 0.28815
#
# Static dielectric constant tensor:
#      x y z
#    x 1.775330 -0.002680 0.029290 
#    y -0.002680 1.933880 0.052400 
#    z 0.029290 0.052400 1.979310 
# 
# From -- ./inp_files/49195.got.cif
#   From: 2010.05.17/outbox.cif.g08.bks.cpg/sg2_25_cif.got.tgz:49195.got - 2010.06.03 11:33:40.
