data_PCOD9045429
_publ_section_title
;
Structure prediction by ZEFSAII (Michael W. Deem and Ramdas Pophale) SiO2 
 PCOD9045429
Probable space group: P -1
;
_chemical_formula_sum "Si O2"
_cell_formula_units_Z 14
_cell_length_a 8.047646
_cell_length_b 6.728097
_cell_length_c 15.847548
_cell_angle_alpha 105.786897
_cell_angle_beta 45.517630
_cell_angle_gamma 119.721455
_cell_volume 527.722542
_symmetry_space_group_name_H-M "P -1"
_symmetry_group_IT_number 2
_symmetry_cell_setting 'triclinic'
loop_
_space_group_symop_operation_xyz
x,y,z
-x,-y,-z
loop_
_atom_site_type_symbol
_atom_site_label
_atom_site_fract_x
_atom_site_fract_y
_atom_site_fract_z
Si Si1 0.238541 0.526203 0.476933
Si Si2 0.196943 0.912126 0.110130
Si Si3 0.924804 0.153555 0.150258
Si Si4 0.652767 0.642617 0.112106
Si Si5 0.604547 0.874711 0.622545
Si Si6 0.845315 0.295748 0.719378
Si Si7 0.500000 0.000000 0.500000
Si Si8 0.000000 0.500000 0.000000
O O1 0.474914 0.779071 0.423765
O O2 0.000000 0.500000 0.500000
O O3 0.317727 0.326314 0.407269
O O4 0.110799 0.491562 0.610919
O O5 0.121170 0.801137 0.215267
O O6 0.104087 0.108277 0.148237
O O7 0.077774 0.728129 0.057045
O O8 0.500000 0.000000 0.000000
O O9 0.766282 0.906453 0.133075
O O10 0.705066 0.212914 0.269828
O O11 0.113983 0.337315 0.035588
O O12 0.368814 0.605066 0.182276
O O13 0.676038 0.438082 0.129368
O O14 0.744777 0.091749 0.660943
O O15 0.660946 0.940098 0.511091
#
# Coordination Sequence:
#
# PCOD9045429 Si02
#       8
#     2   2   2   2   2   2   1   1
#     4  12  28  53  80 115 158 206 272 333 395 469
#     4  11  23  46  73 110 158 202 256 318 390 475
#     4   9  20  41  71 105 151 198 247 316 382 470
#     4   9  19  41  66 105 148 196 247 310 384 465
#     4  11  26  48  79 113 158 207 265 329 401 466
#     4  11  24  47  77 113 156 208 262 327 396 468
#     4  12  28  54  78 114 154 208 272 336 396 466
#     4  10  24  40  66 104 158 200 254 304 376 470
#
# _framework density 26.529093
#
# number of rings (size 3 to 8) (size 9 to 14) (size 15 to 20)
#    0.000    1.429    2.857    0.857    4.000    2.857 
#    5.143    0.000    0.000    0.000    0.000    0.000 
#    0.000    0.000    0.000    0.000    0.000    0.000 
#
# Total GULP energy -77941.485842 kJ/mol
# GULP energy per Si atom -5567.248989 kJ/mol
# Density = 2.646871 g / cm^3
# Si number density = 26.529093 Si / 1000 Ang^3
#
#
#
# Elastic Constant Matrix: (Units=GPa)
#
#
# Indices 1 2 3 4 5 6 
#
# 1 134.9047 43.8553 47.7184 28.6529 -2.1977 -19.4066
# 2 43.8553 119.0385 2.1562 46.5281 -1.5826 -2.6309
# 3 47.7184 2.1562 99.0306 -0.2982 -11.4840 -8.2590
# 4 28.6529 46.5281 -0.2982 31.3182 -9.7840 0.4235
# 5 -2.1977 -1.5826 -11.4840 -9.7840 59.7933 19.5297
# 6 -19.4066 -2.6309 -8.2590 0.4235 19.5297 44.9261
#
#
#
# Elastic Compliance Matrix: (Units=1/GPa)
#
#
# Indices 1 2 3 4 5 6 
#
# 1 0.014063 0.002145 -0.006955 -0.018193 -0.006297 0.007831
# 2 0.002145 0.022460 -0.002069 -0.037844 -0.007740 0.005583
# 3 -0.006955 -0.002069 0.013881 0.011215 0.005143 -0.002915
# 4 -0.018193 -0.037844 0.011215 0.113177 0.025604 -0.020210
# 5 -0.006297 -0.007740 0.005143 0.025604 0.025957 -0.013753
# 6 0.007831 0.005583 -0.002915 -0.020210 -0.013753 0.031601
#
#
# Mechanical properties :
#
#
# Convention : Reuss Voigt Hill
#
# Bulk Modulus (GPa) = 27.28671 60.04817 43.66744
# Shear Modulus (GPa) = 20.23364 44.49045 32.36204
#
# Velocity S-wave (km/s) = 2.76469 4.09962 3.49645
# Velocity P-wave (km/s) = 4.52761 6.71514 5.72680
#
# Compressibility (1/GPa) = 0.03664787
#
# Stress axis : x y z
#
# Youngs Moduli (GPa) = 71.10693 44.52305 72.03926
#
# Poissons Ratio (x) = -0.09551 0.50104
# Poissons Ratio (y) = -0.15253 0.14901
# Poissons Ratio (z) = 0.49456 0.09210
#
# Static dielectric constant tensor:
#      x y z
#    x 1.819380 0.415880 -0.194480 
#    y 0.415880 1.739530 0.019600 
#    z -0.194480 0.019600 2.084330 
# 
# From -- ./inp_files/554438.got.cif
#   From: 2010.05.17/outbox.cif.g08.bks.cpg/sg2_278_cif.got.tgz:554438.got - 2010.06.03 11:33:40.
