data_PCOD9045459
_publ_section_title
;
Structure prediction by ZEFSAII (Michael W. Deem and Ramdas Pophale) SiO2 
 PCOD9045459
Probable space group: P -1
;
_chemical_formula_sum "Si O2"
_cell_formula_units_Z 14
_cell_length_a 11.524880
_cell_length_b 15.707981
_cell_length_c 9.504925
_cell_angle_alpha 123.895972
_cell_angle_beta 45.445344
_cell_angle_gamma 153.303429
_cell_volume 537.872816
_symmetry_space_group_name_H-M "P -1"
_symmetry_group_IT_number 2
_symmetry_cell_setting 'triclinic'
loop_
_space_group_symop_operation_xyz
x,y,z
-x,-y,-z
loop_
_atom_site_type_symbol
_atom_site_label
_atom_site_fract_x
_atom_site_fract_y
_atom_site_fract_z
Si Si1 0.151498 0.935300 0.213202
Si Si2 0.830555 0.762078 0.850430
Si Si3 0.224341 0.328573 0.474886
Si Si4 0.796789 0.269548 0.107007
Si Si5 0.228913 0.790082 0.602827
Si Si6 0.061755 0.459566 0.631505
Si Si7 0.730726 0.833943 0.267699
O O1 0.983822 0.862365 0.438388
O O2 0.509457 0.142989 0.133920
O O3 0.999476 0.919876 0.205579
O O4 0.096638 0.785251 0.086291
O O5 0.644724 0.641247 0.756029
O O6 0.939330 0.712560 0.775123
O O7 0.677078 0.744560 0.085954
O O8 0.126869 0.982828 0.739543
O O9 0.500000 0.500000 0.500000
O O10 0.039771 0.334782 0.603390
O O11 0.700716 0.197488 0.285165
O O12 0.003032 0.481480 0.152889
O O13 0.149777 0.658695 0.436723
O O14 0.500000 0.000000 0.500000
O O15 0.419956 0.661778 0.464399
#
# Coordination Sequence:
#
# PCOD9045459 Si02
#       7
#     2   2   2   2   2   2   2
#     4  11  24  43  68  93 142 172 217 274 332 390
#     4  10  24  40  67  98 130 172 224 271 331 386
#     4  11  23  40  61  97 130 172 212 278 327 382
#     4  11  24  42  65  98 130 182 217 265 334 399
#     4  11  22  43  66  95 137 173 217 274 332 399
#     4  11  24  40  71  98 130 173 229 270 332 389
#     4  11  22  44  69 101 126 175 223 279 326 388
#
# _framework density 26.028457
#
# number of rings (size 3 to 8) (size 9 to 14) (size 15 to 20)
#    0.000    1.143    2.857    3.857    2.000    5.143 
#    0.000    1.429    0.000    0.000    0.000    0.000 
#    0.000    0.000    0.000    0.000    0.000    0.000 
#
# Total GULP energy -78401.228660 kJ/mol
# GULP energy per Si atom -5600.087761 kJ/mol
# Density = 2.596922 g / cm^3
# Si number density = 26.028457 Si / 1000 Ang^3
#
#
#
# Elastic Constant Matrix: (Units=GPa)
#
#
# Indices 1 2 3 4 5 6 
#
# 1 117.6287 30.4377 47.3243 10.6315 19.2327 -1.4816
# 2 30.4377 100.7422 17.7069 19.6887 7.0292 4.6595
# 3 47.3243 17.7069 119.5260 40.6096 15.4316 5.8693
# 4 10.6315 19.6887 40.6096 51.4689 -8.1195 7.8918
# 5 19.2327 7.0292 15.4316 -8.1195 36.7801 1.1446
# 6 -1.4816 4.6595 5.8693 7.8918 1.1446 36.4954
#
#
#
# Elastic Compliance Matrix: (Units=1/GPa)
#
#
# Indices 1 2 3 4 5 6 
#
# 1 0.011342 -0.002761 -0.004112 0.001211 -0.003451 0.001321
# 2 -0.002761 0.011774 0.001603 -0.005531 -0.002682 -0.000593
# 3 -0.004112 0.001603 0.015045 -0.012819 -0.007305 0.000210
# 4 0.001211 -0.005531 -0.012819 0.034316 0.013534 -0.005028
# 5 -0.003451 -0.002682 -0.007305 0.013534 0.035642 -0.002667
# 6 0.001321 -0.000593 0.000210 -0.005028 -0.002667 0.028667
#
#
# Mechanical properties :
#
#
# Convention : Reuss Voigt Hill
#
# Bulk Modulus (GPa) = 36.20327 58.75941 47.48134
# Shear Modulus (GPa) = 31.94227 41.11075 36.52651
#
# Velocity S-wave (km/s) = 3.50695 3.97855 3.75017
# Velocity P-wave (km/s) = 5.50796 6.61280 6.08551
#
# Compressibility (1/GPa) = 0.02762181
#
# Stress axis : x y z
#
# Youngs Moduli (GPa) = 88.17052 84.93175 66.46584
#
# Poissons Ratio (x) = 0.23448 0.27332
# Poissons Ratio (y) = 0.24343 -0.10657
# Poissons Ratio (z) = 0.36258 -0.13618
#
# Static dielectric constant tensor:
#      x y z
#    x 2.066290 -0.042000 -0.044840 
#    y -0.042000 2.079540 0.004780 
#    z -0.044840 0.004780 2.070010 
# 
# From -- ./inp_files/319456.got.cif
#   From: 2010.05.17/outbox.cif.g08.bks.cpg/sg2_160_cif.got.tgz:319456.got - 2010.06.03 11:33:40.
