data_PCOD9045392
_publ_section_title
;
Structure prediction by ZEFSAII (Michael W. Deem and Ramdas Pophale) SiO2 
 PCOD9045392
Probable space group: P -1
;
_chemical_formula_sum "Si O2"
_cell_formula_units_Z 16
_cell_length_a 11.948551
_cell_length_b 20.674944
_cell_length_c 15.191404
_cell_angle_alpha 153.170967
_cell_angle_beta 151.499988
_cell_angle_gamma 41.580708
_cell_volume 796.694100
_symmetry_space_group_name_H-M "P -1"
_symmetry_group_IT_number 2
_symmetry_cell_setting 'triclinic'
loop_
_space_group_symop_operation_xyz
x,y,z
-x,-y,-z
loop_
_atom_site_type_symbol
_atom_site_label
_atom_site_fract_x
_atom_site_fract_y
_atom_site_fract_z
Si Si1 0.655394 0.173802 0.522878
Si Si2 0.928196 0.602831 0.998543
Si Si3 0.863295 0.875109 0.874461
Si Si4 0.562533 0.899475 0.000662
Si Si5 0.738739 0.775044 0.214779
Si Si6 0.010602 0.904022 0.213141
Si Si7 0.111642 0.664939 0.463476
Si Si8 0.797638 0.182518 0.112063
O O1 0.398356 0.216840 0.406194
O O2 0.769219 0.167239 0.689411
O O3 0.626070 0.013723 0.263036
O O4 0.838804 0.282157 0.723636
O O5 0.854135 0.496034 0.736442
O O6 0.737484 0.685684 0.014333
O O7 0.000000 0.500000 0.000000
O O8 0.038371 0.810701 0.852219
O O9 0.961914 0.895348 0.065909
O O10 0.820057 0.028812 0.988679
O O11 0.789778 0.840607 0.046617
O O12 0.335978 0.779334 0.720310
O O13 0.500000 0.000000 0.000000
O O14 0.869131 0.697350 0.287699
O O15 0.474156 0.806207 0.086743
O O16 0.916685 0.926107 0.508500
O O17 0.109712 0.696314 0.603743
#
# Coordination Sequence:
#
# PCOD9045392 Si02
#       8
#     2   2   2   2   2   2   2   2
#     4  12  22  40  62  94 126 162 205 258 313 370
#     4  10  24  40  64  93 128 165 200 251 324 373
#     4  11  24  39  62  92 125 168 207 258 305 361
#     4  12  18  35  64  89 127 155 197 257 318 361
#     4  11  20  38  62  94 127 158 201 256 314 371
#     4  12  22  35  62  97 126 159 206 258 314 369
#     4  11  22  41  60  94 126 165 198 259 316 365
#     4  11  23  40  62  91 126 164 214 254 303 364
#
# _framework density 20.082989999999999
#
# number of rings (size 3 to 8) (size 9 to 14) (size 15 to 20)
#    0.000    0.750    7.500    1.125    1.750    2.000 
#    0.000    0.625    0.000    3.750    0.000    0.000 
#    0.000    0.000    0.000    0.000    0.000    0.000 
#
# Total GULP energy -89387.761987 kJ/mol
# GULP energy per Si atom -5586.735124 kJ/mol
# Density = 2.003728 g / cm^3
# Si number density = 20.082990 Si / 1000 Ang^3
#
#
#
# Elastic Constant Matrix: (Units=GPa)
#
#
# Indices 1 2 3 4 5 6 
#
# 1 160.2685 44.0023 66.4593 -15.3553 -2.1421 -23.8327
# 2 44.0023 69.0045 41.6651 -24.9541 -2.0754 -5.0478
# 3 66.4593 41.6651 100.1378 -12.4112 -5.9774 -17.0777
# 4 -15.3553 -24.9541 -12.4112 34.8563 0.8136 -3.6379
# 5 -2.1421 -2.0754 -5.9774 0.8136 15.9024 -0.2010
# 6 -23.8327 -5.0478 -17.0777 -3.6379 -0.2010 30.4246
#
#
#
# Elastic Compliance Matrix: (Units=1/GPa)
#
#
# Indices 1 2 3 4 5 6 
#
# 1 0.009599 -0.002744 -0.004296 0.001251 -0.000683 0.004797
# 2 -0.002744 0.025889 -0.007165 0.014772 -0.000441 -0.000113
# 3 -0.004296 -0.007165 0.016866 -0.000623 0.004919 0.004871
# 4 0.001251 0.014772 -0.000623 0.040422 -0.000106 0.007914
# 5 -0.000683 -0.000441 0.004919 -0.000106 0.064621 0.002567
# 6 0.004797 -0.000113 0.004871 0.007914 0.002567 0.040304
#
#
# Mechanical properties :
#
#
# Convention : Reuss Voigt Hill
#
# Bulk Modulus (GPa) = 41.76737 70.40715 56.08726
# Shear Modulus (GPa) = 21.35911 28.05562 24.70737
#
# Velocity S-wave (km/s) = 3.26474 3.74168 3.51132
# Velocity P-wave (km/s) = 5.92063 7.33492 6.66540
#
# Compressibility (1/GPa) = 0.02394213
#
# Stress axis : x y z
#
# Youngs Moduli (GPa) = 104.18290 38.62715 59.29105
#
# Poissons Ratio (x) = 0.10599 0.25473
# Poissons Ratio (y) = 0.28586 0.42484
# Poissons Ratio (z) = 0.44760 0.27677
#
# Static dielectric constant tensor:
#      x y z
#    x 1.710550 -0.017040 -0.004960 
#    y -0.017040 1.779820 -0.013250 
#    z -0.004960 -0.013250 1.720280 
# 
# From -- ./inp_files/458392.got.cif
#   From: 2010.05.17/outbox.cif.g08.bks.cpg/sg2_230_cif.got.tgz:458392.got - 2010.06.03 11:33:40.
