data_PCOD9045079
_publ_section_title
;
Structure prediction by ZEFSAII (Michael W. Deem and Ramdas Pophale) SiO2 
 PCOD9045079
Probable space group: P -1
;
_chemical_formula_sum "Si O2"
_cell_formula_units_Z 14
_cell_length_a 15.667670
_cell_length_b 15.737123
_cell_length_c 9.313087
_cell_angle_alpha 50.150159
_cell_angle_beta 69.236031
_cell_angle_gamma 26.236098
_cell_volume 592.941322
_symmetry_space_group_name_H-M "P -1"
_symmetry_group_IT_number 2
_symmetry_cell_setting 'triclinic'
loop_
_space_group_symop_operation_xyz
x,y,z
-x,-y,-z
loop_
_atom_site_type_symbol
_atom_site_label
_atom_site_fract_x
_atom_site_fract_y
_atom_site_fract_z
Si Si1 0.142064 0.091719 0.171278
Si Si2 0.785748 0.052561 0.387752
Si Si3 0.221840 0.285961 0.292382
Si Si4 0.001528 0.327295 0.552971
Si Si5 0.502782 0.993261 0.833880
Si Si6 0.465008 0.775045 0.072535
Si Si7 0.262821 0.631102 0.907659
O O1 0.973773 0.179034 0.121370
O O2 0.970830 0.394477 0.924720
O O3 0.194045 0.014695 0.391172
O O4 0.402074 0.811797 0.231382
O O5 0.790772 0.179251 0.248826
O O6 0.010990 0.749910 0.481215
O O7 0.516819 0.319651 0.187168
O O8 0.112510 0.307203 0.422506
O O9 0.500000 0.000000 0.500000
O O10 0.279111 0.199489 0.183297
O O11 0.198200 0.060489 0.840309
O O12 0.754861 0.649750 0.431749
O O13 0.512332 0.852524 0.944709
O O14 0.500000 0.000000 0.000000
O O15 0.665965 0.479514 0.180173
#
# Coordination Sequence:
#
# PCOD9045079 Si02
#       7
#     2   2   2   2   2   2   2
#     4  12  23  41  68  97 127 171 218 264 325 374
#     4  10  24  44  69  95 126 173 218 267 315 391
#     4  12  22  39  66  91 131 176 207 255 329 382
#     4  11  23  42  61  93 131 165 211 259 319 387
#     4  12  24  37  59  96 129 164 210 262 315 380
#     4  11  23  42  63  95 127 168 215 264 317 385
#     4  10  23  49  67  90 133 168 217 269 325 373
#
# _framework density 23.611105999999999
#
# number of rings (size 3 to 8) (size 9 to 14) (size 15 to 20)
#    0.000    0.857    4.286    3.429    2.000    1.714 
#    0.000    7.857    0.000    0.000    0.000    0.000 
#    0.000    0.000    0.000    0.000    0.000    0.000 
#
# Total GULP energy -78440.857322 kJ/mol
# GULP energy per Si atom -5602.918380 kJ/mol
# Density = 2.355737 g / cm^3
# Si number density = 23.611106 Si / 1000 Ang^3
#
#
#
# Elastic Constant Matrix: (Units=GPa)
#
#
# Indices 1 2 3 4 5 6 
#
# 1 98.8611 44.3312 22.4836 -9.3976 -15.6564 16.0760
# 2 44.3312 131.2489 17.4039 8.3628 -6.3846 -7.6769
# 3 22.4836 17.4039 68.7859 4.9370 3.3766 2.9381
# 4 -9.3976 8.3628 4.9370 35.0503 6.0094 4.8108
# 5 -15.6564 -6.3846 3.3766 6.0094 31.5990 -2.9627
# 6 16.0760 -7.6769 2.9381 4.8108 -2.9627 32.7100
#
#
#
# Elastic Compliance Matrix: (Units=1/GPa)
#
#
# Indices 1 2 3 4 5 6 
#
# 1 0.016846 -0.005865 -0.004367 0.006952 0.005387 -0.009798
# 2 -0.005865 0.010403 -0.000663 -0.004945 0.000787 0.006182
# 3 -0.004367 -0.000663 0.016480 -0.002824 -0.003464 0.000612
# 4 0.006952 -0.004945 -0.002824 0.034110 -0.004655 -0.009762
# 5 0.005387 0.000787 -0.003464 -0.004655 0.035898 0.001784
# 6 -0.009798 0.006182 0.000612 -0.009762 0.001784 0.038380
#
#
# Mechanical properties :
#
#
# Convention : Reuss Voigt Hill
#
# Bulk Modulus (GPa) = 45.58237 51.92591 48.75414
# Shear Modulus (GPa) = 27.59104 34.18366 30.88735
#
# Velocity S-wave (km/s) = 3.42213 3.80910 3.62079
# Velocity P-wave (km/s) = 5.91287 6.43316 6.17849
#
# Compressibility (1/GPa) = 0.02193831
#
# Stress axis : x y z
#
# Youngs Moduli (GPa) = 59.36284 96.12778 60.68070
#
# Poissons Ratio (x) = 0.56376 0.26501
# Poissons Ratio (y) = 0.34815 0.04023
# Poissons Ratio (z) = 0.25925 0.06372
#
# Static dielectric constant tensor:
#      x y z
#    x 1.922730 0.014380 0.093070 
#    y 0.014380 1.884090 -0.015620 
#    z 0.093070 -0.015620 1.944690 
# 
# From -- ./inp_files/178555.got.cif
#   From: 2010.05.17/outbox.cif.g08.bks.cpg/sg2_90_cif.got.tgz:178555.got - 2010.06.03 11:33:40.
