data_PCOD9045104
_publ_section_title
;
Structure prediction by ZEFSAII (Michael W. Deem and Ramdas Pophale) SiO2 
 PCOD9045104
Probable space group: P -1
;
_chemical_formula_sum "Si O2"
_cell_formula_units_Z 14
_cell_length_a 16.541949
_cell_length_b 5.919090
_cell_length_c 7.751032
_cell_angle_alpha 92.473108
_cell_angle_beta 98.196316
_cell_angle_gamma 127.112079
_cell_volume 590.955157
_symmetry_space_group_name_H-M "P -1"
_symmetry_group_IT_number 2
_symmetry_cell_setting 'triclinic'
loop_
_space_group_symop_operation_xyz
x,y,z
-x,-y,-z
loop_
_atom_site_type_symbol
_atom_site_label
_atom_site_fract_x
_atom_site_fract_y
_atom_site_fract_z
Si Si1 0.229086 0.355112 0.296806
Si Si2 0.078082 0.333357 0.492112
Si Si3 0.449043 0.215798 0.864494
Si Si4 0.941641 0.151399 0.964416
Si Si5 0.654130 0.326050 0.000011
Si Si6 0.117705 0.779739 0.717211
Si Si7 0.317302 0.309270 0.636731
O O1 0.173742 0.444825 0.403236
O O2 0.266595 0.506958 0.127604
O O3 0.319178 0.414604 0.449861
O O4 0.134937 0.017442 0.224031
O O5 0.118735 0.512127 0.687998
O O6 0.001360 0.363409 0.364313
O O7 0.000000 0.000000 0.500000
O O8 0.542491 0.198902 0.874768
O O9 0.397608 0.242540 0.684940
O O10 0.500000 0.500000 0.000000
O O11 0.357849 0.947140 0.940569
O O12 0.863572 0.061535 0.096013
O O13 0.000000 0.500000 0.000000
O O14 0.000000 0.000000 0.000000
O O15 0.667387 0.496222 0.186860
O O16 0.200552 0.016900 0.616732
#
# Coordination Sequence:
#
# PCOD9045104 Si02
#       7
#     2   2   2   2   2   2   2
#     4  12  25  44  76 111 143 198 263 304 373 451
#     4  11  23  42  64  97 147 194 243 306 368 434
#     4   9  22  48  74  99 144 184 230 308 396 457
#     4  12  27  46  69 107 155 207 261 315 373 450
#     4  10  23  49  72 103 142 188 239 308 384 462
#     4  11  24  41  65  95 147 197 240 304 371 430
#     4  11  24  42  70 108 140 185 242 305 376 445
#
# _framework density 23.690460999999999
#
# number of rings (size 3 to 8) (size 9 to 14) (size 15 to 20)
#    0.000    1.143    4.286    0.857    4.000    1.714 
#    5.143    6.429    0.000    0.000    0.000    0.000 
#    0.000    0.000    0.000    0.000    0.000    0.000 
#
# Total GULP energy -78030.294162 kJ/mol
# GULP energy per Si atom -5573.592440 kJ/mol
# Density = 2.363654 g / cm^3
# Si number density = 23.690461 Si / 1000 Ang^3
#
#
#
# Elastic Constant Matrix: (Units=GPa)
#
#
# Indices 1 2 3 4 5 6 
#
# 1 55.3063 17.8461 29.6277 20.4159 8.3922 -1.0029
# 2 17.8461 122.6129 37.1228 2.6125 -8.6740 -8.4625
# 3 29.6277 37.1228 118.9150 11.9619 4.3972 -13.9388
# 4 20.4159 2.6125 11.9619 17.3743 1.0354 -3.6818
# 5 8.3922 -8.6740 4.3972 1.0354 41.7996 3.9208
# 6 -1.0029 -8.4625 -13.9388 -3.6818 3.9208 22.8011
#
#
#
# Elastic Compliance Matrix: (Units=1/GPa)
#
#
# Indices 1 2 3 4 5 6 
#
# 1 0.038693 -0.004321 -0.004749 -0.043009 -0.006287 -0.008668
# 2 -0.004321 0.009738 -0.002343 0.005573 0.002770 0.002415
# 3 -0.004749 -0.002343 0.011096 -0.000392 -0.001240 0.005854
# 4 -0.043009 0.005573 -0.000392 0.110775 0.005506 0.016877
# 5 -0.006287 0.002770 -0.001240 0.005506 0.026093 -0.003604
# 6 -0.008668 0.002415 0.005854 0.016877 -0.003604 0.051296
#
#
# Mechanical properties :
#
#
# Convention : Reuss Voigt Hill
#
# Bulk Modulus (GPa) = 27.24737 51.78081 39.51409
# Shear Modulus (GPa) = 17.68349 30.54419 24.11384
#
# Velocity S-wave (km/s) = 2.73507 3.59458 3.19387
# Velocity P-wave (km/s) = 4.63686 6.25562 5.50605
#
# Compressibility (1/GPa) = 0.03670078
#
# Stress axis : x y z
#
# Youngs Moduli (GPa) = 25.84477 102.69008 90.12600
#
# Poissons Ratio (x) = 0.44368 0.42798
# Poissons Ratio (y) = 0.11166 0.21121
# Poissons Ratio (z) = 0.12273 0.24065
#
# Static dielectric constant tensor:
#      x y z
#    x 2.040320 -0.103030 -0.036960 
#    y -0.103030 2.040060 0.035130 
#    z -0.036960 0.035130 2.063410 
# 
# From -- ./inp_files/323874.got.cif
#   From: 2010.05.17/outbox.cif.g08.bks.cpg/sg2_162_cif.got.tgz:323874.got - 2010.06.03 11:33:40.
