data_PCOD9045713
_publ_section_title
;
Structure prediction by ZEFSAII (Michael W. Deem and Ramdas Pophale) SiO2 
 PCOD9045713
Probable space group: P -1
;
_chemical_formula_sum "Si O2"
_cell_formula_units_Z 12
_cell_length_a 9.284089
_cell_length_b 12.369736
_cell_length_c 4.975063
_cell_angle_alpha 64.433441
_cell_angle_beta 77.496272
_cell_angle_gamma 72.505126
_cell_volume 489.054696
_symmetry_space_group_name_H-M "P -1"
_symmetry_group_IT_number 2
_symmetry_cell_setting 'triclinic'
loop_
_space_group_symop_operation_xyz
x,y,z
-x,-y,-z
loop_
_atom_site_type_symbol
_atom_site_label
_atom_site_fract_x
_atom_site_fract_y
_atom_site_fract_z
Si Si1 0.352933 0.967317 0.716647
Si Si2 0.258911 0.471681 0.022756
Si Si3 0.969589 0.884022 0.301306
Si Si4 0.578701 0.388522 0.780450
Si Si5 0.288373 0.842567 0.397174
Si Si6 0.010800 0.612466 0.566893
O O1 0.343714 0.847835 0.671210
O O2 0.500000 0.000000 0.500000
O O3 0.336063 0.943185 0.067287
O O4 0.202961 0.071073 0.585592
O O5 0.424494 0.382188 0.005375
O O6 0.159914 0.562717 0.741942
O O7 0.300061 0.564547 0.132335
O O8 0.144937 0.382461 0.213741
O O9 0.107232 0.863631 0.477044
O O10 0.996869 0.748010 0.304766
O O11 0.000000 0.000000 0.000000
O O12 0.500000 0.500000 0.500000
O O13 0.644781 0.277946 0.672365
O O14 0.000000 0.500000 0.500000
#
# Coordination Sequence:
#
# PCOD9045713 Si02
#       6
#     2   2   2   2   2   2
#     4  11  26  46  69 105 138 191 242 309 363 439
#     4  10  24  41  67 110 137 192 232 308 369 444
#     4  10  24  47  72 102 144 198 242 297 370 441
#     4  11  24  42  70 101 143 186 245 299 376 436
#     4  11  25  45  72  99 144 188 247 294 375 439
#     4  11  23  45  72 106 148 182 247 301 371 437
#
# _framework density 24.537132
#
# number of rings (size 3 to 8) (size 9 to 14) (size 15 to 20)
#    0.000    1.333    0.000    4.000    9.333    1.333 
#   15.000    0.000    0.000    0.000    0.000    0.000 
#    0.000    0.000    0.000    0.000    0.000    0.000 
#
# Total GULP energy -66949.991784 kJ/mol
# GULP energy per Si atom -5579.165982 kJ/mol
# Density = 2.448128 g / cm^3
# Si number density = 24.537132 Si / 1000 Ang^3
#
#
#
# Elastic Constant Matrix: (Units=GPa)
#
#
# Indices 1 2 3 4 5 6 
#
# 1 167.1895 51.4729 32.4000 -4.2369 4.4820 -16.5191
# 2 51.4729 138.9280 34.9983 -14.9379 17.6510 -8.4867
# 3 32.4000 34.9983 73.0801 -7.1728 4.8867 2.4885
# 4 -4.2369 -14.9379 -7.1728 42.2336 8.8439 0.2751
# 5 4.4820 17.6510 4.8867 8.8439 43.6762 10.4653
# 6 -16.5191 -8.4867 2.4885 0.2751 10.4653 44.1654
#
#
#
# Elastic Compliance Matrix: (Units=1/GPa)
#
#
# Indices 1 2 3 4 5 6 
#
# 1 0.007297 -0.001947 -0.002406 -0.000333 -0.000236 0.002549
# 2 -0.001947 0.009906 -0.003278 0.003738 -0.004786 0.002471
# 3 -0.002406 -0.003278 0.016542 0.001419 0.000027 -0.002477
# 4 -0.000333 0.003738 0.001419 0.026779 -0.007571 0.002141
# 5 -0.000236 -0.004786 0.000027 -0.007571 0.028217 -0.007648
# 6 0.002549 0.002471 -0.002477 0.002141 -0.007648 0.026009
#
#
# Mechanical properties :
#
#
# Convention : Reuss Voigt Hill
#
# Bulk Modulus (GPa) = 54.10667 68.54888 61.32777
# Shear Modulus (GPa) = 36.71818 43.37013 40.04415
#
# Velocity S-wave (km/s) = 3.87257 4.20876 4.04416
# Velocity P-wave (km/s) = 6.48803 7.18441 6.84508
#
# Compressibility (1/GPa) = 0.01848201
#
# Stress axis : x y z
#
# Youngs Moduli (GPa) = 137.04689 100.94801 60.45232
#
# Poissons Ratio (x) = 0.19659 0.14545
# Poissons Ratio (y) = 0.26689 0.19816
# Poissons Ratio (z) = 0.32974 0.33090
#
# Static dielectric constant tensor:
#      x y z
#    x 1.994030 0.014500 -0.161970 
#    y 0.014500 1.684020 0.153100 
#    z -0.161970 0.153100 2.127130 
# 
# From -- ./inp_files/26149.got.cif
#   From: 2010.05.17/outbox.cif.g08.bks.cpg/sg2_14_cif.got.tgz:26149.got - 2010.06.03 11:33:40.
