data_PCOD9045947
_publ_section_title
;
Structure prediction by ZEFSAII (Michael W. Deem and Ramdas Pophale) SiO2 
 PCOD9045947
Probable space group: P -1
;
_chemical_formula_sum "Si O2"
_cell_formula_units_Z 16
_cell_length_a 6.241569
_cell_length_b 8.929480
_cell_length_c 21.264923
_cell_angle_alpha 46.756340
_cell_angle_beta 127.805244
_cell_angle_gamma 125.848150
_cell_volume 653.247758
_symmetry_space_group_name_H-M "P -1"
_symmetry_group_IT_number 2
_symmetry_cell_setting 'triclinic'
loop_
_space_group_symop_operation_xyz
x,y,z
-x,-y,-z
loop_
_atom_site_type_symbol
_atom_site_label
_atom_site_fract_x
_atom_site_fract_y
_atom_site_fract_z
Si Si1 0.193679 0.666027 0.569673
Si Si2 0.984983 0.151038 0.894303
Si Si3 0.452949 0.547128 0.051511
Si Si4 0.990217 0.880621 0.718336
Si Si5 0.950540 0.158924 0.114624
Si Si6 0.525640 0.924657 0.443677
Si Si7 0.642934 0.720695 0.402618
Si Si8 0.619386 0.438005 0.722497
O O1 0.209312 0.860568 0.565096
O O2 0.309577 0.473973 0.671296
O O3 0.905862 0.625748 0.490888
O O4 0.448166 0.792548 0.532148
O O5 0.245769 0.362977 0.888261
O O6 0.704505 0.231400 0.822329
O O7 0.033859 0.032876 0.873354
O O8 0.000000 0.000000 0.000000
O O9 0.253693 0.334526 0.107993
O O10 0.500000 0.500000 0.000000
O O11 0.288694 0.727251 0.979887
O O12 0.735224 0.986598 0.645120
O O13 0.852388 0.646627 0.731048
O O14 0.091517 0.877704 0.808430
O O15 0.225954 0.042958 0.672213
O O16 0.540503 0.760734 0.440253
O O17 0.404328 0.595325 0.347561
#
# Coordination Sequence:
#
# PCOD9045947 Si02
#       8
#     2   2   2   2   2   2   2   2
#     4   9  20  41  64  98 136 173 224 276 333 408
#     4  12  26  44  71 101 138 181 229 283 344 410
#     4  11  24  45  72  97 131 177 226 284 342 403
#     4  10  24  42  64  98 135 172 224 276 336 406
#     4  11  25  45  72 100 133 182 229 281 345 406
#     4   9  19  39  67  96 134 173 218 275 335 406
#     4  11  22  41  71  96 132 180 219 279 342 395
#     4  11  25  41  65  98 135 175 226 277 332 411
#
# _framework density 24.493003999999999
#
# number of rings (size 3 to 8) (size 9 to 14) (size 15 to 20)
#    0.000    1.500    1.250    3.375    3.500    4.500 
#    0.000    8.750    0.000    0.000    0.000    0.000 
#    0.000    0.000    0.000    0.000    0.000    0.000 
#
# Total GULP energy -89517.047383 kJ/mol
# GULP energy per Si atom -5594.815461 kJ/mol
# Density = 2.443726 g / cm^3
# Si number density = 24.493004 Si / 1000 Ang^3
#
#
#
# Elastic Constant Matrix: (Units=GPa)
#
#
# Indices 1 2 3 4 5 6 
#
# 1 65.0654 48.3032 31.2046 -8.5144 2.9479 -13.5785
# 2 48.3032 133.5681 48.0026 15.6791 7.0548 -25.7180
# 3 31.2046 48.0026 119.4684 1.1663 22.1235 -5.2708
# 4 -8.5144 15.6791 1.1663 30.3725 -8.9394 3.2659
# 5 2.9479 7.0548 22.1235 -8.9394 38.9410 -7.4736
# 6 -13.5785 -25.7180 -5.2708 3.2659 -7.4736 47.2628
#
#
#
# Elastic Compliance Matrix: (Units=1/GPa)
#
#
# Indices 1 2 3 4 5 6 
#
# 1 0.026525 -0.009714 -0.004135 0.014088 0.005680 0.001798
# 2 -0.009714 0.014312 -0.002505 -0.011161 -0.002004 0.005172
# 3 -0.004135 -0.002505 0.011627 -0.002059 -0.006729 -0.002176
# 4 0.014088 -0.011161 -0.002059 0.046675 0.012157 -0.003558
# 5 0.005680 -0.002004 -0.006729 0.012157 0.033028 0.004174
# 6 0.001798 0.005172 -0.002176 -0.003558 0.004174 0.025152
#
#
# Mechanical properties :
#
#
# Convention : Reuss Voigt Hill
#
# Bulk Modulus (GPa) = 50.61776 63.68030 57.14903
# Shear Modulus (GPa) = 25.43055 36.02135 30.72595
#
# Velocity S-wave (km/s) = 3.22573 3.83910 3.54570
# Velocity P-wave (km/s) = 5.88089 6.76073 6.33610
#
# Compressibility (1/GPa) = 0.01975591
#
# Stress axis : x y z
#
# Youngs Moduli (GPa) = 37.70000 69.87226 86.00406
#
# Poissons Ratio (x) = 0.67872 0.35566
# Poissons Ratio (y) = 0.36621 0.21545
# Poissons Ratio (z) = 0.15590 0.17504
#
# Static dielectric constant tensor:
#      x y z
#    x 1.994570 -0.001140 0.000060 
#    y -0.001140 2.003890 -0.036160 
#    z 0.000060 -0.036160 1.985610 
# 
# From -- ./inp_files/582301.got.cif
#   From: 2010.05.17/outbox.cif.g08.bks.cpg/sg2_292_cif.got.tgz:582301.got - 2010.06.03 11:33:40.
