data_PCOD9045103
_publ_section_title
;
Structure prediction by ZEFSAII (Michael W. Deem and Ramdas Pophale) SiO2 
 PCOD9045103
Probable space group: P -1
;
_chemical_formula_sum "Si O2"
_cell_formula_units_Z 15
_cell_length_a 19.088387
_cell_length_b 5.123731
_cell_length_c 11.002605
_cell_angle_alpha 83.706537
_cell_angle_beta 144.707232
_cell_angle_gamma 84.997902
_cell_volume 588.003913
_symmetry_space_group_name_H-M "P -1"
_symmetry_group_IT_number 2
_symmetry_cell_setting 'triclinic'
loop_
_space_group_symop_operation_xyz
x,y,z
-x,-y,-z
loop_
_atom_site_type_symbol
_atom_site_label
_atom_site_fract_x
_atom_site_fract_y
_atom_site_fract_z
Si Si1 0.929106 0.269339 0.806941
Si Si2 0.840426 0.476867 0.908817
Si Si3 0.578838 0.690289 0.657590
Si Si4 0.000000 0.500000 0.500000
Si Si5 0.998882 0.983169 0.306009
Si Si6 0.594629 0.394973 0.945838
Si Si7 0.607467 0.712246 0.196777
Si Si8 0.796030 0.815610 0.306011
O O1 0.824356 0.439022 0.743727
O O2 0.894491 0.161695 0.635954
O O3 0.035929 0.415606 0.920087
O O4 0.000000 0.000000 0.000000
O O5 0.713792 0.647797 0.785847
O O6 0.885095 0.190295 0.060633
O O7 0.500000 0.500000 0.500000
O O8 0.596028 0.597798 0.827485
O O9 0.500000 0.000000 0.500000
O O10 0.042543 0.247970 0.673841
O O11 0.155660 0.459179 0.691724
O O12 0.058634 0.164120 0.471131
O O13 0.450103 0.377561 0.759738
O O14 0.612772 0.515897 0.097670
O O15 0.697750 0.089006 0.097073
O O16 0.741484 0.769710 0.362601
O O17 0.500000 0.000000 0.000000
#
# Coordination Sequence:
#
# PCOD9045103 Si02
#       8
#     2   2   2   1   2   2   2   2
#     4   9  21  43  73 104 141 185 234 301 374 435
#     4  10  23  49  72 102 147 187 241 312 366 437
#     4  12  31  53  76 110 144 207 260 309 371 441
#     4  12  24  38  58 102 140 180 222 276 346 460
#     4  11  23  41  68 110 140 183 232 290 381 444
#     4  10  23  49  72 102 147 187 241 312 366 437
#     4   9  21  43  73 104 141 185 234 301 374 435
#     4  11  23  41  68 110 140 183 232 290 381 444
#
# _framework density 25.510034000000001
#
# number of rings (size 3 to 8) (size 9 to 14) (size 15 to 20)
#    0.000    1.600    0.000    2.800    7.467    3.200 
#   16.800    0.000    0.000    0.000    0.000    0.000 
#    0.000    0.000    0.000    0.000    0.000    0.000 
#
# Total GULP energy -83668.031238 kJ/mol
# GULP energy per Si atom -5577.868749 kJ/mol
# Density = 2.545197 g / cm^3
# Si number density = 25.510034 Si / 1000 Ang^3
#
#
#
# Elastic Constant Matrix: (Units=GPa)
#
#
# Indices 1 2 3 4 5 6 
#
# 1 216.7135 26.2771 72.1850 -36.5961 17.1093 12.5139
# 2 26.2771 80.8462 37.6671 -28.9955 2.7993 13.1972
# 3 72.1850 37.6671 113.0676 -36.7575 15.6331 -1.5814
# 4 -36.5961 -28.9955 -36.7575 52.8209 -3.6193 -5.1439
# 5 17.1093 2.7993 15.6331 -3.6193 53.3284 -5.1402
# 6 12.5139 13.1972 -1.5814 -5.1439 -5.1402 41.3493
#
#
#
# Elastic Compliance Matrix: (Units=1/GPa)
#
#
# Indices 1 2 3 4 5 6 
#
# 1 0.006221 0.000679 -0.003418 0.002023 -0.001096 -0.002115
# 2 0.000679 0.017250 -0.004115 0.006588 0.000044 -0.005044
# 3 -0.003418 -0.004115 0.014614 0.005712 -0.002262 0.003336
# 4 0.002023 0.006588 0.005712 0.027966 -0.000685 0.000897
# 5 -0.001096 0.000044 -0.002262 -0.000685 0.019971 0.002629
# 6 -0.002115 -0.005044 0.003336 0.000897 0.002629 0.027000
#
#
# Mechanical properties :
#
#
# Convention : Reuss Voigt Hill
#
# Bulk Modulus (GPa) = 41.02235 75.87619 58.44927
# Shear Modulus (GPa) = 37.07663 47.79958 42.43810
#
# Velocity S-wave (km/s) = 3.81650 4.33339 4.08313
# Velocity P-wave (km/s) = 5.96127 7.40580 6.72245
#
# Compressibility (1/GPa) = 0.02437696
#
# Stress axis : x y z
#
# Youngs Moduli (GPa) = 160.74897 57.96985 68.42780
#
# Poissons Ratio (x) = -0.03939 0.23390
# Poissons Ratio (y) = -0.10922 0.28160
# Poissons Ratio (z) = 0.54947 0.23857
#
# Static dielectric constant tensor:
#      x y z
#    x 1.830080 0.274350 0.001030 
#    y 0.274350 1.819610 0.100450 
#    z 0.001030 0.100450 2.022740 
# 
# From -- ./inp_files/459089.got.cif
#   From: 2010.05.17/outbox.cif.g08.bks.cpg/sg2_230_cif.got.tgz:459089.got - 2010.06.03 11:33:40.
