data_PCOD9045503
_publ_section_title
;
Structure prediction by ZEFSAII (Michael W. Deem and Ramdas Pophale) SiO2 
 PCOD9045503
Probable space group: P -1
;
_chemical_formula_sum "Si O2"
_cell_formula_units_Z 14
_cell_length_a 8.431442
_cell_length_b 18.314610
_cell_length_c 8.552199
_cell_angle_alpha 125.468949
_cell_angle_beta 110.944638
_cell_angle_gamma 32.868057
_cell_volume 557.927047
_symmetry_space_group_name_H-M "P -1"
_symmetry_group_IT_number 2
_symmetry_cell_setting 'triclinic'
loop_
_space_group_symop_operation_xyz
x,y,z
-x,-y,-z
loop_
_atom_site_type_symbol
_atom_site_label
_atom_site_fract_x
_atom_site_fract_y
_atom_site_fract_z
Si Si1 0.165337 0.709803 0.760855
Si Si2 0.789336 0.013569 0.500999
Si Si3 0.323759 0.446426 0.474314
Si Si4 0.363117 0.486679 0.054426
Si Si5 0.218448 0.982327 0.128585
Si Si6 0.251654 0.156876 0.726156
Si Si7 0.240566 0.371698 0.658502
O O1 0.131867 0.619328 0.667091
O O2 0.365558 0.648389 0.600941
O O3 0.381535 0.648099 0.897617
O O4 0.861740 0.896829 0.855387
O O5 0.446534 0.198137 0.570831
O O6 0.866169 0.976408 0.666636
O O7 0.852671 0.890326 0.288386
O O8 0.000000 0.000000 0.500000
O O9 0.358337 0.362012 0.522759
O O10 0.113688 0.494253 0.328035
O O11 0.052480 0.667463 0.236027
O O12 0.500000 0.500000 0.000000
O O13 0.278634 0.433580 0.871541
O O14 0.584892 0.838662 0.105374
O O15 0.000000 0.000000 0.000000
O O16 0.500000 0.000000 0.500000
#
# Coordination Sequence:
#
# PCOD9045503 Si02
#       7
#     2   2   2   2   2   2   2
#     4  11  24  42  72  96 140 181 237 282 352 416
#     4  11  23  43  71  96 143 188 230 278 365 427
#     4  10  24  40  69  99 135 180 233 287 347 409
#     4  12  25  45  73 106 140 183 243 295 346 416
#     4  11  25  44  66 103 138 180 233 293 352 413
#     4  10  26  46  70 102 145 191 232 285 367 431
#     4  11  23  43  68 102 138 180 242 287 343 417
#
# _framework density 25.092884999999999
#
# number of rings (size 3 to 8) (size 9 to 14) (size 15 to 20)
#    0.000    1.143    1.429    3.429   14.000    0.571 
#    0.000    1.429    0.000    0.000    0.000    0.000 
#    0.000    0.000    0.000    0.000    0.000    0.000 
#
# Total GULP energy -78203.601342 kJ/mol
# GULP energy per Si atom -5585.971524 kJ/mol
# Density = 2.503577 g / cm^3
# Si number density = 25.092885 Si / 1000 Ang^3
#
#
#
# Elastic Constant Matrix: (Units=GPa)
#
#
# Indices 1 2 3 4 5 6 
#
# 1 87.0791 10.7891 16.8341 -17.3701 14.7974 -8.6363
# 2 10.7891 151.9742 42.6697 -21.0769 -0.2348 17.2109
# 3 16.8341 42.6697 61.9983 -18.5927 27.9292 -7.0693
# 4 -17.3701 -21.0769 -18.5927 40.3401 -14.2262 5.3742
# 5 14.7974 -0.2348 27.9292 -14.2262 50.0762 -8.9982
# 6 -8.6363 17.2109 -7.0693 5.3742 -8.9982 36.4459
#
#
#
# Elastic Compliance Matrix: (Units=1/GPa)
#
#
# Indices 1 2 3 4 5 6 
#
# 1 0.013037 -0.000264 -0.001141 0.004087 -0.001702 0.001970
# 2 -0.000264 0.010279 -0.008827 0.003760 0.005051 -0.005936
# 3 -0.001141 -0.008827 0.030846 0.003057 -0.015011 0.005724
# 4 0.004087 0.003760 0.003057 0.032399 0.005663 -0.003594
# 5 -0.001702 0.005051 -0.015011 0.005663 0.030663 0.001035
# 6 0.001970 -0.005936 0.005724 -0.003594 0.001035 0.032604
#
#
# Mechanical properties :
#
#
# Convention : Reuss Voigt Hill
#
# Bulk Modulus (GPa) = 29.67574 49.07082 39.37328
# Shear Modulus (GPa) = 27.54440 40.75635 34.15037
#
# Velocity S-wave (km/s) = 3.31675 4.03453 3.69312
# Velocity P-wave (km/s) = 5.14974 6.42662 5.82328
#
# Compressibility (1/GPa) = 0.03369756
#
# Stress axis : x y z
#
# Youngs Moduli (GPa) = 76.70481 97.28764 32.41877
#
# Poissons Ratio (x) = 0.02569 0.03699
# Poissons Ratio (y) = 0.02025 0.28617
# Poissons Ratio (z) = 0.08753 0.85877
#
# Static dielectric constant tensor:
#      x y z
#    x 2.186180 -0.022970 -0.056940 
#    y -0.022970 2.180090 -0.000450 
#    z -0.056940 -0.000450 2.065700 
# 
# From -- ./inp_files/218369.got.cif
#   From: 2010.05.17/outbox.cif.g08.bks.cpg/sg2_110_cif.got.tgz:218369.got - 2010.06.03 11:33:40.
