data_PCOD9045844
_publ_section_title
;
Structure prediction by ZEFSAII (Michael W. Deem and Ramdas Pophale) SiO2 
 PCOD9045844
Probable space group: P -1
;
_chemical_formula_sum "Si O2"
_cell_formula_units_Z 16
_cell_length_a 9.388206
_cell_length_b 7.825267
_cell_length_c 8.864703
_cell_angle_alpha 86.866162
_cell_angle_beta 103.351308
_cell_angle_gamma 113.074169
_cell_volume 582.485679
_symmetry_space_group_name_H-M "P -1"
_symmetry_group_IT_number 2
_symmetry_cell_setting 'triclinic'
loop_
_space_group_symop_operation_xyz
x,y,z
-x,-y,-z
loop_
_atom_site_type_symbol
_atom_site_label
_atom_site_fract_x
_atom_site_fract_y
_atom_site_fract_z
Si Si1 0.741202 0.752527 0.109193
Si Si2 0.901468 0.283721 0.005831
Si Si3 0.207603 0.045565 0.191358
Si Si4 0.532257 0.016945 0.330505
Si Si5 0.155004 0.688375 0.522158
Si Si6 0.593381 0.399183 0.629084
Si Si7 0.030579 0.910394 0.675807
Si Si8 0.369485 0.609938 0.035671
O O1 0.554495 0.710258 0.045213
O O2 0.836926 0.886215 0.259274
O O3 0.726122 0.541271 0.107101
O O4 0.818877 0.857900 0.969742
O O5 0.899693 0.172080 0.857486
O O6 0.717168 0.250615 0.979536
O O7 0.948700 0.214714 0.174677
O O8 0.000000 0.500000 0.000000
O O9 0.386808 0.063721 0.236378
O O10 0.146693 0.105233 0.325049
O O11 0.518436 0.805471 0.320036
O O12 0.500000 0.000000 0.500000
O O13 0.695973 0.191899 0.337024
O O14 0.262877 0.634612 0.422483
O O15 0.063230 0.830226 0.530464
O O16 0.000000 0.500000 0.500000
O O17 0.500000 0.500000 0.500000
O O18 0.651422 0.496677 0.801390
#
# Coordination Sequence:
#
# PCOD9045844 Si02
#       8
#     2   2   2   2   2   2   2   2
#     4  10  24  41  73 114 144 192 236 303 378 435
#     4  11  23  39  70 107 147 191 240 297 373 435
#     4  11  23  44  74 106 151 189 240 298 382 441
#     4  10  24  47  73 104 144 202 248 301 367 443
#     4  11  28  47  75 110 145 196 254 307 371 439
#     4  11  26  50  77 106 148 202 251 308 369 445
#     4  11  25  45  72 108 152 188 239 303 372 443
#     4  11  23  42  72 109 148 187 250 301 362 448
#
# _framework density 27.468485000000001
#
# number of rings (size 3 to 8) (size 9 to 14) (size 15 to 20)
#    0.000    1.250    1.250    3.750    8.750    2.000 
#    0.000    9.375    0.000    0.000    0.000    0.000 
#    0.000    0.000    0.000    0.000    0.000    0.000 
#
# Total GULP energy -89214.942339 kJ/mol
# GULP energy per Si atom -5575.933896 kJ/mol
# Density = 2.740597 g / cm^3
# Si number density = 27.468485 Si / 1000 Ang^3
#
#
#
# Elastic Constant Matrix: (Units=GPa)
#
#
# Indices 1 2 3 4 5 6 
#
# 1 166.3506 75.1839 29.9100 -2.6849 -18.2192 23.8624
# 2 75.1839 142.4607 38.5878 28.7673 3.0963 19.7108
# 3 29.9100 38.5878 99.3843 -17.4874 0.3491 -7.7905
# 4 -2.6849 28.7673 -17.4874 40.1755 -6.0250 -1.6687
# 5 -18.2192 3.0963 0.3491 -6.0250 52.3576 12.1837
# 6 23.8624 19.7108 -7.7905 -1.6687 12.1837 46.2135
#
#
#
# Elastic Compliance Matrix: (Units=1/GPa)
#
#
# Indices 1 2 3 4 5 6 
#
# 1 0.009916 -0.005940 -0.000018 0.005549 0.005323 -0.003792
# 2 -0.005940 0.016247 -0.007723 -0.016149 -0.003726 -0.004766
# 3 -0.000018 -0.007723 0.015799 0.012719 0.000334 0.006338
# 4 0.005549 -0.016149 0.012719 0.043573 0.006407 0.006051
# 5 0.005323 -0.003726 0.000334 0.006407 0.023555 -0.007082
# 6 -0.003792 -0.004766 0.006338 0.006051 -0.007082 0.028783
#
#
# Mechanical properties :
#
#
# Convention : Reuss Voigt Hill
#
# Bulk Modulus (GPa) = 68.48242 77.28435 72.88339
# Shear Modulus (GPa) = 29.39428 45.38355 37.38892
#
# Velocity S-wave (km/s) = 3.27480 4.06914 3.69339
# Velocity P-wave (km/s) = 6.26773 7.09041 6.69173
#
# Compressibility (1/GPa) = 0.01460229
#
# Stress axis : x y z
#
# Youngs Moduli (GPa) = 100.85131 61.54893 63.29377
#
# Poissons Ratio (x) = 0.36558 0.00111
# Poissons Ratio (y) = 0.59902 0.48880
# Poissons Ratio (z) = 0.00177 0.47532
#
# Static dielectric constant tensor:
#      x y z
#    x 1.843880 0.185010 -0.000360 
#    y 0.185010 2.080440 0.054030 
#    z -0.000360 0.054030 2.147100 
# 
# From -- ./inp_files/378765.got.cif
#   From: 2010.05.17/outbox.cif.g08.bks.cpg/sg2_190_cif.got.tgz:378765.got - 2010.06.03 11:33:40.
