data_PCOD9045571
_publ_section_title
;
Structure prediction by ZEFSAII (Michael W. Deem and Ramdas Pophale) SiO2 
 PCOD9045571
Probable space group: P -1
;
_chemical_formula_sum "Si O2"
_cell_formula_units_Z 15
_cell_length_a 17.983206
_cell_length_b 11.604592
_cell_length_c 12.243078
_cell_angle_alpha 136.496203
_cell_angle_beta 151.094140
_cell_angle_gamma 32.378903
_cell_volume 660.399827
_symmetry_space_group_name_H-M "P -1"
_symmetry_group_IT_number 2
_symmetry_cell_setting 'triclinic'
loop_
_space_group_symop_operation_xyz
x,y,z
-x,-y,-z
loop_
_atom_site_type_symbol
_atom_site_label
_atom_site_fract_x
_atom_site_fract_y
_atom_site_fract_z
Si Si1 0.436663 0.079845 0.786931
Si Si2 0.591191 0.532665 0.885881
Si Si3 0.000000 0.000000 0.500000
Si Si4 0.291958 0.491699 0.520361
Si Si5 0.257501 0.890241 0.547038
Si Si6 0.789297 0.626542 0.876643
Si Si7 0.096765 0.741284 0.066277
Si Si8 0.701574 0.842217 0.582564
O O1 0.337400 0.126204 0.573571
O O2 0.342269 0.009877 0.699243
O O3 0.669906 0.872628 0.929116
O O4 0.407303 0.288150 0.932438
O O5 0.484618 0.469295 0.781869
O O6 0.442754 0.661571 0.680221
O O7 0.799219 0.331333 0.967572
O O8 0.118967 0.743020 0.453446
O O9 0.096458 0.011658 0.518702
O O10 0.339885 0.369707 0.382708
O O11 0.230567 0.390758 0.455960
O O12 0.163617 0.853678 0.300199
O O13 0.820334 0.478138 0.912975
O O14 0.000000 0.500000 0.000000
O O15 0.863808 0.866585 0.843308
O O16 0.500000 0.000000 0.500000
#
# Coordination Sequence:
#
# PCOD9045571 Si02
#       8
#     2   2   1   2   2   2   2   2
#     4  12  27  45  69 106 158 194 235 303 374 437
#     4  11  25  43  74 106 143 188 250 312 359 420
#     4  10  24  40  74 110 134 180 240 310 360 402
#     4  11  24  44  73 105 148 180 245 306 358 430
#     4  11  24  44  74 109 144 181 251 312 361 430
#     4  12  22  40  76 104 138 191 251 304 360 425
#     4  12  24  44  76 104 137 199 251 300 365 428
#     4  12  28  48  72 106 153 197 241 293 373 455
#
# _framework density 22.713512999999999
#
# number of rings (size 3 to 8) (size 9 to 14) (size 15 to 20)
#    0.000    0.533    6.667    1.600    5.600    3.733 
#    0.000    0.000    0.000    0.000    0.000    0.000 
#    0.000    0.000    0.000    0.000    0.000    0.000 
#
# Total GULP energy -83676.340617 kJ/mol
# GULP energy per Si atom -5578.422708 kJ/mol
# Density = 2.266182 g / cm^3
# Si number density = 22.713513 Si / 1000 Ang^3
#
#
#
# Elastic Constant Matrix: (Units=GPa)
#
#
# Indices 1 2 3 4 5 6 
#
# 1 91.4093 14.5832 14.0720 5.5158 10.8606 -17.0500
# 2 14.5832 57.3876 31.1196 19.3353 0.4019 -20.5568
# 3 14.0720 31.1196 90.4573 -1.6422 16.5483 -20.5803
# 4 5.5158 19.3353 -1.6422 20.0136 5.5341 -3.0587
# 5 10.8606 0.4019 16.5483 5.5341 29.9366 -3.3758
# 6 -17.0500 -20.5568 -20.5803 -3.0587 -3.3758 49.5078
#
#
#
# Elastic Compliance Matrix: (Units=1/GPa)
#
#
# Indices 1 2 3 4 5 6 
#
# 1 0.012340 -0.002520 0.000506 0.000806 -0.004516 0.003156
# 2 -0.002520 0.050628 -0.019821 -0.054499 0.022401 0.010075
# 3 0.000506 -0.019821 0.021571 0.025525 -0.016406 0.001370
# 4 0.000806 -0.054499 0.025525 0.113185 -0.035401 -0.007162
# 5 -0.004516 0.022401 -0.016406 -0.035401 0.050601 0.002190
# 6 0.003156 0.010075 0.001370 -0.007162 0.002190 0.025745
#
#
# Mechanical properties :
#
#
# Convention : Reuss Voigt Hill
#
# Bulk Modulus (GPa) = 24.46724 39.86708 32.16716
# Shear Modulus (GPa) = 15.08919 31.85690 23.47304
#
# Velocity S-wave (km/s) = 2.58025 3.74913 3.21820
# Velocity P-wave (km/s) = 4.43536 6.02757 5.29169
#
# Compressibility (1/GPa) = 0.04087098
#
# Stress axis : x y z
#
# Youngs Moduli (GPa) = 81.03419 19.75200 46.35789
#
# Poissons Ratio (x) = 0.04977 -0.02345
# Poissons Ratio (y) = 0.20417 0.91884
# Poissons Ratio (z) = -0.04099 0.39150
#
# Static dielectric constant tensor:
#      x y z
#    x 1.842750 0.028130 0.027380 
#    y 0.028130 1.861770 -0.032860 
#    z 0.027380 -0.032860 1.900140 
# 
# From -- ./inp_files/465158.got.cif
#   From: 2010.05.17/outbox.cif.g08.bks.cpg/sg2_233_cif.got.tgz:465158.got - 2010.06.03 11:33:40.
