data_PCOD9045256
_publ_section_title
;
Structure prediction by ZEFSAII (Michael W. Deem and Ramdas Pophale) SiO2 
 PCOD9045256
Probable space group: P -1
;
_chemical_formula_sum "Si O2"
_cell_formula_units_Z 12
_cell_length_a 23.356967
_cell_length_b 22.654161
_cell_length_c 22.649194
_cell_angle_alpha 13.070902
_cell_angle_beta 12.680062
_cell_angle_gamma 13.074618
_cell_volume 522.487093
_symmetry_space_group_name_H-M "P -1"
_symmetry_group_IT_number 2
_symmetry_cell_setting 'triclinic'
loop_
_space_group_symop_operation_xyz
x,y,z
-x,-y,-z
loop_
_atom_site_type_symbol
_atom_site_label
_atom_site_fract_x
_atom_site_fract_y
_atom_site_fract_z
Si Si1 0.819952 0.346571 0.357663
Si Si2 0.792016 0.617481 0.244907
Si Si3 0.095249 0.023501 0.814855
Si Si4 0.334016 0.197609 0.172573
Si Si5 0.741628 0.364116 0.656838
Si Si6 0.783863 0.657159 0.449739
O O1 0.500000 0.500000 0.500000
O O2 0.793649 0.419421 0.382464
O O3 0.000000 0.000000 0.500000
O O4 0.000000 0.500000 0.000000
O O5 0.634687 0.584316 0.494229
O O6 0.127119 0.487334 0.058318
O O7 0.585392 0.963711 0.104102
O O8 0.960950 0.845831 0.085103
O O9 0.450362 0.864731 0.606252
O O10 0.000000 0.000000 0.000000
O O11 0.954608 0.365448 0.603136
O O12 0.075581 0.140673 0.516687
O O13 0.513766 0.236168 0.008923
O O14 0.756090 0.527114 0.541598
#
# Coordination Sequence:
#
# PCOD9045256 Si02
#       6
#     2   2   2   2   2   2
#     4  12  28  46  73 101 138 181 236 283 341 414
#     4  10  26  42  69  94 138 171 226 279 349 398
#     4  12  26  47  71 103 142 187 230 283 340 403
#     4  10  24  38  67  90 136 167 224 266 360 396
#     4  10  26  40  68  97 135 173 225 280 349 396
#     4  12  26  43  74 100 141 179 238 283 340 413
#
# _framework density 22.967074
#
# number of rings (size 3 to 8) (size 9 to 14) (size 15 to 20)
#    1.000    0.000    0.000    5.000   11.667    0.000 
#    0.000    0.000    0.000    0.000    0.000    0.000 
#    0.000    0.000    0.000    0.000    0.000    0.000 
#
# Total GULP energy -67016.289859 kJ/mol
# GULP energy per Si atom -5584.690822 kJ/mol
# Density = 2.291480 g / cm^3
# Si number density = 22.967074 Si / 1000 Ang^3
#
#
#
# Elastic Constant Matrix: (Units=GPa)
#
#
# Indices 1 2 3 4 5 6 
#
# 1 90.2719 13.0375 -19.6397 4.4323 -12.7519 6.9832
# 2 13.0375 205.5332 53.1842 14.1839 -13.1054 -6.2616
# 3 -19.6397 53.1842 94.3699 -0.5475 -18.1758 -22.2811
# 4 4.4323 14.1839 -0.5475 28.0547 -1.4627 -1.7163
# 5 -12.7519 -13.1054 -18.1758 -1.4627 43.8057 1.9990
# 6 6.9832 -6.2616 -22.2811 -1.7163 1.9990 32.3310
#
#
#
# Elastic Compliance Matrix: (Units=1/GPa)
#
#
# Indices 1 2 3 4 5 6 
#
# 1 0.013113 -0.001627 0.004554 -0.000912 0.005207 -0.000379
# 2 -0.001627 0.006223 -0.004314 -0.003091 -0.000434 -0.001554
# 3 0.004554 -0.004314 0.017733 0.002793 0.007024 0.010116
# 4 -0.000912 -0.003091 0.002793 0.037673 0.001069 0.003457
# 5 0.005207 -0.000434 0.007024 0.001069 0.027072 0.002015
# 6 -0.000379 -0.001554 0.010116 0.003457 0.002015 0.037741
#
#
# Mechanical properties :
#
#
# Convention : Reuss Voigt Hill
#
# Bulk Modulus (GPa) = 29.15884 53.70433 41.43159
# Shear Modulus (GPa) = 32.51777 43.74449 38.13113
#
# Velocity S-wave (km/s) = 3.76685 4.36898 4.07904
# Velocity P-wave (km/s) = 5.62516 6.99175 6.34535
#
# Compressibility (1/GPa) = 0.03429492
#
# Stress axis : x y z
#
# Youngs Moduli (GPa) = 76.26042 160.68812 56.39179
#
# Poissons Ratio (x) = 0.26140 -0.25679
# Poissons Ratio (y) = 0.12406 0.24328
# Poissons Ratio (z) = -0.34727 0.69324
#
# Static dielectric constant tensor:
#      x y z
#    x 1.829210 0.034890 -0.067530 
#    y 0.034890 1.808230 0.049630 
#    z -0.067530 0.049630 1.654410 
# 
# From -- ./inp_files/11785.got.cif
#   From: 2010.05.17/outbox.cif.g08.bks.cpg/sg2_6_cif.got.tgz:11785.got - 2010.06.03 11:33:40.
