data_PCOD9046146
_publ_section_title
;
Structure prediction by ZEFSAII (Michael W. Deem and Ramdas Pophale) SiO2 
 PCOD9046146
Probable space group: P -1
;
_chemical_formula_sum "Si O2"
_cell_formula_units_Z 16
_cell_length_a 13.471169
_cell_length_b 12.138080
_cell_length_c 11.820532
_cell_angle_alpha 82.053864
_cell_angle_beta 32.605463
_cell_angle_gamma 60.398802
_cell_volume 729.117000
_symmetry_space_group_name_H-M "P -1"
_symmetry_group_IT_number 2
_symmetry_cell_setting 'triclinic'
loop_
_space_group_symop_operation_xyz
x,y,z
-x,-y,-z
loop_
_atom_site_type_symbol
_atom_site_label
_atom_site_fract_x
_atom_site_fract_y
_atom_site_fract_z
Si Si1 0.777522 0.393606 0.808145
Si Si2 0.794396 0.335509 0.258012
Si Si3 0.490789 0.887853 0.787667
Si Si4 0.965997 0.021962 0.163581
Si Si5 0.950132 0.777586 0.217599
Si Si6 0.145660 0.822465 0.397767
Si Si7 0.285085 0.338132 0.178231
Si Si8 0.111915 0.233779 0.176823
O O1 0.804704 0.361178 0.919155
O O2 0.928434 0.227525 0.628201
O O3 0.865192 0.480581 0.681672
O O4 0.500000 0.500000 0.000000
O O5 0.500000 0.500000 0.500000
O O6 0.949506 0.335054 0.207013
O O7 0.961973 0.271393 0.989692
O O8 0.795282 0.205611 0.315495
O O9 0.604937 0.775063 0.802534
O O10 0.709737 0.808488 0.492126
O O11 0.242571 0.927765 0.971202
O O12 0.375600 0.056762 0.912342
O O13 0.875145 0.937634 0.293477
O O14 0.000000 0.000000 0.000000
O O15 0.053754 0.790032 0.596243
O O16 0.448285 0.724895 0.124377
O O17 0.000000 0.000000 0.500000
O O18 0.160832 0.311355 0.207254
#
# Coordination Sequence:
#
# PCOD9046146 Si02
#       8
#     2   2   2   2   2   2   2   2
#     4  10  24  42  68 102 142 183 222 280 352 414
#     4  10  25  47  70  99 135 182 236 286 347 410
#     4  11  23  41  71 105 138 175 237 286 342 419
#     4   9  21  43  70  94 128 181 225 279 336 405
#     4  11  24  45  71  97 137 182 234 283 342 415
#     4  11  23  41  73 102 140 179 226 281 349 413
#     4  11  24  44  68 106 145 179 225 287 356 414
#     4  11  25  42  71 103 138 185 233 288 346 419
#
# _framework density 21.944353
#
# number of rings (size 3 to 8) (size 9 to 14) (size 15 to 20)
#    0.000    1.500    1.250    2.625    7.000    6.500 
#    4.500    1.875    0.000    0.000    0.000    0.000 
#    0.000    0.000    0.000    0.000    0.000    0.000 
#
# Total GULP energy -89357.578789 kJ/mol
# GULP energy per Si atom -5584.848674 kJ/mol
# Density = 2.189441 g / cm^3
# Si number density = 21.944353 Si / 1000 Ang^3
#
#
#
# Elastic Constant Matrix: (Units=GPa)
#
#
# Indices 1 2 3 4 5 6 
#
# 1 178.0950 82.7263 37.3214 1.2064 7.3653 -5.8996
# 2 82.7263 125.3326 38.6737 0.3557 -9.5310 -3.8192
# 3 37.3214 38.6737 91.4396 -8.4778 -2.0972 -7.3270
# 4 1.2064 0.3557 -8.4778 43.5923 -4.2075 -1.7418
# 5 7.3653 -9.5310 -2.0972 -4.2075 27.8146 -1.5385
# 6 -5.8996 -3.8192 -7.3270 -1.7418 -1.5385 45.0888
#
#
#
# Elastic Compliance Matrix: (Units=1/GPa)
#
#
# Indices 1 2 3 4 5 6 
#
# 1 0.008733 -0.005687 -0.001322 -0.000874 -0.004479 0.000260
# 2 -0.005687 0.013128 -0.003093 0.000009 0.005776 0.000063
# 3 -0.001322 -0.003093 0.013209 0.002783 0.000809 0.001847
# 4 -0.000874 0.000009 0.002783 0.023961 0.004147 0.001406
# 5 -0.004479 0.005776 0.000809 0.004147 0.039892 0.001556
# 6 0.000260 0.000063 0.001847 0.001406 0.001556 0.022625
#
#
# Mechanical properties :
#
#
# Convention : Reuss Voigt Hill
#
# Bulk Modulus (GPa) = 67.26921 79.14557 73.20739
# Shear Modulus (GPa) = 34.08146 39.04220 36.56183
#
# Velocity S-wave (km/s) = 3.94520 4.22257 4.08624
# Velocity P-wave (km/s) = 7.17452 7.74069 7.46297
#
# Compressibility (1/GPa) = 0.01486564
#
# Stress axis : x y z
#
# Youngs Moduli (GPa) = 114.50397 76.17452 75.70838
#
# Poissons Ratio (x) = 0.43318 0.10012
# Poissons Ratio (y) = 0.65114 0.23416
# Poissons Ratio (z) = 0.15142 0.23561
#
# Static dielectric constant tensor:
#      x y z
#    x 1.767650 0.001760 -0.068710 
#    y 0.001760 1.808880 -0.041670 
#    z -0.068710 -0.041670 1.645010 
# 
# From -- ./inp_files/454712.got.cif
#   From: 2010.05.17/outbox.cif.g08.bks.cpg/sg2_228_cif.got.tgz:454712.got - 2010.06.03 11:33:40.
