data_PCOD9046735
_publ_section_title
;
Structure prediction by ZEFSAII (Michael W. Deem and Ramdas Pophale) SiO2 
 PCOD9046735
Probable space group: P -1
;
_chemical_formula_sum "Si O2"
_cell_formula_units_Z 16
_cell_length_a 17.797762
_cell_length_b 9.137007
_cell_length_c 11.903863
_cell_angle_alpha 100.290997
_cell_angle_beta 139.581462
_cell_angle_gamma 111.722720
_cell_volume 751.723740
_symmetry_space_group_name_H-M "P -1"
_symmetry_group_IT_number 2
_symmetry_cell_setting 'triclinic'
loop_
_space_group_symop_operation_xyz
x,y,z
-x,-y,-z
loop_
_atom_site_type_symbol
_atom_site_label
_atom_site_fract_x
_atom_site_fract_y
_atom_site_fract_z
Si Si1 0.727656 0.985943 0.100694
Si Si2 0.143738 0.357592 0.673721
Si Si3 0.173899 0.376116 0.976722
Si Si4 0.187243 0.874935 0.381122
Si Si5 0.296659 0.217373 0.731975
Si Si6 0.587894 0.926705 0.562317
Si Si7 0.327891 0.244665 0.204283
Si Si8 0.522245 0.068044 0.906476
O O1 0.955594 0.236255 0.387182
O O2 0.696147 0.902132 0.181130
O O3 0.622334 0.029818 0.957153
O O4 0.647888 0.775435 0.900866
O O5 0.117898 0.319404 0.773894
O O6 0.163676 0.214814 0.623775
O O7 0.333421 0.646914 0.906145
O O8 0.038152 0.353888 0.884424
O O9 0.394926 0.645511 0.266712
O O10 0.166126 0.207322 0.006661
O O11 0.244964 0.090091 0.537162
O O12 0.260973 0.928472 0.346886
O O13 0.315074 0.887905 0.596154
O O14 0.500000 0.500000 0.000000
O O15 0.685574 0.928573 0.772705
O O16 0.500000 0.000000 0.500000
O O17 0.500000 0.500000 0.500000
O O18 0.500000 0.000000 0.000000
#
# Coordination Sequence:
#
# PCOD9046735 Si02
#       8
#     2   2   2   2   2   2   2   2
#     4  12  23  40  68  99 133 179 229 273 351 409
#     4  12  22  41  68 101 141 178 215 293 356 401
#     4  11  22  44  71  99 132 176 231 282 340 406
#     4  12  24  41  72  97 135 176 232 279 338 411
#     4  12  21  37  65  98 133 172 217 278 343 398
#     4  11  25  48  70  93 138 184 226 279 340 401
#     4  10  24  43  67  95 132 184 230 275 325 403
#     4  12  23  41  60 104 141 172 220 279 354 414
#
# _framework density 21.284414000000002
#
# number of rings (size 3 to 8) (size 9 to 14) (size 15 to 20)
#    0.000    0.500    6.250    2.250    1.750    1.000 
#    0.000    0.000    0.000    0.000    0.000    0.000 
#    0.000    0.000    0.000    0.000    0.000    0.000 
#
# Total GULP energy -89288.203867 kJ/mol
# GULP energy per Si atom -5580.512742 kJ/mol
# Density = 2.123597 g / cm^3
# Si number density = 21.284414 Si / 1000 Ang^3
#
#
#
# Elastic Constant Matrix: (Units=GPa)
#
#
# Indices 1 2 3 4 5 6 
#
# 1 127.0287 32.4846 21.8383 -21.6847 11.5451 -5.4285
# 2 32.4846 86.1846 11.6187 -24.9589 7.4710 -5.8673
# 3 21.8383 11.6187 74.6203 -20.9336 13.0366 -1.1497
# 4 -21.6847 -24.9589 -20.9336 39.0644 -9.2608 8.1140
# 5 11.5451 7.4710 13.0366 -9.2608 41.9891 -5.3093
# 6 -5.4285 -5.8673 -1.1497 8.1140 -5.3093 43.9608
#
#
#
# Elastic Compliance Matrix: (Units=1/GPa)
#
#
# Indices 1 2 3 4 5 6 
#
# 1 0.009287 -0.002473 -0.001436 0.002509 -0.001091 0.000184
# 2 -0.002473 0.014923 0.000852 0.008516 -0.000350 0.000095
# 3 -0.001436 0.000852 0.016523 0.008141 -0.003285 -0.001531
# 4 0.002509 0.008516 0.008141 0.038594 0.003137 -0.005085
# 5 -0.001091 -0.000350 -0.003285 0.003137 0.026182 0.002316
# 6 0.000184 0.000095 -0.001531 -0.005085 0.002316 0.023961
#
#
# Mechanical properties :
#
#
# Convention : Reuss Voigt Hill
#
# Bulk Modulus (GPa) = 28.88616 46.63521 37.76068
# Shear Modulus (GPa) = 33.98483 39.79565 36.89024
#
# Velocity S-wave (km/s) = 4.00021 4.32870 4.16769
# Velocity P-wave (km/s) = 5.91071 6.85140 6.39837
#
# Compressibility (1/GPa) = 0.03461865
#
# Stress axis : x y z
#
# Youngs Moduli (GPa) = 107.67990 67.00956 60.52271
#
# Poissons Ratio (x) = 0.16573 0.08688
# Poissons Ratio (y) = 0.26631 -0.05154
# Poissons Ratio (z) = 0.15458 -0.05707
#
# Static dielectric constant tensor:
#      x y z
#    x 1.815650 -0.031570 0.008810 
#    y -0.031570 1.800490 0.009250 
#    z 0.008810 0.009250 1.803950 
# 
# From -- ./inp_files/258140.got.cif
#   From: 2010.05.17/outbox.cif.g08.bks.cpg/sg2_130_cif.got.tgz:258140.got - 2010.06.03 11:33:40.
