data_PCOD9046431
_publ_section_title
;
Structure prediction by ZEFSAII (Michael W. Deem and Ramdas Pophale) SiO2 
 PCOD9046431
Probable space group: P -1
;
_chemical_formula_sum "Si O2"
_cell_formula_units_Z 9
_cell_length_a 7.900125
_cell_length_b 5.343277
_cell_length_c 9.042882
_cell_angle_alpha 108.511871
_cell_angle_beta 50.306650
_cell_angle_gamma 98.111736
_cell_volume 277.531095
_symmetry_space_group_name_H-M "P -1"
_symmetry_group_IT_number 2
_symmetry_cell_setting 'triclinic'
loop_
_space_group_symop_operation_xyz
x,y,z
-x,-y,-z
loop_
_atom_site_type_symbol
_atom_site_label
_atom_site_fract_x
_atom_site_fract_y
_atom_site_fract_z
Si Si1 0.283540 0.224776 0.044901
Si Si2 0.500000 0.500000 0.500000
Si Si3 0.189602 0.668401 0.979608
Si Si4 0.892861 0.776530 0.550881
Si Si5 0.616702 0.005975 0.564378
O O1 0.233205 0.536760 0.093087
O O2 0.461274 0.141065 0.803925
O O3 0.125551 0.981656 0.068206
O O4 0.300720 0.183597 0.203134
O O5 0.377378 0.581545 0.743765
O O6 0.587793 0.174766 0.458484
O O7 0.000000 0.500000 0.000000
O O8 0.000000 0.500000 0.500000
O O9 0.131883 0.935047 0.489537
O O10 0.731122 0.692137 0.475517
#
# Coordination Sequence:
#
# PCOD9046431 Si02
#       5
#     2   1   2   2   2
#     4  11  25  46  72 107 146 199 250 311 383 455
#     4  10  24  42  72 110 148 198 254 310 380 454
#     4  11  24  42  73 110 152 194 255 315 382 458
#     4  12  30  48  75 111 156 197 254 320 390 452
#     4  11  25  48  75 107 148 202 257 306 384 464
#
# _framework density 32.428797000000003
#
# number of rings (size 3 to 8) (size 9 to 14) (size 15 to 20)
#    0.000    0.889    2.222    2.667    9.333    1.778 
#    0.000    5.556    0.000    0.000    0.000    0.000 
#    0.000    0.000    0.000    0.000    0.000    0.000 
#
# Total GULP energy -50183.739784 kJ/mol
# GULP energy per Si atom -5575.971087 kJ/mol
# Density = 3.235499 g / cm^3
# Si number density = 32.428797 Si / 1000 Ang^3
#
#
#
# Elastic Constant Matrix: (Units=GPa)
#
#
# Indices 1 2 3 4 5 6 
#
# 1 278.6311 119.6125 63.6836 -18.4859 38.4711 -35.5858
# 2 119.6125 362.1301 50.3892 -51.5898 9.9917 -0.8948
# 3 63.6836 50.3892 204.8980 -39.8485 19.7855 -16.0621
# 4 -18.4859 -51.5898 -39.8485 70.8781 -2.6854 18.3504
# 5 38.4711 9.9917 19.7855 -2.6854 66.6695 -18.6170
# 6 -35.5858 -0.8948 -16.0621 18.3504 -18.6170 112.4047
#
#
#
# Elastic Compliance Matrix: (Units=1/GPa)
#
#
# Indices 1 2 3 4 5 6 
#
# 1 0.004838 -0.001513 -0.001001 -0.000782 -0.001970 0.001178
# 2 -0.001513 0.003604 -0.000027 0.002432 0.000211 -0.000816
# 3 -0.001001 -0.000027 0.005879 0.003022 -0.001083 -0.000150
# 4 -0.000782 0.002432 0.003022 0.018091 -0.000891 -0.002897
# 5 -0.001970 0.000211 -0.001083 -0.000891 0.017000 0.002184
# 6 0.001178 -0.000816 -0.000150 -0.002897 0.002184 0.010076
#
#
# Mechanical properties :
#
#
# Convention : Reuss Voigt Hill
#
# Bulk Modulus (GPa) = 108.24843 145.89222 127.07033
# Shear Modulus (GPa) = 73.91128 90.78870 82.34999
#
# Velocity S-wave (km/s) = 4.77926 5.29690 5.04472
# Velocity P-wave (km/s) = 7.99424 9.08271 8.55580
#
# Compressibility (1/GPa) = 0.00923801
#
# Stress axis : x y z
#
# Youngs Moduli (GPa) = 206.70648 277.50196 170.10058
#
# Poissons Ratio (x) = 0.41978 0.17027
# Poissons Ratio (y) = 0.31269 0.00465
# Poissons Ratio (z) = 0.20692 0.00759
#
# Static dielectric constant tensor:
#      x y z
#    x 3.411140 0.271840 -0.178570 
#    y 0.271840 2.967940 0.224610 
#    z -0.178570 0.224610 2.428140 
# 
# From -- ./inp_files/20678.got.cif
#   From: 2010.05.17/outbox.cif.g08.bks.cpg/sg2_11_cif.got.tgz:20678.got - 2010.06.03 11:33:40.
