data_PCOD9046537
_publ_section_title
;
Structure prediction by ZEFSAII (Michael W. Deem and Ramdas Pophale) SiO2 
 PCOD9046537
Probable space group: P -1
;
_chemical_formula_sum "Si O2"
_cell_formula_units_Z 16
_cell_length_a 9.056358
_cell_length_b 8.548212
_cell_length_c 24.199548
_cell_angle_alpha 50.270876
_cell_angle_beta 28.343757
_cell_angle_gamma 49.947791
_cell_volume 667.012641
_symmetry_space_group_name_H-M "P -1"
_symmetry_group_IT_number 2
_symmetry_cell_setting 'triclinic'
loop_
_space_group_symop_operation_xyz
x,y,z
-x,-y,-z
loop_
_atom_site_type_symbol
_atom_site_label
_atom_site_fract_x
_atom_site_fract_y
_atom_site_fract_z
Si Si1 0.960262 0.751222 0.732923
Si Si2 0.483738 0.528929 0.688383
Si Si3 0.878539 0.727226 0.961974
Si Si4 0.626726 0.417414 0.916367
Si Si5 0.967506 0.276364 0.498882
Si Si6 0.617002 0.164001 0.813435
Si Si7 0.766936 0.188628 0.479037
Si Si8 0.885020 0.890738 0.239720
O O1 0.141915 0.632132 0.753006
O O2 0.236729 0.748251 0.597435
O O3 0.712009 0.627573 0.816355
O O4 0.773382 0.975723 0.764360
O O5 0.694830 0.400597 0.599310
O O6 0.495862 0.370762 0.770663
O O7 0.691852 0.693033 0.600247
O O8 0.636122 0.681129 0.005317
O O9 0.677619 0.866385 0.045400
O O10 0.109165 0.868260 0.830370
O O11 0.000000 0.500000 0.000000
O O12 0.958850 0.249548 0.832474
O O13 0.500000 0.500000 0.000000
O O14 0.899266 0.338091 0.443696
O O15 0.980168 0.032379 0.555139
O O16 0.879989 0.178444 0.769820
O O17 0.447018 0.152927 0.620747
#
# Coordination Sequence:
#
# PCOD9046537 Si02
#       8
#     2   2   2   2   2   2   2   2
#     4  12  26  46  75 110 146 192 238 294 362 421
#     4  11  25  43  72 103 144 192 242 283 355 435
#     4  11  27  49  77 106 138 194 242 298 362 426
#     4  11  25  47  73 102 145 186 240 303 351 422
#     4  10  24  43  63 104 150 185 241 287 350 429
#     4  11  25  46  74 105 143 188 242 294 355 430
#     4  11  25  43  72 105 152 187 232 302 360 415
#     4  11  25  47  73 103 145 192 241 293 362 430
#
# _framework density 23.987552999999998
#
# number of rings (size 3 to 8) (size 9 to 14) (size 15 to 20)
#    0.000    1.000    1.250    4.500   12.250    3.000 
#    2.250    1.250    0.000    0.000    0.000    0.000 
#    0.000    0.000    0.000    0.000    0.000    0.000 
#
# Total GULP energy -89461.029735 kJ/mol
# GULP energy per Si atom -5591.314358 kJ/mol
# Density = 2.393296 g / cm^3
# Si number density = 23.987553 Si / 1000 Ang^3
#
#
#
# Elastic Constant Matrix: (Units=GPa)
#
#
# Indices 1 2 3 4 5 6 
#
# 1 72.6022 30.2793 37.9519 -2.4450 25.8375 4.1262
# 2 30.2793 71.9747 26.3969 4.5519 21.0184 7.1657
# 3 37.9519 26.3969 128.6222 17.1410 22.2905 14.6570
# 4 -2.4450 4.5519 17.1410 38.5672 6.4070 9.7378
# 5 25.8375 21.0184 22.2905 6.4070 31.0027 2.5329
# 6 4.1262 7.1657 14.6570 9.7378 2.5329 47.7370
#
#
#
# Elastic Compliance Matrix: (Units=1/GPa)
#
#
# Indices 1 2 3 4 5 6 
#
# 1 0.023262 -0.004284 -0.004223 0.006458 -0.014731 -0.000607
# 2 -0.004284 0.018605 -0.000908 -0.000285 -0.008197 -0.001651
# 3 -0.004223 -0.000908 0.010335 -0.003924 -0.002342 -0.001747
# 4 0.006458 -0.000285 -0.003924 0.030797 -0.008311 -0.005152
# 5 -0.014731 -0.008197 -0.002342 -0.008311 0.053320 0.002089
# 6 -0.000607 -0.001651 -0.001747 -0.005152 0.002089 0.022725
#
#
# Mechanical properties :
#
#
# Convention : Reuss Voigt Hill
#
# Bulk Modulus (GPa) = 29.96424 51.38393 40.67409
# Shear Modulus (GPa) = 26.45540 35.36610 30.91075
#
# Velocity S-wave (km/s) = 3.32457 3.84390 3.59362
# Velocity P-wave (km/s) = 5.22070 6.41625 5.84910
#
# Compressibility (1/GPa) = 0.03337311
#
# Stress axis : x y z
#
# Youngs Moduli (GPa) = 42.98812 53.74962 96.75836
#
# Poissons Ratio (x) = 0.23024 0.40864
# Poissons Ratio (y) = 0.18414 0.08782
# Poissons Ratio (z) = 0.18155 0.04878
#
# Static dielectric constant tensor:
#      x y z
#    x 1.961220 -0.013060 0.038290 
#    y -0.013060 1.939280 -0.012680 
#    z 0.038290 -0.012680 1.939980 
# 
# From -- ./inp_files/606649.got.cif
#   From: 2010.05.17/outbox.cif.g08.bks.cpg/sg2_304_cif.got.tgz:606649.got - 2010.06.03 11:33:40.
