data_PCOD9046031
_publ_section_title
;
Structure prediction by ZEFSAII (Michael W. Deem and Ramdas Pophale) SiO2 
 PCOD9046031
Probable space group: P -1
;
_chemical_formula_sum "Si O2"
_cell_formula_units_Z 14
_cell_length_a 7.458351
_cell_length_b 19.393026
_cell_length_c 6.868487
_cell_angle_alpha 54.025243
_cell_angle_beta 40.194168
_cell_angle_gamma 57.492924
_cell_volume 511.337984
_symmetry_space_group_name_H-M "P -1"
_symmetry_group_IT_number 2
_symmetry_cell_setting 'triclinic'
loop_
_space_group_symop_operation_xyz
x,y,z
-x,-y,-z
loop_
_atom_site_type_symbol
_atom_site_label
_atom_site_fract_x
_atom_site_fract_y
_atom_site_fract_z
Si Si1 0.241322 0.216455 0.693537
Si Si2 0.627256 0.045105 0.549936
Si Si3 0.635667 0.298275 0.999291
Si Si4 0.150306 0.532546 0.544218
Si Si5 0.815139 0.054468 0.829968
Si Si6 0.746184 0.420014 0.185388
Si Si7 0.646773 0.243331 0.645539
O O1 0.403378 0.133120 0.580760
O O2 0.384324 0.219035 0.781970
O O3 0.906164 0.226072 0.953682
O O4 0.353832 0.294477 0.358824
O O5 0.731374 0.046542 0.685536
O O6 0.916122 0.019468 0.237320
O O7 0.456149 0.966358 0.798205
O O8 0.753022 0.386991 0.778045
O O9 0.567074 0.282859 0.857098
O O10 0.417564 0.456422 0.426660
O O11 0.121642 0.568992 0.729484
O O12 0.884606 0.483477 0.823958
O O13 0.855018 0.152998 0.656349
O O14 0.774086 0.317402 0.300192
#
# Coordination Sequence:
#
# PCOD9046031 Si02
#       7
#     2   2   2   2   2   2   2
#     4  11  24  42  64  92 125 163 205 253 306 364
#     4   9  18  35  57  84 120 156 196 246 302 357
#     4  11  24  42  64  92 125 163 205 253 306 364
#     4   9  18  35  57  84 120 156 196 246 302 357
#     4   9  18  34  59  85 115 159 198 243 303 357
#     4   9  18  34  59  85 115 159 198 243 303 357
#     4  10  24  42  66  92 124 162 208 254 304 364
#
# _framework density 27.379154
#
# number of rings (size 3 to 8) (size 9 to 14) (size 15 to 20)
#    0.000    2.286    0.000    1.714    0.000   11.429 
#    0.000    8.571    0.000    0.000    0.000    0.000 
#    0.000    0.000    0.000    0.000    0.000    0.000 
#
# Total GULP energy -78395.034053 kJ/mol
# GULP energy per Si atom -5599.645289 kJ/mol
# Density = 2.731684 g / cm^3
# Si number density = 27.379154 Si / 1000 Ang^3
#
#
#
# Elastic Constant Matrix: (Units=GPa)
#
#
# Indices 1 2 3 4 5 6 
#
# 1 97.7821 9.7741 -8.3679 5.9886 4.0458 12.2381
# 2 9.7741 147.6153 26.5086 -17.6941 -17.2920 7.7157
# 3 -8.3679 26.5086 104.8966 -0.6061 -9.7740 7.2915
# 4 5.9886 -17.6941 -0.6061 40.5808 -5.1325 -2.2210
# 5 4.0458 -17.2920 -9.7740 -5.1325 23.6820 3.7198
# 6 12.2381 7.7157 7.2915 -2.2210 3.7198 31.3790
#
#
#
# Elastic Compliance Matrix: (Units=1/GPa)
#
#
# Indices 1 2 3 4 5 6 
#
# 1 0.011276 -0.001359 0.001311 -0.002763 -0.002302 -0.004291
# 2 -0.001359 0.008641 -0.001466 0.004766 0.007248 -0.001776
# 3 0.001311 -0.001466 0.010538 -0.000406 0.003444 -0.003036
# 4 -0.002763 0.004766 -0.000406 0.028409 0.009808 0.000848
# 5 -0.002302 0.007248 0.003444 0.009808 0.052594 -0.007225
# 6 -0.004291 -0.001776 -0.003036 0.000848 -0.007225 0.035601
#
#
# Mechanical properties :
#
#
# Convention : Reuss Voigt Hill
#
# Bulk Modulus (GPa) = 36.45957 45.12486 40.79221
# Shear Modulus (GPa) = 31.40154 40.62030 36.01092
#
# Velocity S-wave (km/s) = 3.39029 3.85596 3.63060
# Velocity P-wave (km/s) = 5.35452 6.02842 5.70143
#
# Compressibility (1/GPa) = 0.02742764
#
# Stress axis : x y z
#
# Youngs Moduli (GPa) = 88.68149 115.73185 94.89682
#
# Poissons Ratio (x) = 0.15723 -0.12438
# Poissons Ratio (y) = 0.12048 0.13908
# Poissons Ratio (z) = -0.11623 0.16962
#
# Static dielectric constant tensor:
#      x y z
#    x 2.186460 -0.017310 0.075630 
#    y -0.017310 2.141480 -0.062110 
#    z 0.075630 -0.062110 2.061540 
# 
# From -- ./inp_files/223113.got.cif
#   From: 2010.05.17/outbox.cif.g08.bks.cpg/sg2_112_cif.got.tgz:223113.got - 2010.06.03 11:33:40.
