data_PCOD9046609
_publ_section_title
;
Structure prediction by ZEFSAII (Michael W. Deem and Ramdas Pophale) SiO2 
 PCOD9046609
Probable space group: P -1
;
_chemical_formula_sum "Si O2"
_cell_formula_units_Z 16
_cell_length_a 5.034405
_cell_length_b 13.330196
_cell_length_c 12.631054
_cell_angle_alpha 75.139735
_cell_angle_beta 101.825960
_cell_angle_gamma 123.989095
_cell_volume 677.321774
_symmetry_space_group_name_H-M "P -1"
_symmetry_group_IT_number 2
_symmetry_cell_setting 'triclinic'
loop_
_space_group_symop_operation_xyz
x,y,z
-x,-y,-z
loop_
_atom_site_type_symbol
_atom_site_label
_atom_site_fract_x
_atom_site_fract_y
_atom_site_fract_z
Si Si1 0.193744 0.438825 0.064936
Si Si2 0.714456 0.228918 0.573565
Si Si3 0.195267 0.382155 0.312655
Si Si4 0.198963 0.836654 0.969961
Si Si5 0.530505 0.819270 0.208896
Si Si6 0.460851 0.211662 0.345232
Si Si7 0.798537 0.947421 0.845511
Si Si8 0.471037 0.374428 0.611754
O O1 0.294890 0.451697 0.190762
O O2 0.500000 0.500000 0.000000
O O3 0.000000 0.500000 0.000000
O O4 0.974580 0.293854 0.066198
O O5 0.568084 0.154512 0.690861
O O6 0.519181 0.158685 0.471981
O O7 0.666055 0.343807 0.552697
O O8 0.092565 0.287365 0.580285
O O9 0.251621 0.270513 0.338440
O O10 0.396094 0.485047 0.389655
O O11 0.818267 0.324116 0.314558
O O12 0.317252 0.819380 0.096943
O O13 0.504962 0.928764 0.896999
O O14 0.952281 0.881251 0.939451
O O15 0.479923 0.686733 0.261616
O O16 0.900995 0.916946 0.187772
O O17 0.324567 0.120944 0.259110
#
# Coordination Sequence:
#
# PCOD9046609 Si02
#       8
#     2   2   2   2   2   2   2   2
#     4  12  24  39  66  98 133 175 207 264 331 392
#     4  10  25  43  66 101 128 178 225 269 335 380
#     4  12  24  43  67  97 139 170 221 272 331 397
#     4  12  25  44  68 102 131 174 222 267 338 393
#     4  10  27  44  70  96 136 170 231 270 331 386
#     4  12  24  45  67  98 136 175 222 272 329 398
#     4  12  25  45  69  99 133 177 219 275 329 395
#     4  10  24  43  65  99 127 176 219 273 331 381
#
# _framework density 23.622450000000001
#
# number of rings (size 3 to 8) (size 9 to 14) (size 15 to 20)
#    0.750    0.000    2.500    4.500    5.250    3.500 
#    0.000    0.625    0.000    0.000    0.000    0.000 
#    0.000    0.000    0.000    0.000    0.000    0.000 
#
# Total GULP energy -89599.038518 kJ/mol
# GULP energy per Si atom -5599.939907 kJ/mol
# Density = 2.356868 g / cm^3
# Si number density = 23.622450 Si / 1000 Ang^3
#
#
#
# Elastic Constant Matrix: (Units=GPa)
#
#
# Indices 1 2 3 4 5 6 
#
# 1 106.8726 -10.6385 7.3801 2.9482 3.0831 5.5720
# 2 -10.6385 39.7413 3.6561 10.7294 3.7452 0.4087
# 3 7.3801 3.6561 152.9913 30.3891 -11.4651 5.8017
# 4 2.9482 10.7294 30.3891 37.0191 8.4106 0.6823
# 5 3.0831 3.7452 -11.4651 8.4106 29.0751 -6.1569
# 6 5.5720 0.4087 5.8017 0.6823 -6.1569 32.8412
#
#
#
# Elastic Compliance Matrix: (Units=1/GPa)
#
#
# Indices 1 2 3 4 5 6 
#
# 1 0.009874 0.003112 -0.000432 -0.000895 -0.001772 -0.001951
# 2 0.003112 0.028452 0.000882 -0.008902 -0.001305 -0.001097
# 3 -0.000432 0.000882 0.008708 -0.008692 0.005838 -0.000201
# 4 -0.000895 -0.008902 -0.008692 0.040040 -0.014124 -0.001682
# 5 -0.001772 -0.001305 0.005838 -0.014124 0.042745 0.007593
# 6 -0.001951 -0.001097 -0.000201 -0.001682 0.007593 0.032288
#
#
# Mechanical properties :
#
#
# Convention : Reuss Voigt Hill
#
# Bulk Modulus (GPa) = 18.46456 33.37786 25.92121
# Shear Modulus (GPa) = 28.89585 39.73426 34.31506
#
# Velocity S-wave (km/s) = 3.50127 4.10574 3.81549
# Velocity P-wave (km/s) = 4.91719 6.05281 5.51431
#
# Compressibility (1/GPa) = 0.05415781
#
# Stress axis : x y z
#
# Youngs Moduli (GPa) = 101.27545 35.14687 114.84142
#
# Poissons Ratio (x) = -0.10937 0.04957
# Poissons Ratio (y) = -0.31514 -0.10129
# Poissons Ratio (z) = 0.04372 -0.03100
#
# Static dielectric constant tensor:
#      x y z
#    x 1.838900 -0.036760 0.002430 
#    y -0.036760 1.781870 -0.028560 
#    z 0.002430 -0.028560 1.926780 
# 
# From -- ./inp_files/483898.got.cif
#   From: 2010.05.17/outbox.cif.g08.bks.cpg/sg2_242_cif.got.tgz:483898.got - 2010.06.03 11:33:40.
