data_PCOD9046318
_publ_section_title
;
Structure prediction by ZEFSAII (Michael W. Deem and Ramdas Pophale) SiO2 
 PCOD9046318
Probable space group: P -1
;
_chemical_formula_sum "Si O2"
_cell_formula_units_Z 16
_cell_length_a 28.971782
_cell_length_b 12.161241
_cell_length_c 17.946517
_cell_angle_alpha 160.325297
_cell_angle_beta 159.892255
_cell_angle_gamma 29.651995
_cell_volume 725.557704
_symmetry_space_group_name_H-M "P -1"
_symmetry_group_IT_number 2
_symmetry_cell_setting 'triclinic'
loop_
_space_group_symop_operation_xyz
x,y,z
-x,-y,-z
loop_
_atom_site_type_symbol
_atom_site_label
_atom_site_fract_x
_atom_site_fract_y
_atom_site_fract_z
Si Si1 0.779320 0.103372 0.839093
Si Si2 0.934154 0.794464 0.127703
Si Si3 0.249454 0.777767 0.967270
Si Si4 0.493767 0.155393 0.228217
Si Si5 0.407850 0.379163 0.852366
Si Si6 0.935870 0.925403 0.774181
Si Si7 0.200845 0.169853 0.731321
Si Si8 0.771781 0.290871 0.659517
O O1 0.719129 0.825465 0.513083
O O2 0.702456 0.127553 0.816022
O O3 0.784797 0.449486 0.026039
O O4 0.930322 0.049010 0.057379
O O5 0.829657 0.946691 0.012923
O O6 0.844709 0.640554 0.963567
O O7 0.067039 0.063700 0.510345
O O8 0.000000 0.500000 0.000000
O O9 0.366510 0.681866 0.029979
O O10 0.146109 0.435196 0.592004
O O11 0.500000 0.500000 0.500000
O O12 0.610447 0.227624 0.387893
O O13 0.531096 0.869018 0.156838
O O14 0.339732 0.078657 0.918398
O O15 0.500000 0.500000 0.000000
O O16 0.839816 0.190570 0.774629
O O17 0.000000 0.000000 0.000000
O O18 0.189188 0.971159 0.509076
#
# Coordination Sequence:
#
# PCOD9046318 Si02
#       8
#     2   2   2   2   2   2   2   2
#     4  12  22  43  76 101 138 185 234 290 355 421
#     4  10  24  42  70 109 141 170 237 300 350 415
#     4  12  24  45  74 103 138 187 235 290 357 418
#     4  12  25  44  67  93 141 187 231 280 350 423
#     4  12  29  48  68 107 142 182 244 296 347 422
#     4  12  22  41  73 104 136 176 236 289 347 422
#     4  11  22  42  72 100 135 186 231 290 350 418
#     4  11  24  44  67 103 136 182 236 283 352 425
#
# _framework density 22.052002999999999
#
# number of rings (size 3 to 8) (size 9 to 14) (size 15 to 20)
#    0.000    0.500    6.250    2.250    1.750    3.500 
#    0.000    1.250    0.000    0.000    0.000    0.000 
#    0.000    0.000    0.000    0.000    0.000    0.000 
#
# Total GULP energy -89445.089042 kJ/mol
# GULP energy per Si atom -5590.318065 kJ/mol
# Density = 2.200181 g / cm^3
# Si number density = 22.052003 Si / 1000 Ang^3
#
#
#
# Elastic Constant Matrix: (Units=GPa)
#
#
# Indices 1 2 3 4 5 6 
#
# 1 101.9458 27.4022 21.8245 2.9386 10.2479 4.6399
# 2 27.4022 126.2950 15.9969 -4.1168 11.5752 14.3700
# 3 21.8245 15.9969 36.9148 -14.1564 13.2349 12.4749
# 4 2.9386 -4.1168 -14.1564 34.2660 -0.6943 -3.4897
# 5 10.2479 11.5752 13.2349 -0.6943 48.0047 1.9716
# 6 4.6399 14.3700 12.4749 -3.4897 1.9716 35.3309
#
#
#
# Elastic Compliance Matrix: (Units=1/GPa)
#
#
# Indices 1 2 3 4 5 6 
#
# 1 0.012276 -0.001911 -0.008946 -0.004787 0.000162 0.001842
# 2 -0.001911 0.008937 -0.001131 0.000452 -0.001311 -0.002867
# 3 -0.008946 -0.001131 0.048237 0.019033 -0.010310 -0.012942
# 4 -0.004787 0.000452 0.019033 0.037192 -0.003698 -0.002395
# 5 0.000162 -0.001311 -0.010310 -0.003698 0.023801 0.002459
# 6 0.001842 -0.002867 -0.012942 -0.002395 0.002459 0.033424
#
#
# Mechanical properties :
#
#
# Convention : Reuss Voigt Hill
#
# Bulk Modulus (GPa) = 21.99033 43.95583 32.97308
# Shear Modulus (GPa) = 24.63053 36.84913 30.73983
#
# Velocity S-wave (km/s) = 3.34568 4.09223 3.73764
# Velocity P-wave (km/s) = 4.99183 6.50420 5.79754
#
# Compressibility (1/GPa) = 0.04547454
#
# Stress axis : x y z
#
# Youngs Moduli (GPa) = 81.46131 111.89592 20.73094
#
# Poissons Ratio (x) = 0.21381 0.18545
# Poissons Ratio (y) = 0.15566 0.02345
# Poissons Ratio (z) = 0.72873 0.12656
#
# Static dielectric constant tensor:
#      x y z
#    x 1.954850 -0.043290 0.076030 
#    y -0.043290 1.794150 -0.026240 
#    z 0.076030 -0.026240 1.879600 
# 
# From -- ./inp_files/285872.got.cif
#   From: 2010.05.17/outbox.cif.g08.bks.cpg/sg2_143_cif.got.tgz:285872.got - 2010.06.03 11:33:40.
