data_PCOD9046009
_publ_section_title
;
Structure prediction by ZEFSAII (Michael W. Deem and Ramdas Pophale) SiO2 
 PCOD9046009
Probable space group: P -1
;
_chemical_formula_sum "Si O2"
_cell_formula_units_Z 11
_cell_length_a 9.565126
_cell_length_b 11.104149
_cell_length_c 9.248789
_cell_angle_alpha 138.907851
_cell_angle_beta 58.226212
_cell_angle_gamma 139.667923
_cell_volume 415.220996
_symmetry_space_group_name_H-M "P -1"
_symmetry_group_IT_number 2
_symmetry_cell_setting 'triclinic'
loop_
_space_group_symop_operation_xyz
x,y,z
-x,-y,-z
loop_
_atom_site_type_symbol
_atom_site_label
_atom_site_fract_x
_atom_site_fract_y
_atom_site_fract_z
Si Si1 0.863833 0.262554 0.169040
Si Si2 0.418338 0.625531 0.579429
Si Si3 0.193248 0.062868 0.549094
Si Si4 0.767438 0.819671 0.892750
Si Si5 0.500000 0.500000 0.000000
Si Si6 0.243054 0.780763 0.469767
O O1 0.720762 0.316079 0.218907
O O2 0.803026 0.233185 0.347081
O O3 0.121338 0.501232 0.236552
O O4 0.780197 0.998617 0.936626
O O5 0.500000 0.500000 0.500000
O O6 0.614976 0.854164 0.589440
O O7 0.264349 0.408679 0.352527
O O8 0.129261 0.847065 0.489107
O O9 0.309285 0.287325 0.798478
O O10 0.000000 0.000000 0.500000
O O11 0.589062 0.705793 0.011086
O O12 0.000000 0.000000 0.000000
O O13 0.500000 0.000000 0.500000
#
# Coordination Sequence:
#
# PCOD9046009 Si02
#       6
#     2   2   2   2   1   2
#     4  11  23  40  70  98 139 185 231 292 351 421
#     4  11  25  44  66 101 140 183 235 291 356 418
#     4  11  23  42  71 100 141 188 230 297 357 412
#     4  11  24  41  68 100 132 181 230 285 347 416
#     4  10  24  42  66 102 142 174 242 286 344 432
#     4  11  21  39  65 102 133 183 236 276 358 421
#
# _framework density 26.491914999999999
#
# number of rings (size 3 to 8) (size 9 to 14) (size 15 to 20)
#    0.000    1.091    3.636    3.273    5.091    0.727 
#    0.000    0.000    0.000    4.364    0.000    0.000 
#    0.000    0.000    0.000    0.000    0.000    0.000 
#
# Total GULP energy -61277.797356 kJ/mol
# GULP energy per Si atom -5570.708851 kJ/mol
# Density = 2.643162 g / cm^3
# Si number density = 26.491915 Si / 1000 Ang^3
#
#
#
# Elastic Constant Matrix: (Units=GPa)
#
#
# Indices 1 2 3 4 5 6 
#
# 1 154.8508 15.5449 26.0197 14.2655 -1.6637 -13.0227
# 2 15.5449 174.2507 25.5187 36.1196 -0.4134 7.1645
# 3 26.0197 25.5187 91.3269 23.1757 -6.5210 -2.3111
# 4 14.2655 36.1196 23.1757 43.4155 -4.7523 -1.7828
# 5 -1.6637 -0.4134 -6.5210 -4.7523 44.0491 5.3723
# 6 -13.0227 7.1645 -2.3111 -1.7828 5.3723 37.4714
#
#
#
# Elastic Compliance Matrix: (Units=1/GPa)
#
#
# Indices 1 2 3 4 5 6 
#
# 1 0.007061 -0.000245 -0.001605 -0.001204 -0.000396 0.002401
# 2 -0.000245 0.007076 -0.000552 -0.005627 -0.000427 -0.001679
# 3 -0.001605 -0.000552 0.013145 -0.005897 0.001256 -0.000102
# 4 -0.001204 -0.005627 -0.005897 0.031565 0.002255 0.001472
# 5 -0.000396 -0.000427 0.001256 0.002255 0.023508 -0.003242
# 6 0.002401 -0.001679 -0.000102 0.001472 -0.003242 0.028371
#
#
# Mechanical properties :
#
#
# Convention : Reuss Voigt Hill
#
# Bulk Modulus (GPa) = 44.49038 61.62167 53.05602
# Shear Modulus (GPa) = 40.64295 48.54357 44.59326
#
# Velocity S-wave (km/s) = 3.92109 4.28529 4.10723
# Velocity P-wave (km/s) = 6.10986 6.91346 6.52404
#
# Compressibility (1/GPa) = 0.02247677
#
# Stress axis : x y z
#
# Youngs Moduli (GPa) = 141.62816 141.32168 76.07565
#
# Poissons Ratio (x) = 0.03460 0.12211
# Poissons Ratio (y) = 0.03468 0.04202
# Poissons Ratio (z) = 0.22734 0.07806
#
# Static dielectric constant tensor:
#      x y z
#    x 3.080350 -0.280830 -0.657550 
#    y -0.280830 2.204990 0.152840 
#    z -0.657550 0.152840 2.682010 
# 
# From -- ./inp_files/388516.got.cif
#   From: 2010.05.17/outbox.cif.g08.bks.cpg/sg2_195_cif.got.tgz:388516.got - 2010.06.03 11:33:40.
