data_PCOD9046258
_publ_section_title
;
Structure prediction by ZEFSAII (Michael W. Deem and Ramdas Pophale) SiO2 
 PCOD9046258
Probable space group: P -1
;
_chemical_formula_sum "Si O2"
_cell_formula_units_Z 15
_cell_length_a 24.590911
_cell_length_b 6.033072
_cell_length_c 15.327372
_cell_angle_alpha 127.574778
_cell_angle_beta 158.891161
_cell_angle_gamma 49.606525
_cell_volume 623.601879
_symmetry_space_group_name_H-M "P -1"
_symmetry_group_IT_number 2
_symmetry_cell_setting 'triclinic'
loop_
_space_group_symop_operation_xyz
x,y,z
-x,-y,-z
loop_
_atom_site_type_symbol
_atom_site_label
_atom_site_fract_x
_atom_site_fract_y
_atom_site_fract_z
Si Si1 0.551927 0.621516 0.408558
Si Si2 0.100551 0.561638 0.086120
Si Si3 0.500000 0.500000 0.500000
Si Si4 0.791449 0.839564 0.213749
Si Si5 0.886098 0.821601 0.675602
Si Si6 0.730211 0.850510 0.929107
Si Si7 0.045876 0.831901 0.728610
Si Si8 0.539169 0.038621 0.167534
O O1 0.725249 0.648061 0.690684
O O2 0.492318 0.530646 0.389604
O O3 0.554130 0.364994 0.283005
O O4 0.444570 0.928585 0.288956
O O5 0.127502 0.876551 0.221962
O O6 0.000000 0.500000 0.000000
O O7 0.997822 0.589392 0.851090
O O8 0.682680 0.548812 0.783038
O O9 0.850212 0.487353 0.223377
O O10 0.905833 0.942431 0.475419
O O11 0.801290 0.898151 0.140486
O O12 0.611668 0.972484 0.004882
O O13 0.966946 0.817521 0.701137
O O14 0.705988 0.817939 0.391480
O O15 0.837100 0.968569 0.050762
O O16 0.500000 0.000000 0.000000
#
# Coordination Sequence:
#
# PCOD9046258 Si02
#       8
#     2   2   1   2   2   2   2   2
#     4  11  26  44  71 104 141 186 245 296 367 429
#     4  10  25  43  65  98 137 187 230 284 347 434
#     4  12  26  44  68 102 144 190 240 310 354 430
#     4  11  24  44  73 103 145 181 241 300 365 427
#     4  10  24  42  69  97 143 183 233 283 354 422
#     4  12  25  44  71 106 142 188 245 306 365 430
#     4  11  24  45  72 106 139 190 236 305 359 436
#     4  11  21  47  72 102 142 192 230 296 361 435
#
# _framework density 24.053809999999999
#
# number of rings (size 3 to 8) (size 9 to 14) (size 15 to 20)
#    0.000    1.067    4.000    0.800    7.467    1.067 
#    0.000    2.000    0.000    0.000    0.000    0.000 
#    0.000    0.000    0.000    0.000    0.000    0.000 
#
# Total GULP energy -83679.105540 kJ/mol
# GULP energy per Si atom -5578.607036 kJ/mol
# Density = 2.399906 g / cm^3
# Si number density = 24.053810 Si / 1000 Ang^3
#
#
#
# Elastic Constant Matrix: (Units=GPa)
#
#
# Indices 1 2 3 4 5 6 
#
# 1 118.4856 0.0080 62.0576 -1.5414 -7.2236 10.1355
# 2 0.0080 45.6151 32.0260 -16.1714 -1.2957 -10.3752
# 3 62.0576 32.0260 201.0061 -16.6540 4.2052 6.3463
# 4 -1.5414 -16.1714 -16.6540 39.4407 -5.5031 -7.7482
# 5 -7.2236 -1.2957 4.2052 -5.5031 64.1327 2.8574
# 6 10.1355 -10.3752 6.3463 -7.7482 2.8574 25.6935
#
#
#
# Elastic Compliance Matrix: (Units=1/GPa)
#
#
# Indices 1 2 3 4 5 6 
#
# 1 0.010638 0.001492 -0.003526 -0.000868 0.001526 -0.003155
# 2 0.001492 0.036547 -0.005562 0.016967 0.001816 0.020458
# 3 -0.003526 -0.005562 0.007042 -0.000059 -0.000864 -0.002516
# 4 -0.000868 0.016967 -0.000059 0.036108 0.002554 0.017813
# 5 0.001526 0.001816 -0.000864 0.002554 0.016107 -0.000677
# 6 -0.003155 0.020458 -0.002516 0.017813 -0.000677 0.054494
#
#
# Mechanical properties :
#
#
# Convention : Reuss Voigt Hill
#
# Bulk Modulus (GPa) = 25.61777 61.47667 43.54722
# Shear Modulus (GPa) = 26.43526 43.92106 35.17816
#
# Velocity S-wave (km/s) = 3.31872 4.27775 3.82838
# Velocity P-wave (km/s) = 5.03572 7.07194 6.13885
#
# Compressibility (1/GPa) = 0.03903541
#
# Stress axis : x y z
#
# Youngs Moduli (GPa) = 94.00013 27.36200 141.99652
#
# Poissons Ratio (x) = -0.04082 0.50073
# Poissons Ratio (y) = -0.14024 0.78974
# Poissons Ratio (z) = 0.33148 0.15218
#
# Static dielectric constant tensor:
#      x y z
#    x 1.818850 -0.037470 0.185220 
#    y -0.037470 1.997390 -0.036020 
#    z 0.185220 -0.036020 1.728130 
# 
# From -- ./inp_files/542253.got.cif
#   From: 2010.05.17/outbox.cif.g08.bks.cpg/sg2_272_cif.got.tgz:542253.got - 2010.06.03 11:33:40.
