data_PCOD9046297
_publ_section_title
;
Structure prediction by ZEFSAII (Michael W. Deem and Ramdas Pophale) SiO2 
 PCOD9046297
Probable space group: P -1
;
_chemical_formula_sum "Si O2"
_cell_formula_units_Z 15
_cell_length_a 9.135485
_cell_length_b 8.758222
_cell_length_c 10.013189
_cell_angle_alpha 60.902045
_cell_angle_beta 114.069234
_cell_angle_gamma 101.599875
_cell_volume 639.175917
_symmetry_space_group_name_H-M "P -1"
_symmetry_group_IT_number 2
_symmetry_cell_setting 'triclinic'
loop_
_space_group_symop_operation_xyz
x,y,z
-x,-y,-z
loop_
_atom_site_type_symbol
_atom_site_label
_atom_site_fract_x
_atom_site_fract_y
_atom_site_fract_z
Si Si1 0.272382 0.260244 0.916816
Si Si2 0.147742 0.874546 0.596226
Si Si3 0.940602 0.462954 0.142205
Si Si4 0.496259 0.866681 0.729636
Si Si5 0.000000 0.000000 0.000000
Si Si6 0.743642 0.387713 0.696827
Si Si7 0.445806 0.517360 0.682989
Si Si8 0.803419 0.071325 0.698947
O O1 0.199794 0.406487 0.925396
O O2 0.332898 0.368820 0.766384
O O3 0.425187 0.175382 0.081139
O O4 0.132817 0.118760 0.910429
O O5 0.125967 0.723410 0.759141
O O6 0.324235 0.955439 0.645673
O O7 0.148166 0.826103 0.458395
O O8 0.000000 0.000000 0.500000
O O9 0.098423 0.497290 0.277706
O O10 0.000000 0.500000 0.000000
O O11 0.470932 0.683977 0.718611
O O12 0.627637 0.990710 0.655831
O O13 0.078528 0.076085 0.141199
O O14 0.617446 0.432342 0.745981
O O15 0.641719 0.415244 0.512484
O O16 0.812372 0.188714 0.790180
#
# Coordination Sequence:
#
# PCOD9046297 Si02
#       8
#     2   2   2   2   1   2   2   2
#     4  11  23  45  74 100 146 191 238 305 358 438
#     4  12  29  44  74 108 144 195 244 301 360 441
#     4  12  27  46  72 106 146 191 248 305 363 435
#     4  11  24  46  73 104 143 194 237 300 364 436
#     4  10  24  42  70 104 140 190 230 302 360 416
#     4  11  25  42  72 104 139 187 236 301 362 431
#     4  11  24  43  72 105 139 188 244 293 365 435
#     4  11  24  48  68 103 150 184 237 296 364 431
#
# _framework density 23.467718999999999
#
# number of rings (size 3 to 8) (size 9 to 14) (size 15 to 20)
#    0.000    0.800    4.000    1.600    9.333    2.133 
#    0.000    1.333    0.000    0.000    0.000    0.000 
#    0.000    0.000    0.000    0.000    0.000    0.000 
#
# Total GULP energy -83635.134058 kJ/mol
# GULP energy per Si atom -5575.675604 kJ/mol
# Density = 2.341430 g / cm^3
# Si number density = 23.467719 Si / 1000 Ang^3
#
#
#
# Elastic Constant Matrix: (Units=GPa)
#
#
# Indices 1 2 3 4 5 6 
#
# 1 136.5686 40.6775 25.2016 -1.6477 0.2083 12.6851
# 2 40.6775 43.6920 2.2268 -5.9879 -6.6659 13.5374
# 3 25.2016 2.2268 62.3931 -7.5579 -3.4028 14.8277
# 4 -1.6477 -5.9879 -7.5579 28.7393 17.9655 4.8070
# 5 0.2083 -6.6659 -3.4028 17.9655 47.0391 -3.4072
# 6 12.6851 13.5374 14.8277 4.8070 -3.4072 45.1379
#
#
#
# Elastic Compliance Matrix: (Units=1/GPa)
#
#
# Indices 1 2 3 4 5 6 
#
# 1 0.011512 -0.011677 -0.005172 -0.003031 -0.000761 0.002231
# 2 -0.011677 0.038670 0.007494 0.010606 0.001167 -0.011819
# 3 -0.005172 0.007494 0.020968 0.009220 -0.001556 -0.008781
# 4 -0.003031 0.010606 0.009220 0.053256 -0.019060 -0.012468
# 5 -0.000761 0.001167 -0.001556 -0.019060 0.028927 0.004588
# 6 0.002231 -0.011819 -0.008781 -0.012468 0.004588 0.029631
#
#
# Mechanical properties :
#
#
# Convention : Reuss Voigt Hill
#
# Bulk Modulus (GPa) = 19.06957 42.09617 30.58287
# Shear Modulus (GPa) = 22.81487 35.81979 29.31733
#
# Velocity S-wave (km/s) = 3.12136 3.91108 3.53832
# Velocity P-wave (km/s) = 4.59718 6.19454 5.45465
#
# Compressibility (1/GPa) = 0.05243956
#
# Stress axis : x y z
#
# Youngs Moduli (GPa) = 86.86485 25.85952 47.69196
#
# Poissons Ratio (x) = 0.30196 0.24666
# Poissons Ratio (y) = 1.01432 -0.35738
# Poissons Ratio (z) = 0.44927 -0.19378
#
# Static dielectric constant tensor:
#      x y z
#    x 1.754760 0.065850 -0.148600 
#    y 0.065850 1.802860 0.167300 
#    z -0.148600 0.167300 1.721240 
# 
# From -- ./inp_files/157691.got.cif
#   From: 2010.05.17/outbox.cif.g08.bks.cpg/sg2_79_cif.got.tgz:157691.got - 2010.06.03 11:33:40.
