data_PCOD9046157
_publ_section_title
;
Structure prediction by ZEFSAII (Michael W. Deem and Ramdas Pophale) SiO2 
 PCOD9046157
Probable space group: P -1
;
_chemical_formula_sum "Si O2"
_cell_formula_units_Z 13
_cell_length_a 7.326591
_cell_length_b 8.485506
_cell_length_c 14.476599
_cell_angle_alpha 135.931777
_cell_angle_beta 76.199723
_cell_angle_gamma 77.806199
_cell_volume 500.960509
_symmetry_space_group_name_H-M "P -1"
_symmetry_group_IT_number 2
_symmetry_cell_setting 'triclinic'
loop_
_space_group_symop_operation_xyz
x,y,z
-x,-y,-z
loop_
_atom_site_type_symbol
_atom_site_label
_atom_site_fract_x
_atom_site_fract_y
_atom_site_fract_z
Si Si1 0.647853 0.235000 0.064018
Si Si2 0.346504 0.198045 0.855779
Si Si3 0.500000 0.500000 0.000000
Si Si4 0.687677 0.295373 0.280695
Si Si5 0.840529 0.605398 0.744997
Si Si6 0.166496 0.713823 0.547467
Si Si7 0.024853 0.298383 0.769132
O O1 0.761395 0.269408 0.155006
O O2 0.387206 0.375171 0.186349
O O3 0.637128 0.378279 0.031738
O O4 0.759513 0.916164 0.898366
O O5 0.577878 0.178030 0.821116
O O6 0.212192 0.259200 0.802691
O O7 0.340637 0.956813 0.802635
O O8 0.218168 0.466979 0.054494
O O9 0.439417 0.572870 0.440895
O O10 0.846496 0.279424 0.336720
O O11 0.888534 0.469800 0.582013
O O12 0.028579 0.404103 0.712710
O O13 0.047734 0.014926 0.646380
#
# Coordination Sequence:
#
# PCOD9046157 Si02
#       7
#     2   2   1   2   2   2   2
#     4  10  19  31  56  77 107 136 187 214 262 308
#     4  10  20  33  58  77 113 135 183 213 270 301
#     4  12  20  34  52  86 100 146 178 224 250 332
#     4   9  17  36  52  83 103 145 172 225 251 327
#     4  10  17  34  55  83 102 141 176 225 254 321
#     4   9  18  27  58  84 106 127 187 218 266 296
#     4  10  18  33  54  86 106 136 170 235 257 308
#
# _framework density 25.950151000000002
#
# number of rings (size 3 to 8) (size 9 to 14) (size 15 to 20)
#    0.000    2.154    3.077    2.308    0.000    0.000 
#    0.000    0.769    0.000   36.923    0.000    0.000 
#    0.000    0.000    0.000    0.000    0.000    0.000 
#
# Total GULP energy -72550.307277 kJ/mol
# GULP energy per Si atom -5580.792867 kJ/mol
# Density = 2.589109 g / cm^3
# Si number density = 25.950151 Si / 1000 Ang^3
#
#
#
# Elastic Constant Matrix: (Units=GPa)
#
#
# Indices 1 2 3 4 5 6 
#
# 1 74.4671 36.9282 32.9809 0.3121 21.3748 1.5250
# 2 36.9282 183.4786 66.0775 -34.0047 38.8577 -38.9600
# 3 32.9809 66.0775 138.0409 -5.6688 39.6120 -5.8465
# 4 0.3121 -34.0047 -5.6688 51.3672 -14.5086 6.9595
# 5 21.3748 38.8577 39.6120 -14.5086 42.9661 -8.5416
# 6 1.5250 -38.9600 -5.8465 6.9595 -8.5416 23.9754
#
#
#
# Elastic Compliance Matrix: (Units=1/GPa)
#
#
# Indices 1 2 3 4 5 6 
#
# 1 0.018658 -0.005086 -0.000377 -0.004268 -0.007993 -0.011152
# 2 -0.005086 0.012893 -0.003979 0.005636 0.000164 0.018727
# 3 -0.000377 -0.003979 0.011440 -0.003102 -0.008992 -0.005956
# 4 -0.004268 0.005636 -0.003102 0.024843 0.009219 0.004747
# 5 -0.007993 0.000164 -0.008992 0.009219 0.040564 0.010358
# 6 -0.011152 0.018727 -0.005956 0.004747 0.010358 0.073710
#
#
# Mechanical properties :
#
#
# Convention : Reuss Voigt Hill
#
# Bulk Modulus (GPa) = 41.48174 74.21774 57.84974
# Shear Modulus (GPa) = 23.92013 40.99508 32.45760
#
# Velocity S-wave (km/s) = 3.03936 3.97893 3.54046
# Velocity P-wave (km/s) = 5.32324 7.05489 6.24933
#
# Compressibility (1/GPa) = 0.02410700
#
# Stress axis : x y z
#
# Youngs Moduli (GPa) = 53.59492 77.56084 87.41418
#
# Poissons Ratio (x) = 0.39445 0.03299
# Poissons Ratio (y) = 0.27256 0.34784
# Poissons Ratio (z) = 0.02022 0.30863
#
# Static dielectric constant tensor:
#      x y z
#    x 1.396690 -0.254730 0.064570 
#    y -0.254730 1.932050 0.031900 
#    z 0.064570 0.031900 2.010090 
# 
# From -- ./inp_files/193126.got.cif
#   From: 2010.05.17/outbox.cif.g08.bks.cpg/sg2_97_cif.got.tgz:193126.got - 2010.06.03 11:33:40.
