data_PCOD9046945
_publ_section_title
;
Structure prediction by ZEFSAII (Michael W. Deem and Ramdas Pophale) SiO2 
 PCOD9046945
Probable space group: P -1
;
_chemical_formula_sum "Si O2"
_cell_formula_units_Z 14
_cell_length_a 8.395046
_cell_length_b 19.264574
_cell_length_c 6.629676
_cell_angle_alpha 47.425119
_cell_angle_beta 64.268518
_cell_angle_gamma 60.902578
_cell_volume 680.638546
_symmetry_space_group_name_H-M "P -1"
_symmetry_group_IT_number 2
_symmetry_cell_setting 'triclinic'
loop_
_space_group_symop_operation_xyz
x,y,z
-x,-y,-z
loop_
_atom_site_type_symbol
_atom_site_label
_atom_site_fract_x
_atom_site_fract_y
_atom_site_fract_z
Si Si1 0.880637 0.106796 0.282672
Si Si2 0.917254 0.842240 0.273407
Si Si3 0.863025 0.510054 0.365242
Si Si4 0.429949 0.414815 0.303499
Si Si5 0.641818 0.040146 0.211935
Si Si6 0.135479 0.359974 0.275163
Si Si7 0.701173 0.199418 0.605262
O O1 0.747512 0.085391 0.229791
O O2 0.761511 0.168334 0.405532
O O3 0.000000 0.000000 0.500000
O O4 0.018770 0.156494 0.995680
O O5 0.824591 0.756146 0.529267
O O6 0.103428 0.820178 0.347606
O O7 0.783047 0.947573 0.204685
O O8 0.666338 0.542580 0.516250
O O9 0.000000 0.500000 0.500000
O O10 0.937716 0.408921 0.397693
O O11 0.874419 0.591964 0.034331
O O12 0.284622 0.390310 0.273454
O O13 0.585605 0.312727 0.456750
O O14 0.500000 0.500000 0.000000
O O15 0.500000 0.000000 0.500000
O O16 0.588111 0.127918 0.902861
#
# Coordination Sequence:
#
# PCOD9046945 Si02
#       7
#     2   2   2   2   2   2   2
#     4  11  21  44  65  91 131 175 213 257 324 391
#     4  11  24  41  69  96 129 172 217 268 326 391
#     4   9  22  45  65  90 130 167 220 266 322 382
#     4  11  27  43  65  97 135 170 220 273 325 384
#     4  11  25  42  65  99 135 166 216 273 323 389
#     4  10  24  43  69  96 128 173 222 266 329 389
#     4  11  25  43  65  95 133 176 218 265 328 386
#
# _framework density 20.568919999999999
#
# number of rings (size 3 to 8) (size 9 to 14) (size 15 to 20)
#    0.000    1.429    2.857    0.857   12.000    4.571 
#    0.000    0.000    0.000    0.000    0.000    0.000 
#    0.000    0.000    0.000    0.000    0.000    0.000 
#
# Total GULP energy -78175.546577 kJ/mol
# GULP energy per Si atom -5583.967613 kJ/mol
# Density = 2.052210 g / cm^3
# Si number density = 20.568920 Si / 1000 Ang^3
#
#
#
# Elastic Constant Matrix: (Units=GPa)
#
#
# Indices 1 2 3 4 5 6 
#
# 1 31.6681 17.7612 26.3101 -3.7508 -7.4817 1.4943
# 2 17.7612 129.8435 71.8408 1.5673 -6.9967 -22.8591
# 3 26.3101 71.8408 143.7914 5.5049 -2.4043 -6.7584
# 4 -3.7508 1.5673 5.5049 48.6959 1.0405 0.7942
# 5 -7.4817 -6.9967 -2.4043 1.0405 27.7146 -0.6837
# 6 1.4943 -22.8591 -6.7584 0.7942 -0.6837 34.8358
#
#
#
# Elastic Compliance Matrix: (Units=1/GPa)
#
#
# Indices 1 2 3 4 5 6 
#
# 1 0.041330 -0.002307 -0.006605 0.003869 0.009747 -0.004465
# 2 -0.002307 0.012392 -0.005387 -0.000133 0.002222 0.007232
# 3 -0.006605 -0.005387 0.010821 -0.001493 -0.002177 -0.001161
# 4 0.003869 -0.000133 -0.001493 0.021022 0.000067 -0.001021
# 5 0.009747 0.002222 -0.002177 0.000067 0.039117 0.001384
# 6 -0.004465 0.007232 -0.001161 -0.001021 0.001384 0.033469
#
#
# Mechanical properties :
#
#
# Convention : Reuss Voigt Hill
#
# Bulk Modulus (GPa) = 27.81966 59.68080 43.75023
# Shear Modulus (GPa) = 25.15974 34.87534 30.01754
#
# Velocity S-wave (km/s) = 3.50121 4.12216 3.82431
# Velocity P-wave (km/s) = 5.46801 7.19265 6.38879
#
# Compressibility (1/GPa) = 0.03594581
#
# Stress axis : x y z
#
# Youngs Moduli (GPa) = 24.19534 80.69487 92.41469
#
# Poissons Ratio (x) = 0.18614 0.61039
# Poissons Ratio (y) = 0.05581 0.49786
# Poissons Ratio (z) = 0.15981 0.43472
#
# Static dielectric constant tensor:
#      x y z
#    x 1.717120 0.011400 -0.022820 
#    y 0.011400 1.683390 0.021940 
#    z -0.022820 0.021940 1.776830 
# 
# From -- ./inp_files/37001.got.cif
#   From: 2010.05.17/outbox.cif.g08.bks.cpg/sg2_19_cif.got.tgz:37001.got - 2010.06.03 11:33:40.
