data_PCOD9046394
_publ_section_title
;
Structure prediction by ZEFSAII (Michael W. Deem and Ramdas Pophale) SiO2 
 PCOD9046394
Probable space group: P -1
;
_chemical_formula_sum "Si O2"
_cell_formula_units_Z 16
_cell_length_a 14.052774
_cell_length_b 14.614018
_cell_length_c 11.115863
_cell_angle_alpha 57.341536
_cell_angle_beta 40.163575
_cell_angle_gamma 29.181082
_cell_volume 656.144999
_symmetry_space_group_name_H-M "P -1"
_symmetry_group_IT_number 2
_symmetry_cell_setting 'triclinic'
loop_
_space_group_symop_operation_xyz
x,y,z
-x,-y,-z
loop_
_atom_site_type_symbol
_atom_site_label
_atom_site_fract_x
_atom_site_fract_y
_atom_site_fract_z
Si Si1 0.030785 0.376965 0.643214
Si Si2 0.025261 0.802866 0.113719
Si Si3 0.701351 0.443393 0.434980
Si Si4 0.170384 0.838795 0.341761
Si Si5 0.195792 0.273617 0.988979
Si Si6 0.232713 0.864998 0.703634
Si Si7 0.644444 0.705684 0.954967
Si Si8 0.566946 0.003477 0.244518
O O1 0.840991 0.384998 0.813260
O O2 0.000000 0.500000 0.500000
O O3 0.952752 0.480494 0.772764
O O4 0.322798 0.149780 0.473591
O O5 0.850079 0.851078 0.147034
O O6 0.814625 0.001223 0.261740
O O7 0.197243 0.785176 0.886785
O O8 0.500000 0.500000 0.500000
O O9 0.793508 0.309426 0.552316
O O10 0.519660 0.658905 0.504564
O O11 0.980319 0.309552 0.194435
O O12 0.472155 0.706296 0.150441
O O13 0.000000 0.000000 0.500000
O O14 0.007672 0.969848 0.283247
O O15 0.361320 0.204072 0.997466
O O16 0.396177 0.119417 0.794749
O O17 0.000000 0.500000 0.000000
O O18 0.499161 0.852316 0.877860
#
# Coordination Sequence:
#
# PCOD9046394 Si02
#       8
#     2   2   2   2   2   2   2   2
#     4  10  24  42  72 100 142 194 240 304 368 441
#     4  11  23  46  69 101 150 190 248 299 370 447
#     4  12  25  46  73 107 153 189 251 308 378 449
#     4  12  24  46  78 106 150 196 247 318 377 443
#     4  12  27  43  72 107 146 189 243 309 378 443
#     4  11  26  45  74 109 145 202 247 308 375 453
#     4  11  24  46  69 108 144 183 251 302 375 446
#     4  11  23  44  70  98 146 190 236 304 368 438
#
# _framework density 24.384853
#
# number of rings (size 3 to 8) (size 9 to 14) (size 15 to 20)
#    0.000    0.750    2.500    4.500    3.500    2.000 
#    2.250    1.875    0.000    0.000    0.000    0.000 
#    0.000    0.000    0.000    0.000    0.000    0.000 
#
# Total GULP energy -89402.725561 kJ/mol
# GULP energy per Si atom -5587.670348 kJ/mol
# Density = 2.432935 g / cm^3
# Si number density = 24.384853 Si / 1000 Ang^3
#
#
#
# Elastic Constant Matrix: (Units=GPa)
#
#
# Indices 1 2 3 4 5 6 
#
# 1 80.9665 30.4470 28.1922 7.1438 23.4355 12.5584
# 2 30.4470 125.7546 39.8318 -18.8118 9.0952 16.1664
# 3 28.1922 39.8318 94.7288 12.3769 15.1567 8.6277
# 4 7.1438 -18.8118 12.3769 54.0694 20.0931 9.9496
# 5 23.4355 9.0952 15.1567 20.0931 36.2074 8.3903
# 6 12.5584 16.1664 8.6277 9.9496 8.3903 38.2470
#
#
#
# Elastic Compliance Matrix: (Units=1/GPa)
#
#
# Indices 1 2 3 4 5 6 
#
# 1 0.017119 -0.001997 -0.002683 0.001780 -0.009871 -0.002469
# 2 -0.001997 0.011694 -0.004410 0.007198 -0.002736 -0.004565
# 3 -0.002683 -0.004410 0.013806 -0.004205 -0.000810 0.000902
# 4 0.001780 0.007198 -0.004205 0.028764 -0.015601 -0.006739
# 5 -0.009871 -0.002736 -0.000810 -0.015601 0.043923 -0.000996
# 6 -0.002469 -0.004565 0.000902 -0.006739 -0.000996 0.030654
#
#
# Mechanical properties :
#
#
# Convention : Reuss Voigt Hill
#
# Bulk Modulus (GPa) = 40.91867 55.37688 48.14778
# Shear Modulus (GPa) = 29.02122 39.23669 34.12896
#
# Velocity S-wave (km/s) = 3.45357 4.01566 3.74518
# Velocity P-wave (km/s) = 5.72011 6.65279 6.20400
#
# Compressibility (1/GPa) = 0.02443872
#
# Stress axis : x y z
#
# Youngs Moduli (GPa) = 58.41353 85.51548 72.43158
#
# Poissons Ratio (x) = 0.17079 0.19436
# Poissons Ratio (y) = 0.11666 0.31940
# Poissons Ratio (z) = 0.15674 0.37710
#
# Static dielectric constant tensor:
#      x y z
#    x 1.936570 -0.069860 0.000450 
#    y -0.069860 2.118900 -0.050790 
#    z 0.000450 -0.050790 1.979060 
# 
# From -- ./inp_files/455629.got.cif
#   From: 2010.05.17/outbox.cif.g08.bks.cpg/sg2_228_cif.got.tgz:455629.got - 2010.06.03 11:33:40.
