data_PCOD9046347
_publ_section_title
;
Structure prediction by ZEFSAII (Michael W. Deem and Ramdas Pophale) SiO2 
 PCOD9046347
Probable space group: P -1
;
_chemical_formula_sum "Si O2"
_cell_formula_units_Z 14
_cell_length_a 22.745652
_cell_length_b 10.089582
_cell_length_c 20.567043
_cell_angle_alpha 146.692021
_cell_angle_beta 12.846773
_cell_angle_gamma 147.406049
_cell_volume 561.280017
_symmetry_space_group_name_H-M "P -1"
_symmetry_group_IT_number 2
_symmetry_cell_setting 'triclinic'
loop_
_space_group_symop_operation_xyz
x,y,z
-x,-y,-z
loop_
_atom_site_type_symbol
_atom_site_label
_atom_site_fract_x
_atom_site_fract_y
_atom_site_fract_z
Si Si1 0.851480 0.814984 0.028709
Si Si2 0.052073 0.582994 0.595720
Si Si3 0.001888 0.024363 0.408239
Si Si4 0.773541 0.154001 0.145390
Si Si5 0.435404 0.737482 0.852532
Si Si6 0.326407 0.341722 0.566540
Si Si7 0.657788 0.802760 0.017805
O O1 0.043173 0.720572 0.730520
O O2 0.674368 0.556855 0.140491
O O3 0.000000 0.000000 0.000000
O O4 0.697780 0.981083 0.218114
O O5 0.983744 0.291045 0.563121
O O6 0.820115 0.644653 0.823661
O O7 0.353056 0.654983 0.269394
O O8 0.705504 0.846756 0.646860
O O9 0.142497 0.092723 0.213578
O O10 0.203380 0.889401 0.174011
O O11 0.778292 0.439574 0.269470
O O12 0.077191 0.162548 0.796223
O O13 0.610338 0.026245 0.206901
O O14 0.522939 0.777568 0.698934
O O15 0.500000 0.500000 0.500000
#
# Coordination Sequence:
#
# PCOD9046347 Si02
#       7
#     2   2   2   2   2   2   2
#     4  11  28  49  71 108 147 198 242 295 360 440
#     4  11  26  46  75 106 143 194 239 303 367 426
#     4  12  25  48  73 107 147 187 247 300 361 438
#     4  10  24  42  71 100 146 183 241 297 363 430
#     4  12  28  44  74 105 150 193 239 297 363 426
#     4  11  23  42  70 107 137 192 236 302 364 422
#     4  11  22  43  74 113 138 182 241 309 371 421
#
# _framework density 24.942986000000001
#
# number of rings (size 3 to 8) (size 9 to 14) (size 15 to 20)
#    0.000    0.857    1.429    4.286   12.000    4.000 
#    0.000    0.000    0.000    0.000    0.000    0.000 
#    0.000    0.000    0.000    0.000    0.000    0.000 
#
# Total GULP energy -78401.185905 kJ/mol
# GULP energy per Si atom -5600.084707 kJ/mol
# Density = 2.488622 g / cm^3
# Si number density = 24.942986 Si / 1000 Ang^3
#
#
#
# Elastic Constant Matrix: (Units=GPa)
#
#
# Indices 1 2 3 4 5 6 
#
# 1 69.2688 33.1481 27.0856 1.2472 9.1432 3.2901
# 2 33.1481 162.6921 57.9737 -4.3846 -1.9338 15.4298
# 3 27.0856 57.9737 130.6132 1.7963 -16.3665 4.1013
# 4 1.2472 -4.3846 1.7963 46.3015 11.0627 3.0230
# 5 9.1432 -1.9338 -16.3665 11.0627 37.3728 -7.1270
# 6 3.2901 15.4298 4.1013 3.0230 -7.1270 44.6622
#
#
#
# Elastic Compliance Matrix: (Units=1/GPa)
#
#
# Indices 1 2 3 4 5 6 
#
# 1 0.017809 -0.002320 -0.003460 0.001089 -0.006565 -0.001314
# 2 -0.002320 0.008026 -0.003186 0.001437 -0.001338 -0.002620
# 3 -0.003460 -0.003186 0.010553 -0.002211 0.006250 0.001534
# 4 0.001089 0.001437 -0.002211 0.024157 -0.008967 -0.003440
# 5 -0.006565 -0.001338 0.006250 -0.008967 0.034936 0.006554
# 6 -0.001314 -0.002620 0.001534 -0.003440 0.006554 0.024530
#
#
# Mechanical properties :
#
#
# Convention : Reuss Voigt Hill
#
# Bulk Modulus (GPa) = 54.18188 66.55432 60.36810
# Shear Modulus (GPa) = 34.69932 41.95841 38.32887
#
# Velocity S-wave (km/s) = 3.73385 4.10588 3.92428
# Velocity P-wave (km/s) = 6.35282 7.01557 6.69240
#
# Compressibility (1/GPa) = 0.01845636
#
# Stress axis : x y z
#
# Youngs Moduli (GPa) = 56.15203 124.59546 94.75585
#
# Poissons Ratio (x) = 0.28902 0.32784
# Poissons Ratio (y) = 0.13025 0.30193
# Poissons Ratio (z) = 0.19427 0.39702
#
# Static dielectric constant tensor:
#      x y z
#    x 2.283740 0.297800 0.025190 
#    y 0.297800 2.289030 0.073930 
#    z 0.025190 0.073930 2.030850 
# 
# From -- ./inp_files/621461.got.cif
#   From: 2010.05.17/outbox.cif.g08.bks.cpg/sg2_311_cif.got.tgz:621461.got - 2010.06.03 11:33:40.
