data_PCOD9046833
_publ_section_title
;
Structure prediction by ZEFSAII (Michael W. Deem and Ramdas Pophale) SiO2 
 PCOD9046833
Probable space group: P -1
;
_chemical_formula_sum "Si O2"
_cell_formula_units_Z 16
_cell_length_a 13.534355
_cell_length_b 9.044563
_cell_length_c 10.934924
_cell_angle_alpha 92.988187
_cell_angle_beta 133.658379
_cell_angle_gamma 55.948605
_cell_volume 665.880508
_symmetry_space_group_name_H-M "P -1"
_symmetry_group_IT_number 2
_symmetry_cell_setting 'triclinic'
loop_
_space_group_symop_operation_xyz
x,y,z
-x,-y,-z
loop_
_atom_site_type_symbol
_atom_site_label
_atom_site_fract_x
_atom_site_fract_y
_atom_site_fract_z
Si Si1 0.911282 0.459386 0.652275
Si Si2 0.366538 0.162749 0.005980
Si Si3 0.318648 0.826470 0.306311
Si Si4 0.454253 0.101416 0.600213
Si Si5 0.072369 0.766687 0.140742
Si Si6 0.700988 0.440093 0.043678
Si Si7 0.114248 0.995846 0.363571
Si Si8 0.702659 0.358235 0.323965
O O1 0.774820 0.711877 0.547667
O O2 0.910260 0.404370 0.790531
O O3 0.806752 0.417392 0.477198
O O4 0.136186 0.301836 0.796434
O O5 0.372729 0.334948 0.018229
O O6 0.500000 0.000000 0.000000
O O7 0.430342 0.050963 0.189588
O O8 0.500000 0.000000 0.500000
O O9 0.484633 0.774523 0.368584
O O10 0.270993 0.687930 0.253495
O O11 0.113731 0.065032 0.097087
O O12 0.311516 0.871814 0.446361
O O13 0.030568 0.911594 0.223824
O O14 0.709401 0.375985 0.186811
O O15 0.931982 0.247902 0.198709
O O16 0.530562 0.476283 0.835603
O O17 0.185632 0.880627 0.549816
#
# Coordination Sequence:
#
# PCOD9046833 Si02
#       8
#     2   2   2   2   2   2   2   2
#     4  11  25  46  77 103 141 197 242 295 370 432
#     4  12  30  52  72 103 152 200 247 293 356 441
#     4   9  19  40  64 100 141 173 223 298 351 418
#     4  12  29  45  72 109 152 190 246 297 358 439
#     4   8  18  38  67 101 133 178 227 293 357 423
#     4  11  25  42  70 101 139 191 238 304 364 422
#     4   9  20  38  67  97 140 171 227 299 363 419
#     4  10  24  43  68 109 131 181 252 306 356 427
#
# _framework density 24.028334999999998
#
# number of rings (size 3 to 8) (size 9 to 14) (size 15 to 20)
#    0.750    1.000    1.250    1.125    5.250    9.000 
#    0.000    0.000    0.000    0.000    0.000    0.000 
#    0.000    0.000    0.000    0.000    0.000    0.000 
#
# Total GULP energy -89249.396935 kJ/mol
# GULP energy per Si atom -5578.087308 kJ/mol
# Density = 2.397365 g / cm^3
# Si number density = 24.028335 Si / 1000 Ang^3
#
#
#
# Elastic Constant Matrix: (Units=GPa)
#
#
# Indices 1 2 3 4 5 6 
#
# 1 91.4003 12.0637 58.8306 -1.6006 9.7285 -9.3595
# 2 12.0637 61.0499 41.9200 -3.8246 9.2143 -13.3633
# 3 58.8306 41.9200 132.1516 2.4961 22.6584 -10.9129
# 4 -1.6006 -3.8246 2.4961 33.1476 -1.6275 6.5760
# 5 9.7285 9.2143 22.6584 -1.6275 39.6239 -3.4265
# 6 -9.3595 -13.3633 -10.9129 6.5760 -3.4265 29.5978
#
#
#
# Elastic Compliance Matrix: (Units=1/GPa)
#
#
# Indices 1 2 3 4 5 6 
#
# 1 0.015907 0.002972 -0.007807 0.001058 0.000195 0.003281
# 2 0.002972 0.023222 -0.007918 0.001789 -0.000836 0.008011
# 3 -0.007807 -0.007918 0.014327 -0.002447 -0.004600 -0.000750
# 4 0.001058 0.001789 -0.002447 0.032011 0.001458 -0.006703
# 5 0.000195 -0.000836 -0.004600 0.001458 0.028154 0.000924
# 6 0.003281 0.008011 -0.000750 -0.006703 0.000924 0.039760
#
#
# Mechanical properties :
#
#
# Convention : Reuss Voigt Hill
#
# Bulk Modulus (GPa) = 35.77759 56.69225 46.23492
# Shear Modulus (GPa) = 26.56691 31.92637 29.24664
#
# Velocity S-wave (km/s) = 3.32874 3.64908 3.49259
# Velocity P-wave (km/s) = 5.44941 6.43425 5.96220
#
# Compressibility (1/GPa) = 0.02795046
#
# Stress axis : x y z
#
# Youngs Moduli (GPa) = 62.86426 43.06353 69.79714
#
# Poissons Ratio (x) = -0.12800 0.54489
# Poissons Ratio (y) = -0.18685 0.55268
# Poissons Ratio (z) = 0.49077 0.34099
#
# Static dielectric constant tensor:
#      x y z
#    x 2.006210 0.005550 0.035930 
#    y 0.005550 1.959420 0.004430 
#    z 0.035930 0.004430 1.966820 
# 
# From -- ./inp_files/222527.got.cif
#   From: 2010.05.17/outbox.cif.g08.bks.cpg/sg2_112_cif.got.tgz:222527.got - 2010.06.03 11:33:40.
