data_PCOD9046435
_publ_section_title
;
Structure prediction by ZEFSAII (Michael W. Deem and Ramdas Pophale) SiO2 
 PCOD9046435
Probable space group: P -1
;
_chemical_formula_sum "Si O2"
_cell_formula_units_Z 13
_cell_length_a 9.021235
_cell_length_b 14.824956
_cell_length_c 9.820554
_cell_angle_alpha 80.179420
_cell_angle_beta 30.852134
_cell_angle_gamma 92.179162
_cell_volume 617.875716
_symmetry_space_group_name_H-M "P -1"
_symmetry_group_IT_number 2
_symmetry_cell_setting 'triclinic'
loop_
_space_group_symop_operation_xyz
x,y,z
-x,-y,-z
loop_
_atom_site_type_symbol
_atom_site_label
_atom_site_fract_x
_atom_site_fract_y
_atom_site_fract_z
Si Si1 0.000000 0.500000 0.000000
Si Si2 0.713803 0.574152 0.443282
Si Si3 0.820491 0.571468 0.662113
Si Si4 0.703762 0.029526 0.697457
Si Si5 0.185917 0.748213 0.530757
Si Si6 0.847920 0.743595 0.075822
Si Si7 0.745074 0.050327 0.179080
O O1 0.928096 0.522252 0.215186
O O2 0.648394 0.492882 0.244288
O O3 0.795618 0.613768 0.521034
O O4 0.736613 0.660945 0.299037
O O5 0.000000 0.500000 0.500000
O O6 0.001285 0.661361 0.596046
O O7 0.500000 0.500000 0.000000
O O8 0.815846 0.145191 0.539343
O O9 0.462530 0.969700 0.786741
O O10 0.000000 0.000000 0.500000
O O11 0.500000 0.000000 0.000000
O O12 0.545119 0.759485 0.252804
O O13 0.035685 0.721382 0.807161
O O14 0.078059 0.837965 0.947646
O O15 0.500000 0.000000 0.500000
O O16 0.000000 0.000000 0.000000
#
# Coordination Sequence:
#
# PCOD9046435 Si02
#       7
#     1   2   2   2   2   2   2
#     4  10  24  42  72  92 138 166 252 290 344 418
#     4  11  26  44  71 104 132 187 240 293 367 418
#     4  12  29  48  71 102 149 189 235 303 367 432
#     4  12  26  46  75 104 150 190 234 299 369 441
#     4  12  27  48  71 109 141 192 245 294 373 431
#     4  12  25  45  75 102 142 187 241 306 347 445
#     4  12  23  47  71 105 144 185 241 292 362 429
#
# _framework density 21.039832000000001
#
# number of rings (size 3 to 8) (size 9 to 14) (size 15 to 20)
#    0.000    0.308    3.077    4.615   15.077    0.000 
#    2.769    0.000    0.000    0.000    0.000    0.000 
#    0.000    0.000    0.000    0.000    0.000    0.000 
#
# Total GULP energy -72437.239577 kJ/mol
# GULP energy per Si atom -5572.095352 kJ/mol
# Density = 2.099194 g / cm^3
# Si number density = 21.039832 Si / 1000 Ang^3
#
#
#
# Elastic Constant Matrix: (Units=GPa)
#
#
# Indices 1 2 3 4 5 6 
#
# 1 163.5224 70.0659 54.6897 1.6918 1.9544 43.9973
# 2 70.0659 129.4687 44.3609 -9.7861 -12.1264 35.5417
# 3 54.6897 44.3609 158.4240 29.5761 -13.1742 5.2712
# 4 1.6918 -9.7861 29.5761 41.4283 -0.3684 2.8680
# 5 1.9544 -12.1264 -13.1742 -0.3684 48.0580 1.8399
# 6 43.9973 35.5417 5.2712 2.8680 1.8399 46.5974
#
#
#
# Elastic Compliance Matrix: (Units=1/GPa)
#
#
# Indices 1 2 3 4 5 6 
#
# 1 0.010180 -0.002453 -0.003020 0.001662 -0.001563 -0.007440
# 2 -0.002453 0.013130 -0.003509 0.006272 0.002798 -0.007799
# 3 -0.003020 -0.003509 0.009816 -0.008033 0.001681 0.004846
# 4 0.001662 0.006272 -0.008033 0.031797 -0.000160 -0.007395
# 5 -0.001563 0.002798 0.001681 -0.000160 0.022103 -0.001711
# 6 -0.007440 -0.007799 0.004846 -0.007395 -0.001711 0.034408
#
#
# Mechanical properties :
#
#
# Convention : Reuss Voigt Hill
#
# Bulk Modulus (GPa) = 65.95104 87.73868 76.84486
# Shear Modulus (GPa) = 34.61380 46.03665 40.32523
#
# Velocity S-wave (km/s) = 4.06045 4.68276 4.38266
# Velocity P-wave (km/s) = 7.30732 8.42789 7.88753
#
# Compressibility (1/GPa) = 0.01516276
#
# Stress axis : x y z
#
# Youngs Moduli (GPa) = 98.23624 76.15893 101.87887
#
# Poissons Ratio (x) = 0.18678 0.30768
# Poissons Ratio (y) = 0.24093 0.35747
# Poissons Ratio (z) = 0.29668 0.26722
#
# Static dielectric constant tensor:
#      x y z
#    x 1.796470 -0.002890 0.031740 
#    y -0.002890 1.800490 -0.010310 
#    z 0.031740 -0.010310 1.707780 
# 
# From -- ./inp_files/201679.got.cif
#   From: 2010.05.17/outbox.cif.g08.bks.cpg/sg2_101_cif.got.tgz:201679.got - 2010.06.03 11:33:40.
