data_PCOD9046514
_publ_section_title
;
Structure prediction by ZEFSAII (Michael W. Deem and Ramdas Pophale) SiO2 
 PCOD9046514
Probable space group: P -1
;
_chemical_formula_sum "Si O2"
_cell_formula_units_Z 16
_cell_length_a 7.541898
_cell_length_b 11.711609
_cell_length_c 17.837192
_cell_angle_alpha 28.605975
_cell_angle_beta 58.382302
_cell_angle_gamma 57.541320
_cell_volume 630.973863
_symmetry_space_group_name_H-M "P -1"
_symmetry_group_IT_number 2
_symmetry_cell_setting 'triclinic'
loop_
_space_group_symop_operation_xyz
x,y,z
-x,-y,-z
loop_
_atom_site_type_symbol
_atom_site_label
_atom_site_fract_x
_atom_site_fract_y
_atom_site_fract_z
Si Si1 0.584383 0.357500 0.988775
Si Si2 0.007590 0.535468 0.237092
Si Si3 0.707181 0.817753 0.247359
Si Si4 0.158719 0.256045 0.084248
Si Si5 0.789376 0.196557 0.409690
Si Si6 0.336964 0.350603 0.488539
Si Si7 0.639113 0.118743 0.841800
Si Si8 0.084691 0.083820 0.588930
O O1 0.384453 0.334783 0.995264
O O2 0.687605 0.077810 0.140735
O O3 0.500000 0.500000 0.000000
O O4 0.760930 0.470417 0.842190
O O5 0.899754 0.766018 0.175653
O O6 0.862036 0.455678 0.249483
O O7 0.008840 0.322129 0.419779
O O8 0.710239 0.633742 0.421604
O O9 0.505714 0.820741 0.235929
O O10 0.165008 0.094020 0.101334
O O11 0.102398 0.061551 0.268927
O O12 0.000000 0.500000 0.000000
O O13 0.580411 0.224081 0.490487
O O14 0.747956 0.104483 0.389147
O O15 0.000000 0.000000 0.500000
O O16 0.302102 0.620299 0.303540
O O17 0.191027 0.182067 0.580125
O O18 0.500000 0.000000 0.000000
#
# Coordination Sequence:
#
# PCOD9046514 Si02
#       8
#     2   2   2   2   2   2   2   2
#     4  11  27  46  74 110 154 198 257 317 386 460
#     4  11  24  48  80 111 153 202 262 319 387 464
#     4  11  26  47  80 109 155 203 259 309 398 455
#     4  11  28  48  71 106 159 197 252 316 385 450
#     4  10  24  42  77 110 155 194 260 315 387 447
#     4  12  26  48  80 112 160 202 261 323 383 467
#     4  11  27  48  77 112 155 201 253 317 389 454
#     4  11  27  45  76 117 150 201 268 313 385 451
#
# _framework density 25.357626
#
# number of rings (size 3 to 8) (size 9 to 14) (size 15 to 20)
#    0.000    1.000    1.250    2.625   17.500    3.000 
#    0.000    0.000    0.000    0.000    0.000    0.000 
#    0.000    0.000    0.000    0.000    0.000    0.000 
#
# Total GULP energy -89505.494217 kJ/mol
# GULP energy per Si atom -5594.093389 kJ/mol
# Density = 2.529991 g / cm^3
# Si number density = 25.357626 Si / 1000 Ang^3
#
#
#
# Elastic Constant Matrix: (Units=GPa)
#
#
# Indices 1 2 3 4 5 6 
#
# 1 78.5166 14.2824 6.3907 -4.8654 -15.4000 12.5685
# 2 14.2824 204.7254 32.9060 -7.2702 -13.5313 1.1538
# 3 6.3907 32.9060 111.2538 -9.4468 -7.3410 7.8285
# 4 -4.8654 -7.2702 -9.4468 34.1752 -4.9112 -4.2582
# 5 -15.4000 -13.5313 -7.3410 -4.9112 29.6940 -0.3334
# 6 12.5685 1.1538 7.8285 -4.2582 -0.3334 38.5231
#
#
#
# Elastic Compliance Matrix: (Units=1/GPa)
#
#
# Indices 1 2 3 4 5 6 
#
# 1 0.015328 -0.000458 0.000365 0.002786 0.008239 -0.004682
# 2 -0.000458 0.005301 -0.001349 0.001029 0.002019 0.000396
# 3 0.000365 -0.001349 0.009874 0.002623 0.002429 -0.001774
# 4 0.002786 0.001029 0.002623 0.031999 0.007879 0.002133
# 5 0.008239 0.002019 0.002429 0.007879 0.040751 -0.002019
# 6 -0.004682 0.000396 -0.001774 0.002133 -0.002019 0.028053
#
#
# Mechanical properties :
#
#
# Convention : Reuss Voigt Hill
#
# Bulk Modulus (GPa) = 36.20709 55.73933 45.97321
# Shear Modulus (GPa) = 34.86808 43.20623 39.03716
#
# Velocity S-wave (km/s) = 3.71219 4.13228 3.92786
# Velocity P-wave (km/s) = 5.71694 6.69303 6.22415
#
# Compressibility (1/GPa) = 0.02761890
#
# Stress axis : x y z
#
# Youngs Moduli (GPa) = 65.24045 188.63885 101.27295
#
# Poissons Ratio (x) = 0.08641 -0.03693
# Poissons Ratio (y) = 0.02988 0.13660
# Poissons Ratio (z) = -0.02379 0.25445
#
# Static dielectric constant tensor:
#      x y z
#    x 2.064450 0.048310 0.057500 
#    y 0.048310 2.081700 -0.026950 
#    z 0.057500 -0.026950 2.022250 
# 
# From -- ./inp_files/559502.got.cif
#   From: 2010.05.17/outbox.cif.g08.bks.cpg/sg2_280_cif.got.tgz:559502.got - 2010.06.03 11:33:40.
