data_PCOD9046321
_publ_section_title
;
Structure prediction by ZEFSAII (Michael W. Deem and Ramdas Pophale) SiO2 
 PCOD9046321
Probable space group: P -1
;
_chemical_formula_sum "Si O2"
_cell_formula_units_Z 15
_cell_length_a 14.047261
_cell_length_b 12.704770
_cell_length_c 11.613396
_cell_angle_alpha 156.094584
_cell_angle_beta 60.271272
_cell_angle_gamma 116.966481
_cell_volume 729.337306
_symmetry_space_group_name_H-M "P -1"
_symmetry_group_IT_number 2
_symmetry_cell_setting 'triclinic'
loop_
_space_group_symop_operation_xyz
x,y,z
-x,-y,-z
loop_
_atom_site_type_symbol
_atom_site_label
_atom_site_fract_x
_atom_site_fract_y
_atom_site_fract_z
Si Si1 0.459886 0.000191 0.155066
Si Si2 0.632167 0.000297 0.433393
Si Si3 0.252943 0.499460 0.030453
Si Si4 0.050260 0.500418 0.322105
Si Si5 0.690485 0.499852 0.250122
Si Si6 0.206809 0.499438 0.555598
Si Si7 0.693597 0.000667 0.132461
Si Si8 0.000000 0.000000 0.000000
O O1 0.386378 0.251122 0.466878
O O2 0.567553 0.000797 0.168052
O O3 0.500000 0.000000 0.000000
O O4 0.386652 0.748788 0.964627
O O5 0.675469 0.252121 0.726420
O O6 0.686098 0.999801 0.273315
O O7 0.500000 0.000000 0.500000
O O8 0.675604 0.749323 0.223960
O O9 0.140346 0.499399 0.168206
O O10 0.231222 0.500072 0.907388
O O11 0.924055 0.500364 0.355441
O O12 0.060053 0.766713 0.654925
O O13 0.059744 0.235225 0.124392
O O14 0.743071 0.499606 0.345206
O O15 0.247409 0.750291 0.710896
O O16 0.247346 0.247593 0.208857
#
# Coordination Sequence:
#
# PCOD9046321 Si02
#       8
#     2   2   2   2   2   2   2   1
#     4  12  22  43  66 100 136 175 227 272 345 396
#     4  12  27  47  66 101 138 177 227 273 343 412
#     4  12  27  45  71  96 139 187 217 271 348 408
#     4  11  26  43  68 102 130 183 222 280 339 399
#     4  12  24  44  68  99 136 180 226 276 333 417
#     4  12  25  41  67 104 131 170 230 281 334 380
#     4  12  25  40  69 100 134 175 220 292 328 394
#     4  10  24  42  70  90 138 170 226 278 326 400
#
# _framework density 20.566614999999999
#
# number of rings (size 3 to 8) (size 9 to 14) (size 15 to 20)
#    0.000    0.267    2.667    6.400   11.200    0.533 
#    0.000    0.000    0.000    6.400    0.000    0.000 
#    0.000    0.000    0.000    0.000    0.000    0.000 
#
# Total GULP energy -83734.678099 kJ/mol
# GULP energy per Si atom -5582.311873 kJ/mol
# Density = 2.051980 g / cm^3
# Si number density = 20.566615 Si / 1000 Ang^3
#
#
#
# Elastic Constant Matrix: (Units=GPa)
#
#
# Indices 1 2 3 4 5 6 
#
# 1 123.5418 41.1765 42.2764 1.1862 -3.8972 9.1576
# 2 41.1765 177.0782 82.6436 -22.4680 -0.6868 1.7323
# 3 42.2764 82.6436 199.1178 32.5006 -6.7961 5.3444
# 4 1.1862 -22.4680 32.5006 35.5313 2.5222 2.6512
# 5 -3.8972 -0.6868 -6.7961 2.5222 14.6337 -9.9680
# 6 9.1576 1.7323 5.3444 2.6512 -9.9680 42.6874
#
#
#
# Elastic Compliance Matrix: (Units=1/GPa)
#
#
# Indices 1 2 3 4 5 6 
#
# 1 0.009171 -0.001567 -0.001207 -0.000130 0.000764 -0.001566
# 2 -0.001567 0.010694 -0.006444 0.013272 -0.006272 -0.001580
# 3 -0.001207 -0.006444 0.010524 -0.014383 0.008096 0.001987
# 4 -0.000130 0.013272 -0.014383 0.051551 -0.019358 -0.006432
# 5 0.000764 -0.006272 0.008096 -0.019358 0.089817 0.021253
# 6 -0.001566 -0.001580 0.001987 -0.006432 0.021253 0.028940
#
#
# Mechanical properties :
#
#
# Convention : Reuss Voigt Hill
#
# Bulk Modulus (GPa) = 83.66645 92.43676 88.05160
# Shear Modulus (GPa) = 22.40962 40.81325 31.61144
#
# Velocity S-wave (km/s) = 3.30451 4.45954 3.92475
# Velocity P-wave (km/s) = 7.43833 8.45927 7.96517
#
# Compressibility (1/GPa) = 0.01195222
#
# Stress axis : x y z
#
# Youngs Moduli (GPa) = 109.03397 93.50936 95.02441
#
# Poissons Ratio (x) = 0.14657 0.11472
# Poissons Ratio (y) = 0.17091 0.61231
# Poissons Ratio (z) = 0.13164 0.60255
#
# Static dielectric constant tensor:
#      x y z
#    x 1.751440 -0.010950 0.003510 
#    y -0.010950 1.725170 -0.002340 
#    z 0.003510 -0.002340 1.719260 
# 
# From -- ./inp_files/452678.got.cif
#   From: 2010.05.17/outbox.cif.g08.bks.cpg/sg2_227_cif.got.tgz:452678.got - 2010.06.03 11:33:40.
