data_PCOD9046839
_publ_section_title
;
Structure prediction by ZEFSAII (Michael W. Deem and Ramdas Pophale) SiO2 
 PCOD9046839
Probable space group: P -1
;
_chemical_formula_sum "Si O2"
_cell_formula_units_Z 14
_cell_length_a 6.471359
_cell_length_b 14.536675
_cell_length_c 14.366765
_cell_angle_alpha 147.488113
_cell_angle_beta 72.723804
_cell_angle_gamma 94.581295
_cell_volume 654.205926
_symmetry_space_group_name_H-M "P -1"
_symmetry_group_IT_number 2
_symmetry_cell_setting 'triclinic'
loop_
_space_group_symop_operation_xyz
x,y,z
-x,-y,-z
loop_
_atom_site_type_symbol
_atom_site_label
_atom_site_fract_x
_atom_site_fract_y
_atom_site_fract_z
Si Si1 0.098452 0.662484 0.646851
Si Si2 0.761853 0.367300 0.855154
Si Si3 0.812875 0.054358 0.250464
Si Si4 0.263869 0.706480 0.855234
Si Si5 0.174346 0.490412 0.847107
Si Si6 0.401287 0.864102 0.451384
Si Si7 0.382975 0.108829 0.017789
O O1 0.171115 0.755126 0.627114
O O2 0.274618 0.643441 0.692603
O O3 0.000000 0.500000 0.500000
O O4 0.877529 0.809632 0.846935
O O5 0.758010 0.195151 0.651003
O O6 0.935548 0.453557 0.856859
O O7 0.500000 0.500000 0.000000
O O8 0.830130 0.355310 0.944212
O O9 0.738342 0.060473 0.372060
O O10 0.624203 0.006969 0.171037
O O11 0.057153 0.895759 0.065031
O O12 0.214758 0.556269 0.797103
O O13 0.495754 0.741118 0.884664
O O14 0.381797 0.310680 0.695635
O O15 0.500000 0.000000 0.500000
O O16 0.500000 0.000000 0.000000
#
# Coordination Sequence:
#
# PCOD9046839 Si02
#       7
#     2   2   2   2   2   2   2
#     4  11  25  41  64  98 135 163 211 271 317 380
#     4   9  22  44  66  87 131 164 221 264 318 377
#     4  11  25  42  64  95 133 171 213 266 320 376
#     4  11  24  42  69  92 128 173 214 259 322 388
#     4  10  24  43  68  94 122 175 219 259 328 383
#     4  11  27  43  64  97 135 165 215 274 320 377
#     4  11  21  44  66  90 129 173 215 252 321 389
#
# _framework density 21.399989000000001
#
# number of rings (size 3 to 8) (size 9 to 14) (size 15 to 20)
#    0.000    1.429    2.857    0.857   12.000    5.714 
#    0.000    0.000    0.000    0.000    0.000    0.000 
#    0.000    0.000    0.000    0.000    0.000    0.000 
#
# Total GULP energy -78192.569054 kJ/mol
# GULP energy per Si atom -5585.183504 kJ/mol
# Density = 2.135128 g / cm^3
# Si number density = 21.399989 Si / 1000 Ang^3
#
#
#
# Elastic Constant Matrix: (Units=GPa)
#
#
# Indices 1 2 3 4 5 6 
#
# 1 95.5340 17.0190 26.1558 -3.9054 21.0424 16.3620
# 2 17.0190 127.1581 42.4954 -5.5474 8.0172 7.9939
# 3 26.1558 42.4954 81.1905 -16.8335 23.8672 -3.9525
# 4 -3.9054 -5.5474 -16.8335 32.0239 -0.0656 -3.9589
# 5 21.0424 8.0172 23.8672 -0.0656 42.5055 -1.7841
# 6 16.3620 7.9939 -3.9525 -3.9589 -1.7841 23.2508
#
#
#
# Elastic Compliance Matrix: (Units=1/GPa)
#
#
# Indices 1 2 3 4 5 6 
#
# 1 0.014771 0.000517 -0.004420 -0.001936 -0.005438 -0.012071
# 2 0.000517 0.010147 -0.006594 -0.002293 0.001308 -0.005264
# 3 -0.004420 -0.006594 0.022698 0.011532 -0.008854 0.010520
# 4 -0.001936 -0.002293 0.011532 0.037909 -0.004598 0.010213
# 5 -0.005438 0.001308 -0.008854 -0.004598 0.031082 0.003474
# 6 -0.012071 -0.005264 0.010520 0.010213 0.003474 0.057107
#
#
# Mechanical properties :
#
#
# Convention : Reuss Voigt Hill
#
# Bulk Modulus (GPa) = 37.56089 52.80258 45.18173
# Shear Modulus (GPa) = 24.56019 34.10353 29.33186
#
# Velocity S-wave (km/s) = 3.39141 3.99635 3.70624
# Velocity P-wave (km/s) = 5.73807 6.78396 6.28282
#
# Compressibility (1/GPa) = 0.02662344
#
# Stress axis : x y z
#
# Youngs Moduli (GPa) = 67.69823 98.55119 44.05724
#
# Poissons Ratio (x) = -0.05098 0.19472
# Poissons Ratio (y) = -0.03502 0.29051
# Poissons Ratio (z) = 0.29921 0.64984
#
# Static dielectric constant tensor:
#      x y z
#    x 1.667000 0.207390 0.054540 
#    y 0.207390 1.407220 -0.073310 
#    z 0.054540 -0.073310 1.808280 
# 
# From -- ./inp_files/37088.got.cif
#   From: 2010.05.17/outbox.cif.g08.bks.cpg/sg2_19_cif.got.tgz:37088.got - 2010.06.03 11:33:40.
