data_PCOD9046035
_publ_section_title
;
Structure prediction by ZEFSAII (Michael W. Deem and Ramdas Pophale) SiO2 
 PCOD9046035
Probable space group: P -1
;
_chemical_formula_sum "Si O2"
_cell_formula_units_Z 16
_cell_length_a 11.825511
_cell_length_b 11.420930
_cell_length_c 18.391462
_cell_angle_alpha 32.632841
_cell_angle_beta 41.725872
_cell_angle_gamma 30.162493
_cell_volume 671.495650
_symmetry_space_group_name_H-M "P -1"
_symmetry_group_IT_number 2
_symmetry_cell_setting 'triclinic'
loop_
_space_group_symop_operation_xyz
x,y,z
-x,-y,-z
loop_
_atom_site_type_symbol
_atom_site_label
_atom_site_fract_x
_atom_site_fract_y
_atom_site_fract_z
Si Si1 0.528945 0.815693 0.906612
Si Si2 0.134331 0.988659 0.574652
Si Si3 0.697105 0.605116 0.227525
Si Si4 0.258079 0.797465 0.263214
Si Si5 0.316119 0.287541 0.276533
Si Si6 0.903885 0.119227 0.905152
Si Si7 0.047936 0.655203 0.969386
Si Si8 0.533087 0.221080 0.345300
O O1 0.645417 0.694431 0.835824
O O2 0.702270 0.647364 0.979265
O O3 0.410690 0.151766 0.786309
O O4 0.339758 0.794293 0.021698
O O5 0.189154 0.723458 0.642537
O O6 0.255891 0.882761 0.652037
O O7 0.242658 0.103183 0.422583
O O8 0.869922 0.215980 0.602264
O O9 0.486582 0.721996 0.216517
O O10 0.879686 0.610703 0.101358
O O11 0.335750 0.551659 0.295308
O O12 0.082939 0.131398 0.147538
O O13 0.116196 0.607283 0.235874
O O14 0.522812 0.197429 0.275420
O O15 0.047025 0.865291 0.912295
O O16 0.000000 0.000000 0.000000
O O17 0.500000 0.000000 0.500000
#
# Coordination Sequence:
#
# PCOD9046035 Si02
#       8
#     2   2   2   2   2   2   2   2
#     4  11  25  41  69  94 129 174 213 267 328 371
#     4  10  24  42  66  94 131 172 217 262 317 390
#     4  10  24  45  61  95 132 165 227 264 318 382
#     4  11  22  41  68  95 129 173 211 270 328 373
#     4  11  22  43  64  96 133 166 211 264 319 393
#     4  11  23  42  63 100 133 163 215 264 322 393
#     4  11  23  40  68  98 127 169 214 274 321 381
#     4   9  21  40  60  95 133 165 209 258 316 388
#
# _framework density 23.827407999999998
#
# number of rings (size 3 to 8) (size 9 to 14) (size 15 to 20)
#    0.000    1.500    2.500    1.500    1.750    5.500 
#    6.750    2.500    0.000    0.000    0.000    0.000 
#    0.000    0.000    0.000    0.000    0.000    0.000 
#
# Total GULP energy -89306.485328 kJ/mol
# GULP energy per Si atom -5581.655333 kJ/mol
# Density = 2.377318 g / cm^3
# Si number density = 23.827408 Si / 1000 Ang^3
#
#
#
# Elastic Constant Matrix: (Units=GPa)
#
#
# Indices 1 2 3 4 5 6 
#
# 1 48.2759 22.9064 12.4664 -4.7594 -14.3706 -2.3006
# 2 22.9064 73.1751 34.8563 -6.0916 -23.8885 1.1806
# 3 12.4664 34.8563 101.7537 -18.3212 -29.0152 4.9151
# 4 -4.7594 -6.0916 -18.3212 24.2823 10.0342 -15.8922
# 5 -14.3706 -23.8885 -29.0152 10.0342 39.1947 -5.2730
# 6 -2.3006 1.1806 4.9151 -15.8922 -5.2730 51.7749
#
#
#
# Elastic Compliance Matrix: (Units=1/GPa)
#
#
# Indices 1 2 3 4 5 6 
#
# 1 0.025721 -0.006487 0.001297 0.003924 0.005832 0.002966
# 2 -0.006487 0.019931 -0.004508 -0.002935 0.007117 -0.000491
# 3 0.001297 -0.004508 0.014561 0.008814 0.006540 0.002150
# 4 0.003924 -0.002935 0.008814 0.062645 -0.007458 0.017874
# 5 0.005832 0.007117 0.006540 -0.007458 0.038895 0.001148
# 6 0.002966 -0.000491 0.002150 0.017874 0.001148 0.024857
#
#
# Mechanical properties :
#
#
# Convention : Reuss Voigt Hill
#
# Bulk Modulus (GPa) = 24.49913 40.40698 32.45306
# Shear Modulus (GPa) = 22.76741 33.24876 28.00808
#
# Velocity S-wave (km/s) = 3.09449 3.73956 3.43221
# Velocity P-wave (km/s) = 4.80334 5.96999 5.41815
#
# Compressibility (1/GPa) = 0.04081778
#
# Stress axis : x y z
#
# Youngs Moduli (GPa) = 38.87799 50.17336 68.67627
#
# Poissons Ratio (x) = 0.32547 -0.08908
# Poissons Ratio (y) = 0.25220 0.30959
# Poissons Ratio (z) = -0.05043 0.22618
#
# Static dielectric constant tensor:
#      x y z
#    x 1.948030 -0.002660 0.047930 
#    y -0.002660 1.948560 -0.052070 
#    z 0.047930 -0.052070 1.900980 
# 
# From -- ./inp_files/70450.got.cif
#   From: 2010.05.17/outbox.cif.g08.bks.cpg/sg2_36_cif.got.tgz:70450.got - 2010.06.03 11:33:40.
