data_PCOD9046032
_publ_section_title
;
Structure prediction by ZEFSAII (Michael W. Deem and Ramdas Pophale) SiO2 
 PCOD9046032
Probable space group: P -1
;
_chemical_formula_sum "Si O2"
_cell_formula_units_Z 14
_cell_length_a 8.883891
_cell_length_b 18.396068
_cell_length_c 15.122141
_cell_angle_alpha 159.190300
_cell_angle_beta 131.751210
_cell_angle_gamma 38.925762
_cell_volume 530.439186
_symmetry_space_group_name_H-M "P -1"
_symmetry_group_IT_number 2
_symmetry_cell_setting 'triclinic'
loop_
_space_group_symop_operation_xyz
x,y,z
-x,-y,-z
loop_
_atom_site_type_symbol
_atom_site_label
_atom_site_fract_x
_atom_site_fract_y
_atom_site_fract_z
Si Si1 0.531932 0.218700 0.243272
Si Si2 0.495727 0.367768 0.214078
Si Si3 0.322430 0.725325 0.257712
Si Si4 0.984725 0.519261 0.408693
Si Si5 0.339398 0.131524 0.474354
Si Si6 0.023523 0.417118 0.017364
Si Si7 0.295019 0.693243 0.950739
O O1 0.621607 0.198858 0.157417
O O2 0.639677 0.332615 0.477000
O O3 0.240060 0.453850 0.397342
O O4 0.500000 0.000000 0.000000
O O5 0.293658 0.327913 0.053830
O O6 0.698857 0.290524 0.132654
O O7 0.389716 0.920050 0.484575
O O8 0.500000 0.500000 0.000000
O O9 0.055763 0.773302 0.212176
O O10 0.459361 0.579442 0.236094
O O11 0.000000 0.500000 0.500000
O O12 0.776279 0.766101 0.552950
O O13 0.936240 0.312346 0.121533
O O14 0.169630 0.349452 0.727647
O O15 0.326511 0.902858 0.235320
O O16 0.000000 0.500000 0.000000
#
# Coordination Sequence:
#
# PCOD9046032 Si02
#       7
#     2   2   2   2   2   2   2
#     4  11  26  44  68  93 132 170 216 269 328 383
#     4  11  24  44  63  98 133 167 214 274 319 379
#     4   9  21  41  62  87 130 167 207 263 312 374
#     4  11  23  42  64  95 130 168 213 272 324 382
#     4  10  24  42  66  92 129 172 219 260 324 392
#     4  11  21  42  67  90 134 173 207 272 321 370
#     4  11  23  40  67  94 127 170 219 259 321 391
#
# _framework density 26.393222999999999
#
# number of rings (size 3 to 8) (size 9 to 14) (size 15 to 20)
#    0.000    1.429    4.286    0.000    4.000    2.857 
#    0.000    2.143    0.000    0.000    0.000    0.000 
#    0.000    0.000    0.000    0.000    0.000    0.000 
#
# Total GULP energy -78259.247861 kJ/mol
# GULP energy per Si atom -5589.946276 kJ/mol
# Density = 2.633315 g / cm^3
# Si number density = 26.393223 Si / 1000 Ang^3
#
#
#
# Elastic Constant Matrix: (Units=GPa)
#
#
# Indices 1 2 3 4 5 6 
#
# 1 109.1964 25.3352 19.4043 -10.8521 26.7101 2.8641
# 2 25.3352 77.4726 29.2394 -9.7709 7.0686 19.5699
# 3 19.4043 29.2394 162.5861 -2.9625 46.8077 2.3376
# 4 -10.8521 -9.7709 -2.9625 33.7054 0.0991 8.0110
# 5 26.7101 7.0686 46.8077 0.0991 57.1088 -17.9741
# 6 2.8641 19.5699 2.3376 8.0110 -17.9741 51.8779
#
#
#
# Elastic Compliance Matrix: (Units=1/GPa)
#
#
# Indices 1 2 3 4 5 6 
#
# 1 0.011685 -0.002429 0.001173 0.003849 -0.007016 -0.002807
# 2 -0.002429 0.017397 -0.002105 0.005952 -0.001779 -0.007869
# 3 0.001173 -0.002105 0.008885 0.001236 -0.008450 -0.002789
# 4 0.003849 0.005952 0.001236 0.035217 -0.006862 -0.010329
# 5 -0.007016 -0.001779 -0.008450 -0.006862 0.032253 0.013673
# 6 -0.002807 -0.007869 -0.002789 -0.010329 0.013673 0.028858
#
#
# Mechanical properties :
#
#
# Convention : Reuss Voigt Hill
#
# Bulk Modulus (GPa) = 32.00695 55.24587 43.62641
# Shear Modulus (GPa) = 33.01784 46.89016 39.95400
#
# Velocity S-wave (km/s) = 3.54078 4.21954 3.89498
# Velocity P-wave (km/s) = 5.37303 6.68705 6.06573
#
# Compressibility (1/GPa) = 0.03124322
#
# Stress axis : x y z
#
# Youngs Moduli (GPa) = 85.57787 57.47961 112.55510
#
# Poissons Ratio (x) = 0.13964 -0.13197
# Poissons Ratio (y) = 0.20790 0.23694
# Poissons Ratio (z) = -0.10034 0.12100
#
# Static dielectric constant tensor:
#      x y z
#    x 2.010530 0.004710 -0.063240 
#    y 0.004710 2.171370 -0.019620 
#    z -0.063240 -0.019620 2.198740 
# 
# From -- ./inp_files/53047.got.cif
#   From: 2010.05.17/outbox.cif.g08.bks.cpg/sg2_27_cif.got.tgz:53047.got - 2010.06.03 11:33:40.
