data_PCOD9046183
_publ_section_title
;
Structure prediction by ZEFSAII (Michael W. Deem and Ramdas Pophale) SiO2 
 PCOD9046183
Probable space group: P -1
;
_chemical_formula_sum "Si O2"
_cell_formula_units_Z 14
_cell_length_a 12.774606
_cell_length_b 9.677039
_cell_length_c 13.909178
_cell_angle_alpha 142.404929
_cell_angle_beta 43.133819
_cell_angle_gamma 124.190847
_cell_volume 716.661567
_symmetry_space_group_name_H-M "P -1"
_symmetry_group_IT_number 2
_symmetry_cell_setting 'triclinic'
loop_
_space_group_symop_operation_xyz
x,y,z
-x,-y,-z
loop_
_atom_site_type_symbol
_atom_site_label
_atom_site_fract_x
_atom_site_fract_y
_atom_site_fract_z
Si Si1 0.991270 0.897315 0.057364
Si Si2 0.794232 0.472524 0.000635
Si Si3 0.611999 0.832768 0.648721
Si Si4 0.891839 0.998969 0.663323
Si Si5 0.361736 0.680882 0.178088
Si Si6 0.707865 0.387355 0.222410
Si Si7 0.917411 0.281437 0.469515
O O1 0.152308 0.782735 0.927918
O O2 0.918565 0.099398 0.282945
O O3 0.878608 0.690616 0.029798
O O4 0.000000 0.000000 0.000000
O O5 0.707372 0.385672 0.916403
O O6 0.902548 0.254201 0.834183
O O7 0.711647 0.493349 0.170275
O O8 0.723591 0.917706 0.704842
O O9 0.692369 0.609019 0.423343
O O10 0.445456 0.755797 0.748599
O O11 0.597013 0.054678 0.712635
O O12 0.967926 0.828163 0.590811
O O13 0.000000 0.000000 0.500000
O O14 0.240256 0.666769 0.338856
O O15 0.500000 0.500000 0.000000
O O16 0.000000 0.500000 0.500000
#
# Coordination Sequence:
#
# PCOD9046183 Si02
#       7
#     2   2   2   2   2   2   2
#     4  12  27  43  69 101 138 175 228 283 337 402
#     4  11  23  42  71  97 126 177 227 275 338 387
#     4  10  24  42  68  95 137 175 230 265 349 389
#     4  11  21  42  70  94 127 172 225 275 322 407
#     4  11  26  45  68  99 143 178 219 284 338 407
#     4  11  24  43  69  99 134 177 223 287 326 409
#     4  12  26  43  68 103 134 178 227 278 342 398
#
# _framework density 19.535025000000001
#
# number of rings (size 3 to 8) (size 9 to 14) (size 15 to 20)
#    0.000    0.857    4.286    3.000    6.000    3.429 
#    2.571    1.429    0.000    0.000    0.000    0.000 
#    0.000    0.000    0.000    0.000    0.000    0.000 
#
# Total GULP energy -78051.539765 kJ/mol
# GULP energy per Si atom -5575.109983 kJ/mol
# Density = 1.949056 g / cm^3
# Si number density = 19.535025 Si / 1000 Ang^3
#
#
#
# Elastic Constant Matrix: (Units=GPa)
#
#
# Indices 1 2 3 4 5 6 
#
# 1 70.9157 65.4045 58.0428 -9.7128 -1.6596 -10.0862
# 2 65.4045 203.1399 69.1998 4.7443 2.0622 -6.7613
# 3 58.0428 69.1998 114.8162 4.2052 -4.9474 -4.1587
# 4 -9.7128 4.7443 4.2052 37.9117 -6.4892 5.3978
# 5 -1.6596 2.0622 -4.9474 -6.4892 30.7777 3.7209
# 6 -10.0862 -6.7613 -4.1587 5.3978 3.7209 38.7675
#
#
#
# Elastic Compliance Matrix: (Units=1/GPa)
#
#
# Indices 1 2 3 4 5 6 
#
# 1 0.032241 -0.006152 -0.012729 0.010111 0.001707 0.004378
# 2 -0.006152 0.007443 -0.001345 -0.002645 -0.001614 0.000076
# 3 -0.012729 -0.001345 0.016124 -0.004488 0.001207 -0.001308
# 4 0.010111 -0.002645 -0.004488 0.031483 0.007046 -0.003372
# 5 0.001707 -0.001614 0.001207 0.007046 0.034859 -0.004035
# 6 0.004378 0.000076 -0.001308 -0.003372 -0.004035 0.027664
#
#
# Mechanical properties :
#
#
# Convention : Reuss Voigt Hill
#
# Bulk Modulus (GPa) = 65.12612 86.01844 75.57228
# Shear Modulus (GPa) = 25.59052 34.57303 30.08177
#
# Velocity S-wave (km/s) = 3.62329 4.21146 3.92840
# Velocity P-wave (km/s) = 7.13546 8.23268 7.70363
#
# Compressibility (1/GPa) = 0.01535482
#
# Stress axis : x y z
#
# Youngs Moduli (GPa) = 31.01614 134.36275 62.01777
#
# Poissons Ratio (x) = 0.82663 0.78943
# Poissons Ratio (y) = 0.19082 0.08344
# Poissons Ratio (z) = 0.39481 0.18077
#
# Static dielectric constant tensor:
#      x y z
#    x 1.721290 -0.033200 0.043660 
#    y -0.033200 1.807830 -0.120680 
#    z 0.043660 -0.120680 1.868460 
# 
# From -- ./inp_files/155522.got.cif
#   From: 2010.05.17/outbox.cif.g08.bks.cpg/sg2_78_cif.got.tgz:155522.got - 2010.06.03 11:33:40.
