data_PCOD9046092
_publ_section_title
;
Structure prediction by ZEFSAII (Michael W. Deem and Ramdas Pophale) SiO2 
 PCOD9046092
Probable space group: P -1
;
_chemical_formula_sum "Si O2"
_cell_formula_units_Z 14
_cell_length_a 12.600370
_cell_length_b 7.062929
_cell_length_c 7.261147
_cell_angle_alpha 81.115742
_cell_angle_beta 96.494073
_cell_angle_gamma 58.587473
_cell_volume 530.326579
_symmetry_space_group_name_H-M "P -1"
_symmetry_group_IT_number 2
_symmetry_cell_setting 'triclinic'
loop_
_space_group_symop_operation_xyz
x,y,z
-x,-y,-z
loop_
_atom_site_type_symbol
_atom_site_label
_atom_site_fract_x
_atom_site_fract_y
_atom_site_fract_z
Si Si1 0.189912 0.660786 0.504642
Si Si2 0.394230 0.050972 0.726939
Si Si3 0.983610 0.227187 0.875793
Si Si4 0.427974 0.453187 0.332595
Si Si5 0.191149 0.102821 0.411543
Si Si6 0.612011 0.113632 0.852422
Si Si7 0.902325 0.497748 0.173151
O O1 0.064948 0.750915 0.343215
O O2 0.298808 0.516707 0.395992
O O3 0.194480 0.881378 0.519142
O O4 0.188045 0.533876 0.705041
O O5 0.489492 0.796828 0.697845
O O6 0.267310 0.156983 0.563307
O O7 0.519254 0.843879 0.264561
O O8 0.367998 0.020402 0.936543
O O9 0.096028 0.273520 0.872516
O O10 0.892150 0.422017 0.977577
O O11 0.000000 0.000000 0.000000
O O12 0.500000 0.500000 0.500000
O O13 0.398801 0.648796 0.149842
O O14 0.277466 0.018909 0.257110
O O15 0.047104 0.305695 0.304247
#
# Coordination Sequence:
#
# PCOD9046092 Si02
#       7
#     2   2   2   2   2   2   2
#     4  11  24  45  71 103 143 190 233 287 359 419
#     4  11  23  45  70 100 143 184 237 292 352 416
#     4  11  25  47  72 100 143 182 240 292 346 425
#     4  11  23  44  70 102 142 184 237 289 348 420
#     4  11  23  42  73 101 143 183 238 292 351 426
#     4  10  24  42  67 105 137 189 232 290 352 411
#     4  11  26  47  70 106 140 187 235 291 357 422
#
# _framework density 26.398828999999999
#
# number of rings (size 3 to 8) (size 9 to 14) (size 15 to 20)
#    0.000    1.143    4.286    1.714    2.000    3.429 
#    2.571    1.429    0.000    0.000    0.000    0.000 
#    0.000    0.000    0.000    0.000    0.000    0.000 
#
# Total GULP energy -78512.123923 kJ/mol
# GULP energy per Si atom -5608.008852 kJ/mol
# Density = 2.633874 g / cm^3
# Si number density = 26.398829 Si / 1000 Ang^3
#
#
#
# Elastic Constant Matrix: (Units=GPa)
#
#
# Indices 1 2 3 4 5 6 
#
# 1 152.7198 47.2384 54.1121 8.0012 -30.5610 27.5058
# 2 47.2384 72.5166 8.9864 3.2368 -11.6623 17.2791
# 3 54.1121 8.9864 111.6025 -3.7858 -25.2830 13.4207
# 4 8.0012 3.2368 -3.7858 39.5884 0.2840 -8.9562
# 5 -30.5610 -11.6623 -25.2830 0.2840 56.7748 -12.3123
# 6 27.5058 17.2791 13.4207 -8.9562 -12.3123 58.9674
#
#
#
# Elastic Compliance Matrix: (Units=1/GPa)
#
#
# Indices 1 2 3 4 5 6 
#
# 1 0.010679 -0.005391 -0.004014 -0.002662 0.002346 -0.002403
# 2 -0.005391 0.018015 0.001707 -0.000930 0.000890 -0.003108
# 3 -0.004014 0.001707 0.011609 0.001684 0.003280 -0.000329
# 4 -0.002662 -0.000930 0.001684 0.027232 0.000138 0.005296
# 5 0.002346 0.000890 0.003280 0.000138 0.021019 0.002308
# 6 -0.002403 -0.003108 -0.000329 0.005296 0.002308 0.020351
#
#
# Mechanical properties :
#
#
# Convention : Reuss Voigt Hill
#
# Bulk Modulus (GPa) = 40.14736 61.94585 51.04660
# Shear Modulus (GPa) = 37.70631 46.16625 41.93628
#
# Velocity S-wave (km/s) = 3.78343 4.18640 3.99001
# Velocity P-wave (km/s) = 5.85891 6.84721 6.37225
#
# Compressibility (1/GPa) = 0.02490824
#
# Stress axis : x y z
#
# Youngs Moduli (GPa) = 93.64045 55.50882 86.14119
#
# Poissons Ratio (x) = 0.29922 0.34575
# Poissons Ratio (y) = 0.50477 -0.14703
# Poissons Ratio (z) = 0.37585 -0.09475
#
# Static dielectric constant tensor:
#      x y z
#    x 2.053190 -0.044720 -0.002290 
#    y -0.044720 2.168340 -0.047960 
#    z -0.002290 -0.047960 2.025740 
# 
# From -- ./inp_files/117655.got.cif
#   From: 2010.05.17/outbox.cif.g08.bks.cpg/sg2_59_cif.got.tgz:117655.got - 2010.06.03 11:33:40.
