data_PCOD9046436
_publ_section_title
;
Structure prediction by ZEFSAII (Michael W. Deem and Ramdas Pophale) SiO2 
 PCOD9046436
Probable space group: P -1
;
_chemical_formula_sum "Si O2"
_cell_formula_units_Z 12
_cell_length_a 9.222636
_cell_length_b 16.232057
_cell_length_c 7.944952
_cell_angle_alpha 107.200523
_cell_angle_beta 131.389956
_cell_angle_gamma 43.263220
_cell_volume 570.234016
_symmetry_space_group_name_H-M "P -1"
_symmetry_group_IT_number 2
_symmetry_cell_setting 'triclinic'
loop_
_space_group_symop_operation_xyz
x,y,z
-x,-y,-z
loop_
_atom_site_type_symbol
_atom_site_label
_atom_site_fract_x
_atom_site_fract_y
_atom_site_fract_z
Si Si1 0.095469 0.878217 0.581830
Si Si2 0.010307 0.893313 0.903113
Si Si3 0.105914 0.482781 0.320850
Si Si4 0.560507 0.578936 0.148274
Si Si5 0.200771 0.120230 0.933311
Si Si6 0.267608 0.297222 0.089802
O O1 0.937303 0.911271 0.657718
O O2 0.432814 0.781982 0.822053
O O3 0.035323 0.829645 0.357993
O O4 0.000000 0.000000 0.500000
O O5 0.295161 0.735648 0.039026
O O6 0.822899 0.918654 0.929172
O O7 0.000000 0.000000 0.000000
O O8 0.300610 0.470502 0.590477
O O9 0.286914 0.343136 0.304594
O O10 0.818801 0.536223 0.213020
O O11 0.997718 0.578176 0.144972
O O12 0.500000 0.500000 0.000000
O O13 0.206080 0.219321 0.028806
O O14 0.500000 0.000000 0.000000
#
# Coordination Sequence:
#
# PCOD9046436 Si02
#       6
#     2   2   2   2   2   2
#     4  12  24  46  70 101 144 181 227 297 349 415
#     4  12  25  45  73 102 141 186 230 291 355 409
#     4  10  24  42  72  93 140 185 221 293 347 412
#     4  11  24  45  67 106 137 178 240 282 347 425
#     4  12  26  44  69 104 138 182 237 282 352 424
#     4  11  23  46  67 103 136 180 236 282 350 415
#
# _framework density 21.043993
#
# number of rings (size 3 to 8) (size 9 to 14) (size 15 to 20)
#    0.000    0.667    5.000    2.000    2.333    0.667 
#    0.000    4.167    0.000    0.000    0.000    0.000 
#    0.000    0.000    0.000    0.000    0.000    0.000 
#
# Total GULP energy -66935.197477 kJ/mol
# GULP energy per Si atom -5577.933123 kJ/mol
# Density = 2.099610 g / cm^3
# Si number density = 21.043993 Si / 1000 Ang^3
#
#
#
# Elastic Constant Matrix: (Units=GPa)
#
#
# Indices 1 2 3 4 5 6 
#
# 1 140.8581 44.3678 43.9999 15.1351 -15.4966 -0.6506
# 2 44.3678 135.9979 49.6453 19.9586 10.7658 13.4409
# 3 43.9999 49.6453 112.7841 29.3535 -6.6888 18.1102
# 4 15.1351 19.9586 29.3535 38.4828 1.5251 4.1414
# 5 -15.4966 10.7658 -6.6888 1.5251 28.4378 6.0266
# 6 -0.6506 13.4409 18.1102 4.1414 6.0266 31.8221
#
#
#
# Elastic Compliance Matrix: (Units=1/GPa)
#
#
# Indices 1 2 3 4 5 6 
#
# 1 0.009315 -0.002693 -0.002136 -0.001028 0.005293 0.001675
# 2 -0.002693 0.010187 -0.003201 -0.001419 -0.005733 -0.001266
# 3 -0.002136 -0.003201 0.014679 -0.008157 0.005424 -0.007011
# 4 -0.001028 -0.001419 -0.008157 0.033331 -0.004080 0.001656
# 5 0.005293 -0.005733 0.005424 -0.004080 0.043464 -0.008258
# 6 0.001675 -0.001266 -0.007011 0.001656 -0.008258 0.037332
#
#
# Mechanical properties :
#
#
# Convention : Reuss Voigt Hill
#
# Bulk Modulus (GPa) = 55.18299 73.96288 64.57293
# Shear Modulus (GPa) = 29.34090 36.52367 32.93229
#
# Velocity S-wave (km/s) = 3.73804 4.17056 3.96021
# Velocity P-wave (km/s) = 6.70150 7.64294 7.18765
#
# Compressibility (1/GPa) = 0.01812153
#
# Stress axis : x y z
#
# Youngs Moduli (GPa) = 107.34901 98.16140 68.12242
#
# Poissons Ratio (x) = 0.26434 0.14554
# Poissons Ratio (y) = 0.28908 0.21806
# Poissons Ratio (z) = 0.22934 0.31421
#
# Static dielectric constant tensor:
#      x y z
#    x 1.757960 -0.029510 0.008240 
#    y -0.029510 1.756610 -0.036380 
#    z 0.008240 -0.036380 1.756200 
# 
# From -- ./inp_files/203438.got.cif
#   From: 2010.05.17/outbox.cif.g08.bks.cpg/sg2_102_cif.got.tgz:203438.got - 2010.06.03 11:33:40.
