data_PCOD9047895
_publ_section_title
;
Structure prediction by ZEFSAII (Michael W. Deem and Ramdas Pophale) SiO2 
 PCOD9047895
Probable space group: P -1
;
_chemical_formula_sum "Si O2"
_cell_formula_units_Z 16
_cell_length_a 8.281933
_cell_length_b 14.882947
_cell_length_c 13.032812
_cell_angle_alpha 63.432634
_cell_angle_beta 108.498805
_cell_angle_gamma 53.269555
_cell_volume 666.033124
_symmetry_space_group_name_H-M "P -1"
_symmetry_group_IT_number 2
_symmetry_cell_setting 'triclinic'
loop_
_space_group_symop_operation_xyz
x,y,z
-x,-y,-z
loop_
_atom_site_type_symbol
_atom_site_label
_atom_site_fract_x
_atom_site_fract_y
_atom_site_fract_z
Si Si1 0.375708 0.409407 0.786652
Si Si2 0.409851 0.435702 0.556999
Si Si3 0.123279 0.479413 0.283350
Si Si4 0.385904 0.018756 0.578664
Si Si5 0.192364 0.016177 0.928715
Si Si6 0.407465 0.788789 0.662609
Si Si7 0.441997 0.556620 0.843104
Si Si8 0.396355 0.076891 0.105629
O O1 0.249436 0.513542 0.597772
O O2 0.592326 0.389449 0.889651
O O3 0.077059 0.523036 0.745348
O O4 0.587583 0.198247 0.920868
O O5 0.500000 0.500000 0.500000
O O6 0.182384 0.492314 0.401891
O O7 0.792653 0.191638 0.764431
O O8 0.485749 0.274511 0.402621
O O9 0.897251 0.683971 0.080166
O O10 0.534873 0.828479 0.710733
O O11 0.512185 0.001021 0.720133
O O12 0.500000 0.000000 0.500000
O O13 0.964799 0.232625 0.380494
O O14 0.284890 0.033377 0.836094
O O15 0.283383 0.041809 0.029446
O O16 0.568540 0.604916 0.833615
O O17 0.000000 0.000000 0.500000
O O18 0.500000 0.500000 0.000000
#
# Coordination Sequence:
#
# PCOD9047895 Si02
#       8
#     2   2   2   2   2   2   2   2
#     4  11  26  45  69 108 147 189 240 298 368 444
#     4  12  24  42  74 106 144 188 244 296 367 434
#     4  11  24  44  73 104 145 190 239 305 367 432
#     4  11  26  45  72 103 141 190 239 299 369 437
#     4  10  24  44  71 107 144 195 232 301 365 438
#     4  10  25  46  71 104 139 190 244 301 362 429
#     4  11  27  45  70 102 141 187 246 301 357 428
#     4  10  24  44  71 104 149 184 240 296 372 434
#
# _framework density 24.022829999999999
#
# number of rings (size 3 to 8) (size 9 to 14) (size 15 to 20)
#    0.000    1.250    1.250    2.250   10.500    3.500 
#    0.000    0.000    0.000    0.000    0.000    0.000 
#    0.000    0.000    0.000    0.000    0.000    0.000 
#
# Total GULP energy -89488.787508 kJ/mol
# GULP energy per Si atom -5593.049219 kJ/mol
# Density = 2.396815 g / cm^3
# Si number density = 24.022830 Si / 1000 Ang^3
#
#
#
# Elastic Constant Matrix: (Units=GPa)
#
#
# Indices 1 2 3 4 5 6 
#
# 1 87.0323 35.1567 28.1539 -15.8758 -29.9890 12.7889
# 2 35.1567 125.4763 43.4302 7.3877 -15.4844 -3.0655
# 3 28.1539 43.4302 94.6549 22.7584 -8.4056 -3.0562
# 4 -15.8758 7.3877 22.7584 37.7699 -8.8258 -0.8523
# 5 -29.9890 -15.4844 -8.4056 -8.8258 32.7914 -4.9978
# 6 12.7889 -3.0655 -3.0562 -0.8523 -4.9978 52.0949
#
#
#
# Elastic Compliance Matrix: (Units=1/GPa)
#
#
# Indices 1 2 3 4 5 6 
#
# 1 0.037151 -0.002882 -0.014706 0.033538 0.036948 -0.006059
# 2 -0.002882 0.010218 -0.003491 -0.000783 0.001268 0.001213
# 3 -0.014706 -0.003491 0.020398 -0.021270 -0.015167 0.002798
# 4 0.033538 -0.000783 -0.021270 0.063050 0.041126 -0.004550
# 5 0.036948 0.001268 -0.015167 0.041126 0.071711 -0.002333
# 6 -0.006059 0.001213 0.002798 -0.004550 -0.002333 0.020620
#
#
# Mechanical properties :
#
#
# Convention : Reuss Voigt Hill
#
# Bulk Modulus (GPa) = 39.04875 57.84946 48.44910
# Shear Modulus (GPa) = 18.25870 37.89276 28.07573
#
# Velocity S-wave (km/s) = 2.75990 3.97591 3.42235
# Velocity P-wave (km/s) = 5.14259 6.72388 5.98568
#
# Compressibility (1/GPa) = 0.02560901
#
# Stress axis : x y z
#
# Youngs Moduli (GPa) = 26.91723 97.86958 49.02419
#
# Poissons Ratio (x) = 0.28208 0.72094
# Poissons Ratio (y) = 0.07758 0.17114
# Poissons Ratio (z) = 0.39584 0.34165
#
# Static dielectric constant tensor:
#      x y z
#    x 1.976480 -0.076040 0.036330 
#    y -0.076040 1.596930 0.058500 
#    z 0.036330 0.058500 1.911520 
# 
# From -- ./inp_files/207115.got.cif
#   From: 2010.05.17/outbox.cif.g08.bks.cpg/sg2_104_cif.got.tgz:207115.got - 2010.06.03 11:33:40.
