data_PCOD9047299
_publ_section_title
;
Structure prediction by ZEFSAII (Michael W. Deem and Ramdas Pophale) SiO2 
 PCOD9047299
Probable space group: P -1
;
_chemical_formula_sum "Si O2"
_cell_formula_units_Z 16
_cell_length_a 18.907165
_cell_length_b 9.229281
_cell_length_c 5.718025
_cell_angle_alpha 55.120563
_cell_angle_beta 76.772556
_cell_angle_gamma 58.530422
_cell_volume 694.678446
_symmetry_space_group_name_H-M "P -1"
_symmetry_group_IT_number 2
_symmetry_cell_setting 'triclinic'
loop_
_space_group_symop_operation_xyz
x,y,z
-x,-y,-z
loop_
_atom_site_type_symbol
_atom_site_label
_atom_site_fract_x
_atom_site_fract_y
_atom_site_fract_z
Si Si1 0.206749 0.977343 0.216143
Si Si2 0.930993 0.761318 0.578425
Si Si3 0.133104 0.833851 0.999768
Si Si4 0.485035 0.426066 0.832100
Si Si5 0.276859 0.262126 0.803248
Si Si6 0.096977 0.518847 0.505963
Si Si7 0.544867 0.986124 0.230550
Si Si8 0.290961 0.566155 0.832505
O O1 0.140030 0.171412 0.237228
O O2 0.258902 0.760136 0.502936
O O3 0.268289 0.060422 0.013267
O O4 0.150480 0.938199 0.111038
O O5 0.912274 0.645905 0.489015
O O6 0.028943 0.610349 0.680858
O O7 0.914800 0.983549 0.312665
O O8 0.226211 0.674286 0.990371
O O9 0.082909 0.714333 0.188970
O O10 0.500000 0.500000 0.500000
O O11 0.388956 0.478011 0.869419
O O12 0.500000 0.500000 0.000000
O O13 0.548889 0.189902 0.018689
O O14 0.191480 0.420902 0.602904
O O15 0.279947 0.378462 0.925369
O O16 0.363135 0.205450 0.661160
O O17 0.500000 0.000000 0.500000
O O18 0.500000 0.000000 0.000000
#
# Coordination Sequence:
#
# PCOD9047299 Si02
#       8
#     2   2   2   2   2   2   2   2
#     4  11  24  44  70 102 141 180 241 292 358 431
#     4  10  24  44  64 104 139 184 236 291 355 428
#     4  11  23  43  67  99 135 185 231 295 349 432
#     4  12  28  48  77 110 148 196 246 313 379 450
#     4  12  25  46  72 103 139 189 235 299 366 436
#     4  11  23  42  71  98 142 185 233 292 360 433
#     4  12  28  49  76 111 150 193 249 313 374 449
#     4  11  26  45  72  98 140 185 239 295 364 439
#
# _framework density 23.032240000000002
#
# number of rings (size 3 to 8) (size 9 to 14) (size 15 to 20)
#    0.000    0.750    3.750    2.625    5.250    2.000 
#    2.250    0.000    0.000    0.000    0.000    0.000 
#    0.000    0.000    0.000    0.000    0.000    0.000 
#
# Total GULP energy -89284.113913 kJ/mol
# GULP energy per Si atom -5580.257120 kJ/mol
# Density = 2.297982 g / cm^3
# Si number density = 23.032240 Si / 1000 Ang^3
#
#
#
# Elastic Constant Matrix: (Units=GPa)
#
#
# Indices 1 2 3 4 5 6 
#
# 1 60.0357 23.0691 14.9295 -6.8916 5.3381 -28.6593
# 2 23.0691 110.6559 1.5655 6.3263 2.6888 -20.9529
# 3 14.9295 1.5655 77.1376 -1.6241 -12.8823 -1.1437
# 4 -6.8916 6.3263 -1.6241 35.4219 1.8237 -10.0146
# 5 5.3381 2.6888 -12.8823 1.8237 34.9124 -6.6831
# 6 -28.6593 -20.9529 -1.1437 -10.0146 -6.6831 63.3215
#
#
#
# Elastic Compliance Matrix: (Units=1/GPa)
#
#
# Indices 1 2 3 4 5 6 
#
# 1 0.026303 -0.003628 -0.005315 0.009009 -0.003951 0.011616
# 2 -0.003628 0.010170 0.000532 -0.002110 0.000353 0.001436
# 3 -0.005315 0.000532 0.014947 -0.001182 0.006060 -0.001507
# 4 0.009009 -0.002110 -0.001182 0.032759 -0.001763 0.008353
# 5 -0.003951 0.000353 0.006060 -0.001763 0.031839 0.001520
# 6 0.011616 0.001436 -0.001507 0.008353 0.001520 0.022980
#
#
# Mechanical properties :
#
#
# Convention : Reuss Voigt Hill
#
# Bulk Modulus (GPa) = 28.90431 36.32862 32.61646
# Shear Modulus (GPa) = 29.87705 40.61550 35.24628
#
# Velocity S-wave (km/s) = 3.60555 4.20386 3.91615
# Velocity P-wave (km/s) = 5.46901 6.27459 5.88560
#
# Compressibility (1/GPa) = 0.03459692
#
# Stress axis : x y z
#
# Youngs Moduli (GPa) = 38.01802 98.32980 66.90492
#
# Poissons Ratio (x) = 0.35673 0.35560
# Poissons Ratio (y) = 0.13793 -0.03556
# Poissons Ratio (z) = 0.20207 -0.05227
#
# Static dielectric constant tensor:
#      x y z
#    x 1.893640 0.030990 0.016830 
#    y 0.030990 1.858220 0.054740 
#    z 0.016830 0.054740 1.983230 
# 
# From -- ./inp_files/106271.got.cif
#   From: 2010.05.17/outbox.cif.g08.bks.cpg/sg2_54_cif.got.tgz:106271.got - 2010.06.03 11:33:40.
