data_PCOD9047561
_publ_section_title
;
Structure prediction by ZEFSAII (Michael W. Deem and Ramdas Pophale) SiO2 
 PCOD9047561
Probable space group: P -1
;
_chemical_formula_sum "Si O2"
_cell_formula_units_Z 16
_cell_length_a 11.476330
_cell_length_b 9.214535
_cell_length_c 11.763304
_cell_angle_alpha 67.442630
_cell_angle_beta 102.765755
_cell_angle_gamma 53.808749
_cell_volume 741.430097
_symmetry_space_group_name_H-M "P -1"
_symmetry_group_IT_number 2
_symmetry_cell_setting 'triclinic'
loop_
_space_group_symop_operation_xyz
x,y,z
-x,-y,-z
loop_
_atom_site_type_symbol
_atom_site_label
_atom_site_fract_x
_atom_site_fract_y
_atom_site_fract_z
Si Si1 0.673051 0.634033 0.119523
Si Si2 0.410668 0.418659 0.483608
Si Si3 0.267900 0.081282 0.859827
Si Si4 0.225272 0.022514 0.402541
Si Si5 0.075353 0.595393 0.959453
Si Si6 0.935547 0.226880 0.862105
Si Si7 0.197796 0.685000 0.563781
Si Si8 0.114217 0.240490 0.550479
O O1 0.744155 0.723534 0.167373
O O2 0.759711 0.402140 0.272297
O O3 0.745466 0.575191 0.025879
O O4 0.458868 0.836180 0.022173
O O5 0.500000 0.500000 0.500000
O O6 0.570804 0.155690 0.545923
O O7 0.237430 0.609553 0.307219
O O8 0.336120 0.451911 0.582398
O O9 0.270413 0.066049 0.728813
O O10 0.100596 0.149717 0.855152
O O11 0.212991 0.854250 0.494346
O O12 0.082297 0.175087 0.222982
O O13 0.176149 0.185702 0.448729
O O14 0.000000 0.500000 0.000000
O O15 0.112709 0.630872 0.078482
O O16 0.000000 0.000000 0.000000
O O17 0.007600 0.795784 0.459088
O O18 0.000000 0.500000 0.500000
#
# Coordination Sequence:
#
# PCOD9047561 Si02
#       8
#     2   2   2   2   2   2   2   2
#     4  11  25  45  70 103 144 188 232 285 363 422
#     4  10  24  44  68 103 142 182 233 293 354 415
#     4  11  25  43  69 103 141 190 231 289 354 423
#     4  11  26  43  70 104 135 186 234 292 357 408
#     4  12  26  47  69  99 147 186 232 292 360 427
#     4  12  26  44  70 103 143 188 234 289 355 423
#     4  11  22  44  72  95 138 181 233 288 347 415
#     4  12  23  44  68  97 135 179 235 290 344 415
#
# _framework density 21.579916999999998
#
# number of rings (size 3 to 8) (size 9 to 14) (size 15 to 20)
#    0.000    0.750    5.000    1.875    7.000    0.000 
#    0.000    2.500    0.000    0.000    0.000    0.000 
#    0.000    0.000    0.000    0.000    0.000    0.000 
#
# Total GULP energy -89397.328405 kJ/mol
# GULP energy per Si atom -5587.333025 kJ/mol
# Density = 2.153080 g / cm^3
# Si number density = 21.579917 Si / 1000 Ang^3
#
#
#
# Elastic Constant Matrix: (Units=GPa)
#
#
# Indices 1 2 3 4 5 6 
#
# 1 92.4947 28.0179 40.1160 -0.3590 9.6823 -16.3578
# 2 28.0179 99.9410 18.6623 17.4444 7.2056 -22.7512
# 3 40.1160 18.6623 90.8258 9.6153 10.1708 -2.9581
# 4 -0.3590 17.4444 9.6153 39.8722 0.6607 -5.7408
# 5 9.6823 7.2056 10.1708 0.6607 39.3880 -4.7083
# 6 -16.3578 -22.7512 -2.9581 -5.7408 -4.7083 37.1110
#
#
#
# Elastic Compliance Matrix: (Units=1/GPa)
#
#
# Indices 1 2 3 4 5 6 
#
# 1 0.015359 -0.002481 -0.006353 0.003515 -0.001125 0.005144
# 2 -0.002481 0.013104 -0.000818 -0.004674 -0.000774 0.006053
# 3 -0.006353 -0.000818 0.014529 -0.003596 -0.002338 -0.002996
# 4 0.003515 -0.004674 -0.003596 0.028427 0.000789 0.002895
# 5 -0.001125 -0.000774 -0.002338 0.000789 0.026678 0.002350
# 6 0.005144 0.006053 -0.002996 0.002895 0.002350 0.033432
#
#
# Mechanical properties :
#
#
# Convention : Reuss Voigt Hill
#
# Bulk Modulus (GPa) = 42.21458 50.76153 46.48806
# Shear Modulus (GPa) = 31.50020 36.37193 33.93607
#
# Velocity S-wave (km/s) = 3.82475 4.10988 3.96987
# Velocity P-wave (km/s) = 6.25375 6.78934 6.52704
#
# Compressibility (1/GPa) = 0.02368850
#
# Stress axis : x y z
#
# Youngs Moduli (GPa) = 65.10693 76.31349 68.82810
#
# Poissons Ratio (x) = 0.18934 0.43724
# Poissons Ratio (y) = 0.16154 0.05630
# Poissons Ratio (z) = 0.41360 0.06243
#
# Static dielectric constant tensor:
#      x y z
#    x 1.775430 -0.036430 -0.012690 
#    y -0.036430 1.846400 -0.011920 
#    z -0.012690 -0.011920 1.776190 
# 
# From -- ./inp_files/416907.got.cif
#   From: 2010.05.17/outbox.cif.g08.bks.cpg/sg2_209_cif.got.tgz:416907.got - 2010.06.03 11:33:40.
