data_PCOD9047239
_publ_section_title
;
Structure prediction by ZEFSAII (Michael W. Deem and Ramdas Pophale) SiO2 
 PCOD9047239
Probable space group: P -1
;
_chemical_formula_sum "Si O2"
_cell_formula_units_Z 15
_cell_length_a 13.351943
_cell_length_b 10.096729
_cell_length_c 10.023104
_cell_angle_alpha 114.513648
_cell_angle_beta 58.097406
_cell_angle_gamma 69.742286
_cell_volume 710.949101
_symmetry_space_group_name_H-M "P -1"
_symmetry_group_IT_number 2
_symmetry_cell_setting 'triclinic'
loop_
_space_group_symop_operation_xyz
x,y,z
-x,-y,-z
loop_
_atom_site_type_symbol
_atom_site_label
_atom_site_fract_x
_atom_site_fract_y
_atom_site_fract_z
Si Si1 0.762924 0.036364 0.863001
Si Si2 0.925782 0.485777 0.339721
Si Si3 0.500000 0.000000 0.000000
Si Si4 0.870165 0.451703 0.647500
Si Si5 0.394225 0.111944 0.417820
Si Si6 0.651005 0.419585 0.955624
Si Si7 0.448231 0.802465 0.453024
Si Si8 0.130925 0.012590 0.936430
O O1 0.614612 0.053034 0.943100
O O2 0.752011 0.186546 0.838417
O O3 0.769966 0.081889 0.030910
O O4 0.945803 0.790618 0.610577
O O5 0.808611 0.558592 0.587148
O O6 0.799532 0.678477 0.407398
O O7 0.080458 0.450189 0.263341
O O8 0.012110 0.264202 0.129337
O O9 0.505744 0.991242 0.156019
O O10 0.756235 0.442620 0.805250
O O11 0.461625 0.186576 0.488528
O O12 0.403028 0.960815 0.437565
O O13 0.571259 0.572210 0.203957
O O14 0.500000 0.500000 0.000000
O O15 0.273809 0.891045 0.670375
O O16 0.000000 0.000000 0.000000
#
# Coordination Sequence:
#
# PCOD9047239 Si02
#       8
#     2   2   1   2   2   2   2   2
#     4  11  25  46  73 103 141 190 238 295 350 433
#     4  10  24  43  76 100 132 194 234 291 354 425
#     4  12  22  46  78 104 136 192 240 288 358 416
#     4  10  24  45  70 106 137 181 249 289 346 432
#     4  11  25  44  74 102 144 181 238 298 348 425
#     4  12  29  43  71 103 147 190 232 298 363 420
#     4  11  28  46  66 110 142 183 238 297 354 420
#     4  11  27  46  69  99 147 187 233 292 359 430
#
# _framework density 21.098558000000001
#
# number of rings (size 3 to 8) (size 9 to 14) (size 15 to 20)
#    0.000    1.067    2.667    1.200   13.067    2.133 
#    0.000    0.000    0.000    0.000    0.000    0.000 
#    0.000    0.000    0.000    0.000    0.000    0.000 
#
# Total GULP energy -83732.370983 kJ/mol
# GULP energy per Si atom -5582.158066 kJ/mol
# Density = 2.105054 g / cm^3
# Si number density = 21.098558 Si / 1000 Ang^3
#
#
#
# Elastic Constant Matrix: (Units=GPa)
#
#
# Indices 1 2 3 4 5 6 
#
# 1 116.8806 51.2930 53.9705 -16.8167 5.1032 19.3857
# 2 51.2930 74.2013 13.0788 -8.9658 9.6065 3.1321
# 3 53.9705 13.0788 61.2844 -28.6170 -4.2433 18.0828
# 4 -16.8167 -8.9658 -28.6170 35.2013 5.8144 -6.7161
# 5 5.1032 9.6065 -4.2433 5.8144 27.5083 -8.7761
# 6 19.3857 3.1321 18.0828 -6.7161 -8.7761 45.7883
#
#
#
# Elastic Compliance Matrix: (Units=1/GPa)
#
#
# Indices 1 2 3 4 5 6 
#
# 1 0.023660 -0.013373 -0.022315 -0.010378 -0.001646 -0.002128
# 2 -0.013373 0.022649 0.010761 0.009083 -0.005653 0.000112
# 3 -0.022315 0.010761 0.050547 0.032015 -0.000723 -0.006693
# 4 -0.010378 0.009083 0.032015 0.052640 -0.008310 -0.002743
# 5 -0.001646 -0.005653 -0.000723 -0.008310 0.042951 0.008383
# 6 -0.002128 0.000112 -0.006693 -0.002743 0.008383 0.026581
#
#
# Mechanical properties :
#
#
# Convention : Reuss Voigt Hill
#
# Bulk Modulus (GPa) = 21.27585 54.33899 37.80742
# Shear Modulus (GPa) = 17.57159 30.63452 24.10306
#
# Velocity S-wave (km/s) = 2.88902 3.81461 3.38361
# Velocity P-wave (km/s) = 4.60809 6.72402 5.76398
#
# Compressibility (1/GPa) = 0.04700164
#
# Stress axis : x y z
#
# Youngs Moduli (GPa) = 42.26508 44.15128 19.78361
#
# Poissons Ratio (x) = 0.59045 0.44146
# Poissons Ratio (y) = 0.56523 -0.21288
# Poissons Ratio (z) = 0.94313 -0.47509
#
# Static dielectric constant tensor:
#      x y z
#    x 1.749530 -0.067160 -0.068910 
#    y -0.067160 1.827920 0.139150 
#    z -0.068910 0.139150 1.981800 
# 
# From -- ./inp_files/157214.got.cif
#   From: 2010.05.17/outbox.cif.g08.bks.cpg/sg2_79_cif.got.tgz:157214.got - 2010.06.03 11:33:40.
