data_PCOD9047927
_publ_section_title
;
Structure prediction by ZEFSAII (Michael W. Deem and Ramdas Pophale) SiO2 
 PCOD9047927
Probable space group: P -1
;
_chemical_formula_sum "Si O2"
_cell_formula_units_Z 16
_cell_length_a 12.043113
_cell_length_b 9.320747
_cell_length_c 18.105118
_cell_angle_alpha 48.109199
_cell_angle_beta 44.824998
_cell_angle_gamma 83.958586
_cell_volume 759.647615
_symmetry_space_group_name_H-M "P -1"
_symmetry_group_IT_number 2
_symmetry_cell_setting 'triclinic'
loop_
_space_group_symop_operation_xyz
x,y,z
-x,-y,-z
loop_
_atom_site_type_symbol
_atom_site_label
_atom_site_fract_x
_atom_site_fract_y
_atom_site_fract_z
Si Si1 0.024898 0.296462 0.537889
Si Si2 0.579896 0.240465 0.455690
Si Si3 0.148328 0.099622 0.667602
Si Si4 0.817129 0.799659 0.214620
Si Si5 0.764819 0.682528 0.714201
Si Si6 0.550162 0.811816 0.860552
Si Si7 0.975804 0.412440 0.125461
Si Si8 0.393027 0.985749 0.776217
O O1 0.117190 0.255376 0.577573
O O2 0.191450 0.392182 0.357704
O O3 0.000000 0.500000 0.500000
O O4 0.777857 0.005522 0.733482
O O5 0.393327 0.215837 0.515957
O O6 0.731809 0.515714 0.336439
O O7 0.482287 0.017193 0.641207
O O8 0.734494 0.265505 0.317268
O O9 0.098861 0.100442 0.776264
O O10 0.000119 0.796247 0.811583
O O11 0.634927 0.808569 0.281570
O O12 0.000000 0.000000 0.000000
O O13 0.589760 0.704283 0.807996
O O14 0.664381 0.442686 0.903968
O O15 0.000000 0.000000 0.500000
O O16 0.527817 0.006102 0.770926
O O17 0.000000 0.500000 0.000000
O O18 0.154031 0.680333 0.996607
#
# Coordination Sequence:
#
# PCOD9047927 Si02
#       8
#     2   2   2   2   2   2   2   2
#     4  11  27  45  65  99 138 179 225 278 338 394
#     4  11  24  42  68  95 134 175 216 263 342 400
#     4  11  25  42  66  95 139 168 218 277 326 392
#     4  11  22  45  65  97 132 177 217 267 332 406
#     4   9  22  46  67  93 128 176 229 272 326 394
#     4  10  24  44  71  94 132 178 232 274 324 400
#     4  12  23  41  63 105 135 164 219 273 339 395
#     4  11  24  38  70  98 128 173 220 268 329 400
#
# _framework density 21.062398000000002
#
# number of rings (size 3 to 8) (size 9 to 14) (size 15 to 20)
#    0.000    1.250    3.750    1.875   10.500    2.500 
#    2.250    0.000    0.000    0.000    0.000    0.000 
#    0.000    0.000    0.000    0.000    0.000    0.000 
#
# Total GULP energy -89221.205816 kJ/mol
# GULP energy per Si atom -5576.325363 kJ/mol
# Density = 2.101446 g / cm^3
# Si number density = 21.062398 Si / 1000 Ang^3
#
#
#
# Elastic Constant Matrix: (Units=GPa)
#
#
# Indices 1 2 3 4 5 6 
#
# 1 120.7833 29.6206 43.7348 18.4011 25.1264 -10.0740
# 2 29.6206 124.4918 35.0636 15.7118 22.5371 -0.5829
# 3 43.7348 35.0636 134.2691 29.0558 19.1677 3.7301
# 4 18.4011 15.7118 29.0558 42.6262 10.5850 5.9850
# 5 25.1264 22.5371 19.1677 10.5850 27.0503 -13.0182
# 6 -10.0740 -0.5829 3.7301 5.9850 -13.0182 17.7500
#
#
#
# Elastic Compliance Matrix: (Units=1/GPa)
#
#
# Indices 1 2 3 4 5 6 
#
# 1 0.011028 -0.000673 -0.002243 -0.001969 -0.005835 0.003093
# 2 -0.000673 0.010510 -0.000726 0.001534 -0.012999 -0.009935
# 3 -0.002243 -0.000726 0.010225 -0.002876 -0.007145 -0.007716
# 4 -0.001969 0.001534 -0.002876 0.037548 -0.028468 -0.034002
# 5 -0.005835 -0.012999 -0.007145 -0.028468 0.112766 0.090067
# 6 0.003093 -0.009935 -0.007716 -0.034002 0.090067 0.136910
#
#
# Mechanical properties :
#
#
# Convention : Reuss Voigt Hill
#
# Bulk Modulus (GPa) = 40.85109 66.26469 53.55789
# Shear Modulus (GPa) = 14.95073 35.56032 25.25552
#
# Velocity S-wave (km/s) = 2.66715 4.11339 3.46653
# Velocity P-wave (km/s) = 5.37795 7.35455 6.44250
#
# Compressibility (1/GPa) = 0.02447915
#
# Stress axis : x y z
#
# Youngs Moduli (GPa) = 90.67531 95.14457 97.80271
#
# Poissons Ratio (x) = 0.06402 0.21941
# Poissons Ratio (y) = 0.06102 0.07098
# Poissons Ratio (z) = 0.20342 0.06905
#
# Static dielectric constant tensor:
#      x y z
#    x 1.738730 0.006460 -0.047250 
#    y 0.006460 1.794220 -0.026260 
#    z -0.047250 -0.026260 1.763470 
# 
# From -- ./inp_files/566528.got.cif
#   From: 2010.05.17/outbox.cif.g08.bks.cpg/sg2_284_cif.got.tgz:566528.got - 2010.06.03 11:33:40.
