data_PCOD9047721
_publ_section_title
;
Structure prediction by ZEFSAII (Michael W. Deem and Ramdas Pophale) SiO2 
 PCOD9047721
Probable space group: P -1
;
_chemical_formula_sum "Si O2"
_cell_formula_units_Z 14
_cell_length_a 12.196332
_cell_length_b 11.249995
_cell_length_c 9.439533
_cell_angle_alpha 132.720685
_cell_angle_beta 134.137457
_cell_angle_gamma 38.080632
_cell_volume 547.907206
_symmetry_space_group_name_H-M "P -1"
_symmetry_group_IT_number 2
_symmetry_cell_setting 'triclinic'
loop_
_space_group_symop_operation_xyz
x,y,z
-x,-y,-z
loop_
_atom_site_type_symbol
_atom_site_label
_atom_site_fract_x
_atom_site_fract_y
_atom_site_fract_z
Si Si1 0.228933 0.854843 0.120243
Si Si2 0.080810 0.785015 0.450453
Si Si3 0.847610 0.449157 0.194960
Si Si4 0.631479 0.567139 0.716102
Si Si5 0.154578 0.199956 0.510671
Si Si6 0.656047 0.155462 0.096307
Si Si7 0.866959 0.683904 0.917322
O O1 0.258151 0.974282 0.361931
O O2 0.269312 0.640655 0.017134
O O3 0.334279 0.840022 0.060063
O O4 0.000000 0.000000 0.000000
O O5 0.171767 0.655099 0.284989
O O6 0.922108 0.785278 0.389531
O O7 0.000000 0.000000 0.500000
O O8 0.767565 0.919936 0.049257
O O9 0.747259 0.686894 0.314774
O O10 0.966706 0.341262 0.358104
O O11 0.010442 0.371453 0.159196
O O12 0.765652 0.248896 0.323743
O O13 0.541039 0.710880 0.885700
O O14 0.687832 0.669374 0.734684
O O15 0.500000 0.500000 0.500000
O O16 0.000000 0.500000 0.000000
#
# Coordination Sequence:
#
# PCOD9047721 Si02
#       7
#     2   2   2   2   2   2   2
#     4  10  17  34  57  87 113 160 216 263 290 370
#     4  11  20  36  60  91 123 157 207 266 314 372
#     4  10  19  33  57  90 120 155 218 262 301 368
#     4  10  24  39  58  93 129 170 202 252 330 384
#     4  10  18  32  56  86 119 157 213 259 299 368
#     4  11  21  38  59  89 126 161 207 262 316 384
#     4  12  22  38  63  95 126 162 212 272 312 371
#
# _framework density 25.551772
#
# number of rings (size 3 to 8) (size 9 to 14) (size 15 to 20)
#    0.000    1.429    7.143    1.286    0.000    0.000 
#    0.000    0.000    0.000    3.429    0.000    5.000 
#    0.000    0.000    0.000    0.000    0.000    0.000 
#
# Total GULP energy -78113.182380 kJ/mol
# GULP energy per Si atom -5579.513027 kJ/mol
# Density = 2.549362 g / cm^3
# Si number density = 25.551772 Si / 1000 Ang^3
#
#
#
# Elastic Constant Matrix: (Units=GPa)
#
#
# Indices 1 2 3 4 5 6 
#
# 1 156.9478 70.8329 61.5597 19.6493 -24.6137 19.8401
# 2 70.8329 101.0973 53.3131 43.9139 -10.5174 19.4351
# 3 61.5597 53.3131 140.9597 45.3666 -3.8320 3.4998
# 4 19.6493 43.9139 45.3666 57.0009 8.9648 -0.5915
# 5 -24.6137 -10.5174 -3.8320 8.9648 64.6290 14.7281
# 6 19.8401 19.4351 3.4998 -0.5915 14.7281 39.7543
#
#
#
# Elastic Compliance Matrix: (Units=1/GPa)
#
#
# Indices 1 2 3 4 5 6 
#
# 1 0.011100 -0.006497 -0.003259 0.003225 0.003268 -0.003239
# 2 -0.006497 0.025817 -0.000475 -0.018508 0.007052 -0.012225
# 3 -0.003259 -0.000475 0.011041 -0.007320 0.000190 0.000708
# 4 0.003225 -0.018508 -0.007320 0.038278 -0.010375 0.012496
# 5 0.003268 0.007052 0.000190 -0.010375 0.022403 -0.013550
# 6 -0.003239 -0.012225 0.000708 0.012496 -0.013550 0.037891
#
#
# Mechanical properties :
#
#
# Convention : Reuss Voigt Hill
#
# Bulk Modulus (GPa) = 36.36921 85.60180 60.98551
# Shear Modulus (GPa) = 28.38346 46.49678 37.44012
#
# Velocity S-wave (km/s) = 3.33651 4.27043 3.83203
# Velocity P-wave (km/s) = 5.39514 7.60852 6.59534
#
# Compressibility (1/GPa) = 0.02749579
#
# Stress axis : x y z
#
# Youngs Moduli (GPa) = 90.08867 38.73373 90.57220
#
# Poissons Ratio (x) = 0.25164 0.29519
# Poissons Ratio (y) = 0.58528 0.04306
# Poissons Ratio (z) = 0.29362 0.01841
#
# Static dielectric constant tensor:
#      x y z
#    x 1.918870 -0.084390 0.080270 
#    y -0.084390 2.049910 -0.036210 
#    z 0.080270 -0.036210 2.161160 
# 
# From -- ./inp_files/252458.got.cif
#   From: 2010.05.17/outbox.cif.g08.bks.cpg/sg2_127_cif.got.tgz:252458.got - 2010.06.03 11:33:40.
