data_PCOD9047424
_publ_section_title
;
Structure prediction by ZEFSAII (Michael W. Deem and Ramdas Pophale) SiO2 
 PCOD9047424
Probable space group: P -1
;
_chemical_formula_sum "Si O2"
_cell_formula_units_Z 14
_cell_length_a 8.639149
_cell_length_b 8.106458
_cell_length_c 19.471807
_cell_angle_alpha 120.761792
_cell_angle_beta 145.692306
_cell_angle_gamma 55.621859
_cell_volume 631.376452
_symmetry_space_group_name_H-M "P -1"
_symmetry_group_IT_number 2
_symmetry_cell_setting 'triclinic'
loop_
_space_group_symop_operation_xyz
x,y,z
-x,-y,-z
loop_
_atom_site_type_symbol
_atom_site_label
_atom_site_fract_x
_atom_site_fract_y
_atom_site_fract_z
Si Si1 0.147306 0.481664 0.701741
Si Si2 0.506854 0.950209 0.324294
Si Si3 0.711734 0.623952 0.126574
Si Si4 0.688216 0.973227 0.877552
Si Si5 0.320900 0.399595 0.125209
Si Si6 0.802466 0.279722 0.746160
Si Si7 0.522447 0.697739 0.509639
O O1 0.250156 0.259986 0.654632
O O2 0.076248 0.483796 0.757690
O O3 0.424962 0.563910 0.818636
O O4 0.859943 0.633543 0.597613
O O5 0.256028 0.877029 0.254184
O O6 0.388168 0.071440 0.237226
O O7 0.576867 0.105960 0.436154
O O8 0.879491 0.702875 0.145823
O O9 0.522969 0.813507 0.137849
O O10 0.500000 0.500000 0.000000
O O11 0.653150 0.823795 0.891474
O O12 0.000000 0.000000 0.000000
O O13 0.355265 0.507439 0.232216
O O14 0.000000 0.500000 0.000000
O O15 0.667097 0.255155 0.618470
O O16 0.500000 0.500000 0.500000
#
# Coordination Sequence:
#
# PCOD9047424 Si02
#       7
#     2   2   2   2   2   2   2
#     4  10  24  44  66  99 134 179 222 275 341 395
#     4  10  25  44  65  98 139 171 227 274 335 401
#     4  11  23  41  67  98 134 172 226 279 334 401
#     4  11  23  41  66  97 132 179 220 274 343 401
#     4  11  23  45  68  97 137 171 221 282 339 402
#     4  11  23  44  65  98 134 175 221 283 330 396
#     4  12  24  43  70  98 136 177 230 276 334 400
#
# _framework density 22.173777000000001
#
# number of rings (size 3 to 8) (size 9 to 14) (size 15 to 20)
#    0.000    1.143    1.429    5.571    4.000    2.857 
#    2.571    2.143    0.000    0.000    0.000    0.000 
#    0.000    0.000    0.000    0.000    0.000    0.000 
#
# Total GULP energy -78138.331328 kJ/mol
# GULP energy per Si atom -5581.309381 kJ/mol
# Density = 2.212331 g / cm^3
# Si number density = 22.173777 Si / 1000 Ang^3
#
#
#
# Elastic Constant Matrix: (Units=GPa)
#
#
# Indices 1 2 3 4 5 6 
#
# 1 83.8393 11.4048 16.8278 5.1451 1.5931 0.2793
# 2 11.4048 59.6295 30.1087 16.0820 -8.9378 5.9223
# 3 16.8278 30.1087 89.1177 4.0224 -7.9054 -2.2816
# 4 5.1451 16.0820 4.0224 32.4150 -5.6974 -1.4490
# 5 1.5931 -8.9378 -7.9054 -5.6974 41.8627 7.0108
# 6 0.2793 5.9223 -2.2816 -1.4490 7.0108 28.1712
#
#
#
# Elastic Compliance Matrix: (Units=1/GPa)
#
#
# Indices 1 2 3 4 5 6 
#
# 1 0.012610 -0.001260 -0.002008 -0.001354 -0.001353 0.000244
# 2 -0.001260 0.025104 -0.007607 -0.010988 0.003710 -0.007369
# 3 -0.002008 -0.007607 0.014213 0.002632 0.001052 0.002644
# 4 -0.001354 -0.010988 0.002632 0.036812 0.002578 0.003788
# 5 -0.001353 0.003710 0.001052 0.002578 0.026476 -0.007138
# 6 0.000244 -0.007369 0.002644 0.003788 -0.007138 0.039229
#
#
# Mechanical properties :
#
#
# Convention : Reuss Voigt Hill
#
# Bulk Modulus (GPa) = 33.13856 38.80767 35.97312
# Shear Modulus (GPa) = 26.84527 32.10613 29.47570
#
# Velocity S-wave (km/s) = 3.48325 3.80930 3.64992
# Velocity P-wave (km/s) = 5.58165 6.07349 5.83275
#
# Compressibility (1/GPa) = 0.03017633
#
# Stress axis : x y z
#
# Youngs Moduli (GPa) = 79.30199 39.83481 70.36023
#
# Poissons Ratio (x) = 0.05018 0.14130
# Poissons Ratio (y) = 0.09989 0.53524
# Poissons Ratio (z) = 0.15925 0.30303
#
# Static dielectric constant tensor:
#      x y z
#    x 1.975180 0.042120 0.008560 
#    y 0.042120 1.887870 -0.075100 
#    z 0.008560 -0.075100 1.933360 
# 
# From -- ./inp_files/205840.got.cif
#   From: 2010.05.17/outbox.cif.g08.bks.cpg/sg2_103_cif.got.tgz:205840.got - 2010.06.03 11:33:40.
