data_PCOD9047564
_publ_section_title
;
Structure prediction by ZEFSAII (Michael W. Deem and Ramdas Pophale) SiO2 
 PCOD9047564
Probable space group: P -1
;
_chemical_formula_sum "Si O2"
_cell_formula_units_Z 16
_cell_length_a 5.002305
_cell_length_b 14.093755
_cell_length_c 16.182180
_cell_angle_alpha 139.297324
_cell_angle_beta 56.105745
_cell_angle_gamma 115.558760
_cell_volume 617.488235
_symmetry_space_group_name_H-M "P -1"
_symmetry_group_IT_number 2
_symmetry_cell_setting 'triclinic'
loop_
_space_group_symop_operation_xyz
x,y,z
-x,-y,-z
loop_
_atom_site_type_symbol
_atom_site_label
_atom_site_fract_x
_atom_site_fract_y
_atom_site_fract_z
Si Si1 0.638724 0.875748 0.736280
Si Si2 0.776041 0.567552 0.733868
Si Si3 0.597041 0.414876 0.509610
Si Si4 0.190828 0.451684 0.856000
Si Si5 0.767260 0.957138 0.208234
Si Si6 0.123323 0.857368 0.932156
Si Si7 0.464938 0.852418 0.358750
Si Si8 0.064274 0.341459 0.650975
O O1 0.472957 0.743663 0.626956
O O2 0.497127 0.006213 0.791481
O O3 0.496224 0.860012 0.843090
O O4 0.018298 0.907777 0.701933
O O5 0.778949 0.549357 0.621475
O O6 0.451524 0.560942 0.841356
O O7 0.979437 0.433170 0.645911
O O8 0.959872 0.714161 0.826691
O O9 0.500000 0.500000 0.500000
O O10 0.443666 0.357298 0.587192
O O11 0.351412 0.292590 0.736923
O O12 0.940440 0.428043 0.808630
O O13 0.000000 0.500000 0.000000
O O14 0.587892 0.878131 0.261971
O O15 0.031355 0.867922 0.050937
O O16 0.000000 0.000000 0.000000
O O17 0.088884 0.813547 0.413303
O O18 0.500000 0.000000 0.500000
#
# Coordination Sequence:
#
# PCOD9047564 Si02
#       8
#     2   2   2   2   2   2   2   2
#     4  11  26  46  71 104 146 189 250 304 382 447
#     4  10  24  45  68 106 143 189 248 304 382 449
#     4  11  25  42  74 102 141 193 242 309 374 451
#     4  10  25  43  71 103 146 194 246 310 374 452
#     4  11  27  46  74 104 146 198 242 313 375 452
#     4  10  24  45  70 101 144 188 246 309 373 450
#     4  11  26  44  71 103 146 193 249 307 373 449
#     4  10  24  44  68 103 145 186 245 307 369 450
#
# _framework density 25.911425999999999
#
# number of rings (size 3 to 8) (size 9 to 14) (size 15 to 20)
#    0.000    1.500    0.000    1.875   15.750    3.500 
#    4.500    0.000    0.000    0.000    0.000    0.000 
#    0.000    0.000    0.000    0.000    0.000    0.000 
#
# Total GULP energy -89082.197787 kJ/mol
# GULP energy per Si atom -5567.637362 kJ/mol
# Density = 2.585245 g / cm^3
# Si number density = 25.911426 Si / 1000 Ang^3
#
#
#
# Elastic Constant Matrix: (Units=GPa)
#
#
# Indices 1 2 3 4 5 6 
#
# 1 69.4685 20.0183 12.0241 7.3784 20.9680 -21.8338
# 2 20.0183 283.3890 120.6128 -28.2106 27.3481 54.4637
# 3 12.0241 120.6128 162.4102 -38.8637 33.9708 14.6588
# 4 7.3784 -28.2106 -38.8637 53.7453 -3.6788 14.2631
# 5 20.9680 27.3481 33.9708 -3.6788 43.4657 7.1587
# 6 -21.8338 54.4637 14.6588 14.2631 7.1587 53.3104
#
#
#
# Elastic Compliance Matrix: (Units=1/GPa)
#
#
# Indices 1 2 3 4 5 6 
#
# 1 0.032267 -0.007878 0.000483 -0.016785 -0.017003 0.027904
# 2 -0.007878 0.008502 -0.003853 0.006538 0.004184 -0.013164
# 3 0.000483 -0.003853 0.011740 0.005901 -0.006518 0.000203
# 4 -0.016785 0.006538 0.005901 0.035874 0.006635 -0.025665
# 5 -0.017003 0.004184 -0.006518 0.006635 0.036896 -0.016175
# 6 0.027904 -0.013164 0.000203 -0.025665 -0.016175 0.052618
#
#
# Mechanical properties :
#
#
# Convention : Reuss Voigt Hill
#
# Bulk Modulus (GPa) = 33.31962 91.17534 62.24748
# Shear Modulus (GPa) = 23.76448 54.27845 39.02146
#
# Velocity S-wave (km/s) = 3.03172 4.58183 3.88487
# Velocity P-wave (km/s) = 5.01419 7.95328 6.64818
#
# Compressibility (1/GPa) = 0.03001235
#
# Stress axis : x y z
#
# Youngs Moduli (GPa) = 30.99189 117.61636 85.17724
#
# Poissons Ratio (x) = 0.92654 -0.04112
# Poissons Ratio (y) = 0.24414 0.32823
# Poissons Ratio (z) = -0.01496 0.45323
#
# Static dielectric constant tensor:
#      x y z
#    x 2.853180 0.432940 0.009790 
#    y 0.432940 2.193580 0.037920 
#    z 0.009790 0.037920 2.254510 
# 
# From -- ./inp_files/95408.got.cif
#   From: 2010.05.17/outbox.cif.g08.bks.cpg/sg2_48_cif.got.tgz:95408.got - 2010.06.03 11:33:40.
