data_PCOD9047372
_publ_section_title
;
Structure prediction by ZEFSAII (Michael W. Deem and Ramdas Pophale) SiO2 
 PCOD9047372
Probable space group: P -1
;
_chemical_formula_sum "Si O2"
_cell_formula_units_Z 15
_cell_length_a 11.459481
_cell_length_b 8.793841
_cell_length_c 9.293257
_cell_angle_alpha 48.916451
_cell_angle_beta 101.885833
_cell_angle_gamma 71.725237
_cell_volume 548.084087
_symmetry_space_group_name_H-M "P -1"
_symmetry_group_IT_number 2
_symmetry_cell_setting 'triclinic'
loop_
_space_group_symop_operation_xyz
x,y,z
-x,-y,-z
loop_
_atom_site_type_symbol
_atom_site_label
_atom_site_fract_x
_atom_site_fract_y
_atom_site_fract_z
Si Si1 0.790287 0.471080 0.293629
Si Si2 0.936085 0.216843 0.792383
Si Si3 0.474007 0.730222 0.356697
Si Si4 0.500000 0.000000 0.000000
Si Si5 0.760556 0.118255 0.307361
Si Si6 0.970250 0.544559 0.797625
Si Si7 0.487212 0.775945 0.636068
Si Si8 0.717800 0.223173 0.918302
O O1 0.872787 0.317111 0.560002
O O2 0.623893 0.710314 0.133137
O O3 0.800184 0.284623 0.294408
O O4 0.883401 0.559051 0.195626
O O5 0.615652 0.417557 0.619014
O O6 0.910210 0.408314 0.785173
O O7 0.887625 0.057711 0.970266
O O8 0.565106 0.845308 0.279423
O O9 0.394543 0.828225 0.431969
O O10 0.376278 0.888639 0.081338
O O11 0.594015 0.231259 0.243185
O O12 0.860042 0.842238 0.573251
O O13 0.800800 0.059015 0.187864
O O14 0.000000 0.500000 0.000000
O O15 0.638769 0.493238 0.821616
O O16 0.500000 0.000000 0.500000
#
# Coordination Sequence:
#
# PCOD9047372 Si02
#       8
#     2   2   2   1   2   2   2   2
#     4  12  27  49  76 112 149 201 257 310 385 459
#     4  12  26  48  77 108 146 199 252 317 384 456
#     4  10  24  44  66 101 147 201 241 309 376 449
#     4  12  28  42  82 106 156 192 266 306 388 454
#     4  12  26  46  73 108 146 198 249 309 387 445
#     4  12  28  49  75 109 150 197 252 313 380 461
#     4  11  24  41  69 103 147 190 246 304 376 447
#     4  11  24  44  69 103 148 187 244 305 379 450
#
# _framework density 27.368061999999998
#
# number of rings (size 3 to 8) (size 9 to 14) (size 15 to 20)
#    0.000    0.533    0.000    8.400    9.333    0.000 
#    0.000    0.000    0.000    0.000    0.000    0.000 
#    0.000    0.000    0.000    0.000    0.000    0.000 
#
# Total GULP energy -83613.626570 kJ/mol
# GULP energy per Si atom -5574.241771 kJ/mol
# Density = 2.730577 g / cm^3
# Si number density = 27.368062 Si / 1000 Ang^3
#
#
#
# Elastic Constant Matrix: (Units=GPa)
#
#
# Indices 1 2 3 4 5 6 
#
# 1 107.5695 36.0277 43.7499 3.2204 -0.2367 -42.5882
# 2 36.0277 132.4786 61.8012 12.3077 19.8766 -1.4936
# 3 43.7499 61.8012 222.4586 21.6929 -16.0853 -11.0806
# 4 3.2204 12.3077 21.6929 67.2215 -8.4638 -2.8295
# 5 -0.2367 19.8766 -16.0853 -8.4638 44.5727 -4.0688
# 6 -42.5882 -1.4936 -11.0806 -2.8295 -4.0688 59.3341
#
#
#
# Elastic Compliance Matrix: (Units=1/GPa)
#
#
# Indices 1 2 3 4 5 6 
#
# 1 0.015496 -0.003977 -0.001323 0.001205 0.002612 0.011012
# 2 -0.003977 0.011054 -0.002762 -0.001932 -0.006647 -0.003640
# 3 -0.001323 -0.002762 0.005854 -0.000908 0.003188 0.000250
# 4 0.001205 -0.001932 -0.000908 0.016005 0.003731 0.001666
# 5 0.002612 -0.006647 0.003188 0.003731 0.027672 0.004379
# 6 0.011012 -0.003640 0.000250 0.001666 0.004379 0.025092
#
#
# Mechanical properties :
#
#
# Convention : Reuss Voigt Hill
#
# Bulk Modulus (GPa) = 61.42404 82.85161 72.13783
# Shear Modulus (GPa) = 40.74189 55.62087 48.18138
#
# Velocity S-wave (km/s) = 3.86251 4.51303 4.20038
# Velocity P-wave (km/s) = 6.51033 7.58257 7.06681
#
# Compressibility (1/GPa) = 0.01628027
#
# Stress axis : x y z
#
# Youngs Moduli (GPa) = 64.53456 90.46342 170.81517
#
# Poissons Ratio (x) = 0.35975 0.22596
# Poissons Ratio (y) = 0.25663 0.47186
# Poissons Ratio (z) = 0.08537 0.24989
#
# Static dielectric constant tensor:
#      x y z
#    x 2.884770 -0.016380 0.148430 
#    y -0.016380 2.102940 0.030360 
#    z 0.148430 0.030360 2.473340 
# 
# From -- ./inp_files/242634.got.cif
#   From: 2010.05.17/outbox.cif.g08.bks.cpg/sg2_122_cif.got.tgz:242634.got - 2010.06.03 11:33:40.
