data_PCOD9047373
_publ_section_title
;
Structure prediction by ZEFSAII (Michael W. Deem and Ramdas Pophale) SiO2 
 PCOD9047373
Probable space group: P -1
;
_chemical_formula_sum "Si O2"
_cell_formula_units_Z 16
_cell_length_a 7.718026
_cell_length_b 13.309327
_cell_length_c 11.325081
_cell_angle_alpha 143.574818
_cell_angle_beta 98.091788
_cell_angle_gamma 73.726260
_cell_volume 655.713145
_symmetry_space_group_name_H-M "P -1"
_symmetry_group_IT_number 2
_symmetry_cell_setting 'triclinic'
loop_
_space_group_symop_operation_xyz
x,y,z
-x,-y,-z
loop_
_atom_site_type_symbol
_atom_site_label
_atom_site_fract_x
_atom_site_fract_y
_atom_site_fract_z
Si Si1 0.294707 0.252397 0.582747
Si Si2 0.775975 0.479522 0.531728
Si Si3 0.066225 0.589684 0.773862
Si Si4 0.439608 0.784940 0.778373
Si Si5 0.210263 0.057728 0.837169
Si Si6 0.053102 0.834149 0.435054
Si Si7 0.611060 0.299894 0.807164
Si Si8 0.427882 0.893532 0.145596
O O1 0.481405 0.212017 0.635133
O O2 0.237966 0.454576 0.724325
O O3 0.124770 0.226932 0.615401
O O4 0.330874 0.103364 0.343536
O O5 0.912945 0.483523 0.653540
O O6 0.653972 0.681319 0.692082
O O7 0.646100 0.357857 0.425711
O O8 0.883002 0.400599 0.348945
O O9 0.964358 0.780625 0.994480
O O10 0.340817 0.964625 0.870942
O O11 0.397006 0.813498 0.940737
O O12 0.354670 0.129003 0.842976
O O13 0.137265 0.909585 0.626589
O O14 0.211894 0.700145 0.250928
O O15 0.000000 0.000000 0.500000
O O16 0.642654 0.198652 0.839220
O O17 0.500000 0.500000 0.000000
#
# Coordination Sequence:
#
# PCOD9047373 Si02
#       8
#     2   2   2   2   2   2   2   2
#     4  12  27  48  76 104 149 193 242 306 366 431
#     4  10  24  44  66 101 152 184 247 291 365 429
#     4  11  26  43  68 109 146 189 242 303 360 436
#     4  11  25  44  74 104 144 201 239 298 367 437
#     4  12  26  45  75 109 150 191 248 299 367 437
#     4  12  27  50  77 106 147 192 248 303 366 433
#     4  12  30  50  77 110 146 194 246 304 370 435
#     4  12  25  48  73 106 147 195 246 298 367 437
#
# _framework density 24.400914
#
# number of rings (size 3 to 8) (size 9 to 14) (size 15 to 20)
#    0.000    0.500    3.750    3.000   10.500    2.000 
#    0.000    0.000    0.000    0.000    0.000    0.000 
#    0.000    0.000    0.000    0.000    0.000    0.000 
#
# Total GULP energy -89558.020692 kJ/mol
# GULP energy per Si atom -5597.376293 kJ/mol
# Density = 2.434538 g / cm^3
# Si number density = 24.400914 Si / 1000 Ang^3
#
#
#
# Elastic Constant Matrix: (Units=GPa)
#
#
# Indices 1 2 3 4 5 6 
#
# 1 63.7564 -13.4827 -0.0204 -7.1908 -16.0058 -8.0466
# 2 -13.4827 76.4497 15.5721 1.9354 -9.8898 -15.1209
# 3 -0.0204 15.5721 113.7769 15.9279 -35.7164 -3.5533
# 4 -7.1908 1.9354 15.9279 37.9557 -8.5047 -0.5018
# 5 -16.0058 -9.8898 -35.7164 -8.5047 57.2271 0.7247
# 6 -8.0466 -15.1209 -3.5533 -0.5018 0.7247 27.5166
#
#
#
# Elastic Compliance Matrix: (Units=1/GPa)
#
#
# Indices 1 2 3 4 5 6 
#
# 1 0.020912 0.006269 0.001380 0.005078 0.008427 0.009609
# 2 0.006269 0.017053 -0.000902 0.001798 0.004265 0.011008
# 3 0.001380 -0.000902 0.011557 -0.002961 0.006989 0.001162
# 4 0.005078 0.001798 -0.002961 0.029440 0.004226 0.002516
# 5 0.008427 0.004265 0.006989 0.004226 0.025493 0.005116
# 6 0.009609 0.011008 0.001162 0.002516 0.005116 0.045262
#
#
# Mechanical properties :
#
#
# Convention : Reuss Voigt Hill
#
# Bulk Modulus (GPa) = 15.86863 28.68010 22.27436
# Shear Modulus (GPa) = 31.80078 41.33416 36.56747
#
# Velocity S-wave (km/s) = 3.61399 4.12024 3.87539
# Velocity P-wave (km/s) = 4.89203 5.86638 5.40122
#
# Compressibility (1/GPa) = 0.06301742
#
# Stress axis : x y z
#
# Youngs Moduli (GPa) = 47.81989 58.63937 86.52398
#
# Poissons Ratio (x) = -0.36761 -0.11942
# Poissons Ratio (y) = -0.29978 0.07803
# Poissons Ratio (z) = -0.06600 0.05288
#
# Static dielectric constant tensor:
#      x y z
#    x 2.399790 0.052620 -0.063630 
#    y 0.052620 2.020410 -0.036640 
#    z -0.063630 -0.036640 1.979370 
# 
# From -- ./inp_files/400087.got.cif
#   From: 2010.05.17/outbox.cif.g08.bks.cpg/sg2_201_cif.got.tgz:400087.got - 2010.06.03 11:33:40.
