data_PCOD9047490
_publ_section_title
;
Structure prediction by ZEFSAII (Michael W. Deem and Ramdas Pophale) SiO2 
 PCOD9047490
Probable space group: P -1
;
_chemical_formula_sum "Si O2"
_cell_formula_units_Z 16
_cell_length_a 7.944294
_cell_length_b 15.578711
_cell_length_c 13.115216
_cell_angle_alpha 152.909605
_cell_angle_beta 79.947737
_cell_angle_gamma 112.668604
_cell_volume 624.791939
_symmetry_space_group_name_H-M "P -1"
_symmetry_group_IT_number 2
_symmetry_cell_setting 'triclinic'
loop_
_space_group_symop_operation_xyz
x,y,z
-x,-y,-z
loop_
_atom_site_type_symbol
_atom_site_label
_atom_site_fract_x
_atom_site_fract_y
_atom_site_fract_z
Si Si1 0.759266 0.826126 0.839778
Si Si2 0.373499 0.020685 0.624096
Si Si3 0.432669 0.743598 0.946882
Si Si4 0.152585 0.236763 0.781076
Si Si5 0.658770 0.662851 0.338303
Si Si6 0.226686 0.601598 0.295150
Si Si7 0.822642 0.061361 0.882111
Si Si8 0.145031 0.462094 0.374422
O O1 0.724752 0.582883 0.605974
O O2 0.706587 0.889381 0.804096
O O3 0.622770 0.841204 0.956359
O O4 0.000000 0.000000 0.000000
O O5 0.202467 0.780376 0.424476
O O6 0.500000 0.000000 0.500000
O O7 0.507461 0.112734 0.806145
O O8 0.298044 0.181543 0.770154
O O9 0.266231 0.780134 0.953320
O O10 0.369371 0.504863 0.745720
O O11 0.255821 0.377668 0.817325
O O12 0.093223 0.371508 0.006010
O O13 0.000000 0.000000 0.500000
O O14 0.450249 0.643015 0.308234
O O15 0.797327 0.908056 0.627949
O O16 0.210982 0.622919 0.441252
O O17 0.044747 0.233154 0.078161
O O18 0.000000 0.500000 0.500000
#
# Coordination Sequence:
#
# PCOD9047490 Si02
#       8
#     2   2   2   2   2   2   2   2
#     4  10  24  44  67  96 143 183 230 283 347 406
#     4  12  24  42  72 102 137 178 229 282 345 415
#     4  12  24  43  72 103 137 184 231 287 348 408
#     4  12  26  46  71 104 142 178 227 288 347 412
#     4  12  24  43  73 103 140 180 231 285 347 414
#     4  12  24  45  74 101 138 185 232 281 349 410
#     4  11  26  44  69 104 141 177 239 285 343 410
#     4  11  26  47  70 103 142 187 233 286 350 412
#
# _framework density 25.608526999999999
#
# number of rings (size 3 to 8) (size 9 to 14) (size 15 to 20)
#    0.000    0.500    5.000    2.250    5.250    4.000 
#    0.000    0.000    0.000    0.000    0.000    0.000 
#    0.000    0.000    0.000    0.000    0.000    0.000 
#
# Total GULP energy -89480.898424 kJ/mol
# GULP energy per Si atom -5592.556151 kJ/mol
# Density = 2.555024 g / cm^3
# Si number density = 25.608527 Si / 1000 Ang^3
#
#
#
# Elastic Constant Matrix: (Units=GPa)
#
#
# Indices 1 2 3 4 5 6 
#
# 1 46.6873 14.5112 -5.1093 -1.8400 -8.5095 -15.0171
# 2 14.5112 171.4945 13.8550 -8.9952 -19.5894 -10.4180
# 3 -5.1093 13.8550 103.8114 7.9438 -3.1767 -3.9404
# 4 -1.8400 -8.9952 7.9438 48.3927 2.2487 -10.8322
# 5 -8.5095 -19.5894 -3.1767 2.2487 35.0036 0.7494
# 6 -15.0171 -10.4180 -3.9404 -10.8322 0.7494 36.8155
#
#
#
# Elastic Compliance Matrix: (Units=1/GPa)
#
#
# Indices 1 2 3 4 5 6 
#
# 1 0.026792 -0.000904 0.001835 0.002879 0.005741 0.011599
# 2 -0.000904 0.006537 -0.000871 0.001574 0.003220 0.001785
# 3 0.001835 -0.000871 0.010028 -0.001535 0.000944 0.001104
# 4 0.002879 0.001574 -0.001535 0.023182 -0.000225 0.008281
# 5 0.005741 0.003220 0.000944 -0.000225 0.031810 0.002640
# 6 0.011599 0.001785 0.001104 0.008281 0.002640 0.034900
#
#
# Mechanical properties :
#
#
# Convention : Reuss Voigt Hill
#
# Bulk Modulus (GPa) = 23.00122 40.94521 31.97322
# Shear Modulus (GPa) = 33.87077 43.95812 38.91444
#
# Velocity S-wave (km/s) = 3.64075 4.14761 3.90242
# Velocity P-wave (km/s) = 5.16476 6.24184 5.72867
#
# Compressibility (1/GPa) = 0.04347595
#
# Stress axis : x y z
#
# Youngs Moduli (GPa) = 37.32520 152.98089 99.72420
#
# Poissons Ratio (x) = 0.13827 -0.18298
# Poissons Ratio (y) = 0.03374 0.08686
# Poissons Ratio (z) = -0.06849 0.13325
#
# Static dielectric constant tensor:
#      x y z
#    x 2.094860 0.010190 0.130760 
#    y 0.010190 2.143920 0.111730 
#    z 0.130760 0.111730 2.077690 
# 
# From -- ./inp_files/400017.got.cif
#   From: 2010.05.17/outbox.cif.g08.bks.cpg/sg2_201_cif.got.tgz:400017.got - 2010.06.03 11:33:40.
