data_PCOD9047186
_publ_section_title
;
Structure prediction by ZEFSAII (Michael W. Deem and Ramdas Pophale) SiO2 
 PCOD9047186
Probable space group: P -1
;
_chemical_formula_sum "Si O2"
_cell_formula_units_Z 12
_cell_length_a 5.361746
_cell_length_b 9.883220
_cell_length_c 14.301136
_cell_angle_alpha 125.346039
_cell_angle_beta 111.606610
_cell_angle_gamma 94.737265
_cell_volume 529.250020
_symmetry_space_group_name_H-M "P -1"
_symmetry_group_IT_number 2
_symmetry_cell_setting 'triclinic'
loop_
_space_group_symop_operation_xyz
x,y,z
-x,-y,-z
loop_
_atom_site_type_symbol
_atom_site_label
_atom_site_fract_x
_atom_site_fract_y
_atom_site_fract_z
Si Si1 0.142801 0.052730 0.938254
Si Si2 0.749261 0.836935 0.347465
Si Si3 0.271091 0.754111 0.912368
Si Si4 0.592130 0.017311 0.786168
Si Si5 0.171442 0.641649 0.312329
Si Si6 0.701612 0.385911 0.466665
O O1 0.225047 0.877983 0.873436
O O2 0.410863 0.242624 0.064576
O O3 0.931515 0.056425 0.828092
O O4 0.000000 0.000000 0.000000
O O5 0.478875 0.724804 0.334003
O O6 0.932275 0.725310 0.288332
O O7 0.593932 0.916626 0.282255
O O8 0.000000 0.000000 0.500000
O O9 0.001343 0.570829 0.811477
O O10 0.355759 0.861274 0.065092
O O11 0.455584 0.801085 0.685091
O O12 0.231639 0.666976 0.441623
O O13 0.500000 0.500000 0.500000
O O14 0.000000 0.500000 0.500000
#
# Coordination Sequence:
#
# PCOD9047186 Si02
#       6
#     2   2   2   2   2   2
#     4   9  21  41  69 101 147 185 231 291 376 421
#     4  12  28  50  75 101 149 200 241 298 356 431
#     4  10  24  43  73 106 145 186 238 306 367 421
#     4  11  26  44  73 101 148 187 245 286 371 423
#     4  12  28  48  75 106 147 188 251 296 357 432
#     4  12  28  45  75 108 142 185 244 300 360 429
#
# _framework density 22.673594000000001
#
# number of rings (size 3 to 8) (size 9 to 14) (size 15 to 20)
#    0.000    1.000    1.667    2.500   16.333    1.333 
#    0.000    0.000    0.000    0.000    0.000    0.000 
#    0.000    0.000    0.000    0.000    0.000    0.000 
#
# Total GULP energy -66895.473441 kJ/mol
# GULP energy per Si atom -5574.622787 kJ/mol
# Density = 2.262199 g / cm^3
# Si number density = 22.673594 Si / 1000 Ang^3
#
#
#
# Elastic Constant Matrix: (Units=GPa)
#
#
# Indices 1 2 3 4 5 6 
#
# 1 127.2911 44.1437 48.3181 10.7370 30.2713 1.9646
# 2 44.1437 70.3763 33.8578 -5.4038 16.5946 -17.6681
# 3 48.3181 33.8578 127.8190 10.3560 10.4809 3.9220
# 4 10.7370 -5.4038 10.3560 47.7140 -1.7038 22.4168
# 5 30.2713 16.5946 10.4809 -1.7038 50.0049 -1.3832
# 6 1.9646 -17.6681 3.9220 22.4168 -1.3832 50.1884
#
#
#
# Elastic Compliance Matrix: (Units=1/GPa)
#
#
# Indices 1 2 3 4 5 6 
#
# 1 0.012238 -0.005854 -0.002420 -0.002408 -0.005080 -0.001415
# 2 -0.005854 0.022459 -0.003814 0.000837 -0.002860 0.007981
# 3 -0.002420 -0.003814 0.009853 -0.001347 0.000581 -0.001400
# 4 -0.002408 0.000837 -0.001347 0.027466 0.002074 -0.011716
# 5 -0.005080 -0.002860 0.000581 0.002074 0.023940 -0.001120
# 6 -0.001415 0.007981 -0.001400 -0.011716 -0.001120 0.028102
#
#
# Mechanical properties :
#
#
# Convention : Reuss Voigt Hill
#
# Bulk Modulus (GPa) = 49.08631 64.23616 56.66124
# Shear Modulus (GPa) = 32.25263 42.85924 37.55594
#
# Velocity S-wave (km/s) = 3.77566 4.35244 4.07427
# Velocity P-wave (km/s) = 6.37994 7.32466 6.86856
#
# Compressibility (1/GPa) = 0.02037228
#
# Stress axis : x y z
#
# Youngs Moduli (GPa) = 81.71327 44.52599 101.48845
#
# Poissons Ratio (x) = 0.26067 0.24564
# Poissons Ratio (y) = 0.47837 0.38710
# Poissons Ratio (z) = 0.19778 0.16983
#
# Static dielectric constant tensor:
#      x y z
#    x 2.663450 -0.097270 0.023980 
#    y -0.097270 1.854530 0.006040 
#    z 0.023980 0.006040 1.855770 
# 
# From -- ./inp_files/53512.got.cif
#   From: 2010.05.17/outbox.cif.g08.bks.cpg/sg2_27_cif.got.tgz:53512.got - 2010.06.03 11:33:40.
