data_PCOD9047672
_publ_section_title
;
Structure prediction by ZEFSAII (Michael W. Deem and Ramdas Pophale) SiO2 
 PCOD9047672
Probable space group: P -1
;
_chemical_formula_sum "Si O2"
_cell_formula_units_Z 15
_cell_length_a 8.268239
_cell_length_b 8.665376
_cell_length_c 21.525826
_cell_angle_alpha 135.583151
_cell_angle_beta 39.962950
_cell_angle_gamma 136.450171
_cell_volume 637.069758
_symmetry_space_group_name_H-M "P -1"
_symmetry_group_IT_number 2
_symmetry_cell_setting 'triclinic'
loop_
_space_group_symop_operation_xyz
x,y,z
-x,-y,-z
loop_
_atom_site_type_symbol
_atom_site_label
_atom_site_fract_x
_atom_site_fract_y
_atom_site_fract_z
Si Si1 0.350256 0.454298 0.127196
Si Si2 0.441594 0.736072 0.569263
Si Si3 0.500000 0.000000 0.500000
Si Si4 0.690749 0.041697 0.697662
Si Si5 0.047514 0.114708 0.211240
Si Si6 0.884823 0.818420 0.289646
Si Si7 0.185179 0.726911 0.843756
Si Si8 0.053339 0.308403 0.972442
O O1 0.323485 0.299236 0.152524
O O2 0.655495 0.543170 0.037388
O O3 0.094481 0.297429 0.115252
O O4 0.301533 0.692520 0.226360
O O5 0.500000 0.500000 0.500000
O O6 0.651166 0.938111 0.610730
O O7 0.148963 0.741183 0.678455
O O8 0.463232 0.794259 0.506695
O O9 0.397458 0.148966 0.622874
O O10 0.440629 0.879584 0.769550
O O11 0.969367 0.058568 0.653754
O O12 0.076840 0.985142 0.227769
O O13 0.917031 0.892743 0.138360
O O14 0.838889 0.545436 0.221555
O O15 0.171173 0.807794 0.941551
O O16 0.000000 0.500000 0.000000
#
# Coordination Sequence:
#
# PCOD9047672 Si02
#       8
#     2   2   1   2   2   2   2   2
#     4  11  24  43  68  99 141 184 223 291 343 423
#     4  11  23  48  74 101 140 183 233 294 359 416
#     4  10  24  44  72 100 142 172 234 302 342 424
#     4  11  24  45  72 103 137 187 230 282 360 421
#     4  11  24  46  65 105 146 175 236 293 343 426
#     4  10  24  44  69 103 137 184 229 295 349 412
#     4  11  23  44  69  98 143 178 241 280 343 426
#     4  12  25  42  70 104 136 191 230 291 355 407
#
# _framework density 23.545303000000001
#
# number of rings (size 3 to 8) (size 9 to 14) (size 15 to 20)
#    0.000    1.067    4.000    1.200    3.733    5.333 
#    2.400    3.333    0.000    0.000    0.000    0.000 
#    0.000    0.000    0.000    0.000    0.000    0.000 
#
# Total GULP energy -83596.457461 kJ/mol
# GULP energy per Si atom -5573.097164 kJ/mol
# Density = 2.349171 g / cm^3
# Si number density = 23.545303 Si / 1000 Ang^3
#
#
#
# Elastic Constant Matrix: (Units=GPa)
#
#
# Indices 1 2 3 4 5 6 
#
# 1 40.2297 16.1281 5.6921 15.5167 5.1909 -17.3900
# 2 16.1281 104.2812 27.1543 -2.7644 -3.8992 -39.8708
# 3 5.6921 27.1543 62.8994 -3.6202 -4.8913 -10.4978
# 4 15.5167 -2.7644 -3.6202 34.5611 -12.7146 -5.6606
# 5 5.1909 -3.8992 -4.8913 -12.7146 33.8771 -2.5100
# 6 -17.3900 -39.8708 -10.4978 -5.6606 -2.5100 46.5580
#
#
#
# Elastic Compliance Matrix: (Units=1/GPa)
#
#
# Indices 1 2 3 4 5 6 
#
# 1 0.041327 -0.003759 -0.003399 -0.023672 -0.015567 0.007733
# 2 -0.003759 0.016508 -0.003812 0.006727 0.005412 0.012983
# 3 -0.003399 -0.003812 0.018586 0.004970 0.004669 0.000513
# 4 -0.023672 0.006727 0.004970 0.050532 0.024492 0.005504
# 5 -0.015567 0.005412 0.004669 0.024492 0.042775 0.005157
# 6 0.007733 0.012983 0.000513 0.005504 0.005157 0.036548
#
#
# Mechanical properties :
#
#
# Convention : Reuss Voigt Hill
#
# Bulk Modulus (GPa) = 18.35520 33.92883 26.14201
# Shear Modulus (GPa) = 20.29406 33.56164 26.92785
#
# Velocity S-wave (km/s) = 2.93902 3.77955 3.38547
# Velocity P-wave (km/s) = 4.39656 5.78688 5.13896
#
# Compressibility (1/GPa) = 0.05448048
#
# Stress axis : x y z
#
# Youngs Moduli (GPa) = 24.19727 60.57686 53.80324
#
# Poissons Ratio (x) = 0.22774 0.18289
# Poissons Ratio (y) = 0.09097 0.20508
# Poissons Ratio (z) = 0.08225 0.23089
#
# Static dielectric constant tensor:
#      x y z
#    x 2.001900 -0.006140 -0.023300 
#    y -0.006140 1.886000 -0.049160 
#    z -0.023300 -0.049160 1.903680 
# 
# From -- ./inp_files/51293.got.cif
#   From: 2010.05.17/outbox.cif.g08.bks.cpg/sg2_26_cif.got.tgz:51293.got - 2010.06.03 11:33:40.
