data_PCOD9047259
_publ_section_title
;
Structure prediction by ZEFSAII (Michael W. Deem and Ramdas Pophale) SiO2 
 PCOD9047259
Probable space group: P -1
;
_chemical_formula_sum "Si O2"
_cell_formula_units_Z 12
_cell_length_a 8.680498
_cell_length_b 8.801514
_cell_length_c 14.357527
_cell_angle_alpha 60.019373
_cell_angle_beta 50.469035
_cell_angle_gamma 35.606978
_cell_volume 492.200399
_symmetry_space_group_name_H-M "P -1"
_symmetry_group_IT_number 2
_symmetry_cell_setting 'triclinic'
loop_
_space_group_symop_operation_xyz
x,y,z
-x,-y,-z
loop_
_atom_site_type_symbol
_atom_site_label
_atom_site_fract_x
_atom_site_fract_y
_atom_site_fract_z
Si Si1 0.226741 0.259180 0.348566
Si Si2 0.852900 0.433326 0.126822
Si Si3 0.359248 0.826703 0.338572
Si Si4 0.978036 0.995509 0.272501
Si Si5 0.406020 0.518772 0.135604
Si Si6 0.460914 0.237320 0.512478
O O1 0.386479 0.325676 0.224786
O O2 0.893659 0.524434 0.426938
O O3 0.219883 0.110484 0.318844
O O4 0.409517 0.040480 0.426861
O O5 0.665534 0.628541 0.225523
O O6 0.063965 0.138276 0.169363
O O7 0.635715 0.473768 0.126391
O O8 0.000000 0.500000 0.000000
O O9 0.429350 0.729928 0.446832
O O10 0.145689 0.846505 0.351413
O O11 0.634808 0.208041 0.368216
O O12 0.088567 0.802359 0.205741
O O13 0.500000 0.500000 0.000000
#
# Coordination Sequence:
#
# PCOD9047259 Si02
#       6
#     2   2   2   2   2   2
#     4  10  25  45  74 109 145 193 232 301 368 429
#     4  11  27  45  74 103 146 196 248 302 356 435
#     4   9  23  42  71 106 147 187 240 296 365 426
#     4  11  25  44  71 107 143 194 245 298 364 434
#     4  11  29  47  71 103 147 194 249 301 363 434
#     4  10  24  43  78 107 153 183 245 291 373 435
#
# _framework density 24.380312
#
# number of rings (size 3 to 8) (size 9 to 14) (size 15 to 20)
#    1.000    0.667    0.000    1.500   14.000    4.667 
#    0.000    0.000    0.000    0.000    0.000    0.000 
#    0.000    0.000    0.000    0.000    0.000    0.000 
#
# Total GULP energy -67126.382868 kJ/mol
# GULP energy per Si atom -5593.865239 kJ/mol
# Density = 2.432482 g / cm^3
# Si number density = 24.380312 Si / 1000 Ang^3
#
#
#
# Elastic Constant Matrix: (Units=GPa)
#
#
# Indices 1 2 3 4 5 6 
#
# 1 72.1971 35.0739 53.2833 -3.4965 13.5804 7.5975
# 2 35.0739 157.1825 70.5141 -4.4404 -8.3241 12.1668
# 3 53.2833 70.5141 172.5605 -8.8055 12.1814 22.6061
# 4 -3.4965 -4.4404 -8.8055 44.0881 14.4138 -2.9133
# 5 13.5804 -8.3241 12.1814 14.4138 44.6168 -7.6105
# 6 7.5975 12.1668 22.6061 -2.9133 -7.6105 34.5199
#
#
#
# Elastic Compliance Matrix: (Units=1/GPa)
#
#
# Indices 1 2 3 4 5 6 
#
# 1 0.019773 -0.002662 -0.004186 0.002461 -0.006491 -0.001896
# 2 -0.002662 0.008425 -0.002965 -0.001113 0.003595 0.000257
# 3 -0.004186 -0.002965 0.009233 0.001961 -0.003222 -0.004625
# 4 0.002461 -0.001113 0.001961 0.026420 -0.010278 -0.001470
# 5 -0.006491 0.003595 -0.003222 -0.010278 0.030652 0.008162
# 6 -0.001896 0.000257 -0.004625 -0.001470 0.008162 0.033999
#
#
# Mechanical properties :
#
#
# Convention : Reuss Voigt Hill
#
# Bulk Modulus (GPa) = 56.16273 79.96476 68.06374
# Shear Modulus (GPa) = 32.45450 40.84956 36.65203
#
# Velocity S-wave (km/s) = 3.65249 4.09775 3.88151
# Velocity P-wave (km/s) = 6.39325 7.43363 6.93298
#
# Compressibility (1/GPa) = 0.01780540
#
# Stress axis : x y z
#
# Youngs Moduli (GPa) = 50.57460 118.69051 108.31229
#
# Poissons Ratio (x) = 0.31594 0.45335
# Poissons Ratio (y) = 0.13462 0.32116
# Poissons Ratio (z) = 0.21168 0.35193
#
# Static dielectric constant tensor:
#      x y z
#    x 2.022360 -0.032510 0.006050 
#    y -0.032510 2.009230 -0.001240 
#    z 0.006050 -0.001240 1.867670 
# 
# From -- ./inp_files/95180.got.cif
#   From: 2010.05.17/outbox.cif.g08.bks.cpg/sg2_48_cif.got.tgz:95180.got - 2010.06.03 11:33:40.
