data_PCOD9047665
_publ_section_title
;
Structure prediction by ZEFSAII (Michael W. Deem and Ramdas Pophale) SiO2 
 PCOD9047665
Probable space group: P -1
;
_chemical_formula_sum "Si O2"
_cell_formula_units_Z 16
_cell_length_a 11.857470
_cell_length_b 16.234037
_cell_length_c 9.288554
_cell_angle_alpha 41.467963
_cell_angle_beta 141.210594
_cell_angle_gamma 116.412625
_cell_volume 698.712051
_symmetry_space_group_name_H-M "P -1"
_symmetry_group_IT_number 2
_symmetry_cell_setting 'triclinic'
loop_
_space_group_symop_operation_xyz
x,y,z
-x,-y,-z
loop_
_atom_site_type_symbol
_atom_site_label
_atom_site_fract_x
_atom_site_fract_y
_atom_site_fract_z
Si Si1 0.298377 0.125902 0.522469
Si Si2 0.053621 0.341019 0.767818
Si Si3 0.404669 0.890395 0.584766
Si Si4 0.742071 0.385757 0.613281
Si Si5 0.040291 0.273743 0.313205
Si Si6 0.737731 0.667170 0.299378
Si Si7 0.921137 0.039240 0.617092
Si Si8 0.350503 0.838298 0.282861
O O1 0.225452 0.187105 0.522741
O O2 0.519488 0.086296 0.759323
O O3 0.210673 0.010724 0.556043
O O4 0.201376 0.246758 0.152600
O O5 0.143299 0.296059 0.760682
O O6 0.000000 0.500000 0.500000
O O7 0.854549 0.337542 0.637458
O O8 0.192986 0.951640 0.358750
O O9 0.407348 0.814596 0.537689
O O10 0.500000 0.000000 0.500000
O O11 0.544644 0.789352 0.967759
O O12 0.675826 0.542837 0.352961
O O13 0.609215 0.296172 0.593143
O O14 0.888255 0.343141 0.947914
O O15 0.117988 0.358491 0.389739
O O16 0.948714 0.177711 0.430573
O O17 0.130236 0.931361 0.947049
#
# Coordination Sequence:
#
# PCOD9047665 Si02
#       8
#     2   2   2   2   2   2   2   2
#     4  11  23  45  67 102 142 178 231 284 345 416
#     4   9  18  40  68  95 132 178 227 281 334 403
#     4  12  25  44  70 108 141 178 232 295 348 405
#     4  10  24  44  69 102 139 185 233 280 349 416
#     4  11  25  44  71 102 143 186 227 287 348 416
#     4  11  23  45  69 103 140 179 236 290 342 409
#     4  12  25  44  70 104 140 184 233 281 355 414
#     4  12  24  43  75 100 144 180 232 291 343 414
#
# _framework density 22.899277000000001
#
# number of rings (size 3 to 8) (size 9 to 14) (size 15 to 20)
#    0.000    1.000    5.000    1.875    1.750    2.000 
#    0.000    3.750    0.000    0.000    0.000    0.000 
#    0.000    0.000    0.000    0.000    0.000    0.000 
#
# Total GULP energy -89313.051520 kJ/mol
# GULP energy per Si atom -5582.065720 kJ/mol
# Density = 2.284716 g / cm^3
# Si number density = 22.899277 Si / 1000 Ang^3
#
#
#
# Elastic Constant Matrix: (Units=GPa)
#
#
# Indices 1 2 3 4 5 6 
#
# 1 103.0848 19.7000 9.9379 5.3306 20.1959 2.3629
# 2 19.7000 114.2375 31.5252 7.3933 3.8152 2.9910
# 3 9.9379 31.5252 65.4636 -5.8054 2.0630 9.6758
# 4 5.3306 7.3933 -5.8054 36.0216 -0.6755 -7.1089
# 5 20.1959 3.8152 2.0630 -0.6755 24.1931 4.4866
# 6 2.3629 2.9910 9.6758 -7.1089 4.4866 28.2563
#
#
#
# Elastic Compliance Matrix: (Units=1/GPa)
#
#
# Indices 1 2 3 4 5 6 
#
# 1 0.012093 -0.001346 -0.001126 -0.001752 -0.009957 0.000657
# 2 -0.001346 0.010592 -0.005150 -0.002792 -0.000201 0.000084
# 3 -0.001126 -0.005150 0.018950 0.003271 0.001195 -0.005217
# 4 -0.001752 -0.002792 0.003271 0.030485 0.001214 0.006799
# 5 -0.009957 -0.000201 0.001195 0.001214 0.050972 -0.007343
# 6 0.000657 0.000084 -0.005217 0.006799 -0.007343 0.039989
#
#
# Mechanical properties :
#
#
# Convention : Reuss Voigt Hill
#
# Bulk Modulus (GPa) = 37.89264 45.01245 41.45255
# Shear Modulus (GPa) = 26.72030 32.46906 29.59468
#
# Velocity S-wave (km/s) = 3.41964 3.76960 3.59888
# Velocity P-wave (km/s) = 5.67234 6.21658 5.95068
#
# Compressibility (1/GPa) = 0.02639035
#
# Stress axis : x y z
#
# Youngs Moduli (GPa) = 82.69330 94.40838 52.76955
#
# Poissons Ratio (x) = 0.12706 0.05944
# Poissons Ratio (y) = 0.11129 0.27178
# Poissons Ratio (z) = 0.09315 0.48623
#
# Static dielectric constant tensor:
#      x y z
#    x 1.875460 0.007530 -0.010960 
#    y 0.007530 1.890130 0.004890 
#    z -0.010960 0.004890 1.915250 
# 
# From -- ./inp_files/271966.got.cif
#   From: 2010.05.17/outbox.cif.g08.bks.cpg/sg2_136_cif.got.tgz:271966.got - 2010.06.03 11:33:40.
