data_PCOD9047481
_publ_section_title
;
Structure prediction by ZEFSAII (Michael W. Deem and Ramdas Pophale) SiO2 
 PCOD9047481
Probable space group: P -1
;
_chemical_formula_sum "Si O2"
_cell_formula_units_Z 16
_cell_length_a 18.238575
_cell_length_b 15.034923
_cell_length_c 8.438976
_cell_angle_alpha 101.535018
_cell_angle_beta 118.636793
_cell_angle_gamma 27.535740
_cell_volume 781.359936
_symmetry_space_group_name_H-M "P -1"
_symmetry_group_IT_number 2
_symmetry_cell_setting 'triclinic'
loop_
_space_group_symop_operation_xyz
x,y,z
-x,-y,-z
loop_
_atom_site_type_symbol
_atom_site_label
_atom_site_fract_x
_atom_site_fract_y
_atom_site_fract_z
Si Si1 0.484509 0.167024 0.080120
Si Si2 0.147246 0.065228 0.566647
Si Si3 0.175738 0.285403 0.222823
Si Si4 0.600002 0.878812 0.311277
Si Si5 0.099148 0.807369 0.088868
Si Si6 0.854922 0.225829 0.497977
Si Si7 0.021084 0.698396 0.848085
Si Si8 0.542700 0.411740 0.341571
O O1 0.403367 0.196966 0.848954
O O2 0.271965 0.424458 0.024437
O O3 0.674565 0.049202 0.206870
O O4 0.571485 0.001800 0.229727
O O5 0.278419 0.845271 0.562478
O O6 0.948553 0.222837 0.515424
O O7 0.050243 0.218854 0.377027
O O8 0.206547 0.307677 0.429776
O O9 0.110346 0.249614 0.188511
O O10 0.393446 0.071322 0.274957
O O11 0.000000 0.500000 0.000000
O O12 0.121426 0.787274 0.293701
O O13 0.320695 0.584580 0.141308
O O14 0.974356 0.842098 0.928324
O O15 0.000000 0.000000 0.000000
O O16 0.618525 0.417888 0.307384
O O17 0.000000 0.000000 0.500000
O O18 0.500000 0.500000 0.500000
#
# Coordination Sequence:
#
# PCOD9047481 Si02
#       8
#     2   2   2   2   2   2   2   2
#     4  11  23  43  65  97 133 173 215 276 332 396
#     4  11  22  42  61  94 137 165 218 275 320 397
#     4  11  23  43  69  97 131 173 223 274 326 400
#     4  10  24  44  67  94 133 171 216 273 341 389
#     4  11  22  40  65  96 131 171 222 270 325 393
#     4   9  20  39  61  87 125 172 214 267 326 380
#     4  12  24  40  65  99 128 175 221 268 331 395
#     4   9  18  38  63  85 126 172 209 266 325 381
#
# _framework density 20.477117
#
# number of rings (size 3 to 8) (size 9 to 14) (size 15 to 20)
#    0.000    1.500    3.750    2.250    1.750    1.500 
#    2.250    3.125    0.000    0.000    0.000    0.000 
#    0.000    0.000    0.000    0.000    0.000    0.000 
#
# Total GULP energy -89216.221571 kJ/mol
# GULP energy per Si atom -5576.013848 kJ/mol
# Density = 2.043051 g / cm^3
# Si number density = 20.477117 Si / 1000 Ang^3
#
#
#
# Elastic Constant Matrix: (Units=GPa)
#
#
# Indices 1 2 3 4 5 6 
#
# 1 174.7926 29.7746 46.7648 10.1806 19.4499 -3.3484
# 2 29.7746 44.8202 14.5603 8.7987 0.8567 1.8393
# 3 46.7648 14.5603 97.4882 12.6159 2.1123 11.3336
# 4 10.1806 8.7987 12.6159 27.7009 6.0358 6.0059
# 5 19.4499 0.8567 2.1123 6.0358 35.0808 -0.7588
# 6 -3.3484 1.8393 11.3336 6.0059 -0.7588 30.6300
#
#
#
# Elastic Compliance Matrix: (Units=1/GPa)
#
#
# Indices 1 2 3 4 5 6 
#
# 1 0.007792 -0.004184 -0.003327 0.000393 -0.004038 0.002157
# 2 -0.004184 0.026793 -0.001122 -0.007061 0.002944 -0.000194
# 3 -0.003327 -0.001122 0.012973 -0.003750 0.001643 -0.004320
# 4 0.000393 -0.007061 -0.003750 0.042974 -0.007359 -0.006754
# 5 -0.004038 0.002944 0.001643 -0.007359 0.031862 0.001006
# 6 0.002157 -0.000194 -0.004320 -0.006754 0.001006 0.035843
#
#
# Mechanical properties :
#
#
# Convention : Reuss Voigt Hill
#
# Bulk Modulus (GPa) = 33.01174 55.47783 44.24479
# Shear Modulus (GPa) = 26.93963 33.74909 30.34436
#
# Velocity S-wave (km/s) = 3.63105 4.06413 3.85368
# Velocity P-wave (km/s) = 5.80824 7.01244 6.43855
#
# Compressibility (1/GPa) = 0.03029226
#
# Stress axis : x y z
#
# Youngs Moduli (GPa) = 128.34311 37.32302 77.08210
#
# Poissons Ratio (x) = 0.15615 0.25644
# Poissons Ratio (y) = 0.53695 0.08651
# Poissons Ratio (z) = 0.42698 0.04189
#
# Static dielectric constant tensor:
#      x y z
#    x 1.725560 0.007060 0.025700 
#    y 0.007060 1.765210 0.021310 
#    z 0.025700 0.021310 1.743180 
# 
# From -- ./inp_files/200603.got.cif
#   From: 2010.05.17/outbox.cif.g08.bks.cpg/sg2_101_cif.got.tgz:200603.got - 2010.06.03 11:33:40.
