data_PCOD9048549
_publ_section_title
;
Structure prediction by ZEFSAII (Michael W. Deem and Ramdas Pophale) SiO2 
 PCOD9048549
Probable space group: P -1
;
_chemical_formula_sum "Si O2"
_cell_formula_units_Z 15
_cell_length_a 7.136174
_cell_length_b 9.970267
_cell_length_c 13.764653
_cell_angle_alpha 59.952748
_cell_angle_beta 79.500596
_cell_angle_gamma 44.507398
_cell_volume 569.054577
_symmetry_space_group_name_H-M "P -1"
_symmetry_group_IT_number 2
_symmetry_cell_setting 'triclinic'
loop_
_space_group_symop_operation_xyz
x,y,z
-x,-y,-z
loop_
_atom_site_type_symbol
_atom_site_label
_atom_site_fract_x
_atom_site_fract_y
_atom_site_fract_z
Si Si1 0.500000 0.500000 0.500000
Si Si2 0.148314 0.002206 0.826224
Si Si3 0.870832 0.621585 0.107072
Si Si4 0.132507 0.714651 0.842753
Si Si5 0.566472 0.015308 0.847206
Si Si6 0.316609 0.512677 0.226661
Si Si7 0.105780 0.180328 0.559567
Si Si8 0.519420 0.199167 0.497555
O O1 0.646073 0.260913 0.525926
O O2 0.792957 0.423945 0.485418
O O3 0.202897 0.786259 0.901559
O O4 0.397162 0.965589 0.847679
O O5 0.093389 0.074657 0.692308
O O6 0.879857 0.221786 0.831502
O O7 0.855121 0.479147 0.094079
O O8 0.171839 0.489157 0.168623
O O9 0.658951 0.733056 0.178506
O O10 0.757489 0.837338 0.981664
O O11 0.371565 0.622125 0.778654
O O12 0.799192 0.939756 0.779144
O O13 0.328683 0.405242 0.362006
O O14 0.323417 0.185551 0.567179
O O15 0.243753 0.026701 0.506300
#
# Coordination Sequence:
#
# PCOD9048549 Si02
#       8
#     1   2   2   2   2   2   2   2
#     4  12  24  44  72 100 122 178 226 276 330 400
#     4  11  24  44  65  98 139 174 224 275 334 395
#     4  10  24  45  69  99 136 179 223 272 336 401
#     4  12  23  41  68 102 129 181 220 284 320 404
#     4  10  24  45  69  99 136 179 223 272 336 401
#     4  11  24  44  65  98 139 174 224 275 334 395
#     4  11  25  47  68  98 138 176 221 279 335 394
#     4  11  25  47  68  98 138 176 221 279 335 394
#
# _framework density 26.359511999999999
#
# number of rings (size 3 to 8) (size 9 to 14) (size 15 to 20)
#    0.000    1.067    2.667    2.800    0.000    4.267 
#    9.600    4.000    0.000    0.000    0.000    0.000 
#    0.000    0.000    0.000    0.000    0.000    0.000 
#
# Total GULP energy -83709.636590 kJ/mol
# GULP energy per Si atom -5580.642439 kJ/mol
# Density = 2.629952 g / cm^3
# Si number density = 26.359512 Si / 1000 Ang^3
#
#
#
# Elastic Constant Matrix: (Units=GPa)
#
#
# Indices 1 2 3 4 5 6 
#
# 1 179.4011 78.2525 15.8157 20.3533 -7.0207 -7.4985
# 2 78.2525 152.1583 -1.5675 19.8467 -10.8238 4.9826
# 3 15.8157 -1.5675 53.7333 -0.7442 3.8203 5.4578
# 4 20.3533 19.8467 -0.7442 16.5064 -2.3430 -2.4993
# 5 -7.0207 -10.8238 3.8203 -2.3430 22.4684 -0.4017
# 6 -7.4985 4.9826 5.4578 -2.4993 -0.4017 60.6081
#
#
#
# Elastic Compliance Matrix: (Units=1/GPa)
#
#
# Indices 1 2 3 4 5 6 
#
# 1 0.008022 -0.003410 -0.002724 -0.005610 0.000765 0.001292
# 2 -0.003410 0.009487 0.001162 -0.007028 0.002546 -0.001579
# 3 -0.002724 0.001162 0.019944 0.002034 -0.003509 -0.002168
# 4 -0.005610 -0.007028 0.002034 0.076846 0.002581 0.002886
# 5 0.000765 0.002546 -0.003509 0.002581 0.046849 0.000618
# 6 0.001292 -0.001579 -0.002168 0.002886 0.000618 0.017107
#
#
# Mechanical properties :
#
#
# Convention : Reuss Voigt Hill
#
# Bulk Modulus (GPa) = 36.34960 63.36601 49.85780
# Shear Modulus (GPa) = 25.33331 39.43603 32.38467
#
# Velocity S-wave (km/s) = 3.10347 3.87212 3.50891
# Velocity P-wave (km/s) = 5.16352 6.63946 5.94745
#
# Compressibility (1/GPa) = 0.02751062
#
# Stress axis : x y z
#
# Youngs Moduli (GPa) = 124.65784 105.40553 50.14053
#
# Poissons Ratio (x) = 0.35940 0.13658
# Poissons Ratio (y) = 0.42505 -0.05828
# Poissons Ratio (z) = 0.33956 -0.12253
#
# Static dielectric constant tensor:
#      x y z
#    x 1.887170 0.024150 0.016900 
#    y 0.024150 2.122680 0.017470 
#    z 0.016900 0.017470 2.135460 
# 
# From -- ./inp_files/480301.got.cif
#   From: 2010.05.17/outbox.cif.g08.bks.cpg/sg2_241_cif.got.tgz:480301.got - 2010.06.03 11:33:40.
