data_PCOD9048384
_publ_section_title
;
Structure prediction by ZEFSAII (Michael W. Deem and Ramdas Pophale) SiO2 
 PCOD9048384
Probable space group: P -1
;
_chemical_formula_sum "Si O2"
_cell_formula_units_Z 16
_cell_length_a 5.825308
_cell_length_b 18.818289
_cell_length_c 9.099518
_cell_angle_alpha 132.326701
_cell_angle_beta 75.675617
_cell_angle_gamma 109.684074
_cell_volume 694.077530
_symmetry_space_group_name_H-M "P -1"
_symmetry_group_IT_number 2
_symmetry_cell_setting 'triclinic'
loop_
_space_group_symop_operation_xyz
x,y,z
-x,-y,-z
loop_
_atom_site_type_symbol
_atom_site_label
_atom_site_fract_x
_atom_site_fract_y
_atom_site_fract_z
Si Si1 0.935998 0.122118 0.782432
Si Si2 0.875869 0.483255 0.159957
Si Si3 0.518532 0.959408 0.781464
Si Si4 0.088919 0.337033 0.090888
Si Si5 0.587988 0.259581 0.427902
Si Si6 0.504211 0.612554 0.111827
Si Si7 0.751684 0.006576 0.384576
Si Si8 0.826112 0.676574 0.607745
O O1 0.930216 0.089757 0.568360
O O2 0.738097 0.037269 0.778105
O O3 0.186988 0.100183 0.770378
O O4 0.901464 0.229775 0.971391
O O5 0.815414 0.581148 0.371607
O O6 0.006461 0.436520 0.202795
O O7 0.647266 0.397349 0.028350
O O8 0.000000 0.500000 0.000000
O O9 0.534034 0.847388 0.635443
O O10 0.277882 0.960426 0.728069
O O11 0.500000 0.000000 0.000000
O O12 0.212251 0.348364 0.247616
O O13 0.237406 0.327414 0.903960
O O14 0.591254 0.338613 0.667255
O O15 0.396447 0.278655 0.358854
O O16 0.879381 0.267163 0.362337
O O17 0.500000 0.500000 0.000000
O O18 0.500000 0.000000 0.500000
#
# Coordination Sequence:
#
# PCOD9048384 Si02
#       8
#     2   2   2   2   2   2   2   2
#     4  10  24  45  68 101 143 186 250 297 362 437
#     4  12  24  48  74 105 149 191 249 309 374 449
#     4  11  26  44  72 102 148 193 244 306 364 434
#     4  12  28  43  77 105 146 199 242 316 374 440
#     4  12  28  48  78 108 153 204 246 303 376 445
#     4  12  25  46  72 108 144 193 251 308 369 451
#     4   9  22  42  65  95 140 182 244 295 355 425
#     4  12  28  50  74 114 153 191 253 303 377 450
#
# _framework density 23.052178999999999
#
# number of rings (size 3 to 8) (size 9 to 14) (size 15 to 20)
#    0.000    0.750    3.750    1.125   12.250    2.000 
#    0.000    0.000    0.000    0.000    0.000    0.000 
#    0.000    0.000    0.000    0.000    0.000    0.000 
#
# Total GULP energy -89167.800846 kJ/mol
# GULP energy per Si atom -5572.987553 kJ/mol
# Density = 2.299971 g / cm^3
# Si number density = 23.052179 Si / 1000 Ang^3
#
#
#
# Elastic Constant Matrix: (Units=GPa)
#
#
# Indices 1 2 3 4 5 6 
#
# 1 82.8457 37.1162 -3.5176 -9.9618 11.3217 -8.8448
# 2 37.1162 107.3140 44.4063 -5.5960 13.8384 -14.2511
# 3 -3.5176 44.4063 88.8047 -12.0190 16.0819 -2.5147
# 4 -9.9618 -5.5960 -12.0190 45.0123 -7.0002 4.8766
# 5 11.3217 13.8384 16.0819 -7.0002 24.3279 -16.1804
# 6 -8.8448 -14.2511 -2.5147 4.8766 -16.1804 39.1102
#
#
#
# Elastic Compliance Matrix: (Units=1/GPa)
#
#
# Indices 1 2 3 4 5 6 
#
# 1 0.017070 -0.007610 0.006420 0.003492 -0.008480 -0.002443
# 2 -0.007610 0.015789 -0.008924 -0.002154 0.003199 0.005051
# 3 0.006420 -0.008924 0.018799 0.003932 -0.013694 -0.006747
# 4 0.003492 -0.002154 0.003932 0.024404 0.002994 -0.001546
# 5 -0.008480 0.003199 -0.013694 0.002994 0.071480 0.027566
# 6 -0.002443 0.005051 -0.006747 -0.001546 0.027566 0.038020
#
#
# Mechanical properties :
#
#
# Convention : Reuss Voigt Hill
#
# Bulk Modulus (GPa) = 31.81593 48.33046 40.07320
# Shear Modulus (GPa) = 23.11959 35.08741 29.10350
#
# Velocity S-wave (km/s) = 3.17033 3.90563 3.55703
# Velocity P-wave (km/s) = 5.21853 6.43038 5.85588
#
# Compressibility (1/GPa) = 0.03143080
#
# Stress axis : x y z
#
# Youngs Moduli (GPa) = 58.58091 63.33452 53.19536
#
# Poissons Ratio (x) = 0.48195 -0.34154
# Poissons Ratio (y) = 0.44578 0.47474
# Poissons Ratio (z) = -0.37611 0.56523
#
# Static dielectric constant tensor:
#      x y z
#    x 2.795770 0.171320 -0.296740 
#    y 0.171320 1.896920 -0.060820 
#    z -0.296740 -0.060820 2.088060 
# 
# From -- ./inp_files/139580.got.cif
#   From: 2010.05.17/outbox.cif.g08.bks.cpg/sg2_70_cif.got.tgz:139580.got - 2010.06.03 11:33:40.
