data_PCOD9048878
_publ_section_title
;
Structure prediction by ZEFSAII (Michael W. Deem and Ramdas Pophale) SiO2 
 PCOD9048878
Probable space group: P -1
;
_chemical_formula_sum "Si O2"
_cell_formula_units_Z 14
_cell_length_a 11.739163
_cell_length_b 6.220717
_cell_length_c 10.473225
_cell_angle_alpha 68.940142
_cell_angle_beta 75.948993
_cell_angle_gamma 52.685076
_cell_volume 567.321470
_symmetry_space_group_name_H-M "P -1"
_symmetry_group_IT_number 2
_symmetry_cell_setting 'triclinic'
loop_
_space_group_symop_operation_xyz
x,y,z
-x,-y,-z
loop_
_atom_site_type_symbol
_atom_site_label
_atom_site_fract_x
_atom_site_fract_y
_atom_site_fract_z
Si Si1 0.083335 0.242024 0.629943
Si Si2 0.898710 0.288794 0.041430
Si Si3 0.359491 0.301325 0.823877
Si Si4 0.656334 0.777592 0.452707
Si Si5 0.603331 0.227923 0.941965
Si Si6 0.180383 0.787174 0.303675
Si Si7 0.068285 0.354118 0.200870
O O1 0.249792 0.092216 0.590936
O O2 0.000000 0.500000 0.500000
O O3 0.981320 0.134092 0.684629
O O4 0.059266 0.391932 0.740395
O O5 0.760467 0.397042 0.142734
O O6 0.004054 0.300052 0.107776
O O7 0.841384 0.534413 0.898440
O O8 0.000000 0.000000 0.000000
O O9 0.350812 0.301592 0.674237
O O10 0.509515 0.226763 0.852491
O O11 0.342237 0.056056 0.932463
O O12 0.733668 0.494587 0.577290
O O13 0.500000 0.000000 0.500000
O O14 0.727453 0.243436 0.839866
O O15 0.500000 0.500000 0.000000
O O16 0.153306 0.066327 0.317176
#
# Coordination Sequence:
#
# PCOD9048878 Si02
#       7
#     2   2   2   2   2   2   2
#     4  10  24  45  74 108 148 196 244 310 377 453
#     4  11  24  43  74 107 148 194 248 315 373 444
#     4  11  25  50  73 111 153 194 258 308 383 452
#     4  11  25  51  77 111 153 199 253 311 382 457
#     4  11  26  45  77 108 150 203 249 315 383 453
#     4  11  25  47  75 108 153 200 250 310 380 449
#     4  11  23  44  71 108 146 188 255 307 376 437
#
# _framework density 24.677365999999999
#
# number of rings (size 3 to 8) (size 9 to 14) (size 15 to 20)
#    0.000    1.143    2.857    1.714    4.000    5.143 
#   10.286    2.143    0.000    0.000    0.000    0.000 
#    0.000    0.000    0.000    0.000    0.000    0.000 
#
# Total GULP energy -78242.910622 kJ/mol
# GULP energy per Si atom -5588.779330 kJ/mol
# Density = 2.462120 g / cm^3
# Si number density = 24.677366 Si / 1000 Ang^3
#
#
#
# Elastic Constant Matrix: (Units=GPa)
#
#
# Indices 1 2 3 4 5 6 
#
# 1 150.6352 55.2796 80.9517 3.6463 -18.7238 -17.8084
# 2 55.2796 119.9400 49.0976 -5.1658 -14.2731 -17.4102
# 3 80.9517 49.0976 116.2494 -8.1946 -22.8545 1.3296
# 4 3.6463 -5.1658 -8.1946 47.0406 3.3244 -8.1657
# 5 -18.7238 -14.2731 -22.8545 3.3244 43.7291 4.6598
# 6 -17.8084 -17.4102 1.3296 -8.1657 4.6598 45.2016
#
#
#
# Elastic Compliance Matrix: (Units=1/GPa)
#
#
# Indices 1 2 3 4 5 6 
#
# 1 0.011984 -0.001866 -0.007684 -0.001816 0.000231 0.003877
# 2 -0.001866 0.011235 -0.003263 0.001439 0.000640 0.003882
# 3 -0.007684 -0.003263 0.016428 0.001924 0.004606 -0.004895
# 4 -0.001816 0.001439 0.001924 0.022695 -0.001457 0.004032
# 5 0.000231 0.000640 0.004606 -0.001457 0.025986 -0.002740
# 6 0.003877 0.003882 -0.004895 0.004032 -0.002740 0.026301
#
#
# Mechanical properties :
#
#
# Convention : Reuss Voigt Hill
#
# Bulk Modulus (GPa) = 71.31895 84.16472 77.74183
# Shear Modulus (GPa) = 34.50016 40.62730 37.56373
#
# Velocity S-wave (km/s) = 3.74311 4.06191 3.90576
# Velocity P-wave (km/s) = 6.90249 7.49526 7.20497
#
# Compressibility (1/GPa) = 0.01402152
#
# Stress axis : x y z
#
# Youngs Moduli (GPa) = 83.44794 89.00994 60.87107
#
# Poissons Ratio (x) = 0.16607 0.46772
# Poissons Ratio (y) = 0.15569 0.19862
# Poissons Ratio (z) = 0.64120 0.29043
#
# Static dielectric constant tensor:
#      x y z
#    x 1.974480 0.025200 -0.034540 
#    y 0.025200 1.965970 -0.066190 
#    z -0.034540 -0.066190 2.020880 
# 
# From -- ./inp_files/410044.got.cif
#   From: 2010.05.17/outbox.cif.g08.bks.cpg/sg2_206_cif.got.tgz:410044.got - 2010.06.03 11:33:40.
