data_PCOD9048919
_publ_section_title
;
Structure prediction by ZEFSAII (Michael W. Deem and Ramdas Pophale) SiO2 
 PCOD9048919
Probable space group: P -1
;
_chemical_formula_sum "Si O2"
_cell_formula_units_Z 12
_cell_length_a 5.172736
_cell_length_b 10.669902
_cell_length_c 9.057346
_cell_angle_alpha 77.326855
_cell_angle_beta 77.620517
_cell_angle_gamma 70.772191
_cell_volume 454.998462
_symmetry_space_group_name_H-M "P -1"
_symmetry_group_IT_number 2
_symmetry_cell_setting 'triclinic'
loop_
_space_group_symop_operation_xyz
x,y,z
-x,-y,-z
loop_
_atom_site_type_symbol
_atom_site_label
_atom_site_fract_x
_atom_site_fract_y
_atom_site_fract_z
Si Si1 0.750437 0.855093 0.332506
Si Si2 0.679788 0.064727 0.066480
Si Si3 0.241200 0.544506 0.130700
Si Si4 0.014842 0.149579 0.413522
Si Si5 0.165353 0.287165 0.099759
Si Si6 0.656815 0.295978 0.658972
O O1 0.733325 0.841057 0.513527
O O2 0.079191 0.814534 0.273874
O O3 0.611084 0.753743 0.298443
O O4 0.638007 0.002945 0.246135
O O5 0.989710 0.340281 0.960869
O O6 0.500000 0.000000 0.000000
O O7 0.000000 0.000000 0.000000
O O8 0.127970 0.415185 0.177876
O O9 0.338981 0.579635 0.270916
O O10 0.500000 0.500000 0.000000
O O11 0.506164 0.780417 0.952925
O O12 0.053195 0.180278 0.231680
O O13 0.764554 0.271874 0.482457
O O14 0.000000 0.000000 0.500000
#
# Coordination Sequence:
#
# PCOD9048919 Si02
#       6
#     2   2   2   2   2   2
#     4  10  24  45  75 108 155 196 256 315 403 460
#     4  12  27  43  75 113 156 199 252 328 399 457
#     4  11  28  48  78 109 161 214 271 326 375 470
#     4  10  25  48  78 115 160 202 256 329 400 476
#     4  11  28  49  76 117 158 208 270 321 395 471
#     4  10  24  47  76 107 155 204 259 314 391 462
#
# _framework density 26.373716999999999
#
# number of rings (size 3 to 8) (size 9 to 14) (size 15 to 20)
#    1.000    0.333    0.000    3.000   14.000    4.667 
#    0.000    2.500    0.000    0.000    0.000    0.000 
#    0.000    0.000    0.000    0.000    0.000    0.000 
#
# Total GULP energy -66970.677549 kJ/mol
# GULP energy per Si atom -5580.889796 kJ/mol
# Density = 2.631369 g / cm^3
# Si number density = 26.373717 Si / 1000 Ang^3
#
#
#
# Elastic Constant Matrix: (Units=GPa)
#
#
# Indices 1 2 3 4 5 6 
#
# 1 158.7940 40.0845 46.9385 5.5959 3.6996 3.4631
# 2 40.0845 127.7138 47.9681 20.4934 6.4472 17.5901
# 3 46.9385 47.9681 100.4077 12.9986 -21.2044 -9.7704
# 4 5.5959 20.4934 12.9986 48.5352 -5.7278 7.6575
# 5 3.6996 6.4472 -21.2044 -5.7278 32.8938 7.3452
# 6 3.4631 17.5901 -9.7704 7.6575 7.3452 49.4166
#
#
#
# Elastic Compliance Matrix: (Units=1/GPa)
#
#
# Indices 1 2 3 4 5 6 
#
# 1 0.007751 -0.000695 -0.004051 0.000216 -0.003162 -0.000660
# 2 -0.000695 0.011960 -0.006679 -0.003269 -0.006226 -0.004097
# 3 -0.004051 -0.006679 0.018202 -0.000852 0.012332 0.004559
# 4 0.000216 -0.003269 -0.000852 0.023291 0.004872 -0.003353
# 5 -0.003162 -0.006226 0.012332 0.004872 0.041223 -0.002006
# 6 -0.000660 -0.004097 0.004559 -0.003353 -0.002006 0.023460
#
#
# Mechanical properties :
#
#
# Convention : Reuss Voigt Hill
#
# Bulk Modulus (GPa) = 66.39031 72.98863 69.68947
# Shear Modulus (GPa) = 32.51852 42.96409 37.74130
#
# Velocity S-wave (km/s) = 3.51520 4.04053 3.78699
# Velocity P-wave (km/s) = 6.45779 7.03581 6.75299
#
# Compressibility (1/GPa) = 0.01506244
#
# Stress axis : x y z
#
# Youngs Moduli (GPa) = 129.01661 83.61263 54.93842
#
# Poissons Ratio (x) = 0.05813 0.22257
# Poissons Ratio (y) = 0.08969 0.36693
# Poissons Ratio (z) = 0.52268 0.55844
#
# Static dielectric constant tensor:
#      x y z
#    x 2.101140 -0.018940 -0.067150 
#    y -0.018940 2.248290 0.042200 
#    z -0.067150 0.042200 2.121590 
# 
# From -- ./inp_files/130871.got.cif
#   From: 2010.05.17/outbox.cif.g08.bks.cpg/sg2_66_cif.got.tgz:130871.got - 2010.06.03 11:33:40.
