data_PCOD9048309
_publ_section_title
;
Structure prediction by ZEFSAII (Michael W. Deem and Ramdas Pophale) SiO2 
 PCOD9048309
Probable space group: P -1
;
_chemical_formula_sum "Si O2"
_cell_formula_units_Z 15
_cell_length_a 8.133373
_cell_length_b 14.453833
_cell_length_c 13.437898
_cell_angle_alpha 30.206322
_cell_angle_beta 105.645657
_cell_angle_gamma 87.549714
_cell_volume 629.198863
_symmetry_space_group_name_H-M "P -1"
_symmetry_group_IT_number 2
_symmetry_cell_setting 'triclinic'
loop_
_space_group_symop_operation_xyz
x,y,z
-x,-y,-z
loop_
_atom_site_type_symbol
_atom_site_label
_atom_site_fract_x
_atom_site_fract_y
_atom_site_fract_z
Si Si1 0.500000 0.000000 0.000000
Si Si2 0.073488 0.856087 0.044753
Si Si3 0.893377 0.869714 0.624939
Si Si4 0.843363 0.638268 0.252957
Si Si5 0.158192 0.451302 0.188925
Si Si6 0.807558 0.270846 0.507417
Si Si7 0.453066 0.710912 0.734932
Si Si8 0.569546 0.608172 0.522051
O O1 0.374180 0.183861 0.897874
O O2 0.466288 0.199987 0.734586
O O3 0.926700 0.769370 0.091800
O O4 0.305168 0.635990 0.282971
O O5 0.023732 0.038082 0.784885
O O6 0.000000 0.000000 0.000000
O O7 0.923312 0.706057 0.692345
O O8 0.655025 0.069344 0.419732
O O9 0.000000 0.000000 0.500000
O O10 0.991442 0.704706 0.889934
O O11 0.837427 0.469662 0.335824
O O12 0.000000 0.500000 0.500000
O O13 0.339899 0.354612 0.225647
O O14 0.268076 0.426998 0.332740
O O15 0.712042 0.248224 0.413734
O O16 0.638053 0.326264 0.514728
O O17 0.500000 0.500000 0.000000
#
# Coordination Sequence:
#
# PCOD9048309 Si02
#       8
#     1   2   2   2   2   2   2   2
#     4  12  24  42  66  94 130 170 222 268 326 386
#     4  12  24  44  68  95 131 174 222 273 331 389
#     4  11  22  43  71 100 132 174 220 275 332 393
#     4  12  25  43  65  97 129 174 219 268 332 388
#     4  10  24  45  66  98 137 176 219 272 333 394
#     4  11  26  44  68  96 135 175 220 273 331 393
#     4  11  23  45  67 100 134 176 220 272 331 396
#     4  11  25  44  67  99 133 176 224 271 330 396
#
# _framework density 23.839841
#
# number of rings (size 3 to 8) (size 9 to 14) (size 15 to 20)
#    0.000    0.800    5.333    1.200    1.867    3.200 
#    2.400    0.000    0.000    0.000    0.000    0.000 
#    0.000    0.000    0.000    0.000    0.000    0.000 
#
# Total GULP energy -83770.499595 kJ/mol
# GULP energy per Si atom -5584.699973 kJ/mol
# Density = 2.378558 g / cm^3
# Si number density = 23.839841 Si / 1000 Ang^3
#
#
#
# Elastic Constant Matrix: (Units=GPa)
#
#
# Indices 1 2 3 4 5 6 
#
# 1 71.1852 10.2109 16.4254 -16.7859 -18.6021 3.0918
# 2 10.2109 70.8670 40.4695 -13.2946 -9.8131 6.8773
# 3 16.4254 40.4695 167.5440 -32.8507 -13.9038 4.1359
# 4 -16.7859 -13.2946 -32.8507 36.5640 4.1067 1.1381
# 5 -18.6021 -9.8131 -13.9038 4.1067 34.4292 -9.6831
# 6 3.0918 6.8773 4.1359 1.1381 -9.6831 41.3780
#
#
#
# Elastic Compliance Matrix: (Units=1/GPa)
#
#
# Indices 1 2 3 4 5 6 
#
# 1 0.018147 -0.000266 0.000537 0.007666 0.009193 0.000575
# 2 -0.000266 0.017110 -0.003274 0.002939 0.002500 -0.001992
# 3 0.000537 -0.003274 0.008056 0.006084 0.001876 -0.000029
# 4 0.007666 0.002939 0.006084 0.037201 0.002400 -0.002131
# 5 0.009193 0.002500 0.001876 0.002400 0.037268 0.007365
# 6 0.000575 -0.001992 -0.000029 -0.002131 0.007365 0.026241
#
#
# Mechanical properties :
#
#
# Convention : Reuss Voigt Hill
#
# Bulk Modulus (GPa) = 26.80422 49.31199 38.05810
# Shear Modulus (GPa) = 30.77612 38.64027 34.70819
#
# Velocity S-wave (km/s) = 3.59688 4.03032 3.81975
# Velocity P-wave (km/s) = 5.34022 6.51057 5.95422
#
# Compressibility (1/GPa) = 0.03730756
#
# Stress axis : x y z
#
# Youngs Moduli (GPa) = 55.10446 58.44650 124.12933
#
# Poissons Ratio (x) = 0.01555 -0.06667
# Poissons Ratio (y) = 0.01466 0.40638
# Poissons Ratio (z) = -0.02959 0.19134
#
# Static dielectric constant tensor:
#      x y z
#    x 2.023100 0.080400 0.027070 
#    y 0.080400 1.958280 0.011470 
#    z 0.027070 0.011470 1.877890 
# 
# From -- ./inp_files/505087.got.cif
#   From: 2010.05.17/outbox.cif.g08.bks.cpg/sg2_253_cif.got.tgz:505087.got - 2010.06.03 11:33:40.
