data_PCOD9048140
_publ_section_title
;
Structure prediction by ZEFSAII (Michael W. Deem and Ramdas Pophale) SiO2 
 PCOD9048140
Probable space group: P -1
;
_chemical_formula_sum "Si O2"
_cell_formula_units_Z 13
_cell_length_a 15.113396
_cell_length_b 8.574418
_cell_length_c 5.237749
_cell_angle_alpha 126.691750
_cell_angle_beta 105.107185
_cell_angle_gamma 68.924483
_cell_volume 506.907402
_symmetry_space_group_name_H-M "P -1"
_symmetry_group_IT_number 2
_symmetry_cell_setting 'triclinic'
loop_
_space_group_symop_operation_xyz
x,y,z
-x,-y,-z
loop_
_atom_site_type_symbol
_atom_site_label
_atom_site_fract_x
_atom_site_fract_y
_atom_site_fract_z
Si Si1 0.245033 0.011639 0.194948
Si Si2 0.393618 0.973128 0.888266
Si Si3 0.437630 0.573665 0.270432
Si Si4 0.039093 0.259408 0.285981
Si Si5 0.721859 0.660425 0.069544
Si Si6 0.141676 0.743033 0.169041
Si Si7 0.000000 0.000000 0.500000
O O1 0.279598 0.165992 0.558938
O O2 0.146310 0.171962 0.186912
O O3 0.205540 0.836337 0.126823
O O4 0.336418 0.891165 0.983588
O O5 0.400814 0.812932 0.511083
O O6 0.322156 0.197394 0.058625
O O7 0.500000 0.000000 0.000000
O O8 0.500000 0.500000 0.500000
O O9 0.500000 0.500000 0.000000
O O10 0.352111 0.471351 0.081664
O O11 0.000000 0.500000 0.500000
O O12 0.969886 0.196074 0.955792
O O13 0.030848 0.164997 0.465313
O O14 0.820791 0.491300 0.978114
O O15 0.115774 0.882453 0.530242
#
# Coordination Sequence:
#
# PCOD9048140 Si02
#       7
#     2   2   2   2   2   2   1
#     4  11  26  47  77 114 160 211 277 344 412 512
#     4  12  28  50  78 114 157 214 276 353 417 508
#     4  12  29  52  82 113 160 214 276 353 427 501
#     4  11  24  48  75 114 166 216 271 344 413 506
#     4  12  27  44  78 113 153 214 276 337 426 494
#     4  11  26  47  75 116 163 213 275 343 415 503
#     4  10  24  44  74 106 162 216 266 332 416 484
#
# _framework density 25.645707999999999
#
# number of rings (size 3 to 8) (size 9 to 14) (size 15 to 20)
#    0.000    0.615    3.077    3.692    6.462    9.231 
#    0.000    0.000    0.000    0.000    0.000    0.000 
#    0.000    0.000    0.000    0.000    0.000    0.000 
#
# Total GULP energy -72405.779456 kJ/mol
# GULP energy per Si atom -5569.675343 kJ/mol
# Density = 2.558734 g / cm^3
# Si number density = 25.645708 Si / 1000 Ang^3
#
#
#
# Elastic Constant Matrix: (Units=GPa)
#
#
# Indices 1 2 3 4 5 6 
#
# 1 161.3968 45.0674 49.0739 -9.6671 -18.3638 -8.1582
# 2 45.0674 146.6430 68.4189 43.7576 -15.5505 -27.6031
# 3 49.0739 68.4189 102.1107 30.5966 -13.1514 -2.5855
# 4 -9.6671 43.7576 30.5966 49.2717 -1.7605 -2.5575
# 5 -18.3638 -15.5505 -13.1514 -1.7605 61.0544 2.8082
# 6 -8.1582 -27.6031 -2.5855 -2.5575 2.8082 38.4105
#
#
#
# Elastic Compliance Matrix: (Units=1/GPa)
#
#
# Indices 1 2 3 4 5 6 
#
# 1 0.008781 -0.002495 -0.004399 0.006721 0.001246 0.000132
# 2 -0.002495 0.014891 -0.005459 -0.009812 0.001167 0.009065
# 3 -0.004399 -0.005459 0.017765 -0.007227 0.001099 -0.004223
# 4 0.006721 -0.009812 -0.007227 0.034591 -0.000864 -0.003744
# 5 0.001246 0.001167 0.001099 -0.000864 0.017269 -0.000143
# 6 0.000132 0.009065 -0.004223 -0.003744 -0.000143 0.032054
#
#
# Mechanical properties :
#
#
# Convention : Reuss Voigt Hill
#
# Bulk Modulus (GPa) = 59.76450 81.69677 70.73064
# Shear Modulus (GPa) = 32.12705 46.25335 39.19020
#
# Velocity S-wave (km/s) = 3.54323 4.25143 3.91338
# Velocity P-wave (km/s) = 6.33196 7.48496 6.93247
#
# Compressibility (1/GPa) = 0.01673234
#
# Stress axis : x y z
#
# Youngs Moduli (GPa) = 113.88144 67.15588 56.29122
#
# Poissons Ratio (x) = 0.16756 0.24760
# Poissons Ratio (y) = 0.28414 0.30727
# Poissons Ratio (z) = 0.50091 0.36657
#
# Static dielectric constant tensor:
#      x y z
#    x 1.702900 -0.276000 0.207870 
#    y -0.276000 2.326650 0.077300 
#    z 0.207870 0.077300 2.849380 
# 
# From -- ./inp_files/89547.got.cif
#   From: 2010.05.17/outbox.cif.g08.bks.cpg/sg2_45_cif.got.tgz:89547.got - 2010.06.03 11:33:40.
