data_PCOD9048762
_publ_section_title
;
Structure prediction by ZEFSAII (Michael W. Deem and Ramdas Pophale) SiO2 
 PCOD9048762
Probable space group: P -1
;
_chemical_formula_sum "Si O2"
_cell_formula_units_Z 13
_cell_length_a 11.433073
_cell_length_b 7.991981
_cell_length_c 6.590078
_cell_angle_alpha 98.263851
_cell_angle_beta 64.346502
_cell_angle_gamma 83.540852
_cell_volume 526.759514
_symmetry_space_group_name_H-M "P -1"
_symmetry_group_IT_number 2
_symmetry_cell_setting 'triclinic'
loop_
_space_group_symop_operation_xyz
x,y,z
-x,-y,-z
loop_
_atom_site_type_symbol
_atom_site_label
_atom_site_fract_x
_atom_site_fract_y
_atom_site_fract_z
Si Si1 0.380770 0.338191 0.493831
Si Si2 0.562769 0.318039 0.678725
Si Si3 0.001937 0.123299 0.832349
Si Si4 0.000000 0.500000 0.500000
Si Si5 0.615883 0.836715 0.932967
Si Si6 0.172984 0.331183 0.974306
Si Si7 0.145772 0.818200 0.412970
O O1 0.503649 0.233862 0.512656
O O2 0.428550 0.493314 0.372100
O O3 0.269175 0.403634 0.757146
O O4 0.326978 0.230553 0.340259
O O5 0.461803 0.301096 0.930897
O O6 0.706959 0.235717 0.628777
O O7 0.064533 0.277222 0.898527
O O8 0.866496 0.176509 0.820619
O O9 0.094153 0.007765 0.577435
O O10 0.000000 0.000000 0.000000
O O11 0.943816 0.317360 0.469395
O O12 0.892669 0.548453 0.774673
O O13 0.733846 0.831618 0.006110
O O14 0.500000 0.000000 0.000000
#
# Coordination Sequence:
#
# PCOD9048762 Si02
#       7
#     2   2   2   1   2   2   2
#     4  10  24  47  74 104 147 193 239 303 370 430
#     4  10  24  45  72 107 143 189 239 303 359 441
#     4  11  26  47  68 104 149 198 233 306 364 442
#     4  12  26  50  72 110 142 194 246 312 352 434
#     4  11  26  43  76 110 147 189 241 307 359 439
#     4  11  27  46  76 107 151 189 256 297 370 435
#     4  11  27  43  74 105 147 188 248 294 368 440
#
# _framework density 24.679193000000001
#
# number of rings (size 3 to 8) (size 9 to 14) (size 15 to 20)
#    0.000    1.231    1.538    1.385   10.769    5.538 
#    0.000    0.000    0.000    0.000    0.000    0.000 
#    0.000    0.000    0.000    0.000    0.000    0.000 
#
# Total GULP energy -72416.350027 kJ/mol
# GULP energy per Si atom -5570.488464 kJ/mol
# Density = 2.462302 g / cm^3
# Si number density = 24.679193 Si / 1000 Ang^3
#
#
#
# Elastic Constant Matrix: (Units=GPa)
#
#
# Indices 1 2 3 4 5 6 
#
# 1 99.9343 20.6599 34.5816 -15.4651 27.6489 -24.0161
# 2 20.6599 57.4909 41.3958 -10.9488 -1.0933 5.4378
# 3 34.5816 41.3958 140.1452 -7.6351 4.4284 -8.6492
# 4 -15.4651 -10.9488 -7.6351 42.5667 4.4417 1.7031
# 5 27.6489 -1.0933 4.4284 4.4417 40.9233 -16.9087
# 6 -24.0161 5.4378 -8.6492 1.7031 -16.9087 38.9274
#
#
#
# Elastic Compliance Matrix: (Units=1/GPa)
#
#
# Indices 1 2 3 4 5 6 
#
# 1 0.016267 -0.004319 -0.001796 0.005164 -0.008938 0.006131
# 2 -0.004319 0.025211 -0.006654 0.003940 0.000787 -0.007495
# 3 -0.001796 -0.006654 0.009615 -0.000855 0.001112 0.002478
# 4 0.005164 0.003940 -0.000855 0.027024 -0.006950 -0.001755
# 5 -0.008938 0.000787 0.001112 -0.006950 0.035384 0.010296
# 6 0.006131 -0.007495 0.002478 -0.001755 0.010296 0.035618
#
#
# Mechanical properties :
#
#
# Convention : Reuss Voigt Hill
#
# Bulk Modulus (GPa) = 39.13011 54.53832 46.83422
# Shear Modulus (GPa) = 27.29609 37.87901 32.58755
#
# Velocity S-wave (km/s) = 3.32932 3.92197 3.63774
# Velocity P-wave (km/s) = 5.53797 6.53116 6.05496
#
# Compressibility (1/GPa) = 0.02555577
#
# Stress axis : x y z
#
# Youngs Moduli (GPa) = 61.47591 39.66453 104.00058
#
# Poissons Ratio (x) = 0.17130 0.18679
# Poissons Ratio (y) = 0.26550 0.69202
# Poissons Ratio (z) = 0.11041 0.26393
#
# Static dielectric constant tensor:
#      x y z
#    x 2.044510 -0.043340 0.047450 
#    y -0.043340 1.990270 -0.038480 
#    z 0.047450 -0.038480 1.928930 
# 
# From -- ./inp_files/35121.got.cif
#   From: 2010.05.17/outbox.cif.g08.bks.cpg/sg2_18_cif.got.tgz:35121.got - 2010.06.03 11:33:40.
