data_PCOD9048676
_publ_section_title
;
Structure prediction by ZEFSAII (Michael W. Deem and Ramdas Pophale) SiO2 
 PCOD9048676
Probable space group: P -1
;
_chemical_formula_sum "Si O2"
_cell_formula_units_Z 14
_cell_length_a 8.495453
_cell_length_b 9.406024
_cell_length_c 7.606945
_cell_angle_alpha 92.231465
_cell_angle_beta 110.604383
_cell_angle_gamma 91.491050
_cell_volume 568.031480
_symmetry_space_group_name_H-M "P -1"
_symmetry_group_IT_number 2
_symmetry_cell_setting 'triclinic'
loop_
_space_group_symop_operation_xyz
x,y,z
-x,-y,-z
loop_
_atom_site_type_symbol
_atom_site_label
_atom_site_fract_x
_atom_site_fract_y
_atom_site_fract_z
Si Si1 0.624582 0.300376 0.895509
Si Si2 0.399366 0.707688 0.713300
Si Si3 0.361102 0.194528 0.495134
Si Si4 0.032815 0.837731 0.049704
Si Si5 0.150568 0.916428 0.471017
Si Si6 0.826888 0.575557 0.984117
Si Si7 0.179133 0.436489 0.600805
O O1 0.551211 0.301314 0.063568
O O2 0.498628 0.224062 0.705757
O O3 0.680518 0.461247 0.863124
O O4 0.798821 0.218506 0.974189
O O5 0.544916 0.762117 0.643856
O O6 0.247467 0.815328 0.634514
O O7 0.321629 0.555726 0.614043
O O8 0.212173 0.296986 0.496104
O O9 0.287019 0.034211 0.458974
O O10 0.074935 0.828443 0.273029
O O11 0.871401 0.734347 0.941303
O O12 0.000000 0.000000 0.000000
O O13 0.000000 0.000000 0.500000
O O14 0.805859 0.585541 0.186009
O O15 0.000000 0.500000 0.000000
O O16 0.000000 0.500000 0.500000
#
# Coordination Sequence:
#
# PCOD9048676 Si02
#       7
#     2   2   2   2   2   2   2
#     4  10  24  45  71 102 141 184 234 288 358 410
#     4  11  24  46  70 103 142 184 234 292 355 419
#     4  12  26  47  69 105 146 183 234 298 349 420
#     4  11  22  43  70 105 142 186 236 288 347 419
#     4  12  25  46  71 102 145 190 236 288 352 427
#     4   9  21  42  69 100 138 181 230 292 344 420
#     4  11  24  44  70 101 136 186 238 289 353 418
#
# _framework density 24.646522000000001
#
# number of rings (size 3 to 8) (size 9 to 14) (size 15 to 20)
#    0.000    1.143    1.429    4.286    2.000    5.143 
#   10.286    0.000    0.000    0.000    0.000    0.000 
#    0.000    0.000    0.000    0.000    0.000    0.000 
#
# Total GULP energy -78510.401080 kJ/mol
# GULP energy per Si atom -5607.885791 kJ/mol
# Density = 2.459043 g / cm^3
# Si number density = 24.646522 Si / 1000 Ang^3
#
#
#
# Elastic Constant Matrix: (Units=GPa)
#
#
# Indices 1 2 3 4 5 6 
#
# 1 102.6621 28.2975 42.7481 -9.3397 15.7901 -4.0089
# 2 28.2975 134.0482 4.5930 -9.3467 6.2491 14.9251
# 3 42.7481 4.5930 109.3819 8.7280 -5.6281 5.1798
# 4 -9.3397 -9.3467 8.7280 29.5412 -0.8666 -1.5592
# 5 15.7901 6.2491 -5.6281 -0.8666 43.7310 3.4606
# 6 -4.0089 14.9251 5.1798 -1.5592 3.4606 57.7137
#
#
#
# Elastic Compliance Matrix: (Units=1/GPa)
#
#
# Indices 1 2 3 4 5 6 
#
# 1 0.014687 -0.002509 -0.006527 0.005751 -0.005889 0.002763
# 2 -0.002509 0.008336 0.000619 0.001538 0.000010 -0.002345
# 3 -0.006527 0.000619 0.012410 -0.005531 0.003923 -0.002112
# 4 0.005751 0.001538 -0.005531 0.037808 -0.002391 0.001663
# 5 -0.005889 0.000010 0.003923 -0.002391 0.025637 -0.002366
# 6 0.002763 -0.002345 -0.002112 0.001663 -0.002366 0.018502
#
#
# Mechanical properties :
#
#
# Convention : Reuss Voigt Hill
#
# Bulk Modulus (GPa) = 53.76376 55.26328 54.51352
# Shear Modulus (GPa) = 35.60898 44.22742 39.91820
#
# Velocity S-wave (km/s) = 3.80516 4.24071 4.02883
# Velocity P-wave (km/s) = 6.41615 6.81537 6.61877
#
# Compressibility (1/GPa) = 0.01859989
#
# Stress axis : x y z
#
# Youngs Moduli (GPa) = 68.08645 119.95833 80.57696
#
# Poissons Ratio (x) = 0.30097 0.52596
# Poissons Ratio (y) = 0.17082 -0.04990
# Poissons Ratio (z) = 0.44443 -0.07429
#
# Static dielectric constant tensor:
#      x y z
#    x 1.967770 -0.036550 0.009390 
#    y -0.036550 1.938820 -0.041810 
#    z 0.009390 -0.041810 1.923030 
# 
# From -- ./inp_files/154652.got.cif
#   From: 2010.05.17/outbox.cif.g08.bks.cpg/sg2_78_cif.got.tgz:154652.got - 2010.06.03 11:33:40.
