data_PCOD9048945
_publ_section_title
;
Structure prediction by ZEFSAII (Michael W. Deem and Ramdas Pophale) SiO2 
 PCOD9048945
Probable space group: P -1
;
_chemical_formula_sum "Si O2"
_cell_formula_units_Z 16
_cell_length_a 11.614755
_cell_length_b 9.628222
_cell_length_c 23.051446
_cell_angle_alpha 24.238700
_cell_angle_beta 150.161264
_cell_angle_gamma 142.490589
_cell_volume 526.535056
_symmetry_space_group_name_H-M "P -1"
_symmetry_group_IT_number 2
_symmetry_cell_setting 'triclinic'
loop_
_space_group_symop_operation_xyz
x,y,z
-x,-y,-z
loop_
_atom_site_type_symbol
_atom_site_label
_atom_site_fract_x
_atom_site_fract_y
_atom_site_fract_z
Si Si1 0.477449 0.944565 0.870521
Si Si2 0.858393 0.002453 0.878289
Si Si3 0.090859 0.617817 0.346395
Si Si4 0.825091 0.300513 0.075791
Si Si5 0.829995 0.310832 0.454291
Si Si6 0.323534 0.476008 0.201191
Si Si7 0.367490 0.271641 0.470738
Si Si8 0.268676 0.768292 0.724835
O O1 0.312159 0.977383 0.841727
O O2 0.627159 0.606533 0.073235
O O3 0.334756 0.945089 0.747792
O O4 0.640928 0.270484 0.825777
O O5 0.711539 0.350601 0.690186
O O6 0.961344 0.054543 0.838853
O O7 0.784474 0.615031 0.982881
O O8 0.000000 0.000000 0.000000
O O9 0.905738 0.538040 0.345252
O O10 0.996947 0.322781 0.373567
O O11 0.365939 0.669645 0.458484
O O12 0.716737 0.363678 0.941377
O O13 0.096130 0.252716 0.200037
O O14 0.569162 0.304693 0.365976
O O15 0.000000 0.500000 0.500000
O O16 0.828724 0.916911 0.582300
O O17 0.381389 0.982056 0.639033
#
# Coordination Sequence:
#
# PCOD9048945 Si02
#       8
#     2   2   2   2   2   2   2   2
#     4  11  23  43  77 121 164 208 267 330 400 483
#     4  12  27  49  81 118 154 203 268 333 402 477
#     4  11  24  47  79 114 160 207 258 328 402 475
#     4  11  25  47  77 113 157 208 267 333 396 474
#     4  11  28  51  79 117 160 213 271 327 397 483
#     4  11  26  47  76 115 159 212 269 326 397 476
#     4  11  27  52  81 117 163 210 264 333 409 479
#     4  10  24  45  76 120 163 209 265 329 402 483
#
# _framework density 30.387339999999998
#
# number of rings (size 3 to 8) (size 9 to 14) (size 15 to 20)
#    0.000    1.000    0.000    5.250    0.000   14.500 
#    0.000    2.500    0.000   12.750    0.000    0.000 
#    0.000    0.000    0.000    0.000    0.000    0.000 
#
# Total GULP energy -89509.690824 kJ/mol
# GULP energy per Si atom -5594.355676 kJ/mol
# Density = 3.031818 g / cm^3
# Si number density = 30.387340 Si / 1000 Ang^3
#
#
#
# Elastic Constant Matrix: (Units=GPa)
#
#
# Indices 1 2 3 4 5 6 
#
# 1 147.1899 41.5699 33.6354 10.0671 -1.4102 20.5297
# 2 41.5699 227.2707 31.3306 21.1339 1.1426 15.5884
# 3 33.6354 31.3306 117.9240 17.8322 -16.1795 1.6702
# 4 10.0671 21.1339 17.8322 56.9672 -6.2483 -10.6429
# 5 -1.4102 1.1426 -16.1795 -6.2483 57.6908 -1.2421
# 6 20.5297 15.5884 1.6702 -10.6429 -1.2421 68.4092
#
#
#
# Elastic Compliance Matrix: (Units=1/GPa)
#
#
# Indices 1 2 3 4 5 6 
#
# 1 0.007862 -0.000935 -0.001886 -0.000924 -0.000467 -0.002252
# 2 -0.000935 0.004920 -0.000851 -0.001658 -0.000562 -0.001088
# 3 -0.001886 -0.000851 0.009910 -0.002133 0.002524 0.000232
# 4 -0.000924 -0.001658 -0.002133 0.019897 0.001650 0.003833
# 5 -0.000467 -0.000562 0.002524 0.001650 0.018237 0.000794
# 6 -0.002252 -0.001088 0.000232 0.003833 0.000794 0.016147
#
#
# Mechanical properties :
#
#
# Convention : Reuss Voigt Hill
#
# Bulk Modulus (GPa) = 65.16419 78.38405 71.77412
# Shear Modulus (GPa) = 55.90691 62.33669 59.12180
#
# Velocity S-wave (km/s) = 4.29395 4.53416 4.41569
# Velocity P-wave (km/s) = 6.78787 7.29811 7.04761
#
# Compressibility (1/GPa) = 0.01534585
#
# Stress axis : x y z
#
# Youngs Moduli (GPa) = 127.19332 203.24667 100.91013
#
# Poissons Ratio (x) = 0.19008 0.19036
# Poissons Ratio (y) = 0.11895 0.08591
# Poissons Ratio (z) = 0.23994 0.17304
#
# Static dielectric constant tensor:
#      x y z
#    x 2.675710 -0.012840 -0.001830 
#    y -0.012840 2.430600 0.014640 
#    z -0.001830 0.014640 2.492190 
# 
# From -- ./inp_files/565756.got.cif
#   From: 2010.05.17/outbox.cif.g08.bks.cpg/sg2_283_cif.got.tgz:565756.got - 2010.06.03 11:33:40.
