data_PCOD9048451
_publ_section_title
;
Structure prediction by ZEFSAII (Michael W. Deem and Ramdas Pophale) SiO2 
 PCOD9048451
Probable space group: P -1
;
_chemical_formula_sum "Si O2"
_cell_formula_units_Z 16
_cell_length_a 9.550868
_cell_length_b 6.739893
_cell_length_c 11.393855
_cell_angle_alpha 56.376981
_cell_angle_beta 100.208779
_cell_angle_gamma 104.878340
_cell_volume 589.701029
_symmetry_space_group_name_H-M "P -1"
_symmetry_group_IT_number 2
_symmetry_cell_setting 'triclinic'
loop_
_space_group_symop_operation_xyz
x,y,z
-x,-y,-z
loop_
_atom_site_type_symbol
_atom_site_label
_atom_site_fract_x
_atom_site_fract_y
_atom_site_fract_z
Si Si1 0.970969 0.945067 0.839926
Si Si2 0.455195 0.031311 0.822013
Si Si3 0.392807 0.257669 0.509008
Si Si4 0.306873 0.293362 0.017041
Si Si5 0.900257 0.507585 0.369756
Si Si6 0.421139 0.541561 0.714437
Si Si7 0.221088 0.693975 0.036641
Si Si8 0.112804 0.310045 0.325104
O O1 0.848449 0.889552 0.940885
O O2 0.902145 0.882057 0.720568
O O3 0.077718 0.757624 0.936056
O O4 0.057695 0.217980 0.761666
O O5 0.393285 0.052955 0.674693
O O6 0.497646 0.310178 0.776531
O O7 0.576345 0.870606 0.884984
O O8 0.340293 0.924948 0.940486
O O9 0.500000 0.500000 0.500000
O O10 0.461922 0.241873 0.394587
O O11 0.227244 0.271299 0.453313
O O12 0.358653 0.471212 0.857656
O O13 0.284131 0.479852 0.053408
O O14 0.728417 0.453938 0.379274
O O15 0.000000 0.500000 0.500000
O O16 0.955667 0.323670 0.348567
O O17 0.175199 0.577950 0.193239
#
# Coordination Sequence:
#
# PCOD9048451 Si02
#       8
#     2   2   2   2   2   2   2   2
#     4  11  26  46  72 106 141 179 235 289 344 413
#     4  11  23  41  69  98 139 181 229 288 342 410
#     4  10  24  45  68  98 144 180 229 291 343 409
#     4  11  24  41  69 100 136 182 232 287 343 416
#     4  12  26  44  74 105 142 183 232 284 350 421
#     4  11  23  43  67 103 137 182 230 287 349 408
#     4  11  23  47  67 101 142 175 232 291 342 411
#     4  11  25  47  75 102 142 185 227 291 349 406
#
# _framework density 27.132393
#
# number of rings (size 3 to 8) (size 9 to 14) (size 15 to 20)
#    0.000    1.000    1.250    6.000    7.000    2.500 
#    2.250    3.125    0.000    0.000    0.000    0.000 
#    0.000    0.000    0.000    0.000    0.000    0.000 
#
# Total GULP energy -89615.383092 kJ/mol
# GULP energy per Si atom -5600.961443 kJ/mol
# Density = 2.707064 g / cm^3
# Si number density = 27.132393 Si / 1000 Ang^3
#
#
#
# Elastic Constant Matrix: (Units=GPa)
#
#
# Indices 1 2 3 4 5 6 
#
# 1 172.0491 13.6854 42.3673 -4.4870 22.6075 -12.0336
# 2 13.6854 40.7153 10.5384 -6.0602 7.5740 -6.9219
# 3 42.3673 10.5384 155.2709 -0.7715 20.3557 -17.5924
# 4 -4.4870 -6.0602 -0.7715 43.1780 1.5391 -7.7658
# 5 22.6075 7.5740 20.3557 1.5391 57.7471 0.1396
# 6 -12.0336 -6.9219 -17.5924 -7.7658 0.1396 34.0959
#
#
#
# Elastic Compliance Matrix: (Units=1/GPa)
#
#
# Indices 1 2 3 4 5 6 
#
# 1 0.006619 -0.001104 -0.001273 0.000882 -0.002025 0.001664
# 2 -0.001104 0.027399 -0.000430 0.004930 -0.003156 0.006086
# 3 -0.001273 -0.000430 0.007492 0.000643 -0.002112 0.003484
# 4 0.000882 0.004930 0.000643 0.025359 -0.001912 0.007428
# 5 -0.002025 -0.003156 -0.002112 -0.001912 0.019326 -0.002960
# 6 0.001664 0.006086 0.003484 0.007428 -0.002960 0.034654
#
#
# Mechanical properties :
#
#
# Convention : Reuss Voigt Hill
#
# Bulk Modulus (GPa) = 27.85942 55.69084 41.77513
# Shear Modulus (GPa) = 36.11973 47.10048 41.61010
#
# Velocity S-wave (km/s) = 3.65257 4.17099 3.92036
# Velocity P-wave (km/s) = 5.29893 6.61562 5.99354
#
# Compressibility (1/GPa) = 0.03589450
#
# Stress axis : x y z
#
# Youngs Moduli (GPa) = 151.07855 36.49762 133.48295
#
# Poissons Ratio (x) = 0.04031 0.16988
# Poissons Ratio (y) = 0.16686 0.05746
# Poissons Ratio (z) = 0.19227 0.01571
#
# Static dielectric constant tensor:
#      x y z
#    x 2.056740 0.053570 -0.009050 
#    y 0.053570 2.314570 0.087250 
#    z -0.009050 0.087250 2.137010 
# 
# From -- ./inp_files/381075.got.cif
#   From: 2010.05.17/outbox.cif.g08.bks.cpg/sg2_191_cif.got.tgz:381075.got - 2010.06.03 11:33:40.
