data_PCOD9048517
_publ_section_title
;
Structure prediction by ZEFSAII (Michael W. Deem and Ramdas Pophale) SiO2 
 PCOD9048517
Probable space group: P -1
;
_chemical_formula_sum "Si O2"
_cell_formula_units_Z 16
_cell_length_a 13.611883
_cell_length_b 11.489846
_cell_length_c 9.943801
_cell_angle_alpha 66.492314
_cell_angle_beta 79.458425
_cell_angle_gamma 31.858001
_cell_volume 712.648051
_symmetry_space_group_name_H-M "P -1"
_symmetry_group_IT_number 2
_symmetry_cell_setting 'triclinic'
loop_
_space_group_symop_operation_xyz
x,y,z
-x,-y,-z
loop_
_atom_site_type_symbol
_atom_site_label
_atom_site_fract_x
_atom_site_fract_y
_atom_site_fract_z
Si Si1 0.134913 0.616452 0.694171
Si Si2 0.173628 0.423600 0.373158
Si Si3 0.537890 0.942381 0.173007
Si Si4 0.430594 0.478702 0.213030
Si Si5 0.110782 0.341615 0.181278
Si Si6 0.912618 0.217096 0.647354
Si Si7 0.725592 0.361815 0.115913
Si Si8 0.394989 0.960478 0.660823
O O1 0.288925 0.347093 0.718861
O O2 0.098948 0.758909 0.522127
O O3 0.221545 0.579817 0.826687
O O4 0.949344 0.732611 0.723809
O O5 0.061337 0.500352 0.233285
O O6 0.073947 0.652405 0.362536
O O7 0.394988 0.228584 0.370124
O O8 0.221771 0.240612 0.523843
O O9 0.342762 0.098778 0.215373
O O10 0.583321 0.025594 0.195283
O O11 0.500000 0.000000 0.000000
O O12 0.285531 0.623148 0.308469
O O13 0.529413 0.506731 0.153211
O O14 0.608988 0.181932 0.309027
O O15 0.311915 0.571664 0.063113
O O16 0.000000 0.500000 0.000000
O O17 0.091330 0.934400 0.779976
#
# Coordination Sequence:
#
# PCOD9048517 Si02
#       8
#     2   2   2   2   2   2   2   2
#     4  12  26  42  64 100 133 173 220 270 329 388
#     4   9  20  38  66  98 128 166 212 267 327 393
#     4  11  21  40  64  94 134 169 207 261 331 396
#     4  10  24  45  69  93 126 179 221 270 330 385
#     4  11  25  41  64 102 138 171 210 270 339 392
#     4  11  24  44  70  96 131 171 225 272 322 390
#     4  11  26  46  65  94 133 175 229 270 320 386
#     4   9  18  38  67  94 128 162 211 272 324 384
#
# _framework density 22.451474999999999
#
# number of rings (size 3 to 8) (size 9 to 14) (size 15 to 20)
#    0.000    1.500    2.500    1.500    7.000    3.000 
#    4.500    0.000    0.000    0.000    0.000    0.000 
#    0.000    0.000    0.000    0.000    0.000    0.000 
#
# Total GULP energy -89481.516885 kJ/mol
# GULP energy per Si atom -5592.594805 kJ/mol
# Density = 2.240037 g / cm^3
# Si number density = 22.451475 Si / 1000 Ang^3
#
#
#
# Elastic Constant Matrix: (Units=GPa)
#
#
# Indices 1 2 3 4 5 6 
#
# 1 75.6596 9.7174 -11.6882 21.7716 -1.4155 -8.7275
# 2 9.7174 83.7393 5.0678 -4.2894 -7.2687 -7.0111
# 3 -11.6882 5.0678 72.1954 4.1161 -2.4331 -6.2323
# 4 21.7716 -4.2894 4.1161 33.9656 1.8756 -7.6127
# 5 -1.4155 -7.2687 -2.4331 1.8756 34.6651 9.0488
# 6 -8.7275 -7.0111 -6.2323 -7.6127 9.0488 29.6417
#
#
#
# Elastic Compliance Matrix: (Units=1/GPa)
#
#
# Indices 1 2 3 4 5 6 
#
# 1 0.017829 -0.002678 0.003958 -0.011762 0.000486 0.002279
# 2 -0.002678 0.012886 -0.001293 0.003973 0.001632 0.002510
# 3 0.003958 -0.001293 0.015069 -0.003898 0.000401 0.002905
# 4 -0.011762 0.003973 -0.003898 0.040034 -0.004236 0.008232
# 5 0.000486 0.001632 0.000401 -0.004236 0.032153 -0.010290
# 6 0.002279 0.002510 0.002905 0.008232 -0.010290 0.040867
#
#
# Mechanical properties :
#
#
# Convention : Reuss Voigt Hill
#
# Bulk Modulus (GPa) = 21.85359 26.42092 24.13726
# Shear Modulus (GPa) = 28.71631 34.88763 31.80197
#
# Velocity S-wave (km/s) = 3.58025 3.94625 3.76769
# Velocity P-wave (km/s) = 5.18128 5.70591 5.44991
#
# Compressibility (1/GPa) = 0.04575907
#
# Stress axis : x y z
#
# Youngs Moduli (GPa) = 56.08788 77.60280 66.35985
#
# Poissons Ratio (x) = 0.20782 -0.26267
# Poissons Ratio (y) = 0.15020 0.08580
# Poissons Ratio (z) = -0.22201 0.10034
#
# Static dielectric constant tensor:
#      x y z
#    x 1.846670 -0.007140 -0.009860 
#    y -0.007140 1.823960 0.016080 
#    z -0.009860 0.016080 1.858340 
# 
# From -- ./inp_files/307016.got.cif
#   From: 2010.05.17/outbox.cif.g08.bks.cpg/sg2_154_cif.got.tgz:307016.got - 2010.06.03 11:33:40.
