data_PCOD9048480
_publ_section_title
;
Structure prediction by ZEFSAII (Michael W. Deem and Ramdas Pophale) SiO2 
 PCOD9048480
Probable space group: P -1
;
_chemical_formula_sum "Si O2"
_cell_formula_units_Z 14
_cell_length_a 9.475157
_cell_length_b 11.676260
_cell_length_c 11.943653
_cell_angle_alpha 151.759861
_cell_angle_beta 95.175909
_cell_angle_gamma 85.574744
_cell_volume 622.677282
_symmetry_space_group_name_H-M "P -1"
_symmetry_group_IT_number 2
_symmetry_cell_setting 'triclinic'
loop_
_space_group_symop_operation_xyz
x,y,z
-x,-y,-z
loop_
_atom_site_type_symbol
_atom_site_label
_atom_site_fract_x
_atom_site_fract_y
_atom_site_fract_z
Si Si1 0.921535 0.256823 0.238202
Si Si2 0.156201 0.195618 0.802997
Si Si3 0.346832 0.563138 0.000568
Si Si4 0.310780 0.011120 0.876732
Si Si5 0.592717 0.733799 0.678898
Si Si6 0.143684 0.947410 0.353824
Si Si7 0.218352 0.405768 0.635116
O O1 0.793424 0.197658 0.263433
O O2 0.860219 0.351006 0.197180
O O3 0.000000 0.500000 0.500000
O O4 0.000000 0.000000 0.000000
O O5 0.235087 0.425756 0.954763
O O6 0.988542 0.223090 0.834635
O O7 0.239888 0.114686 0.849402
O O8 0.155683 0.000092 0.532606
O O9 0.330106 0.464900 0.790134
O O10 0.500000 0.500000 0.000000
O O11 0.293715 0.837439 0.233928
O O12 0.472958 0.926635 0.799641
O O13 0.324799 0.190599 0.137912
O O14 0.500000 0.500000 0.500000
O O15 0.702961 0.690861 0.551578
O O16 0.119633 0.198581 0.502749
#
# Coordination Sequence:
#
# PCOD9048480 Si02
#       7
#     2   2   2   2   2   2   2
#     4  12  27  47  74 113 148 196 250 304 382 457
#     4  10  24  45  69 103 135 191 238 304 372 440
#     4  11  27  42  72 105 137 191 241 305 369 442
#     4  11  26  42  73 103 146 193 243 310 372 451
#     4  11  25  45  67 104 145 196 244 304 379 440
#     4  10  24  48  72  98 143 185 246 305 374 436
#     4  11  26  45  73  99 143 190 242 311 362 448
#
# _framework density 22.483556
#
# number of rings (size 3 to 8) (size 9 to 14) (size 15 to 20)
#    0.000    1.143    1.429    2.143   12.000    1.143 
#    0.000    0.000    0.000    0.000    0.000    0.000 
#    0.000    0.000    0.000    0.000    0.000    0.000 
#
# Total GULP energy -78270.593931 kJ/mol
# GULP energy per Si atom -5590.756709 kJ/mol
# Density = 2.243238 g / cm^3
# Si number density = 22.483556 Si / 1000 Ang^3
#
#
#
# Elastic Constant Matrix: (Units=GPa)
#
#
# Indices 1 2 3 4 5 6 
#
# 1 93.4060 54.5584 42.1770 -3.7569 -2.8183 -18.1180
# 2 54.5584 178.9553 58.3551 -14.5357 4.6539 -24.4106
# 3 42.1770 58.3551 87.7321 -4.2422 3.5891 -7.2735
# 4 -3.7569 -14.5357 -4.2422 31.5809 -3.4698 -2.8338
# 5 -2.8183 4.6539 3.5891 -3.4698 39.6764 -0.9237
# 6 -18.1180 -24.4106 -7.2735 -2.8338 -0.9237 34.9627
#
#
#
# Elastic Compliance Matrix: (Units=1/GPa)
#
#
# Indices 1 2 3 4 5 6 
#
# 1 0.015721 -0.002158 -0.005705 0.000841 0.002089 0.005577
# 2 -0.002158 0.008420 -0.004035 0.003411 -0.000380 0.004187
# 3 -0.005705 -0.004035 0.016656 -0.000685 -0.001555 -0.002405
# 4 0.000841 0.003411 -0.000685 0.034047 0.002827 0.005509
# 5 0.002089 -0.000380 -0.001555 0.002827 0.025817 0.001405
# 6 0.005577 0.004187 -0.002405 0.005509 0.001405 0.034398
#
#
# Mechanical properties :
#
#
# Convention : Reuss Voigt Hill
#
# Bulk Modulus (GPa) = 58.82225 74.47492 66.64859
# Shear Modulus (GPa) = 30.39073 34.91087 32.65080
#
# Velocity S-wave (km/s) = 3.68052 3.94474 3.81492
# Velocity P-wave (km/s) = 6.65438 7.34466 7.00803
#
# Compressibility (1/GPa) = 0.01700037
#
# Stress axis : x y z
#
# Youngs Moduli (GPa) = 63.60921 118.76653 60.03767
#
# Poissons Ratio (x) = 0.25629 0.34251
# Poissons Ratio (y) = 0.13726 0.24228
# Poissons Ratio (z) = 0.36289 0.47928
#
# Static dielectric constant tensor:
#      x y z
#    x 2.292360 -0.166030 0.106650 
#    y -0.166030 1.880280 -0.026480 
#    z 0.106650 -0.026480 1.928450 
# 
# From -- ./inp_files/60786.got.cif
#   From: 2010.05.17/outbox.cif.g08.bks.cpg/sg2_31_cif.got.tgz:60786.got - 2010.06.03 11:33:40.
