data_PCOD9048735
_publ_section_title
;
Structure prediction by ZEFSAII (Michael W. Deem and Ramdas Pophale) SiO2 
 PCOD9048735
Probable space group: P -1
;
_chemical_formula_sum "Si O2"
_cell_formula_units_Z 16
_cell_length_a 12.961851
_cell_length_b 8.999627
_cell_length_c 14.965529
_cell_angle_alpha 30.453763
_cell_angle_beta 113.736587
_cell_angle_gamma 100.845378
_cell_volume 761.028342
_symmetry_space_group_name_H-M "P -1"
_symmetry_group_IT_number 2
_symmetry_cell_setting 'triclinic'
loop_
_space_group_symop_operation_xyz
x,y,z
-x,-y,-z
loop_
_atom_site_type_symbol
_atom_site_label
_atom_site_fract_x
_atom_site_fract_y
_atom_site_fract_z
Si Si1 0.013501 0.915114 0.945689
Si Si2 0.841900 0.786150 0.278193
Si Si3 0.802617 0.153037 0.621035
Si Si4 0.581343 0.591793 0.909095
Si Si5 0.421786 0.772257 0.083537
Si Si6 0.108593 0.202483 0.340775
Si Si7 0.463114 0.677372 0.488770
Si Si8 0.153989 0.861912 0.721403
O O1 0.065833 0.143091 0.792415
O O2 0.100073 0.559338 0.154200
O O3 0.889375 0.954718 0.831389
O O4 0.000000 0.000000 0.000000
O O5 0.847017 0.434691 0.462435
O O6 0.853832 0.898610 0.324531
O O7 0.713307 0.998965 0.087354
O O8 0.669500 0.297817 0.537772
O O9 0.815950 0.953419 0.639232
O O10 0.557130 0.441733 0.886274
O O11 0.542630 0.965377 0.699940
O O12 0.500000 0.500000 0.000000
O O13 0.723091 0.428521 0.067873
O O14 0.446895 0.538196 0.296199
O O15 0.500000 0.000000 0.000000
O O16 0.970567 0.208673 0.281218
O O17 0.158146 0.017879 0.545511
O O18 0.500000 0.500000 0.500000
#
# Coordination Sequence:
#
# PCOD9048735 Si02
#       8
#     2   2   2   2   2   2   2   2
#     4  12  27  43  69 105 141 180 231 284 353 407
#     4  11  25  45  70  98 141 182 229 285 344 421
#     4  12  26  45  73  98 141 182 233 285 350 415
#     4  11  26  45  73 101 139 184 235 287 352 422
#     4  11  24  48  70  99 137 183 236 291 351 407
#     4  11  25  44  72 102 139 179 231 286 345 419
#     4  12  28  46  70 104 142 184 237 291 352 418
#     4  10  24  45  72 100 140 180 230 283 352 410
#
# _framework density 21.024184000000002
#
# number of rings (size 3 to 8) (size 9 to 14) (size 15 to 20)
#    0.000    0.750    2.500    3.375   12.250    2.000 
#    0.000    0.000    0.000    0.000    0.000    0.000 
#    0.000    0.000    0.000    0.000    0.000    0.000 
#
# Total GULP energy -89549.022338 kJ/mol
# GULP energy per Si atom -5596.813896 kJ/mol
# Density = 2.097633 g / cm^3
# Si number density = 21.024184 Si / 1000 Ang^3
#
#
#
# Elastic Constant Matrix: (Units=GPa)
#
#
# Indices 1 2 3 4 5 6 
#
# 1 87.7458 52.6064 24.6352 4.2253 1.5261 -16.0982
# 2 52.6064 139.5090 89.4106 10.5919 9.6763 -26.3479
# 3 24.6352 89.4106 147.8050 -5.9189 0.6706 -9.6051
# 4 4.2253 10.5919 -5.9189 50.9009 3.8673 -4.7579
# 5 1.5261 9.6763 0.6706 3.8673 22.5088 -5.5962
# 6 -16.0982 -26.3479 -9.6051 -4.7579 -5.5962 39.2199
#
#
#
# Elastic Compliance Matrix: (Units=1/GPa)
#
#
# Indices 1 2 3 4 5 6 
#
# 1 0.015241 -0.006377 0.001495 0.000315 0.002281 0.002701
# 2 -0.006377 0.016869 -0.008889 -0.003148 -0.004648 0.005493
# 3 0.001495 -0.008889 0.011878 0.002755 0.002454 -0.001765
# 4 0.000315 -0.003148 0.002755 0.020841 -0.002103 0.000918
# 5 0.002281 -0.004648 0.002454 -0.002103 0.047797 0.004980
# 6 0.002701 0.005493 -0.001765 0.000918 0.004980 0.030686
#
#
# Mechanical properties :
#
#
# Convention : Reuss Voigt Hill
#
# Bulk Modulus (GPa) = 60.80795 78.70713 69.75754
# Shear Modulus (GPa) = 28.35500 36.41975 32.38738
#
# Velocity S-wave (km/s) = 3.67643 4.16658 3.92916
# Velocity P-wave (km/s) = 6.85618 7.78877 7.33731
#
# Compressibility (1/GPa) = 0.01644522
#
# Stress axis : x y z
#
# Youngs Moduli (GPa) = 65.61265 59.28156 84.18705
#
# Poissons Ratio (x) = 0.37807 -0.12590
# Poissons Ratio (y) = 0.41844 0.74836
# Poissons Ratio (z) = -0.09812 0.52697
#
# Static dielectric constant tensor:
#      x y z
#    x 1.413750 0.150850 -0.222630 
#    y 0.150850 1.758230 0.084910 
#    z -0.222630 0.084910 1.571700 
# 
# From -- ./inp_files/514842.got.cif
#   From: 2010.05.17/outbox.cif.g08.bks.cpg/sg2_258_cif.got.tgz:514842.got - 2010.06.03 11:33:40.
