data_PCOD9048050
_publ_section_title
;
Structure prediction by ZEFSAII (Michael W. Deem and Ramdas Pophale) SiO2 
 PCOD9048050
Probable space group: P -1
;
_chemical_formula_sum "Si O2"
_cell_formula_units_Z 16
_cell_length_a 9.823085
_cell_length_b 11.389426
_cell_length_c 9.283612
_cell_angle_alpha 81.335654
_cell_angle_beta 132.452217
_cell_angle_gamma 99.243116
_cell_volume 755.130330
_symmetry_space_group_name_H-M "P -1"
_symmetry_group_IT_number 2
_symmetry_cell_setting 'triclinic'
loop_
_space_group_symop_operation_xyz
x,y,z
-x,-y,-z
loop_
_atom_site_type_symbol
_atom_site_label
_atom_site_fract_x
_atom_site_fract_y
_atom_site_fract_z
Si Si1 0.511460 0.079529 0.348930
Si Si2 0.130709 0.890413 0.604351
Si Si3 0.359697 0.943132 0.028301
Si Si4 0.482085 0.343037 0.390811
Si Si5 0.056434 0.375619 0.489556
Si Si6 0.680586 0.293700 0.830731
Si Si7 0.541381 0.551807 0.175433
Si Si8 0.942332 0.617593 0.855935
O O1 0.701943 0.073460 0.394778
O O2 0.501443 0.214811 0.361590
O O3 0.500000 0.000000 0.500000
O O4 0.346141 0.040425 0.125183
O O5 0.049866 0.755125 0.531682
O O6 0.200048 0.887613 0.820224
O O7 0.000000 0.000000 0.500000
O O8 0.424632 0.833421 0.187289
O O9 0.500000 0.000000 0.000000
O O10 0.598800 0.349005 0.619982
O O11 0.559446 0.444531 0.318929
O O12 0.266828 0.358187 0.262455
O O13 0.268272 0.366719 0.692314
O O14 0.000000 0.500000 0.500000
O O15 0.046544 0.392121 0.306916
O O16 0.629564 0.377654 0.909132
O O17 0.899980 0.286125 0.986929
O O18 0.500000 0.500000 0.000000
O O19 0.000000 0.500000 0.000000
#
# Coordination Sequence:
#
# PCOD9048050 Si02
#       8
#     2   2   2   2   2   2   2   2
#     4  11  25  47  75 105 146 194 249 305 370 448
#     4  11  27  48  74 110 149 194 252 308 376 447
#     4  10  24  44  72  97 139 192 240 293 367 439
#     4  12  26  48  72 108 150 193 245 310 381 444
#     4  12  26  46  72 107 148 188 251 311 366 444
#     4  12  23  46  72 102 145 190 241 301 370 448
#     4  12  27  43  72 103 142 192 242 304 375 438
#     4  12  25  45  72 106 146 195 244 303 381 449
#
# _framework density 21.188395
#
# number of rings (size 3 to 8) (size 9 to 14) (size 15 to 20)
#    0.000    0.500    5.000    2.625    8.750    0.000 
#    2.250    1.250    0.000    0.000    0.000    0.000 
#    0.000    0.000    0.000    0.000    0.000    0.000 
#
# Total GULP energy -89326.652293 kJ/mol
# GULP energy per Si atom -5582.915768 kJ/mol
# Density = 2.114017 g / cm^3
# Si number density = 21.188395 Si / 1000 Ang^3
#
#
#
# Elastic Constant Matrix: (Units=GPa)
#
#
# Indices 1 2 3 4 5 6 
#
# 1 101.8109 40.4241 51.7022 6.0119 -4.7347 0.2895
# 2 40.4241 110.7300 14.0530 15.4222 -0.3971 6.8368
# 3 51.7022 14.0530 117.6263 22.4305 -0.8835 7.9242
# 4 6.0119 15.4222 22.4305 36.9364 0.5703 -6.4173
# 5 -4.7347 -0.3971 -0.8835 0.5703 34.3821 -0.4889
# 6 0.2895 6.8368 7.9242 -6.4173 -0.4889 47.0888
#
#
#
# Elastic Compliance Matrix: (Units=1/GPa)
#
#
# Indices 1 2 3 4 5 6 
#
# 1 0.015461 -0.005520 -0.007162 0.004553 0.001842 0.002551
# 2 -0.005520 0.011750 0.002342 -0.005922 -0.000507 -0.002878
# 3 -0.007162 0.002342 0.013231 -0.008479 -0.000531 -0.003683
# 4 0.004553 -0.005922 -0.008479 0.035181 -0.000143 0.007052
# 5 0.001842 -0.000507 -0.000531 -0.000143 0.029328 0.000437
# 6 0.002551 -0.002878 -0.003683 0.007052 0.000437 0.023224
#
#
# Mechanical properties :
#
#
# Convention : Reuss Voigt Hill
#
# Bulk Modulus (GPa) = 50.60724 60.28062 55.44393
# Shear Modulus (GPa) = 32.16622 38.61398 35.39010
#
# Velocity S-wave (km/s) = 3.90051 4.27360 4.09131
# Velocity P-wave (km/s) = 6.64993 7.27071 6.96724
#
# Compressibility (1/GPa) = 0.01976002
#
# Stress axis : x y z
#
# Youngs Moduli (GPa) = 64.67971 85.10838 75.58075
#
# Poissons Ratio (x) = 0.46982 0.54134
# Poissons Ratio (y) = 0.35705 -0.17701
# Poissons Ratio (z) = 0.46326 -0.19933
#
# Static dielectric constant tensor:
#      x y z
#    x 1.770950 0.046080 0.029520 
#    y 0.046080 1.837260 0.020720 
#    z 0.029520 0.020720 1.796750 
# 
# From -- ./inp_files/187084.got.cif
#   From: 2010.05.17/outbox.cif.g08.bks.cpg/sg2_94_cif.got.tgz:187084.got - 2010.06.03 11:33:40.
