data_PCOD9048168
_publ_section_title
;
Structure prediction by ZEFSAII (Michael W. Deem and Ramdas Pophale) SiO2 
 PCOD9048168
Probable space group: P -1
;
_chemical_formula_sum "Si O2"
_cell_formula_units_Z 10
_cell_length_a 4.778743
_cell_length_b 18.740866
_cell_length_c 9.308470
_cell_angle_alpha 33.209023
_cell_angle_beta 77.292853
_cell_angle_gamma 65.406740
_cell_volume 401.165163
_symmetry_space_group_name_H-M "P -1"
_symmetry_group_IT_number 2
_symmetry_cell_setting 'triclinic'
loop_
_space_group_symop_operation_xyz
x,y,z
-x,-y,-z
loop_
_atom_site_type_symbol
_atom_site_label
_atom_site_fract_x
_atom_site_fract_y
_atom_site_fract_z
Si Si1 0.313512 0.478914 0.422919
Si Si2 0.222737 0.342039 0.417002
Si Si3 0.732671 0.067531 0.539516
Si Si4 0.837852 0.932575 0.245765
Si Si5 0.424758 0.379815 0.029161
O O1 0.500000 0.500000 0.500000
O O2 0.406135 0.336446 0.553359
O O3 0.000000 0.500000 0.500000
O O4 0.284276 0.599780 0.106250
O O5 0.182267 0.201516 0.610316
O O6 0.394577 0.381501 0.200439
O O7 0.876274 0.478650 0.231850
O O8 0.469104 0.221003 0.249720
O O9 0.921891 0.101106 0.590934
O O10 0.000000 0.000000 0.500000
O O11 0.518766 0.994466 0.760842
O O12 0.000000 0.000000 0.000000
#
# Coordination Sequence:
#
# PCOD9048168 Si02
#       5
#     2   2   2   2   2
#     4  12  25  42  65 110 151 180 224 302 372 416
#     4  10  24  45  76 106 143 188 246 293 359 437
#     4  11  26  48  73 105 144 197 245 298 366 432
#     4  11  26  48  75 106 144 196 246 300 360 434
#     4  10  24  44  75 103 142 186 243 292 363 434
#
# _framework density 24.927389000000002
#
# number of rings (size 3 to 8) (size 9 to 14) (size 15 to 20)
#    0.000    1.200    2.000    1.800   14.000    1.600 
#    3.600    0.000    0.000    0.000    0.000    0.000 
#    0.000    0.000    0.000    0.000    0.000    0.000 
#
# Total GULP energy -55769.070774 kJ/mol
# GULP energy per Si atom -5576.907077 kJ/mol
# Density = 2.487065 g / cm^3
# Si number density = 24.927389 Si / 1000 Ang^3
#
#
#
# Elastic Constant Matrix: (Units=GPa)
#
#
# Indices 1 2 3 4 5 6 
#
# 1 190.7884 77.2583 55.4641 26.8584 -28.7290 2.7735
# 2 77.2583 185.5550 78.7754 34.3443 -10.7490 -4.2621
# 3 55.4641 78.7754 85.7726 15.4110 -43.1079 -8.6693
# 4 26.8584 34.3443 15.4110 31.0739 -14.9475 -3.4149
# 5 -28.7290 -10.7490 -43.1079 -14.9475 56.5496 11.4513
# 6 2.7735 -4.2621 -8.6693 -3.4149 11.4513 69.7903
#
#
#
# Elastic Compliance Matrix: (Units=1/GPa)
#
#
# Indices 1 2 3 4 5 6 
#
# 1 0.007070 -0.001214 -0.002618 -0.003237 0.000702 -0.000954
# 2 -0.001214 0.015877 -0.019293 -0.014713 -0.016312 0.000578
# 3 -0.002618 -0.019293 0.044960 0.017607 0.033971 -0.000202
# 4 -0.003237 -0.014713 0.017607 0.053654 0.023112 0.000250
# 5 0.000702 -0.016312 0.033971 0.023112 0.047652 -0.003492
# 6 -0.000954 0.000578 -0.000202 0.000250 -0.003492 0.014962
#
#
# Mechanical properties :
#
#
# Convention : Reuss Voigt Hill
#
# Bulk Modulus (GPa) = 46.17626 98.34575 72.26100
# Shear Modulus (GPa) = 21.03992 48.19064 34.61528
#
# Velocity S-wave (km/s) = 2.90840 4.40163 3.73049
# Velocity P-wave (km/s) = 5.46287 8.08524 6.89978
#
# Compressibility (1/GPa) = 0.02165615
#
# Stress axis : x y z
#
# Youngs Moduli (GPa) = 141.45253 62.98461 22.24206
#
# Poissons Ratio (x) = 0.07646 0.05824
# Poissons Ratio (y) = 0.17172 0.42911
# Poissons Ratio (z) = 0.37036 1.21515
#
# Static dielectric constant tensor:
#      x y z
#    x 2.150470 0.076790 0.004210 
#    y 0.076790 2.175440 -0.068830 
#    z 0.004210 -0.068830 2.063020 
# 
# From -- ./inp_files/138369.got.cif
#   From: 2010.05.17/outbox.cif.g08.bks.cpg/sg2_70_cif.got.tgz:138369.got - 2010.06.03 11:33:40.
