data_PCOD9048657
_publ_section_title
;
Structure prediction by ZEFSAII (Michael W. Deem and Ramdas Pophale) SiO2 
 PCOD9048657
Probable space group: P -1
;
_chemical_formula_sum "Si O2"
_cell_formula_units_Z 16
_cell_length_a 9.274284
_cell_length_b 15.558886
_cell_length_c 15.345840
_cell_angle_alpha 29.595835
_cell_angle_beta 102.115507
_cell_angle_gamma 81.198391
_cell_volume 769.001112
_symmetry_space_group_name_H-M "P -1"
_symmetry_group_IT_number 2
_symmetry_cell_setting 'triclinic'
loop_
_space_group_symop_operation_xyz
x,y,z
-x,-y,-z
loop_
_atom_site_type_symbol
_atom_site_label
_atom_site_fract_x
_atom_site_fract_y
_atom_site_fract_z
Si Si1 0.753010 0.503900 0.016045
Si Si2 0.624610 0.331463 0.291430
Si Si3 0.430230 0.810422 0.164254
Si Si4 0.113815 0.229688 0.167250
Si Si5 0.880557 0.020209 0.884872
Si Si6 0.523845 0.445098 0.365018
Si Si7 0.185520 0.331832 0.603786
Si Si8 0.147658 0.522118 0.256772
O O1 0.741402 0.380011 0.205205
O O2 0.966751 0.317508 0.154462
O O3 0.564286 0.595526 0.851234
O O4 0.741328 0.719651 0.846706
O O5 0.536033 0.494904 0.223002
O O6 0.764346 0.050788 0.584144
O O7 0.305728 0.919278 0.141988
O O8 0.417079 0.655009 0.237855
O O9 0.664223 0.635073 0.378261
O O10 0.329778 0.048113 0.887690
O O11 0.963787 0.405354 0.913438
O O12 0.757884 0.240581 0.608133
O O13 0.000000 0.000000 0.000000
O O14 0.024918 0.777561 0.063416
O O15 0.384090 0.385789 0.395923
O O16 0.128265 0.389079 0.444761
O O17 0.000000 0.500000 0.500000
#
# Coordination Sequence:
#
# PCOD9048657 Si02
#       8
#     2   2   2   2   2   2   2   2
#     4  10  24  45  71 100 129 174 217 272 348 412
#     4  11  23  45  70 100 137 169 218 281 334 407
#     4  11  24  40  61  91 127 175 222 268 325 389
#     4  11  23  45  70  99 133 172 220 273 345 403
#     4  12  22  39  67  89 125 174 219 267 322 385
#     4  12  24  41  64  97 131 168 228 270 328 402
#     4  11  24  41  59  88 133 175 220 275 327 384
#     4  12  23  41  64  93 129 172 221 273 329 396
#
# _framework density 20.806211000000001
#
# number of rings (size 3 to 8) (size 9 to 14) (size 15 to 20)
#    0.000    0.750    6.250    1.875    0.000    1.000 
#    4.500    1.250    0.000    0.000    0.000    0.000 
#    0.000    0.000    0.000    0.000    0.000    0.000 
#
# Total GULP energy -89239.412109 kJ/mol
# GULP energy per Si atom -5577.463257 kJ/mol
# Density = 2.075886 g / cm^3
# Si number density = 20.806211 Si / 1000 Ang^3
#
#
#
# Elastic Constant Matrix: (Units=GPa)
#
#
# Indices 1 2 3 4 5 6 
#
# 1 101.2069 22.1981 9.5901 12.7933 4.0498 -12.1415
# 2 22.1981 64.9337 4.8807 18.9906 -4.2128 -10.1649
# 3 9.5901 4.8807 66.2009 16.5873 -1.2483 -0.6302
# 4 12.7933 18.9906 16.5873 38.4156 -2.8296 -1.3461
# 5 4.0498 -4.2128 -1.2483 -2.8296 29.7398 2.1473
# 6 -12.1415 -10.1649 -0.6302 -1.3461 2.1473 32.1793
#
#
#
# Elastic Compliance Matrix: (Units=1/GPa)
#
#
# Indices 1 2 3 4 5 6 
#
# 1 0.011360 -0.002836 -0.000940 -0.002033 -0.002431 0.003449
# 2 -0.002836 0.019798 0.001313 -0.009095 0.002042 0.004693
# 3 -0.000940 0.001313 0.017077 -0.007686 0.000296 0.000053
# 4 -0.002033 -0.009095 -0.007686 0.034593 0.002137 -0.002486
# 5 -0.002431 0.002042 0.000296 0.002137 0.034641 -0.002489
# 6 0.003449 0.004693 0.000053 -0.002486 -0.002489 0.033923
#
#
# Mechanical properties :
#
#
# Convention : Reuss Voigt Hill
#
# Bulk Modulus (GPa) = 23.08971 33.96437 28.52704
# Shear Modulus (GPa) = 29.28200 33.11177 31.19689
#
# Velocity S-wave (km/s) = 3.75556 3.99361 3.87641
# Velocity P-wave (km/s) = 5.47058 6.13391 5.81171
#
# Compressibility (1/GPa) = 0.04330934
#
# Stress axis : x y z
#
# Youngs Moduli (GPa) = 88.02884 50.50993 58.55900
#
# Poissons Ratio (x) = 0.14324 0.05505
# Poissons Ratio (y) = 0.24964 -0.07690
# Poissons Ratio (z) = 0.08275 -0.06633
#
# Static dielectric constant tensor:
#      x y z
#    x 1.845170 0.003600 -0.014210 
#    y 0.003600 1.787580 0.027220 
#    z -0.014210 0.027220 1.826680 
# 
# From -- ./inp_files/38517.got.cif
#   From: 2010.05.17/outbox.cif.g08.bks.cpg/sg2_20_cif.got.tgz:38517.got - 2010.06.03 11:33:40.
