data_PCOD9048633
_publ_section_title
;
Structure prediction by ZEFSAII (Michael W. Deem and Ramdas Pophale) SiO2 
 PCOD9048633
Probable space group: P -1
;
_chemical_formula_sum "Si O2"
_cell_formula_units_Z 14
_cell_length_a 8.623128
_cell_length_b 11.075962
_cell_length_c 8.911683
_cell_angle_alpha 95.627182
_cell_angle_beta 53.288687
_cell_angle_gamma 83.496274
_cell_volume 663.095445
_symmetry_space_group_name_H-M "P -1"
_symmetry_group_IT_number 2
_symmetry_cell_setting 'triclinic'
loop_
_space_group_symop_operation_xyz
x,y,z
-x,-y,-z
loop_
_atom_site_type_symbol
_atom_site_label
_atom_site_fract_x
_atom_site_fract_y
_atom_site_fract_z
Si Si1 0.238325 0.805443 0.683177
Si Si2 0.559870 0.826399 0.724651
Si Si3 0.569685 0.427863 0.604557
Si Si4 0.166889 0.776510 0.046544
Si Si5 0.807311 0.514756 0.010939
Si Si6 0.200729 0.416993 0.313890
Si Si7 0.133638 0.039248 0.557205
O O1 0.458767 0.788928 0.626170
O O2 0.256126 0.688154 0.550365
O O3 0.107906 0.801500 0.907490
O O4 0.180362 0.931012 0.640731
O O5 0.367803 0.833280 0.946196
O O6 0.735555 0.721142 0.676149
O O7 0.664687 0.936614 0.630692
O O8 0.500000 0.500000 0.500000
O O9 0.637920 0.514705 0.699186
O O10 0.372457 0.399639 0.785253
O O11 0.218273 0.627600 0.017013
O O12 0.997667 0.841468 0.265961
O O13 0.813678 0.576157 0.854445
O O14 0.000000 0.500000 0.000000
O O15 0.000000 0.500000 0.500000
O O16 0.000000 0.000000 0.500000
#
# Coordination Sequence:
#
# PCOD9048633 Si02
#       7
#     2   2   2   2   2   2   2
#     4  10  24  45  70  94 141 183 225 285 346 416
#     4  10  24  46  67  97 137 182 227 285 347 404
#     4  12  21  44  68 103 138 176 228 286 359 418
#     4  10  24  46  71  95 142 177 233 280 351 411
#     4  12  26  41  71 106 140 184 228 286 361 425
#     4  12  25  40  70 101 143 181 230 291 348 421
#     4  12  27  44  71 103 132 184 243 286 338 409
#
# _framework density 21.113098999999998
#
# number of rings (size 3 to 8) (size 9 to 14) (size 15 to 20)
#    0.857    0.000    4.286    3.000    6.000    0.571 
#    0.000    0.000    0.000    0.000    0.000    0.000 
#    0.000    0.000    0.000    0.000    0.000    0.000 
#
# Total GULP energy -78103.845461 kJ/mol
# GULP energy per Si atom -5578.846104 kJ/mol
# Density = 2.106504 g / cm^3
# Si number density = 21.113099 Si / 1000 Ang^3
#
#
#
# Elastic Constant Matrix: (Units=GPa)
#
#
# Indices 1 2 3 4 5 6 
#
# 1 51.8078 7.7170 24.0464 2.4916 16.8298 -19.8546
# 2 7.7170 65.1252 6.3914 -5.5887 10.3129 -15.9279
# 3 24.0464 6.3914 96.5053 1.3281 7.7773 -7.1789
# 4 2.4916 -5.5887 1.3281 24.6964 -3.0216 7.3643
# 5 16.8298 10.3129 7.7773 -3.0216 33.6669 -6.5553
# 6 -19.8546 -15.9279 -7.1789 7.3643 -6.5553 37.2911
#
#
#
# Elastic Compliance Matrix: (Units=1/GPa)
#
#
# Indices 1 2 3 4 5 6 
#
# 1 0.032900 0.002095 -0.005894 -0.009148 -0.013287 0.016748
# 2 0.002095 0.017877 -0.000773 0.001037 -0.004780 0.007557
# 3 -0.005894 -0.000773 0.011771 0.000173 0.000247 -0.001193
# 4 -0.009148 0.001037 0.000173 0.046078 0.005926 -0.012452
# 5 -0.013287 -0.004780 0.000247 0.005926 0.037576 -0.003633
# 6 0.016748 0.007557 -0.001193 -0.012452 -0.003633 0.040552
#
#
# Mechanical properties :
#
#
# Convention : Reuss Voigt Hill
#
# Bulk Modulus (GPa) = 18.72503 32.19421 25.45962
# Shear Modulus (GPa) = 23.39732 30.81645 27.10688
#
# Velocity S-wave (km/s) = 3.33256 3.82460 3.58703
# Velocity P-wave (km/s) = 4.86787 5.89788 5.40745
#
# Compressibility (1/GPa) = 0.05340445
#
# Stress axis : x y z
#
# Youngs Moduli (GPa) = 30.39486 55.93805 84.95524
#
# Poissons Ratio (x) = -0.11719 0.50073
# Poissons Ratio (y) = -0.06368 0.06566
# Poissons Ratio (z) = 0.17915 0.04323
#
# Static dielectric constant tensor:
#      x y z
#    x 1.687770 0.024510 0.064930 
#    y 0.024510 1.774240 -0.019410 
#    z 0.064930 -0.019410 1.610070 
# 
# From -- ./inp_files/178564.got.cif
#   From: 2010.05.17/outbox.cif.g08.bks.cpg/sg2_90_cif.got.tgz:178564.got - 2010.06.03 11:33:40.
