data_PCOD9048370
_publ_section_title
;
Structure prediction by ZEFSAII (Michael W. Deem and Ramdas Pophale) SiO2 
 PCOD9048370
Probable space group: P -1
;
_chemical_formula_sum "Si O2"
_cell_formula_units_Z 16
_cell_length_a 11.975444
_cell_length_b 8.098363
_cell_length_c 17.786631
_cell_angle_alpha 124.982826
_cell_angle_beta 43.765451
_cell_angle_gamma 143.996332
_cell_volume 701.142386
_symmetry_space_group_name_H-M "P -1"
_symmetry_group_IT_number 2
_symmetry_cell_setting 'triclinic'
loop_
_space_group_symop_operation_xyz
x,y,z
-x,-y,-z
loop_
_atom_site_type_symbol
_atom_site_label
_atom_site_fract_x
_atom_site_fract_y
_atom_site_fract_z
Si Si1 0.402741 0.183211 0.173193
Si Si2 0.068534 0.888268 0.751629
Si Si3 0.434217 0.738528 0.418568
Si Si4 0.649080 0.794498 0.964391
Si Si5 0.734009 0.675204 0.473948
Si Si6 0.065647 0.256232 0.391847
Si Si7 0.780211 0.309011 0.108755
Si Si8 0.004171 0.451208 0.771666
O O1 0.460880 0.255389 0.076111
O O2 0.250759 0.240519 0.284713
O O3 0.609460 0.328695 0.166373
O O4 0.238878 0.847806 0.169025
O O5 0.902641 0.930525 0.860253
O O6 0.043671 0.818567 0.656766
O O7 0.989787 0.636322 0.776340
O O8 0.336075 0.136522 0.699286
O O9 0.339019 0.480117 0.451603
O O10 0.221442 0.579652 0.425118
O O11 0.500000 0.000000 0.500000
O O12 0.500000 0.500000 0.000000
O O13 0.665034 0.997107 0.064387
O O14 0.500000 0.500000 0.500000
O O15 0.871552 0.615367 0.352507
O O16 0.883834 0.007193 0.474808
O O17 0.854927 0.393781 0.180285
O O18 0.000000 0.500000 0.000000
#
# Coordination Sequence:
#
# PCOD9048370 Si02
#       8
#     2   2   2   2   2   2   2   2
#     4  10  24  45  67  99 141 173 234 284 343 420
#     4  11  25  46  69 101 146 177 239 290 345 416
#     4  12  25  46  69 106 143 181 235 288 346 420
#     4  11  25  46  70 100 140 183 230 293 349 411
#     4  11  23  46  71 103 141 184 234 291 341 420
#     4  10  25  44  74  99 139 192 223 285 358 406
#     4  12  26  42  74 100 131 187 231 282 356 406
#     4  11  25  46  68 104 140 181 232 291 343 413
#
# _framework density 22.819901999999999
#
# number of rings (size 3 to 8) (size 9 to 14) (size 15 to 20)
#    0.000    1.000    3.750    1.500    5.250    4.000 
#    0.000    0.000    0.000    0.000    0.000    0.000 
#    0.000    0.000    0.000    0.000    0.000    0.000 
#
# Total GULP energy -89527.950132 kJ/mol
# GULP energy per Si atom -5595.496883 kJ/mol
# Density = 2.276796 g / cm^3
# Si number density = 22.819902 Si / 1000 Ang^3
#
#
#
# Elastic Constant Matrix: (Units=GPa)
#
#
# Indices 1 2 3 4 5 6 
#
# 1 106.5579 23.1353 6.7653 -10.4047 5.0829 -0.2796
# 2 23.1353 115.6854 7.2910 -7.2686 12.5380 -1.3260
# 3 6.7653 7.2910 53.2860 -8.5727 -0.5202 -10.6830
# 4 -10.4047 -7.2686 -8.5727 33.7539 -3.7104 -0.7073
# 5 5.0829 12.5380 -0.5202 -3.7104 47.0364 -16.0270
# 6 -0.2796 -1.3260 -10.6830 -0.7073 -16.0270 34.2291
#
#
#
# Elastic Compliance Matrix: (Units=1/GPa)
#
#
# Indices 1 2 3 4 5 6 
#
# 1 0.010080 -0.001756 -0.000736 0.002469 -0.000584 -0.000438
# 2 -0.001756 0.009403 -0.001207 0.000854 -0.002696 -0.001272
# 3 -0.000736 -0.001207 0.021731 0.005663 0.004071 0.008752
# 4 0.002469 0.000854 0.005663 0.032486 0.003546 0.004152
# 5 -0.000584 -0.002696 0.004071 0.003546 0.027113 0.013929
# 6 -0.000438 -0.001272 0.008752 0.004152 0.013929 0.038502
#
#
# Mechanical properties :
#
#
# Convention : Reuss Voigt Hill
#
# Bulk Modulus (GPa) = 29.57262 38.87917 34.22589
# Shear Modulus (GPa) = 31.64856 38.89306 35.27081
#
# Velocity S-wave (km/s) = 3.72813 4.13285 3.93570
# Velocity P-wave (km/s) = 5.61420 6.31256 5.97359
#
# Compressibility (1/GPa) = 0.03381507
#
# Stress axis : x y z
#
# Youngs Moduli (GPa) = 99.20297 106.35256 46.01753
#
# Poissons Ratio (x) = 0.18677 0.03386
# Poissons Ratio (y) = 0.17422 0.05557
# Poissons Ratio (z) = 0.07299 0.12842
#
# Static dielectric constant tensor:
#      x y z
#    x 1.880820 -0.013100 -0.029100 
#    y -0.013100 1.765540 -0.047350 
#    z -0.029100 -0.047350 1.785960 
# 
# From -- ./inp_files/47229.got.cif
#   From: 2010.05.17/outbox.cif.g08.bks.cpg/sg2_24_cif.got.tgz:47229.got - 2010.06.03 11:33:40.
