data_PCOD9048461
_publ_section_title
;
Structure prediction by ZEFSAII (Michael W. Deem and Ramdas Pophale) SiO2 
 PCOD9048461
Probable space group: P -1
;
_chemical_formula_sum "Si O2"
_cell_formula_units_Z 16
_cell_length_a 16.159787
_cell_length_b 5.453865
_cell_length_c 9.013042
_cell_angle_alpha 114.582702
_cell_angle_beta 71.576515
_cell_angle_gamma 107.887887
_cell_volume 670.968828
_symmetry_space_group_name_H-M "P -1"
_symmetry_group_IT_number 2
_symmetry_cell_setting 'triclinic'
loop_
_space_group_symop_operation_xyz
x,y,z
-x,-y,-z
loop_
_atom_site_type_symbol
_atom_site_label
_atom_site_fract_x
_atom_site_fract_y
_atom_site_fract_z
Si Si1 0.349536 0.790059 0.808940
Si Si2 0.156014 0.400393 0.213327
Si Si3 0.583374 0.241377 0.545704
Si Si4 0.248376 0.924062 0.484813
Si Si5 0.100397 0.179838 0.486200
Si Si6 0.193778 0.997481 0.872191
Si Si7 0.450454 0.430230 0.857213
Si Si8 0.975316 0.411799 0.159842
O O1 0.367659 0.649155 0.606929
O O2 0.245247 0.794925 0.882742
O O3 0.391016 0.636641 0.877387
O O4 0.395485 0.114193 0.833778
O O5 0.204361 0.639112 0.355032
O O6 0.118867 0.172767 0.298899
O O7 0.068315 0.463434 0.204819
O O8 0.210095 0.280081 0.025996
O O9 0.649159 0.105446 0.576419
O O10 0.534637 0.457608 0.704746
O O11 0.500000 0.000000 0.500000
O O12 0.230636 0.990179 0.683605
O O13 0.192064 0.116996 0.482940
O O14 0.085616 0.434880 0.661669
O O15 0.000000 0.000000 0.500000
O O16 0.087888 0.890171 0.892760
O O17 0.500000 0.500000 0.000000
O O18 0.000000 0.500000 0.000000
#
# Coordination Sequence:
#
# PCOD9048461 Si02
#       8
#     2   2   2   2   2   2   2   2
#     4  10  24  45  69 100 141 182 231 290 351 429
#     4  12  25  44  66  98 139 174 234 285 344 418
#     4   9  22  45  69  98 136 183 228 287 354 428
#     4  11  24  46  69 100 135 181 231 285 351 417
#     4  12  23  42  69  97 136 178 228 291 345 414
#     4  11  25  44  67 102 136 184 233 287 350 428
#     4  11  23  43  71 103 138 180 230 293 358 420
#     4  12  24  43  69  96 140 188 226 290 356 417
#
# _framework density 23.846117
#
# number of rings (size 3 to 8) (size 9 to 14) (size 15 to 20)
#    0.000    1.000    2.500    3.750    1.750    5.000 
#    4.500    0.000    0.000    0.000    0.000    0.000 
#    0.000    0.000    0.000    0.000    0.000    0.000 
#
# Total GULP energy -89198.381738 kJ/mol
# GULP energy per Si atom -5574.898859 kJ/mol
# Density = 2.379184 g / cm^3
# Si number density = 23.846117 Si / 1000 Ang^3
#
#
#
# Elastic Constant Matrix: (Units=GPa)
#
#
# Indices 1 2 3 4 5 6 
#
# 1 187.0853 31.3297 26.3067 -8.1388 13.6619 -27.1098
# 2 31.3297 50.8459 21.8049 -2.4226 7.9720 -17.7834
# 3 26.3067 21.8049 96.0912 19.6515 16.6715 3.3764
# 4 -8.1388 -2.4226 19.6515 24.0658 -11.6142 3.7390
# 5 13.6619 7.9720 16.6715 -11.6142 39.3852 -6.8797
# 6 -27.1098 -17.7834 3.3764 3.7390 -6.8797 36.7593
#
#
#
# Elastic Compliance Matrix: (Units=1/GPa)
#
#
# Indices 1 2 3 4 5 6 
#
# 1 0.006686 -0.001446 -0.002697 0.004184 0.001093 0.004258
# 2 -0.001446 0.029236 -0.009410 0.009883 0.003868 0.013661
# 3 -0.002697 -0.009410 0.021410 -0.025325 -0.015224 -0.008781
# 4 0.004184 0.009883 -0.025325 0.078782 0.031924 0.008154
# 5 0.001093 0.003868 -0.015224 0.031924 0.041591 0.008612
# 6 0.004258 0.013661 -0.008781 0.008154 0.008612 0.038542
#
#
# Mechanical properties :
#
#
# Convention : Reuss Voigt Hill
#
# Bulk Modulus (GPa) = 33.08544 54.76724 43.92634
# Shear Modulus (GPa) = 19.72955 37.01414 28.37185
#
# Velocity S-wave (km/s) = 2.87952 3.94408 3.45307
# Velocity P-wave (km/s) = 4.99602 6.61497 5.86166
#
# Compressibility (1/GPa) = 0.03022477
#
# Stress axis : x y z
#
# Youngs Moduli (GPa) = 149.57287 34.20452 46.70821
#
# Poissons Ratio (x) = 0.04945 0.12597
# Poissons Ratio (y) = 0.21624 0.43955
# Poissons Ratio (z) = 0.40340 0.32188
#
# Static dielectric constant tensor:
#      x y z
#    x 1.833600 0.140580 -0.056980 
#    y 0.140580 2.103260 0.044920 
#    z -0.056980 0.044920 1.876150 
# 
# From -- ./inp_files/53680.got.cif
#   From: 2010.05.17/outbox.cif.g08.bks.cpg/sg2_27_cif.got.tgz:53680.got - 2010.06.03 11:33:40.
