data_PCOD9048785
_publ_section_title
;
Structure prediction by ZEFSAII (Michael W. Deem and Ramdas Pophale) SiO2 
 PCOD9048785
Probable space group: P -1
;
_chemical_formula_sum "Si O2"
_cell_formula_units_Z 14
_cell_length_a 8.857481
_cell_length_b 14.501753
_cell_length_c 8.328809
_cell_angle_alpha 99.444050
_cell_angle_beta 125.362229
_cell_angle_gamma 41.133507
_cell_volume 494.789781
_symmetry_space_group_name_H-M "P -1"
_symmetry_group_IT_number 2
_symmetry_cell_setting 'triclinic'
loop_
_space_group_symop_operation_xyz
x,y,z
-x,-y,-z
loop_
_atom_site_type_symbol
_atom_site_label
_atom_site_fract_x
_atom_site_fract_y
_atom_site_fract_z
Si Si1 0.839178 0.457597 0.097618
Si Si2 0.493175 0.210854 0.284484
Si Si3 0.462866 0.651861 0.428132
Si Si4 0.564049 0.236423 0.887833
Si Si5 0.196022 0.631089 0.626377
Si Si6 0.198194 0.060865 0.385330
Si Si7 0.276286 0.007681 0.919654
O O1 0.938721 0.373039 0.307227
O O2 0.123834 0.334670 0.111133
O O3 0.702005 0.616256 0.106311
O O4 0.545001 0.518428 0.871000
O O5 0.490138 0.320047 0.362226
O O6 0.665622 0.091028 0.507455
O O7 0.682648 0.090191 0.218331
O O8 0.713897 0.464208 0.501933
O O9 0.076819 0.803794 0.220346
O O10 0.538786 0.685268 0.328032
O O11 0.891640 0.159279 0.113898
O O12 0.617535 0.102875 0.896476
O O13 0.961339 0.815499 0.529851
O O14 0.500000 0.000000 0.500000
O O15 0.500000 0.000000 0.000000
#
# Coordination Sequence:
#
# PCOD9048785 Si02
#       7
#     2   2   2   2   2   2   2
#     4   9  19  40  67  97 133 177 224 278 336 402
#     4  12  25  41  68 101 142 173 225 284 342 395
#     4  11  24  45  71 100 135 179 232 284 332 403
#     4  10  24  45  72  98 136 184 230 277 339 404
#     4   9  19  39  67 100 135 175 225 279 335 399
#     4  11  22  39  72 108 139 173 229 283 337 402
#     4  12  27  45  68  98 140 187 225 278 346 411
#
# _framework density 28.294843
#
# number of rings (size 3 to 8) (size 9 to 14) (size 15 to 20)
#    0.000    1.429    2.857    2.571    2.000    2.857 
#    2.571    0.714    0.000    0.000    0.000    0.000 
#    0.000    0.000    0.000    0.000    0.000    0.000 
#
# Total GULP energy -78463.906675 kJ/mol
# GULP energy per Si atom -5604.564763 kJ/mol
# Density = 2.823044 g / cm^3
# Si number density = 28.294843 Si / 1000 Ang^3
#
#
#
# Elastic Constant Matrix: (Units=GPa)
#
#
# Indices 1 2 3 4 5 6 
#
# 1 124.3720 22.5543 24.8641 0.4382 18.6294 -20.6817
# 2 22.5543 207.2360 16.4766 9.7395 7.1172 -14.4197
# 3 24.8641 16.4766 63.7246 1.4394 8.3367 -3.4183
# 4 0.4382 9.7395 1.4394 43.3003 -4.2898 0.0202
# 5 18.6294 7.1172 8.3367 -4.2898 49.8390 -7.7784
# 6 -20.6817 -14.4197 -3.4183 0.0202 -7.7784 49.3083
#
#
#
# Elastic Compliance Matrix: (Units=1/GPa)
#
#
# Indices 1 2 3 4 5 6 
#
# 1 0.009684 -0.000481 -0.003144 -0.000137 -0.002521 0.003306
# 2 -0.000481 0.005103 -0.001004 -0.001139 -0.000296 0.001175
# 3 -0.003144 -0.001004 0.017381 -0.000492 -0.001737 -0.000681
# 4 -0.000137 -0.001139 -0.000492 0.023598 0.002316 -0.000069
# 5 -0.002521 -0.000296 -0.001737 0.002316 0.021880 0.002186
# 6 0.003306 0.001175 -0.000681 -0.000069 0.002186 0.022308
#
#
# Mechanical properties :
#
#
# Convention : Reuss Voigt Hill
#
# Bulk Modulus (GPa) = 43.65037 58.12470 50.88754
# Shear Modulus (GPa) = 42.79013 50.58536 46.68774
#
# Velocity S-wave (km/s) = 3.89304 4.23282 4.06648
# Velocity P-wave (km/s) = 5.97228 6.66904 6.33026
#
# Compressibility (1/GPa) = 0.02290931
#
# Stress axis : x y z
#
# Youngs Moduli (GPa) = 103.26397 195.96078 57.53490
#
# Poissons Ratio (x) = 0.09425 0.18088
# Poissons Ratio (y) = 0.04967 0.05778
# Poissons Ratio (z) = 0.32465 0.19681
#
# Static dielectric constant tensor:
#      x y z
#    x 2.264010 0.047660 -0.027940 
#    y 0.047660 2.144670 0.054950 
#    z -0.027940 0.054950 2.253770 
# 
# From -- ./inp_files/207952.got.cif
#   From: 2010.05.17/outbox.cif.g08.bks.cpg/sg2_104_cif.got.tgz:207952.got - 2010.06.03 11:33:40.
