data_PCOD9049221
_publ_section_title
;
Structure prediction by ZEFSAII (Michael W. Deem and Ramdas Pophale) SiO2 
 PCOD9049221
Probable space group: P -1
;
_chemical_formula_sum "Si O2"
_cell_formula_units_Z 14
_cell_length_a 4.746562
_cell_length_b 10.121159
_cell_length_c 18.568920
_cell_angle_alpha 34.911440
_cell_angle_beta 81.405205
_cell_angle_gamma 70.611268
_cell_volume 468.961381
_symmetry_space_group_name_H-M "P -1"
_symmetry_group_IT_number 2
_symmetry_cell_setting 'triclinic'
loop_
_space_group_symop_operation_xyz
x,y,z
-x,-y,-z
loop_
_atom_site_type_symbol
_atom_site_label
_atom_site_fract_x
_atom_site_fract_y
_atom_site_fract_z
Si Si1 0.723637 0.940843 0.295478
Si Si2 0.500000 0.500000 0.000000
Si Si3 0.980044 0.341974 0.798552
Si Si4 0.500000 0.500000 0.500000
Si Si5 0.141687 0.432102 0.902243
Si Si6 0.567667 0.420337 0.369414
Si Si7 0.124322 0.038025 0.355413
Si Si8 0.773951 0.176082 0.032769
O O1 0.693557 0.685560 0.388100
O O2 0.638697 0.142393 0.142308
O O3 0.446887 0.052844 0.312759
O O4 0.027011 0.913989 0.342848
O O5 0.713061 0.465875 0.078513
O O6 0.686229 0.572037 0.681757
O O7 0.961964 0.292833 0.906511
O O8 0.279841 0.390408 0.745480
O O9 0.989052 0.106224 0.856769
O O10 0.414345 0.487425 0.423850
O O11 0.474323 0.203898 0.984972
O O12 0.082457 0.682057 0.745847
O O13 0.836263 0.413545 0.967207
O O14 0.821684 0.154115 0.497396
#
# Coordination Sequence:
#
# PCOD9049221 Si02
#       8
#     2   1   2   1   2   2   2   2
#     4  11  24  41  69 104 143 185 236 293 358 436
#     4  12  24  44  74 108 146 182 248 302 350 442
#     4  12  26  45  70 105 140 184 249 287 346 434
#     4  10  24  46  70  98 148 190 224 298 362 424
#     4  12  24  47  70  99 146 188 232 297 356 422
#     4  11  25  43  69 103 135 187 236 292 351 425
#     4  11  23  45  68 100 140 184 235 285 371 410
#     4  12  26  43  70 104 139 193 230 297 366 417
#
# _framework density 29.853203000000001
#
# number of rings (size 3 to 8) (size 9 to 14) (size 15 to 20)
#    0.000    0.571    2.857    5.143    0.000   10.857 
#    0.000    0.000    0.000    0.000    0.000    0.000 
#    0.000    0.000    0.000    0.000    0.000    0.000 
#
# Total GULP energy -78083.800858 kJ/mol
# GULP energy per Si atom -5577.414347 kJ/mol
# Density = 2.978526 g / cm^3
# Si number density = 29.853203 Si / 1000 Ang^3
#
#
#
# Elastic Constant Matrix: (Units=GPa)
#
#
# Indices 1 2 3 4 5 6 
#
# 1 218.8449 37.0251 73.4076 15.3606 -6.9238 32.0993
# 2 37.0251 154.7395 43.9630 25.6931 0.5460 -2.7491
# 3 73.4076 43.9630 225.1611 10.8100 -8.0009 20.9258
# 4 15.3606 25.6931 10.8100 66.8161 9.3213 -5.1865
# 5 -6.9238 0.5460 -8.0009 9.3213 58.1895 9.7948
# 6 32.0993 -2.7491 20.9258 -5.1865 9.7948 53.5761
#
#
#
# Elastic Compliance Matrix: (Units=1/GPa)
#
#
# Indices 1 2 3 4 5 6 
#
# 1 0.005768 -0.000874 -0.001295 -0.001218 0.001275 -0.003346
# 2 -0.000874 0.007413 -0.001163 -0.002351 -0.000152 0.001158
# 3 -0.001295 -0.001163 0.005283 -0.000356 0.000900 -0.001546
# 4 -0.001218 -0.002351 -0.000356 0.016914 -0.003387 0.003005
# 5 0.001275 -0.000152 0.000900 -0.003387 0.018828 -0.004893
# 6 -0.003346 0.001158 -0.001546 0.003005 -0.004893 0.022519
#
#
# Mechanical properties :
#
#
# Convention : Reuss Voigt Hill
#
# Bulk Modulus (GPa) = 84.73698 100.83743 92.78721
# Shear Modulus (GPa) = 57.25863 65.33967 61.29915
#
# Velocity S-wave (km/s) = 4.38426 4.68343 4.53631
# Velocity P-wave (km/s) = 7.35358 7.94337 7.65416
#
# Compressibility (1/GPa) = 0.01180122
#
# Stress axis : x y z
#
# Youngs Moduli (GPa) = 173.35938 134.89208 189.27409
#
# Poissons Ratio (x) = 0.11788 0.24516
# Poissons Ratio (y) = 0.15150 0.22008
# Poissons Ratio (z) = 0.22454 0.15685
#
# Static dielectric constant tensor:
#      x y z
#    x 2.141860 0.175200 -0.190030 
#    y 0.175200 2.090010 0.103310 
#    z -0.190030 0.103310 2.221400 
# 
# From -- ./inp_files/427183.got.cif
#   From: 2010.05.17/outbox.cif.g08.bks.cpg/sg2_214_cif.got.tgz:427183.got - 2010.06.03 11:33:40.
