data_PCOD9049306
_publ_section_title
;
Structure prediction by ZEFSAII (Michael W. Deem and Ramdas Pophale) SiO2 
 PCOD9049306
Probable space group: P -1
;
_chemical_formula_sum "Si O2"
_cell_formula_units_Z 16
_cell_length_a 11.916081
_cell_length_b 8.329238
_cell_length_c 15.933163
_cell_angle_alpha 53.919962
_cell_angle_beta 56.763129
_cell_angle_gamma 34.860189
_cell_volume 723.279500
_symmetry_space_group_name_H-M "P -1"
_symmetry_group_IT_number 2
_symmetry_cell_setting 'triclinic'
loop_
_space_group_symop_operation_xyz
x,y,z
-x,-y,-z
loop_
_atom_site_type_symbol
_atom_site_label
_atom_site_fract_x
_atom_site_fract_y
_atom_site_fract_z
Si Si1 0.857201 0.315568 0.007004
Si Si2 0.276968 0.887179 0.773426
Si Si3 0.849106 0.945944 0.718206
Si Si4 0.156229 0.295507 0.851485
Si Si5 0.992063 0.815302 0.368467
Si Si6 0.598314 0.825710 0.600475
Si Si7 0.453184 0.046905 0.102566
Si Si8 0.327506 0.851030 0.454525
O O1 0.747378 0.315228 0.125966
O O2 0.690575 0.605006 0.929052
O O3 0.004589 0.337248 0.960648
O O4 0.000000 0.000000 0.000000
O O5 0.224778 0.071868 0.819566
O O6 0.117205 0.099920 0.700618
O O7 0.485030 0.749973 0.699216
O O8 0.666236 0.020587 0.806095
O O9 0.038145 0.598813 0.760728
O O10 0.900493 0.089369 0.701440
O O11 0.792601 0.046624 0.613794
O O12 0.345764 0.160042 0.865220
O O13 0.169756 0.468150 0.416832
O O14 0.825710 0.999747 0.451749
O O15 0.500000 0.000000 0.500000
O O16 0.581515 0.025780 0.611775
O O17 0.500000 0.000000 0.000000
O O18 0.500000 0.500000 0.500000
#
# Coordination Sequence:
#
# PCOD9049306 Si02
#       8
#     2   2   2   2   2   2   2   2
#     4   9  23  44  68 104 139 183 236 284 358 411
#     4  11  25  43  75 100 144 184 238 288 355 414
#     4  11  27  44  71 104 145 187 232 289 366 407
#     4  10  24  46  72 102 145 187 234 296 350 425
#     4  12  28  45  73 105 143 186 240 292 348 426
#     4  12  26  45  70 103 142 185 239 288 349 414
#     4  11  26  43  75 105 142 182 238 291 353 428
#     4  12  27  49  76 103 146 187 240 293 358 426
#
# _framework density 22.121462999999999
#
# number of rings (size 3 to 8) (size 9 to 14) (size 15 to 20)
#    0.000    1.000    1.250    3.000   10.500    5.000 
#    0.000    0.000    0.000    0.000    0.000    0.000 
#    0.000    0.000    0.000    0.000    0.000    0.000 
#
# Total GULP energy -89520.197722 kJ/mol
# GULP energy per Si atom -5595.012358 kJ/mol
# Density = 2.207111 g / cm^3
# Si number density = 22.121463 Si / 1000 Ang^3
#
#
#
# Elastic Constant Matrix: (Units=GPa)
#
#
# Indices 1 2 3 4 5 6 
#
# 1 121.7173 39.4047 32.1591 4.4071 8.2291 -32.7179
# 2 39.4047 115.0358 42.2489 -6.4986 -10.5069 -22.8971
# 3 32.1591 42.2489 109.6612 12.1742 -11.6701 -21.0857
# 4 4.4071 -6.4986 12.1742 27.7521 0.7057 -0.4533
# 5 8.2291 -10.5069 -11.6701 0.7057 36.0327 -0.0196
# 6 -32.7179 -22.8971 -21.0857 -0.4533 -0.0196 40.8202
#
#
#
# Elastic Compliance Matrix: (Units=1/GPa)
#
#
# Indices 1 2 3 4 5 6 
#
# 1 0.011622 -0.002515 -0.001264 -0.001666 -0.003761 0.007231
# 2 -0.002515 0.011958 -0.003531 0.004725 0.002827 0.002921
# 3 -0.001264 -0.003531 0.012561 -0.006168 0.003450 0.003428
# 4 -0.001666 0.004725 -0.006168 0.040113 -0.001026 -0.001427
# 5 -0.003761 0.002827 0.003450 -0.001026 0.030573 0.000357
# 6 0.007231 0.002921 0.003428 -0.001427 0.000357 0.033687
#
#
# Mechanical properties :
#
#
# Convention : Reuss Voigt Hill
#
# Bulk Modulus (GPa) = 46.46795 63.78220 55.12507
# Shear Modulus (GPa) = 30.80530 36.42777 33.61653
#
# Velocity S-wave (km/s) = 3.73574 4.06238 3.90248
# Velocity P-wave (km/s) = 6.29755 7.13437 6.72898
#
# Compressibility (1/GPa) = 0.02152021
#
# Stress axis : x y z
#
# Youngs Moduli (GPa) = 86.04072 83.62599 79.61004
#
# Poissons Ratio (x) = 0.21033 0.10064
# Poissons Ratio (y) = 0.21641 0.28114
# Poissons Ratio (z) = 0.10877 0.29532
#
# Static dielectric constant tensor:
#      x y z
#    x 1.770460 0.017480 -0.047070 
#    y 0.017480 1.781710 0.014880 
#    z -0.047070 0.014880 1.842450 
# 
# From -- ./inp_files/138518.got.cif
#   From: 2010.05.17/outbox.cif.g08.bks.cpg/sg2_70_cif.got.tgz:138518.got - 2010.06.03 11:33:40.
