data_PCOD9049695
_publ_section_title
;
Structure prediction by ZEFSAII (Michael W. Deem and Ramdas Pophale) SiO2 
 PCOD9049695
Probable space group: P -1
;
_chemical_formula_sum "Si O2"
_cell_formula_units_Z 14
_cell_length_a 7.213391
_cell_length_b 9.247327
_cell_length_c 16.348917
_cell_angle_alpha 54.674273
_cell_angle_beta 84.390049
_cell_angle_gamma 47.808462
_cell_volume 578.056640
_symmetry_space_group_name_H-M "P -1"
_symmetry_group_IT_number 2
_symmetry_cell_setting 'triclinic'
loop_
_space_group_symop_operation_xyz
x,y,z
-x,-y,-z
loop_
_atom_site_type_symbol
_atom_site_label
_atom_site_fract_x
_atom_site_fract_y
_atom_site_fract_z
Si Si1 0.325557 0.077177 0.668748
Si Si2 0.696527 0.718791 0.241255
Si Si3 0.727739 0.596717 0.681537
Si Si4 0.090561 0.137799 0.129895
Si Si5 0.662585 0.535946 0.529770
Si Si6 0.763718 0.646231 0.068620
Si Si7 0.145926 0.981849 0.920928
O O1 0.376979 0.057624 0.770443
O O2 0.356644 0.259590 0.580326
O O3 0.000601 0.249644 0.613812
O O4 0.534212 0.811440 0.691430
O O5 0.722440 0.710292 0.144883
O O6 0.022781 0.440691 0.344276
O O7 0.401756 0.824652 0.230797
O O8 0.568591 0.644816 0.591736
O O9 0.924738 0.296519 0.804190
O O10 0.982457 0.327939 0.148971
O O11 0.867476 0.152886 0.106390
O O12 0.872116 0.741031 0.983565
O O13 0.500000 0.500000 0.500000
O O14 0.464047 0.800786 0.993428
O O15 0.000000 0.000000 0.000000
#
# Coordination Sequence:
#
# PCOD9049695 Si02
#       7
#     2   2   2   2   2   2   2
#     4  10  24  47  71  99 135 174 214 284 350 401
#     4  11  21  42  65  95 134 174 224 275 330 399
#     4  11  24  45  68 100 139 177 222 277 342 404
#     4  11  23  40  65  90 134 187 231 278 329 387
#     4  10  24  47  74 100 130 166 227 283 340 414
#     4  11  23  43  63  93 134 188 234 275 332 387
#     4  12  24  42  64  98 143 180 230 277 324 399
#
# _framework density 24.219078
#
# number of rings (size 3 to 8) (size 9 to 14) (size 15 to 20)
#    0.000    1.143    2.857    3.000    2.000    1.714 
#    7.714    0.000    0.000    0.000    0.000    0.000 
#    0.000    0.000    0.000    0.000    0.000    0.000 
#
# Total GULP energy -78244.142527 kJ/mol
# GULP energy per Si atom -5588.867323 kJ/mol
# Density = 2.416395 g / cm^3
# Si number density = 24.219078 Si / 1000 Ang^3
#
#
#
# Elastic Constant Matrix: (Units=GPa)
#
#
# Indices 1 2 3 4 5 6 
#
# 1 143.6289 43.5384 37.5140 10.4723 41.6569 17.5586
# 2 43.5384 186.5097 42.8895 38.4509 14.1579 1.5517
# 3 37.5140 42.8895 109.8181 30.9360 18.9763 8.6197
# 4 10.4723 38.4509 30.9360 39.0845 11.6718 6.7709
# 5 41.6569 14.1579 18.9763 11.6718 40.7689 7.4152
# 6 17.5586 1.5517 8.6197 6.7709 7.4152 27.1066
#
#
#
# Elastic Compliance Matrix: (Units=1/GPa)
#
#
# Indices 1 2 3 4 5 6 
#
# 1 0.011546 -0.002379 -0.002222 0.004998 -0.010454 -0.005025
# 2 -0.002379 0.007363 -0.000553 -0.007128 0.001697 0.002612
# 3 -0.002222 -0.000553 0.012675 -0.008582 -0.000952 -0.000156
# 4 0.004998 -0.007128 -0.008582 0.042219 -0.009248 -0.008117
# 5 -0.010454 0.001697 -0.000952 -0.009248 0.037908 -0.001083
# 6 -0.005025 0.002612 -0.000156 -0.008117 -0.001083 0.042370
#
#
# Mechanical properties :
#
#
# Convention : Reuss Voigt Hill
#
# Bulk Modulus (GPa) = 47.00366 76.42671 61.71519
# Shear Modulus (GPa) = 29.15749 42.45965 35.80857
#
# Velocity S-wave (km/s) = 3.47350 4.19160 3.84933
# Velocity P-wave (km/s) = 5.96127 7.41963 6.73007
#
# Compressibility (1/GPa) = 0.02127494
#
# Stress axis : x y z
#
# Youngs Moduli (GPa) = 86.61174 135.81069 78.89333
#
# Poissons Ratio (x) = 0.32314 0.17530
# Poissons Ratio (y) = 0.20608 0.04365
# Poissons Ratio (z) = 0.19245 0.07515
#
# Static dielectric constant tensor:
#      x y z
#    x 2.109620 -0.020760 -0.099480 
#    y -0.020760 1.905920 -0.000610 
#    z -0.099480 -0.000610 2.039670 
# 
# From -- ./inp_files/480291.got.cif
#   From: 2010.05.17/outbox.cif.g08.bks.cpg/sg2_241_cif.got.tgz:480291.got - 2010.06.03 11:33:40.
