data_PCOD9049314
_publ_section_title
;
Structure prediction by ZEFSAII (Michael W. Deem and Ramdas Pophale) SiO2 
 PCOD9049314
Probable space group: P -1
;
_chemical_formula_sum "Si O2"
_cell_formula_units_Z 16
_cell_length_a 19.278604
_cell_length_b 8.389977
_cell_length_c 9.196141
_cell_angle_alpha 31.926740
_cell_angle_beta 56.830378
_cell_angle_gamma 59.458760
_cell_volume 655.207135
_symmetry_space_group_name_H-M "P -1"
_symmetry_group_IT_number 2
_symmetry_cell_setting 'triclinic'
loop_
_space_group_symop_operation_xyz
x,y,z
-x,-y,-z
loop_
_atom_site_type_symbol
_atom_site_label
_atom_site_fract_x
_atom_site_fract_y
_atom_site_fract_z
Si Si1 0.883143 0.050839 0.083415
Si Si2 0.941394 0.540782 0.177247
Si Si3 0.699736 0.340651 0.590363
Si Si4 0.920425 0.697023 0.601139
Si Si5 0.410447 0.510398 0.018126
Si Si6 0.301421 0.101181 0.632620
Si Si7 0.508340 0.339708 0.765566
Si Si8 0.790993 0.674893 0.031626
O O1 0.923392 0.823549 0.089987
O O2 0.907730 0.952482 0.296343
O O3 0.783932 0.035221 0.204455
O O4 0.912898 0.380844 0.770875
O O5 0.992654 0.299326 0.413767
O O6 0.855034 0.548653 0.183073
O O7 0.000000 0.500000 0.000000
O O8 0.721105 0.610585 0.462418
O O9 0.600684 0.351259 0.713005
O O10 0.746682 0.016661 0.831201
O O11 0.721916 0.441813 0.321294
O O12 0.845974 0.691379 0.809730
O O13 0.435832 0.473488 0.850727
O O14 0.359128 0.833755 0.850602
O O15 0.500000 0.500000 0.000000
O O16 0.355667 0.243206 0.335247
O O17 0.500000 0.500000 0.500000
O O18 0.500000 0.000000 0.000000
#
# Coordination Sequence:
#
# PCOD9049314 Si02
#       8
#     2   2   2   2   2   2   2   2
#     4  12  25  45  71 102 143 180 233 281 353 402
#     4  10  24  46  72 104 140 185 233 278 344 415
#     4  12  25  45  73 100 141 181 232 288 341 408
#     4  11  26  45  69 105 143 183 225 294 343 402
#     4  12  26  46  73 101 138 180 233 282 343 412
#     4  12  26  43  75 103 135 184 233 288 337 409
#     4  12  28  45  70 103 140 180 226 285 352 406
#     4  11  25  44  73 101 138 186 236 279 341 417
#
# _framework density 24.419758999999999
#
# number of rings (size 3 to 8) (size 9 to 14) (size 15 to 20)
#    0.000    0.500    2.500    4.875    3.500    7.000 
#    0.000    5.625    0.000    0.000    0.000    0.000 
#    0.000    0.000    0.000    0.000    0.000    0.000 
#
# Total GULP energy -89477.529832 kJ/mol
# GULP energy per Si atom -5592.345614 kJ/mol
# Density = 2.436418 g / cm^3
# Si number density = 24.419759 Si / 1000 Ang^3
#
#
#
# Elastic Constant Matrix: (Units=GPa)
#
#
# Indices 1 2 3 4 5 6 
#
# 1 101.3716 16.3051 31.2416 7.1479 4.9020 -26.1477
# 2 16.3051 103.8430 20.9343 23.8542 5.3568 -18.6349
# 3 31.2416 20.9343 135.1574 7.9641 2.5296 -15.1390
# 4 7.1479 23.8542 7.9641 49.2675 -2.3539 2.3926
# 5 4.9020 5.3568 2.5296 -2.3539 35.0726 2.9028
# 6 -26.1477 -18.6349 -15.1390 2.3926 2.9028 39.9695
#
#
#
# Elastic Compliance Matrix: (Units=1/GPa)
#
#
# Indices 1 2 3 4 5 6 
#
# 1 0.012777 0.000516 -0.001932 -0.002311 -0.002558 0.008191
# 2 0.000516 0.012511 -0.000905 -0.006436 -0.002881 0.006422
# 3 -0.001932 -0.000905 0.008200 -0.000696 -0.000353 0.001488
# 4 -0.002311 -0.006436 -0.000696 0.024345 0.003527 -0.006490
# 5 -0.002558 -0.002881 -0.000353 0.003527 0.030031 -0.005543
# 6 0.008191 0.006422 0.001488 -0.006490 -0.005543 0.034727
#
#
# Mechanical properties :
#
#
# Convention : Reuss Voigt Hill
#
# Bulk Modulus (GPa) = 34.66571 53.03711 43.85141
# Shear Modulus (GPa) = 36.53764 42.98799 39.76281
#
# Velocity S-wave (km/s) = 3.87231 4.20024 4.03960
# Velocity P-wave (km/s) = 5.84976 6.72969 6.30509
#
# Compressibility (1/GPa) = 0.02884695
#
# Stress axis : x y z
#
# Youngs Moduli (GPa) = 78.26824 79.93134 121.95623
#
# Poissons Ratio (x) = -0.04126 0.23558
# Poissons Ratio (y) = -0.04040 0.11032
# Poissons Ratio (z) = 0.15119 0.07230
#
# Static dielectric constant tensor:
#      x y z
#    x 1.988430 0.006960 -0.037140 
#    y 0.006960 1.978040 0.052050 
#    z -0.037140 0.052050 1.927400 
# 
# From -- ./inp_files/343192.got.cif
#   From: 2010.05.17/outbox.cif.g08.bks.cpg/sg2_172_cif.got.tgz:343192.got - 2010.06.03 11:33:40.
