data_PCOD9049163
_publ_section_title
;
Structure prediction by ZEFSAII (Michael W. Deem and Ramdas Pophale) SiO2 
 PCOD9049163
Probable space group: P -1
;
_chemical_formula_sum "Si O2"
_cell_formula_units_Z 14
_cell_length_a 11.611987
_cell_length_b 19.513530
_cell_length_c 9.374167
_cell_angle_alpha 37.071866
_cell_angle_beta 113.204782
_cell_angle_gamma 141.453478
_cell_volume 630.849446
_symmetry_space_group_name_H-M "P -1"
_symmetry_group_IT_number 2
_symmetry_cell_setting 'triclinic'
loop_
_space_group_symop_operation_xyz
x,y,z
-x,-y,-z
loop_
_atom_site_type_symbol
_atom_site_label
_atom_site_fract_x
_atom_site_fract_y
_atom_site_fract_z
Si Si1 0.183291 0.214433 0.147492
Si Si2 0.127246 0.549811 0.270218
Si Si3 0.794489 0.757902 0.220679
Si Si4 0.559964 0.913970 0.682880
Si Si5 0.983761 0.695636 0.588424
Si Si6 0.142886 0.451258 0.752577
Si Si7 0.569341 0.342414 0.192608
O O1 0.433486 0.357278 0.084149
O O2 0.165768 0.182501 0.023120
O O3 0.128720 0.304992 0.994850
O O4 0.000000 0.000000 0.500000
O O5 0.944393 0.357647 0.385467
O O6 0.148860 0.500387 0.511989
O O7 0.059413 0.627150 0.144078
O O8 0.361253 0.713092 0.023152
O O9 0.500000 0.500000 0.500000
O O10 0.877220 0.701430 0.415354
O O11 0.000000 0.000000 0.000000
O O12 0.568785 0.858703 0.628165
O O13 0.500000 0.000000 0.500000
O O14 0.797841 0.081032 0.602584
O O15 0.808537 0.534341 0.899996
O O16 0.373684 0.649680 0.631854
#
# Coordination Sequence:
#
# PCOD9049163 Si02
#       7
#     2   2   2   2   2   2   2
#     4  12  28  45  71 112 150 195 247 319 396 465
#     4  10  24  46  70 102 140 194 245 306 378 459
#     4  12  27  49  80 111 154 204 267 319 385 469
#     4  11  24  43  74 104 138 187 260 310 372 445
#     4  11  23  45  74 101 141 191 256 315 368 451
#     4  11  24  47  68  98 154 189 238 305 395 464
#     4  11  25  44  70 103 141 187 246 307 385 450
#
# _framework density 22.192299999999999
#
# number of rings (size 3 to 8) (size 9 to 14) (size 15 to 20)
#    0.000    0.857    2.857    3.000    8.000    4.571 
#    0.000    2.143    0.000    0.000    0.000    0.000 
#    0.000    0.000    0.000    0.000    0.000    0.000 
#
# Total GULP energy -78001.687056 kJ/mol
# GULP energy per Si atom -5571.549075 kJ/mol
# Density = 2.214179 g / cm^3
# Si number density = 22.192300 Si / 1000 Ang^3
#
#
#
# Elastic Constant Matrix: (Units=GPa)
#
#
# Indices 1 2 3 4 5 6 
#
# 1 107.1067 46.3686 38.8983 -7.2996 28.8416 -6.0568
# 2 46.3686 147.6302 40.4160 -9.1324 -1.8836 -6.9461
# 3 38.8983 40.4160 86.5549 7.4803 9.1361 -13.8812
# 4 -7.2996 -9.1324 7.4803 33.4301 -0.7025 9.1407
# 5 28.8416 -1.8836 9.1361 -0.7025 34.1524 4.3524
# 6 -6.0568 -6.9461 -13.8812 9.1407 4.3524 39.2467
#
#
#
# Elastic Compliance Matrix: (Units=1/GPa)
#
#
# Indices 1 2 3 4 5 6 
#
# 1 0.016292 -0.003902 -0.004205 0.002858 -0.012931 0.001105
# 2 -0.003902 0.009143 -0.003533 0.002944 0.004993 -0.001473
# 3 -0.004205 -0.003533 0.017074 -0.007605 -0.002232 0.006783
# 4 0.002858 0.002944 -0.007605 0.035896 0.001833 -0.010291
# 5 -0.012931 0.004993 -0.002232 0.001833 0.042001 -0.006986
# 6 0.001105 -0.001473 0.006783 -0.010291 -0.006986 0.030961
#
#
# Mechanical properties :
#
#
# Convention : Reuss Voigt Hill
#
# Bulk Modulus (GPa) = 52.00602 65.85083 58.92842
# Shear Modulus (GPa) = 27.61565 35.73976 31.67771
#
# Velocity S-wave (km/s) = 3.53140 4.01740 3.78222
# Velocity P-wave (km/s) = 6.33347 7.15937 6.75905
#
# Compressibility (1/GPa) = 0.01922854
#
# Stress axis : x y z
#
# Youngs Moduli (GPa) = 61.37896 109.37155 58.56993
#
# Poissons Ratio (x) = 0.42680 0.24626
# Poissons Ratio (y) = 0.23952 0.20695
# Poissons Ratio (z) = 0.25808 0.38645
#
# Static dielectric constant tensor:
#      x y z
#    x -0.353210 -0.309480 -0.395970 
#    y -0.309480 1.834770 -0.173410 
#    z -0.395970 -0.173410 1.778940 
# 
# From -- ./inp_files/278830.got.cif
#   From: 2010.05.17/outbox.cif.g08.bks.cpg/sg2_140_cif.got.tgz:278830.got - 2010.06.03 11:33:40.
