data_PCOD9049069
_publ_section_title
;
Structure prediction by ZEFSAII (Michael W. Deem and Ramdas Pophale) SiO2 
 PCOD9049069
Probable space group: P -1
;
_chemical_formula_sum "Si O2"
_cell_formula_units_Z 15
_cell_length_a 9.239009
_cell_length_b 18.109365
_cell_length_c 5.194420
_cell_angle_alpha 124.037238
_cell_angle_beta 102.908578
_cell_angle_gamma 54.905144
_cell_volume 583.023459
_symmetry_space_group_name_H-M "P -1"
_symmetry_group_IT_number 2
_symmetry_cell_setting 'triclinic'
loop_
_space_group_symop_operation_xyz
x,y,z
-x,-y,-z
loop_
_atom_site_type_symbol
_atom_site_label
_atom_site_fract_x
_atom_site_fract_y
_atom_site_fract_z
Si Si1 0.861537 0.376531 0.444668
Si Si2 0.191625 0.812604 0.940089
Si Si3 0.674295 0.502287 0.118538
Si Si4 0.035175 0.103113 0.499617
Si Si5 0.381446 0.901256 0.030859
Si Si6 0.500000 0.000000 0.000000
Si Si7 0.164076 0.379704 0.751479
Si Si8 0.723982 0.822772 0.301739
O O1 0.804839 0.293824 0.225210
O O2 0.747573 0.468409 0.369771
O O3 0.066938 0.342403 0.444875
O O4 0.807647 0.414626 0.791406
O O5 0.068395 0.871430 0.758821
O O6 0.374362 0.800251 0.901868
O O7 0.094423 0.878587 0.286422
O O8 0.681888 0.605224 0.256833
O O9 0.500000 0.500000 0.000000
O O10 0.098897 0.183997 0.718929
O O11 0.220084 0.990237 0.313161
O O12 0.572451 0.883841 0.140164
O O13 0.366207 0.952330 0.848595
O O14 0.356972 0.098775 0.330686
O O15 0.238965 0.290886 0.829599
O O16 0.000000 0.500000 0.000000
#
# Coordination Sequence:
#
# PCOD9049069 Si02
#       8
#     2   2   2   2   2   1   2   2
#     4  11  24  46  70 103 140 186 234 297 356 438
#     4  12  26  44  74 104 147 187 242 294 365 431
#     4  11  25  46  72 102 142 181 240 302 360 418
#     4  11  25  46  70 102 145 192 238 296 359 434
#     4  11  27  42  72 102 145 190 241 300 357 433
#     4  10  24  46  68 104 148 178 246 286 374 420
#     4  10  24  47  71 102 141 191 244 290 361 432
#     4  11  25  45  73 103 142 198 237 304 359 435
#
# _framework density 25.727952999999999
#
# number of rings (size 3 to 8) (size 9 to 14) (size 15 to 20)
#    0.000    1.067    1.333    4.000   13.067    1.067 
#    4.800    0.000    0.000    0.000    0.000    0.000 
#    0.000    0.000    0.000    0.000    0.000    0.000 
#
# Total GULP energy -83638.604116 kJ/mol
# GULP energy per Si atom -5575.906941 kJ/mol
# Density = 2.566940 g / cm^3
# Si number density = 25.727953 Si / 1000 Ang^3
#
#
#
# Elastic Constant Matrix: (Units=GPa)
#
#
# Indices 1 2 3 4 5 6 
#
# 1 87.9769 79.0031 -148.2973 0.0594 -26.1782 68.1691
# 2 79.0031 12.8655 97.5224 7.9669 21.9693 -1.9270
# 3 -148.2973 97.5224 -196.0959 -5.1231 -66.4948 28.5171
# 4 0.0594 7.9669 -5.1231 39.5399 0.8559 21.3122
# 5 -26.1782 21.9693 -66.4948 0.8559 27.6115 3.7441
# 6 68.1691 -1.9270 28.5171 21.3122 3.7441 53.6715
#
#
#
# Elastic Compliance Matrix: (Units=1/GPa)
#
#
# Indices 1 2 3 4 5 6 
#
# 1 0.007234 -0.000265 -0.005223 0.003504 -0.004602 -0.007493
# 2 -0.000265 0.017650 0.007336 -0.001230 0.003777 -0.002703
# 3 -0.005223 0.007336 0.004122 -0.004452 -0.001618 0.006588
# 4 0.003504 -0.001230 -0.004452 0.033103 -0.005427 -0.014895
# 5 -0.004602 0.003777 -0.001618 -0.005427 0.024129 0.007312
# 6 -0.007493 -0.002703 0.006588 -0.014895 0.007312 0.029956
#
#
# Mechanical properties :
#
#
# Convention : Reuss Voigt Hill
#
# Bulk Modulus (GPa) = 30.57826 -4.31079 13.13374
# Shear Modulus (GPa) = 40.51940 15.93245 28.22592
#
# Velocity S-wave (km/s) = 3.97283 2.49121 3.31583
# Velocity P-wave (km/s) = 5.74069 2.56820 4.44697
#
# Compressibility (1/GPa) = 0.03270297
#
# Stress axis : x y z
#
# Youngs Moduli (GPa) = 138.23336 56.65656 242.60980
#
# Poissons Ratio (x) = 0.01499 1.26718
# Poissons Ratio (y) = 0.03657 -1.77981
# Poissons Ratio (z) = 0.72201 -0.41564
#
# Static dielectric constant tensor:
#      x y z
#    x 2.117120 -0.084830 0.176980 
#    y -0.084830 1.606730 0.295290 
#    z 0.176980 0.295290 2.034050 
# 
# From -- ./inp_files/49035.got.cif
#   From: 2010.05.17/outbox.cif.g08.bks.cpg/sg2_25_cif.got.tgz:49035.got - 2010.06.03 11:33:40.
