data_PCOD9049978
_publ_section_title
;
Structure prediction by ZEFSAII (Michael W. Deem and Ramdas Pophale) SiO2 
 PCOD9049978
Probable space group: P -1
;
_chemical_formula_sum "Si O2"
_cell_formula_units_Z 16
_cell_length_a 9.885439
_cell_length_b 18.833742
_cell_length_c 21.966170
_cell_angle_alpha 18.268866
_cell_angle_beta 34.624303
_cell_angle_gamma 33.170715
_cell_volume 691.995513
_symmetry_space_group_name_H-M "P -1"
_symmetry_group_IT_number 2
_symmetry_cell_setting 'triclinic'
loop_
_space_group_symop_operation_xyz
x,y,z
-x,-y,-z
loop_
_atom_site_type_symbol
_atom_site_label
_atom_site_fract_x
_atom_site_fract_y
_atom_site_fract_z
Si Si1 0.488841 0.011557 0.312493
Si Si2 0.383105 0.338728 0.871257
Si Si3 0.750425 0.564237 0.502501
Si Si4 0.038003 0.720667 0.770410
Si Si5 0.369034 0.548713 0.076006
Si Si6 0.387057 0.870041 0.594751
Si Si7 0.182167 0.464926 0.715774
Si Si8 0.507887 0.799850 0.289570
O O1 0.200729 0.155491 0.284449
O O2 0.577480 0.813526 0.390281
O O3 0.522385 0.902923 0.456116
O O4 0.657179 0.185405 0.110823
O O5 0.631004 0.358686 0.730212
O O6 0.276711 0.572553 0.762136
O O7 0.195383 0.384739 0.846502
O O8 0.426874 0.085708 0.093716
O O9 0.740080 0.632191 0.380436
O O10 0.000000 0.500000 0.500000
O O11 0.110295 0.904041 0.640368
O O12 0.000000 0.500000 0.000000
O O13 0.554419 0.387237 0.187966
O O14 0.109347 0.490096 0.226473
O O15 0.500000 0.500000 0.000000
O O16 0.500000 0.000000 0.500000
O O17 0.286607 0.687005 0.480565
O O18 0.380973 0.257183 0.772929
#
# Coordination Sequence:
#
# PCOD9049978 Si02
#       8
#     2   2   2   2   2   2   2   2
#     4  12  26  48  71 105 150 193 242 301 371 437
#     4  11  24  45  75 106 139 195 247 298 370 437
#     4  11  27  45  70 105 141 185 249 306 362 435
#     4  12  25  46  75 105 149 193 245 297 365 450
#     4  12  26  46  68 112 147 193 240 300 379 440
#     4  12  27  44  73 106 148 194 243 298 369 439
#     4  10  25  45  73 103 150 186 248 305 364 447
#     4  10  24  48  71 104 140 196 249 301 371 428
#
# _framework density 23.121537
#
# number of rings (size 3 to 8) (size 9 to 14) (size 15 to 20)
#    0.000    0.750    3.750    2.250    3.500    3.500 
#    0.000    0.000    0.000    0.000    0.000    0.000 
#    0.000    0.000    0.000    0.000    0.000    0.000 
#
# Total GULP energy -89245.242236 kJ/mol
# GULP energy per Si atom -5577.827640 kJ/mol
# Density = 2.306891 g / cm^3
# Si number density = 23.121537 Si / 1000 Ang^3
#
#
#
# Elastic Constant Matrix: (Units=GPa)
#
#
# Indices 1 2 3 4 5 6 
#
# 1 126.4576 15.2579 31.2093 9.7908 2.3985 -5.3730
# 2 15.2579 50.1664 14.8968 -5.6751 1.1748 -8.4364
# 3 31.2093 14.8968 105.4580 -4.4598 9.1693 -5.1861
# 4 9.7908 -5.6751 -4.4598 22.4116 6.8878 0.1523
# 5 2.3985 1.1748 9.1693 6.8878 43.2953 3.1144
# 6 -5.3730 -8.4364 -5.1861 0.1523 3.1144 31.4040
#
#
#
# Elastic Compliance Matrix: (Units=1/GPa)
#
#
# Indices 1 2 3 4 5 6 
#
# 1 0.009317 -0.002626 -0.002689 -0.005576 0.000985 0.000374
# 2 -0.002626 0.023034 -0.001760 0.007095 -0.001637 0.005576
# 3 -0.002689 -0.001760 0.010987 0.003772 -0.002812 0.001142
# 4 -0.005576 0.007095 0.003772 0.052409 -0.009181 0.002231
# 5 0.000985 -0.001637 -0.002812 -0.009181 0.025374 -0.003207
# 6 0.000374 0.005576 0.001142 0.002231 -0.003207 0.033901
#
#
# Mechanical properties :
#
#
# Convention : Reuss Voigt Hill
#
# Bulk Modulus (GPa) = 34.26184 44.97888 39.62036
# Shear Modulus (GPa) = 27.94819 34.13669 31.04244
#
# Velocity S-wave (km/s) = 3.48048 3.84657 3.66809
# Velocity P-wave (km/s) = 5.56794 6.26287 5.92560
#
# Compressibility (1/GPa) = 0.02918699
#
# Stress axis : x y z
#
# Youngs Moduli (GPa) = 107.32713 43.41479 91.01490
#
# Poissons Ratio (x) = 0.11401 0.24478
# Poissons Ratio (y) = 0.28186 0.16018
# Poissons Ratio (z) = 0.28865 0.07641
#
# Static dielectric constant tensor:
#      x y z
#    x 1.905930 0.053020 0.078800 
#    y 0.053020 1.904540 -0.017370 
#    z 0.078800 -0.017370 1.915890 
# 
# From -- ./inp_files/591164.got.cif
#   From: 2010.05.17/outbox.cif.g08.bks.cpg/sg2_296_cif.got.tgz:591164.got - 2010.06.03 11:33:40.
