data_PCOD9049734
_publ_section_title
;
Structure prediction by ZEFSAII (Michael W. Deem and Ramdas Pophale) SiO2 
 PCOD9049734
Probable space group: P -1
;
_chemical_formula_sum "Si O2"
_cell_formula_units_Z 14
_cell_length_a 9.717015
_cell_length_b 9.216221
_cell_length_c 14.745171
_cell_angle_alpha 88.512521
_cell_angle_beta 149.804143
_cell_angle_gamma 73.522015
_cell_volume 526.723562
_symmetry_space_group_name_H-M "P -1"
_symmetry_group_IT_number 2
_symmetry_cell_setting 'triclinic'
loop_
_space_group_symop_operation_xyz
x,y,z
-x,-y,-z
loop_
_atom_site_type_symbol
_atom_site_label
_atom_site_fract_x
_atom_site_fract_y
_atom_site_fract_z
Si Si1 0.337806 0.601916 0.586606
Si Si2 0.760208 0.204221 0.905260
Si Si3 0.553599 0.006361 0.873380
Si Si4 0.717191 0.664682 0.904120
Si Si5 0.834132 0.492417 0.662416
Si Si6 0.014707 0.051434 0.706309
Si Si7 0.872635 0.811890 0.703275
O O1 0.602549 0.378531 0.747392
O O2 0.392121 0.661130 0.712521
O O3 0.045672 0.617593 0.361579
O O4 0.346703 0.754011 0.531179
O O5 0.467945 0.190106 0.778999
O O6 0.931799 0.231347 0.088387
O O7 0.000000 0.000000 0.000000
O O8 0.629651 0.862648 0.840876
O O9 0.262695 0.028693 0.769245
O O10 0.863837 0.937069 0.124037
O O11 0.000000 0.500000 0.000000
O O12 0.887852 0.611942 0.099694
O O13 0.500000 0.500000 0.500000
O O14 0.809141 0.671718 0.634529
O O15 0.038897 0.870981 0.726659
O O16 0.500000 0.000000 0.500000
#
# Coordination Sequence:
#
# PCOD9049734 Si02
#       7
#     2   2   2   2   2   2   2
#     4  12  24  41  71 102 143 184 239 292 357 426
#     4  11  24  42  68 112 143 181 240 306 356 424
#     4  10  24  47  73 100 150 192 241 294 361 432
#     4  12  24  41  71 107 139 183 239 293 363 423
#     4  12  24  41  67 106 142 186 228 299 364 421
#     4  10  24  48  72 102 142 202 240 289 362 433
#     4  11  24  42  68 103 146 186 241 296 361 428
#
# _framework density 26.579405999999999
#
# number of rings (size 3 to 8) (size 9 to 14) (size 15 to 20)
#    0.000    0.857    4.286    2.571    2.000    2.286 
#    0.000    2.143    0.000    0.000    0.000    0.000 
#    0.000    0.000    0.000    0.000    0.000    0.000 
#
# Total GULP energy -78068.223021 kJ/mol
# GULP energy per Si atom -5576.301644 kJ/mol
# Density = 2.651891 g / cm^3
# Si number density = 26.579406 Si / 1000 Ang^3
#
#
#
# Elastic Constant Matrix: (Units=GPa)
#
#
# Indices 1 2 3 4 5 6 
#
# 1 97.8369 52.3633 14.9996 4.0204 -7.5818 18.0141
# 2 52.3633 252.9117 64.1407 30.0385 -15.8676 26.3329
# 3 14.9996 64.1407 128.0511 17.9839 -23.1486 10.3647
# 4 4.0204 30.0385 17.9839 65.7445 4.9654 -10.1354
# 5 -7.5818 -15.8676 -23.1486 4.9654 21.2813 -1.6111
# 6 18.0141 26.3329 10.3647 -10.1354 -1.6111 43.5290
#
#
#
# Elastic Compliance Matrix: (Units=1/GPa)
#
#
# Indices 1 2 3 4 5 6 
#
# 1 0.012229 -0.001930 0.000638 -0.000943 0.003518 -0.004134
# 2 -0.001930 0.005452 -0.001568 -0.002505 0.002057 -0.002633
# 3 0.000638 -0.001568 0.011454 -0.003758 0.012208 -0.002466
# 4 -0.000943 -0.002505 -0.003758 0.019282 -0.010268 0.006910
# 5 0.003518 0.002057 0.012208 -0.010268 0.065028 -0.005591
# 6 -0.004134 -0.002633 -0.002466 0.006910 -0.005591 0.028266
#
#
# Mechanical properties :
#
#
# Convention : Reuss Voigt Hill
#
# Bulk Modulus (GPa) = 42.70961 82.42301 62.56631
# Shear Modulus (GPa) = 32.20870 49.26403 40.73636
#
# Velocity S-wave (km/s) = 3.48486 4.30986 3.91913
# Velocity P-wave (km/s) = 5.68295 7.47288 6.63852
#
# Compressibility (1/GPa) = 0.02341393
#
# Stress axis : x y z
#
# Youngs Moduli (GPa) = 81.77186 183.41666 87.30347
#
# Poissons Ratio (x) = 0.35407 -0.05566
# Poissons Ratio (y) = 0.15785 0.13689
# Poissons Ratio (z) = -0.05213 0.28759
#
# Static dielectric constant tensor:
#      x y z
#    x 2.425150 0.012130 0.128030 
#    y 0.012130 2.318470 -0.032720 
#    z 0.128030 -0.032720 2.232370 
# 
# From -- ./inp_files/599114.got.cif
#   From: 2010.05.17/outbox.cif.g08.bks.cpg/sg2_300_cif.got.tgz:599114.got - 2010.06.03 11:33:40.
