data_PCOD9049272
_publ_section_title
;
Structure prediction by ZEFSAII (Michael W. Deem and Ramdas Pophale) SiO2 
 PCOD9049272
Probable space group: P -1
;
_chemical_formula_sum "Si O2"
_cell_formula_units_Z 16
_cell_length_a 20.388139
_cell_length_b 5.461501
_cell_length_c 11.187084
_cell_angle_alpha 113.792701
_cell_angle_beta 36.397660
_cell_angle_gamma 118.576553
_cell_volume 648.717397
_symmetry_space_group_name_H-M "P -1"
_symmetry_group_IT_number 2
_symmetry_cell_setting 'triclinic'
loop_
_space_group_symop_operation_xyz
x,y,z
-x,-y,-z
loop_
_atom_site_type_symbol
_atom_site_label
_atom_site_fract_x
_atom_site_fract_y
_atom_site_fract_z
Si Si1 0.387067 0.522547 0.742399
Si Si2 0.151452 0.188681 0.931327
Si Si3 0.015058 0.873714 0.275208
Si Si4 0.894264 0.251075 0.651638
Si Si5 0.536008 0.874866 0.299191
Si Si6 0.389927 0.503413 0.242247
Si Si7 0.925298 0.299414 0.208529
Si Si8 0.255412 0.858162 0.357053
O O1 0.500000 0.500000 0.500000
O O2 0.383198 0.317260 0.819337
O O3 0.405393 0.846389 0.806103
O O4 0.275639 0.401091 0.800328
O O5 0.055045 0.273930 0.012617
O O6 0.097323 0.120482 0.128356
O O7 0.151952 0.890624 0.816219
O O8 0.943757 0.627842 0.246258
O O9 0.096064 0.756250 0.221944
O O10 0.923573 0.970240 0.508294
O O11 0.782938 0.258192 0.742174
O O12 0.000000 0.500000 0.500000
O O13 0.433097 0.680456 0.334313
O O14 0.500000 0.000000 0.500000
O O15 0.319906 0.670538 0.298745
O O16 0.323612 0.184126 0.310555
O O17 0.500000 0.500000 0.000000
O O18 0.862427 0.183348 0.402267
#
# Coordination Sequence:
#
# PCOD9049272 Si02
#       8
#     2   2   2   2   2   2   2   2
#     4  10  24  46  71 108 140 200 246 305 374 444
#     4  11  25  43  71 109 156 188 253 312 370 463
#     4  11  22  44  66 105 153 194 247 309 376 450
#     4  11  23  44  71 102 148 193 251 303 378 460
#     4  10  24  48  75 104 143 193 255 309 379 440
#     4  12  29  52  75 112 151 197 267 322 372 460
#     4  11  25  44  70 112 150 199 244 306 388 456
#     4  12  26  48  80 106 147 209 248 310 396 450
#
# _framework density 24.664052000000002
#
# number of rings (size 3 to 8) (size 9 to 14) (size 15 to 20)
#    0.000    1.000    2.500    2.250   10.500    1.000 
#    4.500    0.000    0.000    0.000    0.000    0.000 
#    0.000    0.000    0.000    0.000    0.000    0.000 
#
# Total GULP energy -89548.979020 kJ/mol
# GULP energy per Si atom -5596.811189 kJ/mol
# Density = 2.460792 g / cm^3
# Si number density = 24.664052 Si / 1000 Ang^3
#
#
#
# Elastic Constant Matrix: (Units=GPa)
#
#
# Indices 1 2 3 4 5 6 
#
# 1 136.4631 47.2044 20.8218 3.3291 -11.2462 -4.3170
# 2 47.2044 165.4882 20.5985 -12.6936 -20.7064 -6.4828
# 3 20.8218 20.5985 83.4530 -13.8697 -6.4549 3.3695
# 4 3.3291 -12.6936 -13.8697 35.9602 3.4318 -0.3766
# 5 -11.2462 -20.7064 -6.4549 3.4318 37.4442 -2.6440
# 6 -4.3170 -6.4828 3.3695 -0.3766 -2.6440 49.4537
#
#
#
# Elastic Compliance Matrix: (Units=1/GPa)
#
#
# Indices 1 2 3 4 5 6 
#
# 1 0.008570 -0.002205 -0.001924 -0.002430 0.001291 0.000641
# 2 -0.002205 0.007364 -0.000691 0.002247 0.003156 0.001006
# 3 -0.001924 -0.000691 0.013587 0.005083 0.000839 -0.001101
# 4 -0.002430 0.002247 0.005083 0.030925 -0.001453 -0.000106
# 5 0.001291 0.003156 0.000839 -0.001453 0.029260 0.002023
# 6 0.000641 0.001006 -0.001101 -0.000106 0.002023 0.020591
#
#
# Mechanical properties :
#
#
# Convention : Reuss Voigt Hill
#
# Bulk Modulus (GPa) = 50.29462 62.51708 56.40585
# Shear Modulus (GPa) = 39.50552 44.35692 41.93122
#
# Velocity S-wave (km/s) = 4.00652 4.24541 4.12769
# Velocity P-wave (km/s) = 6.46832 7.03092 6.75548
#
# Compressibility (1/GPa) = 0.01988284
#
# Stress axis : x y z
#
# Youngs Moduli (GPa) = 116.68329 135.79085 73.59713
#
# Poissons Ratio (x) = 0.29940 0.14160
# Poissons Ratio (y) = 0.25727 0.05083
# Poissons Ratio (z) = 0.22450 0.09379
#
# Static dielectric constant tensor:
#      x y z
#    x 1.979630 -0.025560 -0.009510 
#    y -0.025560 1.970370 0.064810 
#    z -0.009510 0.064810 1.999630 
# 
# From -- ./inp_files/468461.got.cif
#   From: 2010.05.17/outbox.cif.g08.bks.cpg/sg2_235_cif.got.tgz:468461.got - 2010.06.03 11:33:40.
