data_PCOD9049578
_publ_section_title
;
Structure prediction by ZEFSAII (Michael W. Deem and Ramdas Pophale) SiO2 
 PCOD9049578
Probable space group: P -1
;
_chemical_formula_sum "Si O2"
_cell_formula_units_Z 16
_cell_length_a 20.077243
_cell_length_b 6.532890
_cell_length_c 8.756033
_cell_angle_alpha 78.540837
_cell_angle_beta 62.922155
_cell_angle_gamma 46.913171
_cell_volume 735.591580
_symmetry_space_group_name_H-M "P -1"
_symmetry_group_IT_number 2
_symmetry_cell_setting 'triclinic'
loop_
_space_group_symop_operation_xyz
x,y,z
-x,-y,-z
loop_
_atom_site_type_symbol
_atom_site_label
_atom_site_fract_x
_atom_site_fract_y
_atom_site_fract_z
Si Si1 0.727226 0.655438 0.354279
Si Si2 0.588680 0.252114 0.557669
Si Si3 0.860445 0.202184 0.717857
Si Si4 0.545136 0.690828 0.046379
Si Si5 0.687257 0.370329 0.668013
Si Si6 0.948229 0.439720 0.446177
Si Si7 0.743286 0.336565 0.101955
Si Si8 0.887305 0.689152 0.161948
O O1 0.707264 0.555246 0.539943
O O2 0.707545 0.544410 0.248730
O O3 0.836523 0.555270 0.221551
O O4 0.651463 0.987375 0.416995
O O5 0.500000 0.500000 0.500000
O O6 0.538974 0.241443 0.761138
O O7 0.665976 0.264267 0.560254
O O8 0.786139 0.185317 0.702949
O O9 0.873864 0.406571 0.600784
O O10 0.816573 0.322032 0.913225
O O11 0.965569 0.876477 0.667247
O O12 0.644266 0.485396 0.081032
O O13 0.590085 0.526502 0.860167
O O14 0.500000 0.000000 0.000000
O O15 0.899567 0.677862 0.333043
O O16 0.000000 0.500000 0.500000
O O17 0.809232 0.009876 0.131279
O O18 0.000000 0.500000 0.000000
#
# Coordination Sequence:
#
# PCOD9049578 Si02
#       8
#     2   2   2   2   2   2   2   2
#     4  12  26  45  72 103 145 187 239 298 365 426
#     4  12  27  47  75 108 141 191 245 299 369 436
#     4  10  24  47  66 107 142 189 239 294 361 429
#     4  11  24  49  73 107 145 189 242 299 369 427
#     4  11  24  45  73 101 148 186 238 297 355 435
#     4  11  25  43  75 101 142 188 244 293 362 427
#     4  11  27  46  71 105 145 189 241 299 360 436
#     4  12  26  48  70 108 142 191 241 293 364 431
#
# _framework density 21.751200999999998
#
# number of rings (size 3 to 8) (size 9 to 14) (size 15 to 20)
#    0.000    0.750    3.750    2.625    7.000    1.500 
#    4.500    0.000    0.000    0.000    0.000    0.000 
#    0.000    0.000    0.000    0.000    0.000    0.000 
#
# Total GULP energy -89159.748138 kJ/mol
# GULP energy per Si atom -5572.484259 kJ/mol
# Density = 2.170169 g / cm^3
# Si number density = 21.751201 Si / 1000 Ang^3
#
#
#
# Elastic Constant Matrix: (Units=GPa)
#
#
# Indices 1 2 3 4 5 6 
#
# 1 75.3779 43.8269 37.8882 -10.3115 9.2792 0.4068
# 2 43.8269 99.1021 48.1330 -6.1317 1.2351 -16.8391
# 3 37.8882 48.1330 148.6462 -3.0042 -14.0609 4.3869
# 4 -10.3115 -6.1317 -3.0042 37.9412 5.0219 6.8016
# 5 9.2792 1.2351 -14.0609 5.0219 49.9355 -3.0785
# 6 0.4068 -16.8391 4.3869 6.8016 -3.0785 24.1230
#
#
#
# Elastic Compliance Matrix: (Units=1/GPa)
#
#
# Indices 1 2 3 4 5 6 
#
# 1 0.021692 -0.009361 -0.002644 0.006549 -0.005757 -0.009000
# 2 -0.009361 0.018465 -0.003954 -0.002685 0.001346 0.014695
# 3 -0.002644 -0.003954 0.009068 -0.000330 0.002935 -0.003897
# 4 0.006549 -0.002685 -0.000330 0.030327 -0.004978 -0.011111
# 5 -0.005757 0.001346 0.002935 -0.004978 0.022686 0.004801
# 6 -0.009000 0.014695 -0.003897 -0.011111 0.004801 0.056318
#
#
# Mechanical properties :
#
#
# Convention : Reuss Voigt Hill
#
# Bulk Modulus (GPa) = 57.78409 64.75805 61.27107
# Shear Modulus (GPa) = 25.47884 35.28513 30.38198
#
# Velocity S-wave (km/s) = 3.42625 4.03204 3.74143
# Velocity P-wave (km/s) = 6.50199 7.17728 6.84796
#
# Compressibility (1/GPa) = 0.01730580
#
# Stress axis : x y z
#
# Youngs Moduli (GPa) = 46.10090 54.15749 110.28186
#
# Poissons Ratio (x) = 0.50696 0.29163
# Poissons Ratio (y) = 0.43155 0.43602
# Poissons Ratio (z) = 0.12191 0.21412
#
# Static dielectric constant tensor:
#      x y z
#    x 5.888900 -4.970430 -1.981360 
#    y -4.970430 7.977410 2.415610 
#    z -1.981360 2.415610 2.785160 
# 
# From -- ./inp_files/329684.got.cif
#   From: 2010.05.17/outbox.cif.g08.bks.cpg/sg2_165_cif.got.tgz:329684.got - 2010.06.03 11:33:40.
