data_PCOD9049262
_publ_section_title
;
Structure prediction by ZEFSAII (Michael W. Deem and Ramdas Pophale) SiO2 
 PCOD9049262
Probable space group: P -1
;
_chemical_formula_sum "Si O2"
_cell_formula_units_Z 14
_cell_length_a 11.199587
_cell_length_b 6.049273
_cell_length_c 11.783524
_cell_angle_alpha 67.994111
_cell_angle_beta 114.377623
_cell_angle_gamma 79.776114
_cell_volume 619.837727
_symmetry_space_group_name_H-M "P -1"
_symmetry_group_IT_number 2
_symmetry_cell_setting 'triclinic'
loop_
_space_group_symop_operation_xyz
x,y,z
-x,-y,-z
loop_
_atom_site_type_symbol
_atom_site_label
_atom_site_fract_x
_atom_site_fract_y
_atom_site_fract_z
Si Si1 0.232433 0.346012 0.568069
Si Si2 0.423705 0.312542 0.443000
Si Si3 0.665362 0.364951 0.881414
Si Si4 0.410175 0.281724 0.863070
Si Si5 0.139005 0.578841 0.853912
Si Si6 0.088054 0.120299 0.936091
Si Si7 0.977191 0.870809 0.360185
O O1 0.295882 0.323102 0.473035
O O2 0.365408 0.263589 0.720414
O O3 0.140594 0.181826 0.600914
O O4 0.127842 0.645729 0.489214
O O5 0.500000 0.500000 0.500000
O O6 0.364028 0.460681 0.273891
O O7 0.500000 0.000000 0.500000
O O8 0.516328 0.428956 0.873980
O O9 0.778571 0.381764 0.012185
O O10 0.745531 0.059707 0.939872
O O11 0.265452 0.418985 0.848482
O O12 0.500000 0.000000 0.000000
O O13 0.053644 0.414550 0.896143
O O14 0.040972 0.833949 0.698406
O O15 0.055044 0.144501 0.783763
O O16 0.000000 0.000000 0.000000
#
# Coordination Sequence:
#
# PCOD9049262 Si02
#       7
#     2   2   2   2   2   2   2
#     4  11  24  48  72 103 153 192 254 312 374 457
#     4  12  29  49  73 110 156 204 248 311 384 456
#     4  11  25  43  70 106 145 191 247 304 383 447
#     4  12  22  42  74 103 148 188 246 313 375 451
#     4  11  24  43  76 106 139 195 248 316 379 452
#     4  11  23  46  70 103 144 187 248 312 377 450
#     4  10  24  46  71 106 138 197 251 308 377 445
#
# _framework density 22.586556999999999
#
# number of rings (size 3 to 8) (size 9 to 14) (size 15 to 20)
#    0.000    0.857    4.286    2.143    6.000    2.857 
#    5.143    0.000    0.000    0.000    0.000    0.000 
#    0.000    0.000    0.000    0.000    0.000    0.000 
#
# Total GULP energy -78152.939864 kJ/mol
# GULP energy per Si atom -5582.352847 kJ/mol
# Density = 2.253515 g / cm^3
# Si number density = 22.586557 Si / 1000 Ang^3
#
#
#
# Elastic Constant Matrix: (Units=GPa)
#
#
# Indices 1 2 3 4 5 6 
#
# 1 124.4874 29.2229 33.2101 -14.3370 -36.3343 6.0602
# 2 29.2229 72.9944 31.1105 -26.4322 -14.9199 8.0205
# 3 33.2101 31.1105 151.8363 -24.7213 -21.0202 7.7159
# 4 -14.3370 -26.4322 -24.7213 47.8140 -0.0011 -4.5610
# 5 -36.3343 -14.9199 -21.0202 -0.0011 44.2163 -1.9086
# 6 6.0602 8.0205 7.7159 -4.5610 -1.9086 26.6032
#
#
#
# Elastic Compliance Matrix: (Units=1/GPa)
#
#
# Indices 1 2 3 4 5 6 
#
# 1 0.011330 -0.001722 -0.000578 0.002057 0.008414 -0.000938
# 2 -0.001722 0.019590 -0.001347 0.009311 0.004417 -0.003210
# 3 -0.000578 -0.001347 0.007930 0.003084 0.002796 -0.001033
# 4 0.002057 0.009311 0.003084 0.028383 0.006349 0.001151
# 5 0.008414 0.004417 0.002796 0.006349 0.032322 -0.000652
# 6 -0.000938 -0.003210 -0.001033 0.001151 -0.000652 0.039221
#
#
# Mechanical properties :
#
#
# Convention : Reuss Voigt Hill
#
# Bulk Modulus (GPa) = 31.68832 59.60058 45.64445
# Shear Modulus (GPa) = 31.93105 40.77834 36.35469
#
# Velocity S-wave (km/s) = 3.76402 4.25364 4.01630
# Velocity P-wave (km/s) = 5.74027 7.11122 6.46221
#
# Compressibility (1/GPa) = 0.03155736
#
# Stress axis : x y z
#
# Youngs Moduli (GPa) = 88.26411 51.04619 126.10255
#
# Poissons Ratio (x) = 0.08788 0.07287
# Poissons Ratio (y) = 0.15196 0.16983
# Poissons Ratio (z) = 0.05100 0.06875
#
# Static dielectric constant tensor:
#      x y z
#    x 1.851580 -0.017540 -0.002080 
#    y -0.017540 2.111450 0.017680 
#    z -0.002080 0.017680 1.770820 
# 
# From -- ./inp_files/69147.got.cif
#   From: 2010.05.17/outbox.cif.g08.bks.cpg/sg2_35_cif.got.tgz:69147.got - 2010.06.03 11:33:40.
