data_PCOD9049021
_publ_section_title
;
Structure prediction by ZEFSAII (Michael W. Deem and Ramdas Pophale) SiO2 
 PCOD9049021
Probable space group: P -1
;
_chemical_formula_sum "Si O2"
_cell_formula_units_Z 14
_cell_length_a 9.199634
_cell_length_b 7.739376
_cell_length_c 13.185242
_cell_angle_alpha 92.147169
_cell_angle_beta 74.896219
_cell_angle_gamma 131.425104
_cell_volume 667.691574
_symmetry_space_group_name_H-M "P -1"
_symmetry_group_IT_number 2
_symmetry_cell_setting 'triclinic'
loop_
_space_group_symop_operation_xyz
x,y,z
-x,-y,-z
loop_
_atom_site_type_symbol
_atom_site_label
_atom_site_fract_x
_atom_site_fract_y
_atom_site_fract_z
Si Si1 0.904845 0.955569 0.708134
Si Si2 0.235896 0.687432 0.433015
Si Si3 0.426097 0.649188 0.775752
Si Si4 0.761142 0.994346 0.428743
Si Si5 0.266115 0.421157 0.579247
Si Si6 0.582049 0.959990 0.242902
Si Si7 0.147648 0.135876 0.881502
O O1 0.995503 0.859999 0.627744
O O2 0.019574 0.208128 0.640122
O O3 0.009376 0.025940 0.801676
O O4 0.663984 0.786910 0.750362
O O5 0.313286 0.593304 0.488365
O O6 0.000000 0.500000 0.500000
O O7 0.298891 0.923357 0.470321
O O8 0.341676 0.746232 0.306645
O O9 0.361890 0.550310 0.670955
O O10 0.391151 0.826543 0.799027
O O11 0.279256 0.414181 0.864558
O O12 0.684492 0.740186 0.456381
O O13 0.685381 0.017454 0.337197
O O14 0.690190 0.895458 0.157155
O O15 0.000000 0.000000 0.000000
#
# Coordination Sequence:
#
# PCOD9049021 Si02
#       7
#     2   2   2   2   2   2   2
#     4   8  20  41  60  95 123 157 209 245 300 376
#     4  12  24  35  60  94 132 169 204 249 298 364
#     4  11  20  40  68  86 127 160 201 265 306 356
#     4   9  21  39  54  88 127 164 210 239 290 375
#     4   9  21  38  58  87 131 170 198 247 300 354
#     4  11  23  39  61  92 120 166 212 242 307 372
#     4  10  24  46  66  89 121 160 206 262 319 362
#
# _framework density 20.967763999999999
#
# number of rings (size 3 to 8) (size 9 to 14) (size 15 to 20)
#    0.857    1.143    2.857    1.286    2.000    3.429 
#    0.000    0.714    0.000    0.000    0.000    0.000 
#    0.000    0.000    0.000    0.000    0.000    0.000 
#
# Total GULP energy -78154.013604 kJ/mol
# GULP energy per Si atom -5582.429543 kJ/mol
# Density = 2.092004 g / cm^3
# Si number density = 20.967764 Si / 1000 Ang^3
#
#
#
# Elastic Constant Matrix: (Units=GPa)
#
#
# Indices 1 2 3 4 5 6 
#
# 1 131.4877 54.5568 48.4757 -23.9838 -17.2652 -22.5040
# 2 54.5568 89.0423 46.5403 -35.5932 -6.1172 -18.8621
# 3 48.4757 46.5403 138.0899 -31.6707 -16.6140 -23.8104
# 4 -23.9838 -35.5932 -31.6707 33.8642 0.2165 0.5424
# 5 -17.2652 -6.1172 -16.6140 0.2165 24.3029 -6.6333
# 6 -22.5040 -18.8621 -23.8104 0.5424 -6.6333 43.9604
#
#
#
# Elastic Compliance Matrix: (Units=1/GPa)
#
#
# Indices 1 2 3 4 5 6 
#
# 1 0.012269 -0.003743 0.000311 0.004884 0.009645 0.006238
# 2 -0.003743 0.025761 0.001103 0.025242 0.007223 0.010513
# 3 0.000311 0.001103 0.012714 0.013050 0.011558 0.009101
# 4 0.004884 0.025242 0.013050 0.071196 0.024445 0.023209
# 5 0.009645 0.007223 0.011558 0.024445 0.063955 0.023645
# 6 0.006238 0.010513 0.009101 0.023209 0.023645 0.038663
#
#
# Mechanical properties :
#
#
# Convention : Reuss Voigt Hill
#
# Bulk Modulus (GPa) = 21.69951 73.08505 47.39228
# Shear Modulus (GPa) = 20.44340 34.36196 27.40268
#
# Velocity S-wave (km/s) = 3.12587 4.05260 3.61902
# Velocity P-wave (km/s) = 4.83731 7.53855 6.33361
#
# Compressibility (1/GPa) = 0.04608400
#
# Stress axis : x y z
#
# Youngs Moduli (GPa) = 81.50751 38.81833 78.65566
#
# Poissons Ratio (x) = 0.14531 -0.02445
# Poissons Ratio (y) = 0.30512 -0.08674
# Poissons Ratio (z) = -0.02534 -0.04281
#
# Static dielectric constant tensor:
#      x y z
#    x 1.848930 0.083300 -0.057630 
#    y 0.083300 1.860990 -0.067160 
#    z -0.057630 -0.067160 1.754260 
# 
# From -- ./inp_files/188846.got.cif
#   From: 2010.05.17/outbox.cif.g08.bks.cpg/sg2_95_cif.got.tgz:188846.got - 2010.06.03 11:33:40.
