data_PCOD9049917
_publ_section_title
;
Structure prediction by ZEFSAII (Michael W. Deem and Ramdas Pophale) SiO2 
 PCOD9049917
Probable space group: P -1
;
_chemical_formula_sum "Si O2"
_cell_formula_units_Z 16
_cell_length_a 8.228581
_cell_length_b 12.878233
_cell_length_c 16.251610
_cell_angle_alpha 46.163614
_cell_angle_beta 111.780282
_cell_angle_gamma 75.266442
_cell_volume 745.184401
_symmetry_space_group_name_H-M "P -1"
_symmetry_group_IT_number 2
_symmetry_cell_setting 'triclinic'
loop_
_space_group_symop_operation_xyz
x,y,z
-x,-y,-z
loop_
_atom_site_type_symbol
_atom_site_label
_atom_site_fract_x
_atom_site_fract_y
_atom_site_fract_z
Si Si1 0.751865 0.219240 0.885566
Si Si2 0.480621 0.340395 0.082739
Si Si3 0.458994 0.622554 0.505334
Si Si4 0.098167 0.915921 0.825324
Si Si5 0.905610 0.769400 0.759570
Si Si6 0.669187 0.993432 0.420312
Si Si7 0.761128 0.706049 0.456149
Si Si8 0.658095 0.784686 0.204433
O O1 0.651985 0.434604 0.714031
O O2 0.507936 0.259786 0.806721
O O3 0.836638 0.169585 0.023071
O O4 0.000000 0.000000 0.000000
O O5 0.631645 0.198491 0.106053
O O6 0.641766 0.169151 0.281977
O O7 0.500000 0.500000 0.000000
O O8 0.164375 0.502884 0.943423
O O9 0.500000 0.500000 0.500000
O O10 0.539686 0.732719 0.434465
O O11 0.146387 0.816890 0.366475
O O12 0.990231 0.845855 0.793363
O O13 0.633244 0.867932 0.687423
O O14 0.844353 0.870347 0.602378
O O15 0.777425 0.823104 0.461192
O O16 0.682847 0.806464 0.294277
O O17 0.039782 0.440399 0.646838
O O18 0.500000 0.000000 0.000000
#
# Coordination Sequence:
#
# PCOD9049917 Si02
#       8
#     2   2   2   2   2   2   2   2
#     4  12  25  42  69  97 133 184 224 273 334 400
#     4  10  25  44  69  99 134 171 229 278 337 404
#     4  12  23  44  68  93 139 180 229 272 329 407
#     4  11  25  42  67 103 133 178 224 276 341 397
#     4  10  24  48  68 100 130 177 229 277 343 403
#     4  11  24  44  74  96 138 176 223 283 345 403
#     4  11  25  44  67 103 135 182 224 281 341 401
#     4  11  26  42  67  99 143 177 228 275 339 405
#
# _framework density 21.471195999999999
#
# number of rings (size 3 to 8) (size 9 to 14) (size 15 to 20)
#    0.000    1.000    3.750    1.125    5.250    4.000 
#    2.250    0.000    0.000    0.000    0.000    0.000 
#    0.000    0.000    0.000    0.000    0.000    0.000 
#
# Total GULP energy -89494.580395 kJ/mol
# GULP energy per Si atom -5593.411275 kJ/mol
# Density = 2.142233 g / cm^3
# Si number density = 21.471196 Si / 1000 Ang^3
#
#
#
# Elastic Constant Matrix: (Units=GPa)
#
#
# Indices 1 2 3 4 5 6 
#
# 1 35.9667 28.8587 9.1731 -1.7799 -2.1414 -9.7950
# 2 28.8587 133.2115 64.7096 16.8935 1.5035 -23.4173
# 3 9.1731 64.7096 147.0216 11.1603 -15.9616 -30.2356
# 4 -1.7799 16.8935 11.1603 44.5660 -9.0167 5.0248
# 5 -2.1414 1.5035 -15.9616 -9.0167 45.3378 -3.0892
# 6 -9.7950 -23.4173 -30.2356 5.0248 -3.0892 37.9566
#
#
#
# Elastic Compliance Matrix: (Units=1/GPa)
#
#
# Indices 1 2 3 4 5 6 
#
# 1 0.036253 -0.008838 0.003035 0.004225 0.004331 0.006113
# 2 -0.008838 0.012700 -0.004537 -0.004954 -0.003262 0.002331
# 3 0.003035 -0.004537 0.010534 -0.000690 0.004330 0.006819
# 4 0.004225 -0.004954 -0.000690 0.026294 0.004969 -0.005592
# 5 0.004331 -0.003262 0.004330 0.004969 0.025151 0.003943
# 6 0.006113 0.002331 0.006819 -0.005592 0.003943 0.035854
#
#
# Mechanical properties :
#
#
# Convention : Reuss Voigt Hill
#
# Bulk Modulus (GPa) = 25.76915 57.96473 41.86694
# Shear Modulus (GPa) = 27.71583 39.80265 33.75924
#
# Velocity S-wave (km/s) = 3.59672 4.31021 3.96953
# Velocity P-wave (km/s) = 5.41076 7.19901 6.36797
#
# Compressibility (1/GPa) = 0.03880610
#
# Stress axis : x y z
#
# Youngs Moduli (GPa) = 27.58423 78.73829 94.92920
#
# Poissons Ratio (x) = 0.69588 -0.28807
# Poissons Ratio (y) = 0.24378 0.43072
# Poissons Ratio (z) = -0.08371 0.35726
#
# Static dielectric constant tensor:
#      x y z
#    x 1.806870 -0.023100 0.020720 
#    y -0.023100 1.751090 -0.035750 
#    z 0.020720 -0.035750 1.780490 
# 
# From -- ./inp_files/90350.got.cif
#   From: 2010.05.17/outbox.cif.g08.bks.cpg/sg2_46_cif.got.tgz:90350.got - 2010.06.03 11:33:40.
