data_PCOD9049997
_publ_section_title
;
Structure prediction by ZEFSAII (Michael W. Deem and Ramdas Pophale) SiO2 
 PCOD9049997
Probable space group: P -1
;
_chemical_formula_sum "Si O2"
_cell_formula_units_Z 14
_cell_length_a 6.278330
_cell_length_b 15.057489
_cell_length_c 10.414033
_cell_angle_alpha 135.495659
_cell_angle_beta 64.263936
_cell_angle_gamma 92.849108
_cell_volume 566.505191
_symmetry_space_group_name_H-M "P -1"
_symmetry_group_IT_number 2
_symmetry_cell_setting 'triclinic'
loop_
_space_group_symop_operation_xyz
x,y,z
-x,-y,-z
loop_
_atom_site_type_symbol
_atom_site_label
_atom_site_fract_x
_atom_site_fract_y
_atom_site_fract_z
Si Si1 0.093499 0.899258 0.751700
Si Si2 0.508034 0.413563 0.238755
Si Si3 0.839468 0.861372 0.545905
Si Si4 0.168239 0.688348 0.711568
Si Si5 0.660396 0.906366 0.190057
Si Si6 0.723346 0.600409 0.233374
Si Si7 0.438557 0.737332 0.199541
O O1 0.245290 0.755146 0.636282
O O2 0.876568 0.879663 0.705458
O O3 0.225278 0.976928 0.708208
O O4 0.000000 0.000000 0.000000
O O5 0.248178 0.528539 0.488401
O O6 0.669099 0.309356 0.201578
O O7 0.668736 0.504580 0.253474
O O8 0.485500 0.345793 0.040646
O O9 0.753389 0.736857 0.416438
O O10 0.126185 0.816214 0.363704
O O11 0.622216 0.006879 0.705944
O O12 0.870074 0.784439 0.922648
O O13 0.603075 0.832208 0.251309
O O14 0.525057 0.644650 0.209350
O O15 0.000000 0.500000 0.000000
#
# Coordination Sequence:
#
# PCOD9049997 Si02
#       7
#     2   2   2   2   2   2   2
#     4  10  25  49  73 105 148 186 245 299 360 433
#     4  11  24  48  75 105 151 190 245 305 359 427
#     4  12  26  46  78 105 148 194 236 309 364 425
#     4  10  24  48  72 103 146 193 245 302 353 431
#     4  11  26  46  73 108 146 189 247 290 370 432
#     4  12  26  48  76 111 145 190 244 297 373 436
#     4  12  27  45  75 111 147 190 241 305 364 432
#
# _framework density 24.712924000000001
#
# number of rings (size 3 to 8) (size 9 to 14) (size 15 to 20)
#    0.000    0.857    1.429    4.286    6.000    5.143 
#   10.286    0.000    0.000    0.000    0.000    0.000 
#    0.000    0.000    0.000    0.000    0.000    0.000 
#
# Total GULP energy -78288.079973 kJ/mol
# GULP energy per Si atom -5592.005712 kJ/mol
# Density = 2.465668 g / cm^3
# Si number density = 24.712924 Si / 1000 Ang^3
#
#
#
# Elastic Constant Matrix: (Units=GPa)
#
#
# Indices 1 2 3 4 5 6 
#
# 1 96.1084 30.6363 52.1555 -3.1148 3.8433 -9.6318
# 2 30.6363 99.2857 11.1195 -5.8600 5.7331 -9.6224
# 3 52.1555 11.1195 135.1237 -7.3577 -4.2528 -18.0272
# 4 -3.1148 -5.8600 -7.3577 33.2191 -12.8951 -3.8881
# 5 3.8433 5.7331 -4.2528 -12.8951 53.5373 -9.1576
# 6 -9.6318 -9.6224 -18.0272 -3.8881 -9.1576 47.5592
#
#
#
# Elastic Compliance Matrix: (Units=1/GPa)
#
#
# Indices 1 2 3 4 5 6 
#
# 1 0.014602 -0.003905 -0.005450 -0.001087 -0.001368 -0.000251
# 2 -0.003905 0.011496 0.000951 0.002109 -0.000014 0.002065
# 3 -0.005450 0.000951 0.010182 0.003330 0.002535 0.003708
# 4 -0.001087 0.002109 0.003330 0.035637 0.009772 0.006264
# 5 -0.001368 -0.000014 0.002535 0.009772 0.022322 0.005778
# 6 -0.000251 0.002065 0.003708 0.006264 0.005778 0.024424
#
#
# Mechanical properties :
#
#
# Convention : Reuss Voigt Hill
#
# Bulk Modulus (GPa) = 51.35784 57.59338 54.47561
# Shear Modulus (GPa) = 35.22114 42.63690 38.92902
#
# Velocity S-wave (km/s) = 3.77929 4.15816 3.97325
# Velocity P-wave (km/s) = 6.31435 6.81244 6.56812
#
# Compressibility (1/GPa) = 0.01947122
#
# Stress axis : x y z
#
# Youngs Moduli (GPa) = 68.48504 86.98891 98.21296
#
# Poissons Ratio (x) = 0.33967 0.53530
# Poissons Ratio (y) = 0.26741 -0.09341
# Poissons Ratio (z) = 0.37327 -0.08273
#
# Static dielectric constant tensor:
#      x y z
#    x 1.935620 0.018930 -0.037490 
#    y 0.018930 1.965220 -0.018900 
#    z -0.037490 -0.018900 1.992480 
# 
# From -- ./inp_files/369135.got.cif
#   From: 2010.05.17/outbox.cif.g08.bks.cpg/sg2_185_cif.got.tgz:369135.got - 2010.06.03 11:33:40.
