data_PCOD9049910
_publ_section_title
;
Structure prediction by ZEFSAII (Michael W. Deem and Ramdas Pophale) SiO2 
 PCOD9049910
Probable space group: P -1
;
_chemical_formula_sum "Si O2"
_cell_formula_units_Z 16
_cell_length_a 10.340510
_cell_length_b 11.225460
_cell_length_c 19.845798
_cell_angle_alpha 42.453724
_cell_angle_beta 32.636567
_cell_angle_gamma 32.104818
_cell_volume 657.868491
_symmetry_space_group_name_H-M "P -1"
_symmetry_group_IT_number 2
_symmetry_cell_setting 'triclinic'
loop_
_space_group_symop_operation_xyz
x,y,z
-x,-y,-z
loop_
_atom_site_type_symbol
_atom_site_label
_atom_site_fract_x
_atom_site_fract_y
_atom_site_fract_z
Si Si1 0.116359 0.132665 0.421500
Si Si2 0.311211 0.674869 0.210298
Si Si3 0.249107 0.064072 0.816061
Si Si4 0.903985 0.447408 0.996182
Si Si5 0.256899 0.967805 0.999055
Si Si6 0.260971 0.257600 0.528566
Si Si7 0.045155 0.517506 0.769162
Si Si8 0.625703 0.420246 0.622574
O O1 0.023079 0.319905 0.329171
O O2 0.950333 0.250421 0.514814
O O3 0.479518 0.982708 0.328258
O O4 0.000000 0.000000 0.500000
O O5 0.359460 0.662147 0.274152
O O6 0.983320 0.733417 0.321140
O O7 0.344149 0.839837 0.085532
O O8 0.616203 0.449638 0.138260
O O9 0.038012 0.324111 0.822661
O O10 0.388384 0.922599 0.883947
O O11 0.047592 0.006343 0.895591
O O12 0.859601 0.595021 0.889225
O O13 0.000000 0.500000 0.000000
O O14 0.182071 0.200503 0.953882
O O15 0.452836 0.334593 0.441874
O O16 0.000000 0.500000 0.500000
O O17 0.500000 0.000000 0.500000
O O18 0.382259 0.423789 0.684615
#
# Coordination Sequence:
#
# PCOD9049910 Si02
#       8
#     2   2   2   2   2   2   2   2
#     4  12  26  42  71 102 140 196 242 295 370 442
#     4  11  25  44  70 106 139 189 240 303 378 439
#     4  10  24  48  66 104 138 186 248 295 364 451
#     4  11  24  44  70 104 140 182 241 310 374 440
#     4  10  25  43  74  98 140 187 237 307 370 438
#     4  10  26  46  70 106 152 199 247 307 376 456
#     4  11  24  46  68 100 146 184 243 304 366 437
#     4  11  25  45  67 108 145 189 246 303 373 451
#
# _framework density 24.320969999999999
#
# number of rings (size 3 to 8) (size 9 to 14) (size 15 to 20)
#    0.000    1.250    2.500    1.125    7.000    4.500 
#    0.000    3.750    0.000    0.000    0.000    0.000 
#    0.000    0.000    0.000    0.000    0.000    0.000 
#
# Total GULP energy -89236.003441 kJ/mol
# GULP energy per Si atom -5577.250215 kJ/mol
# Density = 2.426561 g / cm^3
# Si number density = 24.320970 Si / 1000 Ang^3
#
#
#
# Elastic Constant Matrix: (Units=GPa)
#
#
# Indices 1 2 3 4 5 6 
#
# 1 63.2668 25.1826 -1.6686 -3.5199 3.7852 8.0706
# 2 25.1826 56.2106 30.4989 -19.0181 13.3397 17.1372
# 3 -1.6686 30.4989 150.0344 19.7998 14.1280 1.2605
# 4 -3.5199 -19.0181 19.7998 47.4719 -1.1251 5.5484
# 5 3.7852 13.3397 14.1280 -1.1251 50.4234 -13.0126
# 6 8.0706 17.1372 1.2605 5.5484 -13.0126 38.4932
#
#
#
# Elastic Compliance Matrix: (Units=1/GPa)
#
#
# Indices 1 2 3 4 5 6 
#
# 1 0.021222 -0.016123 0.004177 -0.007089 0.002494 0.004457
# 2 -0.016123 0.056614 -0.013815 0.030534 -0.017383 -0.031649
# 3 0.004177 -0.013815 0.010656 -0.010452 0.001953 0.007092
# 4 -0.007089 0.030534 -0.010452 0.039311 -0.009026 -0.020483
# 5 0.002494 -0.017383 0.001953 -0.009026 0.028131 0.017963
# 6 0.004457 -0.031649 0.007092 -0.020483 0.017963 0.047927
#
#
# Mechanical properties :
#
#
# Convention : Reuss Voigt Hill
#
# Bulk Modulus (GPa) = 27.04899 41.94861 34.49880
# Shear Modulus (GPa) = 18.67729 41.64429 30.16079
#
# Velocity S-wave (km/s) = 2.77420 4.14246 3.52535
# Velocity P-wave (km/s) = 4.62681 6.33761 5.54854
#
# Compressibility (1/GPa) = 0.03696995
#
# Stress axis : x y z
#
# Youngs Moduli (GPa) = 47.12179 17.66345 93.84694
#
# Poissons Ratio (x) = 0.28479 -0.39198
# Poissons Ratio (y) = 0.75974 1.29646
# Poissons Ratio (z) = -0.19682 0.24401
#
# Static dielectric constant tensor:
#      x y z
#    x 1.990240 -0.168030 -0.023860 
#    y -0.168030 2.171720 0.049550 
#    z -0.023860 0.049550 1.966330 
# 
# From -- ./inp_files/595087.got.cif
#   From: 2010.05.17/outbox.cif.g08.bks.cpg/sg2_298_cif.got.tgz:595087.got - 2010.06.03 11:33:40.
