data_PCOD9049264
_publ_section_title
;
Structure prediction by ZEFSAII (Michael W. Deem and Ramdas Pophale) SiO2 
 PCOD9049264
Probable space group: P -1
;
_chemical_formula_sum "Si O2"
_cell_formula_units_Z 14
_cell_length_a 18.193758
_cell_length_b 9.252141
_cell_length_c 16.967332
_cell_angle_alpha 144.950466
_cell_angle_beta 20.872284
_cell_angle_gamma 143.286076
_cell_volume 574.915735
_symmetry_space_group_name_H-M "P -1"
_symmetry_group_IT_number 2
_symmetry_cell_setting 'triclinic'
loop_
_space_group_symop_operation_xyz
x,y,z
-x,-y,-z
loop_
_atom_site_type_symbol
_atom_site_label
_atom_site_fract_x
_atom_site_fract_y
_atom_site_fract_z
Si Si1 0.752542 0.074089 0.772035
Si Si2 0.722483 0.544791 0.502758
Si Si3 0.654725 0.266071 0.116881
Si Si4 0.287692 0.861529 0.552017
Si Si5 0.328634 0.068750 0.910853
Si Si6 0.037061 0.273333 0.967479
Si Si7 0.090908 0.500107 0.320652
O O1 0.827044 0.241685 0.694996
O O2 0.184385 0.204450 0.426231
O O3 0.783588 0.226988 0.891322
O O4 0.500000 0.000000 0.000000
O O5 0.560797 0.647882 0.652928
O O6 0.612368 0.311210 0.563516
O O7 0.882598 0.404470 0.233365
O O8 0.630157 0.008032 0.075968
O O9 0.789353 0.495279 0.134617
O O10 0.100315 0.662915 0.610121
O O11 0.472200 0.974820 0.358346
O O12 0.170317 0.089763 0.798656
O O13 0.110965 0.896121 0.022591
O O14 0.286621 0.352632 0.066224
O O15 0.000000 0.500000 0.500000
#
# Coordination Sequence:
#
# PCOD9049264 Si02
#       7
#     2   2   2   2   2   2   2
#     4  10  24  46  71 106 142 186 236 285 359 424
#     4  11  25  44  73 101 142 185 239 292 358 424
#     4  11  25  44  73 102 142 191 235 292 357 426
#     4  11  26  46  70 105 143 187 240 295 357 422
#     4  11  26  46  71 105 145 187 237 297 356 423
#     4  11  25  44  71 103 141 187 248 291 355 417
#     4  11  27  46  74 108 144 187 239 291 359 426
#
# _framework density 24.351396000000001
#
# number of rings (size 3 to 8) (size 9 to 14) (size 15 to 20)
#    0.000    1.143    0.000    4.286    8.000    9.714 
#    0.000    0.000    0.000    0.000    0.000    0.000 
#    0.000    0.000    0.000    0.000    0.000    0.000 
#
# Total GULP energy -78263.806352 kJ/mol
# GULP energy per Si atom -5590.271882 kJ/mol
# Density = 2.429597 g / cm^3
# Si number density = 24.351396 Si / 1000 Ang^3
#
#
#
# Elastic Constant Matrix: (Units=GPa)
#
#
# Indices 1 2 3 4 5 6 
#
# 1 73.4462 36.9518 38.3219 8.8838 -7.8580 -31.3511
# 2 36.9518 99.1218 32.7858 20.0804 -18.9984 -27.6867
# 3 38.3219 32.7858 142.1732 28.5929 -4.4222 -13.7606
# 4 8.8838 20.0804 28.5929 48.4866 1.8717 -4.2949
# 5 -7.8580 -18.9984 -4.4222 1.8717 19.4441 3.9421
# 6 -31.3511 -27.6867 -13.7606 -4.2949 3.9421 37.6389
#
#
#
# Elastic Compliance Matrix: (Units=1/GPa)
#
#
# Indices 1 2 3 4 5 6 
#
# 1 0.024630 -0.002572 -0.004440 0.000540 0.002983 0.016749
# 2 -0.002572 0.017829 -0.000887 -0.006231 0.015084 0.008357
# 3 -0.004440 -0.000887 0.009172 -0.004368 0.000152 -0.001512
# 4 0.000540 -0.006231 -0.004368 0.025866 -0.008981 -0.001839
# 5 0.002983 0.015084 0.000152 -0.008981 0.067141 0.005579
# 6 0.016749 0.008357 -0.001512 -0.001839 0.005579 0.045319
#
#
# Mechanical properties :
#
#
# Convention : Reuss Voigt Hill
#
# Bulk Modulus (GPa) = 27.90872 58.98447 43.44659
# Shear Modulus (GPa) = 22.96757 34.89270 28.93014
#
# Velocity S-wave (km/s) = 3.07444 3.78945 3.45052
# Velocity P-wave (km/s) = 4.90802 6.58949 5.80991
#
# Compressibility (1/GPa) = 0.03583110
#
# Stress axis : x y z
#
# Youngs Moduli (GPa) = 40.60172 56.08963 109.03005
#
# Poissons Ratio (x) = 0.14429 0.48411
# Poissons Ratio (y) = 0.10445 0.09668
# Poissons Ratio (z) = 0.18028 0.04974
#
# Static dielectric constant tensor:
#      x y z
#    x 2.007270 0.079620 -0.046840 
#    y 0.079620 1.999410 -0.044760 
#    z -0.046840 -0.044760 1.949040 
# 
# From -- ./inp_files/336669.got.cif
#   From: 2010.05.17/outbox.cif.g08.bks.cpg/sg2_169_cif.got.tgz:336669.got - 2010.06.03 11:33:40.
