data_PCOD9049883
_publ_section_title
;
Structure prediction by ZEFSAII (Michael W. Deem and Ramdas Pophale) SiO2 
 PCOD9049883
Probable space group: P -1
;
_chemical_formula_sum "Si O2"
_cell_formula_units_Z 11
_cell_length_a 11.247424
_cell_length_b 11.878443
_cell_length_c 7.837696
_cell_angle_alpha 92.308187
_cell_angle_beta 90.279776
_cell_angle_gamma 155.850005
_cell_volume 425.836088
_symmetry_space_group_name_H-M "P -1"
_symmetry_group_IT_number 2
_symmetry_cell_setting 'triclinic'
loop_
_space_group_symop_operation_xyz
x,y,z
-x,-y,-z
loop_
_atom_site_type_symbol
_atom_site_label
_atom_site_fract_x
_atom_site_fract_y
_atom_site_fract_z
Si Si1 0.301795 0.367609 0.831909
Si Si2 0.650101 0.874548 0.848714
Si Si3 0.727461 0.163401 0.658626
Si Si4 0.463602 0.781888 0.204416
Si Si5 0.063497 0.318215 0.421800
Si Si6 0.000000 0.000000 0.500000
O O1 0.506693 0.637821 0.753756
O O2 0.193468 0.178259 0.690659
O O3 0.500000 0.500000 0.000000
O O4 0.995440 0.151482 0.887817
O O5 0.621317 0.962397 0.746590
O O6 0.482750 0.747221 0.016245
O O7 0.739237 0.282445 0.785815
O O8 0.012123 0.364729 0.574651
O O9 0.500000 0.000000 0.500000
O O10 0.344130 0.593411 0.333617
O O11 0.791229 0.098422 0.278178
O O12 0.048310 0.178722 0.482414
#
# Coordination Sequence:
#
# PCOD9049883 Si02
#       6
#     2   2   2   2   2   1
#     4  12  29  51  82 120 168 217 283 341 412 501
#     4  12  26  50  77 122 164 213 273 346 417 485
#     4  10  24  47  78 117 163 211 275 336 405 501
#     4  11  25  46  77 112 163 206 266 335 417 480
#     4  11  25  46  73 114 153 217 269 327 405 493
#     4  12  28  50  84 112 166 216 278 336 420 474
#
# _framework density 25.831534999999999
#
# number of rings (size 3 to 8) (size 9 to 14) (size 15 to 20)
#    0.000    0.727    1.818    3.818    5.091    7.273 
#    0.000    6.364    0.000    0.000    0.000    0.000 
#    0.000    0.000    0.000    0.000    0.000    0.000 
#
# Total GULP energy -61454.670084 kJ/mol
# GULP energy per Si atom -5586.788189 kJ/mol
# Density = 2.577274 g / cm^3
# Si number density = 25.831535 Si / 1000 Ang^3
#
#
#
# Elastic Constant Matrix: (Units=GPa)
#
#
# Indices 1 2 3 4 5 6 
#
# 1 180.9701 66.1921 55.4526 -4.7981 10.4404 -6.2246
# 2 66.1921 141.0608 47.0303 1.5364 -9.9306 -0.3705
# 3 55.4526 47.0303 96.3016 8.6549 -0.9349 4.1123
# 4 -4.7981 1.5364 8.6549 53.6249 -5.2965 -0.6818
# 5 10.4404 -9.9306 -0.9349 -5.2965 28.9384 -7.4289
# 6 -6.2246 -0.3705 4.1123 -0.6818 -7.4289 19.1361
#
#
#
# Elastic Compliance Matrix: (Units=1/GPa)
#
#
# Indices 1 2 3 4 5 6 
#
# 1 0.007864 -0.002796 -0.003373 0.001038 -0.003196 0.002025
# 2 -0.002796 0.009833 -0.003270 0.000499 0.004853 0.001885
# 3 -0.003373 -0.003270 0.014360 -0.002702 -0.001167 -0.004796
# 4 0.001038 0.000499 -0.002702 0.019611 0.004128 0.003229
# 5 -0.003196 0.004853 -0.001167 0.004128 0.042153 0.015816
# 6 0.002025 0.001885 -0.004796 0.003229 0.015816 0.060238
#
#
# Mechanical properties :
#
#
# Convention : Reuss Voigt Hill
#
# Bulk Modulus (GPa) = 75.89042 83.96472 79.92757
# Shear Modulus (GPa) = 28.19601 36.98372 32.58987
#
# Velocity S-wave (km/s) = 3.30742 3.78792 3.55580
# Velocity P-wave (km/s) = 6.63537 7.19072 6.91862
#
# Compressibility (1/GPa) = 0.01317689
#
# Stress axis : x y z
#
# Youngs Moduli (GPa) = 127.16545 101.70166 69.63923
#
# Poissons Ratio (x) = 0.28439 0.23492
# Poissons Ratio (y) = 0.35560 0.22772
# Poissons Ratio (z) = 0.42897 0.33256
#
# Static dielectric constant tensor:
#      x y z
#    x 2.070730 0.025400 -0.031030 
#    y 0.025400 1.950630 -0.005980 
#    z -0.031030 -0.005980 2.049400 
# 
# From -- ./inp_files/258589.got.cif
#   From: 2010.05.17/outbox.cif.g08.bks.cpg/sg2_130_cif.got.tgz:258589.got - 2010.06.03 11:33:40.
