data_PCOD9049004
_publ_section_title
;
Structure prediction by ZEFSAII (Michael W. Deem and Ramdas Pophale) SiO2 
 PCOD9049004
Probable space group: P -1
;
_chemical_formula_sum "Si O2"
_cell_formula_units_Z 16
_cell_length_a 12.260031
_cell_length_b 7.854494
_cell_length_c 12.820411
_cell_angle_alpha 50.067224
_cell_angle_beta 83.671863
_cell_angle_gamma 55.354793
_cell_volume 712.510760
_symmetry_space_group_name_H-M "P -1"
_symmetry_group_IT_number 2
_symmetry_cell_setting 'triclinic'
loop_
_space_group_symop_operation_xyz
x,y,z
-x,-y,-z
loop_
_atom_site_type_symbol
_atom_site_label
_atom_site_fract_x
_atom_site_fract_y
_atom_site_fract_z
Si Si1 0.432393 0.918852 0.955363
Si Si2 0.706919 0.714788 0.680840
Si Si3 0.685163 0.117654 0.823760
Si Si4 0.276227 0.442580 0.034001
Si Si5 0.223111 0.534594 0.617249
Si Si6 0.427483 0.359005 0.471720
Si Si7 0.983171 0.770056 0.846963
Si Si8 0.911182 0.837662 0.580599
O O1 0.569431 0.656481 0.975862
O O2 0.313812 0.224152 0.788495
O O3 0.356414 0.837034 0.068605
O O4 0.500000 0.000000 0.000000
O O5 0.752679 0.518209 0.855293
O O6 0.633702 0.669960 0.616234
O O7 0.831755 0.709580 0.626710
O O8 0.580075 0.047946 0.602244
O O9 0.563126 0.396545 0.657407
O O10 0.703712 0.842513 0.889501
O O11 0.835965 0.041879 0.811527
O O12 0.130477 0.705101 0.885060
O O13 0.312536 0.467135 0.531112
O O14 0.058934 0.665246 0.568471
O O15 0.193194 0.812668 0.566927
O O16 0.955838 0.794232 0.716464
O O17 0.000000 0.500000 0.000000
#
# Coordination Sequence:
#
# PCOD9049004 Si02
#       8
#     2   2   2   2   2   2   2   2
#     4  10  21  34  58  92 117 146 188 250 298 345
#     4  11  23  39  61  85 119 166 198 242 287 351
#     4  10  20  37  61  86 118 150 191 251 294 345
#     4  10  19  35  62  85 119 152 192 244 305 338
#     4  11  22  39  63  90 121 148 200 247 301 352
#     4  11  24  41  59  85 122 160 208 235 284 357
#     4  10  17  34  59  88 117 142 189 247 294 345
#     4  11  22  36  64  91 116 155 194 250 301 347
#
# _framework density 22.4558
#
# number of rings (size 3 to 8) (size 9 to 14) (size 15 to 20)
#    0.000    1.500    5.000    2.250    3.500    1.500 
#    0.000    1.250    0.000    0.000    0.000    0.000 
#    0.000    0.000    0.000    0.000    0.000    0.000 
#
# Total GULP energy -89354.707075 kJ/mol
# GULP energy per Si atom -5584.669192 kJ/mol
# Density = 2.240469 g / cm^3
# Si number density = 22.455800 Si / 1000 Ang^3
#
#
#
# Elastic Constant Matrix: (Units=GPa)
#
#
# Indices 1 2 3 4 5 6 
#
# 1 60.4659 14.1967 4.1785 1.2249 1.6325 -11.9031
# 2 14.1967 42.1860 10.9698 -6.7386 -5.0007 -25.0235
# 3 4.1785 10.9698 81.0774 1.0237 -4.2896 -20.8618
# 4 1.2249 -6.7386 1.0237 22.8239 -9.8198 5.3311
# 5 1.6325 -5.0007 -4.2896 -9.8198 29.3397 3.3759
# 6 -11.9031 -25.0235 -20.8618 5.3311 3.3759 32.1905
#
#
#
# Elastic Compliance Matrix: (Units=1/GPa)
#
#
# Indices 1 2 3 4 5 6 
#
# 1 0.018855 -0.004971 0.000834 -0.005484 -0.004185 0.004995
# 2 -0.004971 0.047706 0.003063 0.009546 0.008045 0.034806
# 3 0.000834 0.003063 0.015274 -0.002737 0.000296 0.013010
# 4 -0.005484 0.009546 -0.002737 0.058507 0.022079 -0.008387
# 5 -0.004185 0.008045 0.000296 0.022079 0.043503 -0.003321
# 6 0.004995 0.034806 0.013010 -0.008387 -0.003321 0.070138
#
#
# Mechanical properties :
#
#
# Convention : Reuss Voigt Hill
#
# Bulk Modulus (GPa) = 12.54918 26.93547 19.74233
# Shear Modulus (GPa) = 17.68695 27.16308 22.42501
#
# Velocity S-wave (km/s) = 2.80953 3.48174 3.16354
# Velocity P-wave (km/s) = 4.01561 5.30888 4.70688
#
# Compressibility (1/GPa) = 0.07968647
#
# Stress axis : x y z
#
# Youngs Moduli (GPa) = 53.03567 20.96191 65.46892
#
# Poissons Ratio (x) = 0.10420 -0.05460
# Poissons Ratio (y) = 0.26365 -0.20051
# Poissons Ratio (z) = -0.04423 -0.06420
#
# Static dielectric constant tensor:
#      x y z
#    x 1.936350 -0.053410 0.009550 
#    y -0.053410 1.867220 -0.029470 
#    z 0.009550 -0.029470 1.878300 
# 
# From -- ./inp_files/446798.got.cif
#   From: 2010.05.17/outbox.cif.g08.bks.cpg/sg2_224_cif.got.tgz:446798.got - 2010.06.03 11:33:40.
