data_PCOD9049942
_publ_section_title
;
Structure prediction by ZEFSAII (Michael W. Deem and Ramdas Pophale) SiO2 
 PCOD9049942
Probable space group: P -1
;
_chemical_formula_sum "Si O2"
_cell_formula_units_Z 11
_cell_length_a 10.854627
_cell_length_b 5.438736
_cell_length_c 13.762420
_cell_angle_alpha 108.702741
_cell_angle_beta 149.722953
_cell_angle_gamma 72.393463
_cell_volume 387.446064
_symmetry_space_group_name_H-M "P -1"
_symmetry_group_IT_number 2
_symmetry_cell_setting 'triclinic'
loop_
_space_group_symop_operation_xyz
x,y,z
-x,-y,-z
loop_
_atom_site_type_symbol
_atom_site_label
_atom_site_fract_x
_atom_site_fract_y
_atom_site_fract_z
Si Si1 0.988684 0.709327 0.105217
Si Si2 0.444555 0.549557 0.126783
Si Si3 0.500000 0.500000 0.500000
Si Si4 0.377856 0.045342 0.239741
Si Si5 0.160302 0.687450 0.766276
Si Si6 0.900171 0.155331 0.546276
O O1 0.254494 0.683047 0.328634
O O2 0.774746 0.627530 0.019992
O O3 0.867289 0.949201 0.991807
O O4 0.000000 0.500000 0.000000
O O5 0.689323 0.395310 0.239207
O O6 0.469010 0.744014 0.259049
O O7 0.361215 0.704207 0.990646
O O8 0.353289 0.230879 0.339060
O O9 0.606246 0.176440 0.357674
O O10 0.998198 0.443315 0.648688
O O11 0.007113 0.955869 0.677509
O O12 0.000000 0.000000 0.500000
#
# Coordination Sequence:
#
# PCOD9049942 Si02
#       6
#     2   2   1   2   2   2
#     4  10  24  48  71 103 144 196 261 320 376 451
#     4  11  25  44  72 112 151 200 257 316 380 466
#     4  10  24  48  70 102 138 200 258 322 380 444
#     4  11  25  43  77 104 151 198 254 318 377 458
#     4  11  27  43  76 117 161 206 244 310 390 464
#     4  12  24  46  73 118 161 203 250 307 388 462
#
# _framework density 28.39105
#
# number of rings (size 3 to 8) (size 9 to 14) (size 15 to 20)
#    0.000    1.091    1.818    2.727    7.636    4.364 
#    0.000    4.545    0.000    0.000    0.000    0.000 
#    0.000    0.000    0.000    0.000    0.000    0.000 
#
# Total GULP energy -61370.966594 kJ/mol
# GULP energy per Si atom -5579.178781 kJ/mol
# Density = 2.832643 g / cm^3
# Si number density = 28.391050 Si / 1000 Ang^3
#
#
#
# Elastic Constant Matrix: (Units=GPa)
#
#
# Indices 1 2 3 4 5 6 
#
# 1 81.2559 38.5616 19.2802 -2.4197 20.4805 21.5262
# 2 38.5616 187.0976 61.8004 -0.1854 6.1005 -23.4590
# 3 19.2802 61.8004 199.2846 -23.4860 24.1181 6.8871
# 4 -2.4197 -0.1854 -23.4860 68.9079 -5.3129 2.9754
# 5 20.4805 6.1005 24.1181 -5.3129 39.5141 12.2745
# 6 21.5262 -23.4590 6.8871 2.9754 12.2745 44.0546
#
#
#
# Elastic Compliance Matrix: (Units=1/GPa)
#
#
# Indices 1 2 3 4 5 6 
#
# 1 0.019062 -0.005423 0.001081 0.001004 -0.006244 -0.010699
# 2 -0.005423 0.008180 -0.002492 -0.001285 0.000626 0.007307
# 3 0.001081 -0.002492 0.006381 0.002056 -0.003136 -0.002118
# 4 0.001004 -0.001285 0.002056 0.015481 0.001417 -0.002936
# 5 -0.006244 0.000626 -0.003136 0.001417 0.032162 -0.005182
# 6 -0.010699 0.007307 -0.002118 -0.002936 -0.005182 0.033791
#
#
# Mechanical properties :
#
#
# Convention : Reuss Voigt Hill
#
# Bulk Modulus (GPa) = 50.10945 78.54692 64.32819
# Shear Modulus (GPa) = 36.93439 53.69504 45.31472
#
# Velocity S-wave (km/s) = 3.61074 4.35359 3.99945
# Velocity P-wave (km/s) = 5.92210 7.27996 6.63585
#
# Compressibility (1/GPa) = 0.01995631
#
# Stress axis : x y z
#
# Youngs Moduli (GPa) = 52.46112 122.24814 156.71235
#
# Poissons Ratio (x) = 0.66291 -0.16944
# Poissons Ratio (y) = 0.28448 0.39050
# Poissons Ratio (z) = -0.05672 0.30462
#
# Static dielectric constant tensor:
#      x y z
#    x 2.391520 0.039560 -0.129360 
#    y 0.039560 2.279410 -0.057090 
#    z -0.129360 -0.057090 2.274670 
# 
# From -- ./inp_files/139997.got.cif
#   From: 2010.05.17/outbox.cif.g08.bks.cpg/sg2_70_cif.got.tgz:139997.got - 2010.06.03 11:33:40.
