data_PCOD9049265
_publ_section_title
;
Structure prediction by ZEFSAII (Michael W. Deem and Ramdas Pophale) SiO2 
 PCOD9049265
Probable space group: P -1
;
_chemical_formula_sum "Si O2"
_cell_formula_units_Z 16
_cell_length_a 12.979073
_cell_length_b 5.518251
_cell_length_c 11.105154
_cell_angle_alpha 94.563290
_cell_angle_beta 90.795410
_cell_angle_gamma 56.420998
_cell_volume 660.107445
_symmetry_space_group_name_H-M "P -1"
_symmetry_group_IT_number 2
_symmetry_cell_setting 'triclinic'
loop_
_space_group_symop_operation_xyz
x,y,z
-x,-y,-z
loop_
_atom_site_type_symbol
_atom_site_label
_atom_site_fract_x
_atom_site_fract_y
_atom_site_fract_z
Si Si1 0.629131 0.139036 0.024422
Si Si2 0.891436 0.562581 0.089937
Si Si3 0.596062 0.802022 0.833277
Si Si4 0.196786 0.620027 0.319076
Si Si5 0.777839 0.906561 0.538823
Si Si6 0.426497 0.029336 0.620387
Si Si7 0.924357 0.840457 0.322488
Si Si8 0.736535 0.393920 0.191663
O O1 0.505049 0.193016 0.084272
O O2 0.646248 0.378821 0.094896
O O3 0.758905 0.850831 0.060097
O O4 0.615522 0.056915 0.884824
O O5 0.932672 0.603368 0.223210
O O6 0.847813 0.347564 0.107112
O O7 0.000000 0.500000 0.000000
O O8 0.733316 0.516390 0.811338
O O9 0.536164 0.823520 0.704435
O O10 0.217672 0.349081 0.392935
O O11 0.049689 0.826346 0.312716
O O12 0.241540 0.820158 0.377970
O O13 0.671586 0.024979 0.440300
O O14 0.899150 0.790980 0.455393
O O15 0.343640 0.316227 0.715797
O O16 0.500000 0.000000 0.500000
O O17 0.808587 0.139811 0.280007
#
# Coordination Sequence:
#
# PCOD9049265 Si02
#       8
#     2   2   2   2   2   2   2   2
#     4  10  24  46  71 106 146 194 253 312 386 446
#     4  11  23  45  71 104 144 190 251 313 382 451
#     4  11  24  47  70 107 152 194 252 317 378 456
#     4  12  28  46  74 112 153 199 253 312 378 457
#     4  12  26  47  72 109 152 201 251 316 373 456
#     4  12  24  45  74 109 149 198 254 305 382 455
#     4  11  25  45  72 105 145 196 250 309 387 446
#     4  11  24  47  78 105 148 199 250 322 375 458
#
# _framework density 24.238479000000002
#
# number of rings (size 3 to 8) (size 9 to 14) (size 15 to 20)
#    0.000    0.750    3.750    3.000    3.500    3.000 
#    4.500    0.000    0.000    0.000    0.000    0.000 
#    0.000    0.000    0.000    0.000    0.000    0.000 
#
# Total GULP energy -89251.745257 kJ/mol
# GULP energy per Si atom -5578.234079 kJ/mol
# Density = 2.418331 g / cm^3
# Si number density = 24.238479 Si / 1000 Ang^3
#
#
#
# Elastic Constant Matrix: (Units=GPa)
#
#
# Indices 1 2 3 4 5 6 
#
# 1 135.6874 36.2760 38.6149 24.0957 -2.3012 3.1857
# 2 36.2760 66.0706 29.1522 -1.2819 -1.3752 2.1557
# 3 38.6149 29.1522 94.4593 25.5715 -0.1122 4.1074
# 4 24.0957 -1.2819 25.5715 40.5745 -0.0093 4.7108
# 5 -2.3012 -1.3752 -0.1122 -0.0093 67.3187 13.1095
# 6 3.1857 2.1557 4.1074 4.7108 13.1095 35.9351
#
#
#
# Elastic Compliance Matrix: (Units=1/GPa)
#
#
# Indices 1 2 3 4 5 6 
#
# 1 0.010012 -0.005153 -0.001026 -0.005483 0.000198 0.000185
# 2 -0.005153 0.021031 -0.006483 0.007960 0.000495 -0.001288
# 3 -0.001026 -0.006483 0.015550 -0.009394 -0.000140 -0.000015
# 4 -0.005483 0.007960 -0.009394 0.034503 0.000683 -0.003690
# 5 0.000198 0.000495 -0.000140 0.000683 0.016034 -0.005970
# 6 0.000185 -0.001288 -0.000015 -0.003690 -0.005970 0.030552
#
#
# Mechanical properties :
#
#
# Convention : Reuss Voigt Hill
#
# Bulk Modulus (GPa) = 47.01194 56.03373 51.52283
# Shear Modulus (GPa) = 31.23117 41.57728 36.40422
#
# Velocity S-wave (km/s) = 3.59346 4.14616 3.87966
# Velocity P-wave (km/s) = 6.05433 6.78887 6.43209
#
# Compressibility (1/GPa) = 0.02127119
#
# Stress axis : x y z
#
# Youngs Moduli (GPa) = 99.87740 47.54784 64.30751
#
# Poissons Ratio (x) = 0.24500 0.06599
# Poissons Ratio (y) = 0.51465 0.41687
# Poissons Ratio (z) = 0.10249 0.30823
#
# Static dielectric constant tensor:
#      x y z
#    x 1.980570 0.031210 -0.051780 
#    y 0.031210 2.017890 -0.002470 
#    z -0.051780 -0.002470 1.960010 
# 
# From -- ./inp_files/410809.got.cif
#   From: 2010.05.17/outbox.cif.g08.bks.cpg/sg2_206_cif.got.tgz:410809.got - 2010.06.03 11:33:40.
