data_PCOD9049455
_publ_section_title
;
Structure prediction by ZEFSAII (Michael W. Deem and Ramdas Pophale) SiO2 
 PCOD9049455
Probable space group: P -1
;
_chemical_formula_sum "Si O2"
_cell_formula_units_Z 16
_cell_length_a 10.524658
_cell_length_b 18.397052
_cell_length_c 8.909169
_cell_angle_alpha 109.713420
_cell_angle_beta 84.319091
_cell_angle_gamma 152.963862
_cell_volume 651.225552
_symmetry_space_group_name_H-M "P -1"
_symmetry_group_IT_number 2
_symmetry_cell_setting 'triclinic'
loop_
_space_group_symop_operation_xyz
x,y,z
-x,-y,-z
loop_
_atom_site_type_symbol
_atom_site_label
_atom_site_fract_x
_atom_site_fract_y
_atom_site_fract_z
Si Si1 0.164792 0.487547 0.442911
Si Si2 0.143751 0.036579 0.763953
Si Si3 0.243761 0.250686 0.913666
Si Si4 0.446684 0.697798 0.872782
Si Si5 0.220590 0.630653 0.260389
Si Si6 0.044069 0.821618 0.476298
Si Si7 0.390862 0.471379 0.215249
Si Si8 0.401076 0.873227 0.574037
O O1 0.355249 0.618275 0.661998
O O2 0.238166 0.591950 0.383975
O O3 0.253795 0.454662 0.339022
O O4 0.786476 0.270185 0.368071
O O5 0.478252 0.226696 0.769494
O O6 0.998728 0.879942 0.600495
O O7 0.006914 0.047537 0.763359
O O8 0.240336 0.080283 0.958688
O O9 0.479978 0.336641 0.060098
O O10 0.155323 0.279214 0.034402
O O11 0.443106 0.388242 0.841501
O O12 0.145307 0.579303 0.885548
O O13 0.262632 0.745425 0.363451
O O14 0.266470 0.885113 0.584063
O O15 0.692454 0.596234 0.341291
O O16 0.226903 0.928038 0.367255
#
# Coordination Sequence:
#
# PCOD9049455 Si02
#       8
#     2   2   2   2   2   2   2   2
#     4  11  20  35  63  90 115 151 198 240 287 343
#     4   9  19  36  55  85 114 155 191 236 283 348
#     4   9  21  37  55  88 115 150 201 240 275 344
#     4   9  18  32  54  83 114 150 191 240 276 335
#     4  10  17  34  60  86 112 152 201 237 281 340
#     4  10  21  38  60  86 118 158 189 234 294 351
#     4  11  21  37  62  88 115 151 197 242 287 340
#     4   9  20  36  57  86 116 144 197 238 280 344
#
# _framework density 24.569061999999999
#
# number of rings (size 3 to 8) (size 9 to 14) (size 15 to 20)
#    0.750    1.500    1.250    3.375    0.000    2.500 
#    0.000    0.625    0.000    7.500    0.000    0.000 
#    0.000    0.000    0.000    0.000    0.000    0.000 
#
# Total GULP energy -89103.297054 kJ/mol
# GULP energy per Si atom -5568.956066 kJ/mol
# Density = 2.451314 g / cm^3
# Si number density = 24.569062 Si / 1000 Ang^3
#
#
#
# Elastic Constant Matrix: (Units=GPa)
#
#
# Indices 1 2 3 4 5 6 
#
# 1 62.0480 15.1803 21.2635 7.1774 -29.3435 -1.9940
# 2 15.1803 71.6119 26.2121 -4.9238 -16.1958 4.8376
# 3 21.2635 26.2121 84.1815 3.8708 -27.8378 -8.1689
# 4 7.1774 -4.9238 3.8708 34.9848 -13.5205 -11.1689
# 5 -29.3435 -16.1958 -27.8378 -13.5205 47.2075 -0.3954
# 6 -1.9940 4.8376 -8.1689 -11.1689 -0.3954 38.2711
#
#
#
# Elastic Compliance Matrix: (Units=1/GPa)
#
#
# Indices 1 2 3 4 5 6 
#
# 1 0.023189 -0.001603 -0.000696 0.000938 0.013736 0.001678
# 2 -0.001603 0.016999 -0.004087 0.003925 0.003534 -0.001922
# 3 -0.000696 -0.004087 0.016570 0.002674 0.008743 0.004888
# 4 0.000938 0.003925 0.002674 0.037841 0.014439 0.011316
# 5 0.013736 0.003534 0.008743 0.014439 0.040282 0.006765
# 6 0.001678 -0.001922 0.004888 0.011316 0.006765 0.030875
#
#
# Mechanical properties :
#
#
# Convention : Reuss Voigt Hill
#
# Bulk Modulus (GPa) = 22.73444 38.12814 30.43129
# Shear Modulus (GPa) = 25.88146 34.43839 30.15992
#
# Velocity S-wave (km/s) = 3.24916 3.74799 3.50745
# Velocity P-wave (km/s) = 4.83212 5.85511 5.36804
#
# Compressibility (1/GPa) = 0.04398613
#
# Stress axis : x y z
#
# Youngs Moduli (GPa) = 43.12442 58.82792 60.35002
#
# Poissons Ratio (x) = 0.09430 0.04201
# Poissons Ratio (y) = 0.06913 0.24662
# Poissons Ratio (z) = 0.03002 0.24040
#
# Static dielectric constant tensor:
#      x y z
#    x 1.981340 0.024130 -0.035850 
#    y 0.024130 2.015820 -0.034450 
#    z -0.035850 -0.034450 2.031780 
# 
# From -- ./inp_files/279616.got.cif
#   From: 2010.05.17/outbox.cif.g08.bks.cpg/sg2_140_cif.got.tgz:279616.got - 2010.06.03 11:33:40.
