data_PCOD9049393
_publ_section_title
;
Structure prediction by ZEFSAII (Michael W. Deem and Ramdas Pophale) SiO2 
 PCOD9049393
Probable space group: P -1
;
_chemical_formula_sum "Si O2"
_cell_formula_units_Z 14
_cell_length_a 11.806978
_cell_length_b 7.020708
_cell_length_c 7.649337
_cell_angle_alpha 99.416527
_cell_angle_beta 87.329667
_cell_angle_gamma 86.922525
_cell_volume 623.645233
_symmetry_space_group_name_H-M "P -1"
_symmetry_group_IT_number 2
_symmetry_cell_setting 'triclinic'
loop_
_space_group_symop_operation_xyz
x,y,z
-x,-y,-z
loop_
_atom_site_type_symbol
_atom_site_label
_atom_site_fract_x
_atom_site_fract_y
_atom_site_fract_z
Si Si1 0.843057 0.518341 0.089425
Si Si2 0.455125 0.183300 0.415341
Si Si3 0.935021 0.532120 0.720487
Si Si4 0.159672 0.784028 0.517908
Si Si5 0.356462 0.565991 0.665186
Si Si6 0.120860 0.032185 0.905742
Si Si7 0.220462 0.076696 0.256850
O O1 0.723828 0.468386 0.169667
O O2 0.863836 0.091400 0.288149
O O3 0.861469 0.747153 0.116466
O O4 0.865570 0.451217 0.880561
O O5 0.415321 0.360781 0.572966
O O6 0.552306 0.272389 0.303487
O O7 0.500000 0.000000 0.500000
O O8 0.346738 0.128998 0.303973
O O9 0.935235 0.359811 0.554902
O O10 0.056301 0.563406 0.803311
O O11 0.863109 0.728105 0.703998
O O12 0.271444 0.645117 0.529175
O O13 0.179490 0.931842 0.383670
O O14 0.209752 0.990425 0.050309
O O15 0.000000 0.000000 0.000000
#
# Coordination Sequence:
#
# PCOD9049393 Si02
#       7
#     2   2   2   2   2   2   2
#     4  10  24  47  70 108 152 186 241 300 358 435
#     4  11  23  48  73 106 143 188 245 306 356 424
#     4  10  24  46  73 105 149 190 234 299 362 435
#     4  12  25  43  74 104 143 191 239 294 360 426
#     4  11  25  42  77 104 138 188 244 297 359 424
#     4  11  27  46  69 110 154 190 239 294 358 439
#     4  11  24  47  74 105 143 192 240 294 363 428
#
# _framework density 22.448657999999998
#
# number of rings (size 3 to 8) (size 9 to 14) (size 15 to 20)
#    0.000    1.143    2.857    1.714    8.000    4.000 
#    0.000    3.571    3.143    0.000    0.000    0.000 
#    0.000    0.000    0.000    0.000    0.000    0.000 
#
# Total GULP energy -78402.905752 kJ/mol
# GULP energy per Si atom -5600.207554 kJ/mol
# Density = 2.239756 g / cm^3
# Si number density = 22.448658 Si / 1000 Ang^3
#
#
#
# Elastic Constant Matrix: (Units=GPa)
#
#
# Indices 1 2 3 4 5 6 
#
# 1 124.2817 59.4277 28.7627 -11.6932 -5.9637 16.1242
# 2 59.4277 156.5558 69.5415 -14.0511 1.0526 7.2752
# 3 28.7627 69.5415 117.8248 1.3348 2.2365 0.0878
# 4 -11.6932 -14.0511 1.3348 42.6632 5.3578 -0.4124
# 5 -5.9637 1.0526 2.2365 5.3578 40.2952 -7.1779
# 6 16.1242 7.2752 0.0878 -0.4124 -7.1779 47.4879
#
#
#
# Elastic Compliance Matrix: (Units=1/GPa)
#
#
# Indices 1 2 3 4 5 6 
#
# 1 0.010374 -0.003429 -0.000542 0.001586 0.000938 -0.002841
# 2 -0.003429 0.010298 -0.005254 0.002729 -0.000941 -0.000522
# 3 -0.000542 -0.005254 0.011747 -0.002221 -0.000135 0.000928
# 4 0.001586 0.002729 -0.002221 0.025244 -0.003289 -0.001230
# 5 0.000938 -0.000941 -0.000135 -0.003289 0.026092 0.003741
# 6 -0.002841 -0.000522 0.000928 -0.001230 0.003741 0.022656
#
#
# Mechanical properties :
#
#
# Convention : Reuss Voigt Hill
#
# Bulk Modulus (GPa) = 71.58356 79.34734 75.46545
# Shear Modulus (GPa) = 38.60477 42.15128 40.37803
#
# Velocity S-wave (km/s) = 4.15142 4.33792 4.24569
# Velocity P-wave (km/s) = 7.41188 7.77900 7.59766
#
# Compressibility (1/GPa) = 0.01396969
#
# Stress axis : x y z
#
# Youngs Moduli (GPa) = 96.39335 97.10187 85.12490
#
# Poissons Ratio (x) = 0.33297 0.04616
# Poissons Ratio (y) = 0.33054 0.44723
# Poissons Ratio (z) = 0.05227 0.51016
#
# Static dielectric constant tensor:
#      x y z
#    x 1.836430 0.015030 -0.029600 
#    y 0.015030 1.867780 0.002920 
#    z -0.029600 0.002920 1.862330 
# 
# From -- ./inp_files/229720.got.cif
#   From: 2010.05.17/outbox.cif.g08.bks.cpg/sg2_115_cif.got.tgz:229720.got - 2010.06.03 11:33:40.
