data_PCOD9049894
_publ_section_title
;
Structure prediction by ZEFSAII (Michael W. Deem and Ramdas Pophale) SiO2 
 PCOD9049894
Probable space group: P -1
;
_chemical_formula_sum "Si O2"
_cell_formula_units_Z 16
_cell_length_a 13.709298
_cell_length_b 11.495691
_cell_length_c 19.124401
_cell_angle_alpha 156.229665
_cell_angle_beta 149.495498
_cell_angle_gamma 31.781013
_cell_volume 588.079898
_symmetry_space_group_name_H-M "P -1"
_symmetry_group_IT_number 2
_symmetry_cell_setting 'triclinic'
loop_
_space_group_symop_operation_xyz
x,y,z
-x,-y,-z
loop_
_atom_site_type_symbol
_atom_site_label
_atom_site_fract_x
_atom_site_fract_y
_atom_site_fract_z
Si Si1 0.225213 0.263781 0.859103
Si Si2 0.566601 0.394601 0.350538
Si Si3 0.298595 0.386149 0.585458
Si Si4 0.444408 0.700614 0.181824
Si Si5 0.767016 0.154110 0.000906
Si Si6 0.988600 0.625255 0.355898
Si Si7 0.868819 0.190191 0.688479
Si Si8 0.003776 0.026369 0.203178
O O1 0.129838 0.225309 0.704124
O O2 0.051493 0.283680 0.818400
O O3 0.406695 0.962722 0.823343
O O4 0.298607 0.556610 0.056526
O O5 0.586153 0.498466 0.340405
O O6 0.349278 0.597847 0.353006
O O7 0.773650 0.419379 0.527196
O O8 0.426788 0.195226 0.623466
O O9 0.163155 0.191079 0.364042
O O10 0.159624 0.691449 0.703927
O O11 0.591686 0.408184 0.072605
O O12 0.341235 0.919800 0.175672
O O13 0.919415 0.328316 0.161270
O O14 0.886693 0.934198 0.014759
O O15 0.905597 0.852078 0.494229
O O16 0.899293 0.180162 0.784995
#
# Coordination Sequence:
#
# PCOD9049894 Si02
#       8
#     2   2   2   2   2   2   2   2
#     4  10  22  38  56  82 118 157 190 227 283 345
#     4  11  21  35  56  89 116 147 195 235 279 341
#     4  10  18  34  59  85 114 147 191 237 284 334
#     4   9  19  33  61  85 112 155 189 227 288 343
#     4   9  17  35  61  89 109 146 194 235 287 338
#     4  10  19  38  60  85 116 144 192 245 284 333
#     4  11  21  34  57  89 115 151 187 238 287 330
#     4  10  17  34  61  84 114 144 188 246 283 328
#
# _framework density 27.207184999999999
#
# number of rings (size 3 to 8) (size 9 to 14) (size 15 to 20)
#    0.000    2.000    3.750    3.000    0.000    3.000 
#    0.000    0.625    0.000    0.750    0.000    0.000 
#    0.000    0.000    0.000    0.000    0.000    0.000 
#
# Total GULP energy -89709.546437 kJ/mol
# GULP energy per Si atom -5606.846652 kJ/mol
# Density = 2.714526 g / cm^3
# Si number density = 27.207185 Si / 1000 Ang^3
#
#
#
# Elastic Constant Matrix: (Units=GPa)
#
#
# Indices 1 2 3 4 5 6 
#
# 1 77.7997 36.9559 12.9413 -12.8533 -9.6034 22.9450
# 2 36.9559 174.4054 35.1409 -17.7570 -13.1618 0.3341
# 3 12.9413 35.1409 81.7196 -8.3155 -21.8244 21.1428
# 4 -12.8533 -17.7570 -8.3155 53.2818 11.7710 -11.8118
# 5 -9.6034 -13.1618 -21.8244 11.7710 42.0980 -19.0056
# 6 22.9450 0.3341 21.1428 -11.8118 -19.0056 60.3520
#
#
#
# Elastic Compliance Matrix: (Units=1/GPa)
#
#
# Indices 1 2 3 4 5 6 
#
# 1 0.016459 -0.003450 0.000573 0.001594 -0.000278 -0.006215
# 2 -0.003450 0.007276 -0.002947 0.001590 0.000812 0.002870
# 3 0.000573 -0.002947 0.015960 -0.000536 0.005795 -0.004073
# 4 0.001594 0.001590 -0.000536 0.021059 -0.004240 0.002359
# 5 -0.000278 0.000812 0.005795 -0.004240 0.031345 0.007112
# 6 -0.006215 0.002870 -0.004073 0.002359 0.007112 0.023045
#
#
# Mechanical properties :
#
#
# Convention : Reuss Voigt Hill
#
# Bulk Modulus (GPa) = 35.65371 56.00011 45.82691
# Shear Modulus (GPa) = 36.72701 47.73879 42.23290
#
# Velocity S-wave (km/s) = 3.67809 4.19339 3.94416
# Velocity P-wave (km/s) = 5.58307 6.63879 6.13369
#
# Compressibility (1/GPa) = 0.02804757
#
# Stress axis : x y z
#
# Youngs Moduli (GPa) = 60.75796 137.43640 62.65632
#
# Poissons Ratio (x) = 0.47412 -0.03589
# Poissons Ratio (y) = 0.20960 0.18462
# Poissons Ratio (z) = -0.03480 0.40497
#
# Static dielectric constant tensor:
#      x y z
#    x 2.098620 -0.066960 -0.012630 
#    y -0.066960 2.139230 0.013510 
#    z -0.012630 0.013510 2.094810 
# 
# From -- ./inp_files/598042.got.cif
#   From: 2010.05.17/outbox.cif.g08.bks.cpg/sg2_300_cif.got.tgz:598042.got - 2010.06.03 11:33:40.
