data_PCOD9049406
_publ_section_title
;
Structure prediction by ZEFSAII (Michael W. Deem and Ramdas Pophale) SiO2 
 PCOD9049406
Probable space group: P -1
;
_chemical_formula_sum "Si O2"
_cell_formula_units_Z 12
_cell_length_a 13.049701
_cell_length_b 9.340104
_cell_length_c 16.028593
_cell_angle_alpha 52.149834
_cell_angle_beta 153.995340
_cell_angle_gamma 109.060581
_cell_volume 514.196055
_symmetry_space_group_name_H-M "P -1"
_symmetry_group_IT_number 2
_symmetry_cell_setting 'triclinic'
loop_
_space_group_symop_operation_xyz
x,y,z
-x,-y,-z
loop_
_atom_site_type_symbol
_atom_site_label
_atom_site_fract_x
_atom_site_fract_y
_atom_site_fract_z
Si Si1 0.440929 0.593506 0.517080
Si Si2 0.243349 0.471984 0.808904
Si Si3 0.759225 0.162575 0.010594
Si Si4 0.768971 0.021871 0.256300
Si Si5 0.325930 0.142496 0.405197
Si Si6 0.214051 0.137909 0.007100
O O1 0.500000 0.500000 0.500000
O O2 0.676802 0.639326 0.683917
O O3 0.079640 0.806153 0.184685
O O4 0.485282 0.428293 0.683689
O O5 0.192480 0.361695 0.888631
O O6 0.921117 0.742289 0.460966
O O7 0.500000 0.500000 0.000000
O O8 0.425441 0.250061 0.955268
O O9 0.044879 0.147934 0.203763
O O10 0.782548 0.097010 0.146918
O O11 0.744739 0.997307 0.998732
O O12 0.000000 0.000000 0.500000
O O13 0.500000 0.000000 0.500000
O O14 0.511050 0.021739 0.669805
#
# Coordination Sequence:
#
# PCOD9049406 Si02
#       6
#     2   2   2   2   2   2
#     4  12  26  47  74 110 151 192 253 316 374 453
#     4  10  24  46  74 104 150 192 250 314 378 448
#     4  12  27  46  77 107 146 202 249 307 386 452
#     4  10  24  46  73 108 145 192 255 310 373 454
#     4  12  24  47  74 104 151 197 246 311 377 453
#     4  12  27  47  74 108 150 194 253 314 378 455
#
# _framework density 23.337402000000001
#
# number of rings (size 3 to 8) (size 9 to 14) (size 15 to 20)
#    0.000    0.667    3.333    4.000    4.667    6.667 
#    0.000    0.000    0.000    0.000    0.000    0.000 
#    0.000    0.000    0.000    0.000    0.000    0.000 
#
# Total GULP energy -66966.887990 kJ/mol
# GULP energy per Si atom -5580.573999 kJ/mol
# Density = 2.328428 g / cm^3
# Si number density = 23.337402 Si / 1000 Ang^3
#
#
#
# Elastic Constant Matrix: (Units=GPa)
#
#
# Indices 1 2 3 4 5 6 
#
# 1 125.5486 42.4891 31.3083 -19.4888 -27.4296 1.6030
# 2 42.4891 138.9262 44.1417 1.9966 -16.2486 10.4653
# 3 31.3083 44.1417 74.2797 -18.5739 -12.3293 2.9034
# 4 -19.4888 1.9966 -18.5739 53.1634 3.6740 -9.2173
# 5 -27.4296 -16.2486 -12.3293 3.6740 50.7856 -5.8469
# 6 1.6030 10.4653 2.9034 -9.2173 -5.8469 53.4636
#
#
#
# Elastic Compliance Matrix: (Units=1/GPa)
#
#
# Indices 1 2 3 4 5 6 
#
# 1 0.010650 -0.002391 -0.001524 0.003375 0.004523 0.001308
# 2 -0.002391 0.010012 -0.005679 -0.003647 0.000550 -0.002148
# 3 -0.001524 -0.005679 0.019350 0.006541 0.001748 0.001425
# 4 0.003375 -0.003647 0.006541 0.023153 0.001072 0.004366
# 5 0.004523 0.000550 0.001748 0.001072 0.022928 0.002354
# 6 0.001308 -0.002148 0.001425 0.004366 0.002354 0.020018
#
#
# Mechanical properties :
#
#
# Convention : Reuss Voigt Hill
#
# Bulk Modulus (GPa) = 48.02139 63.84808 55.93473
# Shear Modulus (GPa) = 37.81008 46.20355 42.00682
#
# Velocity S-wave (km/s) = 4.02947 4.45433 4.24722
# Velocity P-wave (km/s) = 6.50158 7.33981 6.93338
#
# Compressibility (1/GPa) = 0.02082405
#
# Stress axis : x y z
#
# Youngs Moduli (GPa) = 93.89825 99.87805 51.67964
#
# Poissons Ratio (x) = 0.23879 0.07877
# Poissons Ratio (y) = 0.22449 0.29348
# Poissons Ratio (z) = 0.14313 0.56720
#
# Static dielectric constant tensor:
#      x y z
#    x 1.849720 0.022250 0.010670 
#    y 0.022250 1.863550 -0.056650 
#    z 0.010670 -0.056650 1.947000 
# 
# From -- ./inp_files/33992.got.cif
#   From: 2010.05.17/outbox.cif.g08.bks.cpg/sg2_17_cif.got.tgz:33992.got - 2010.06.03 11:33:40.
