data_PCOD9050844
_publ_section_title
;
Structure prediction by ZEFSAII (Michael W. Deem and Ramdas Pophale) SiO2 
 PCOD9050844
Probable space group: P -1
;
_chemical_formula_sum "Si O2"
_cell_formula_units_Z 12
_cell_length_a 11.655274
_cell_length_b 5.597173
_cell_length_c 7.297024
_cell_angle_alpha 89.955514
_cell_angle_beta 104.122773
_cell_angle_gamma 94.558645
_cell_volume 460.099132
_symmetry_space_group_name_H-M "P -1"
_symmetry_group_IT_number 2
_symmetry_cell_setting 'triclinic'
loop_
_space_group_symop_operation_xyz
x,y,z
-x,-y,-z
loop_
_atom_site_type_symbol
_atom_site_label
_atom_site_fract_x
_atom_site_fract_y
_atom_site_fract_z
Si Si1 0.205842 0.825392 0.453340
Si Si2 0.810952 0.110705 0.177171
Si Si3 0.389991 0.221180 0.000047
Si Si4 0.810786 0.835457 0.849602
Si Si5 0.569482 0.443771 0.338561
Si Si6 0.009869 0.475162 0.221040
O O1 0.188260 0.993683 0.620364
O O2 0.304510 0.648646 0.553483
O O3 0.078181 0.697481 0.346814
O O4 0.253020 0.974218 0.296336
O O5 0.119580 0.630946 0.769443
O O6 0.676767 0.043242 0.056945
O O7 0.877594 0.976124 0.044100
O O8 0.284676 0.339288 0.076613
O O9 0.493736 0.241505 0.188629
O O10 0.416263 0.347977 0.814559
O O11 0.893961 0.720584 0.738500
O O12 0.500000 0.500000 0.500000
O O13 0.000000 0.500000 0.000000
#
# Coordination Sequence:
#
# PCOD9050844 Si02
#       6
#     2   2   2   2   2   2
#     4  12  27  43  74 108 137 190 236 288 349 419
#     4  10  25  44  69 106 143 184 232 288 351 415
#     4   9  24  45  70  99 141 179 227 295 344 408
#     4  10  25  47  69 105 143 183 233 289 344 415
#     4  11  25  47  72 103 138 183 240 291 352 417
#     4  12  24  46  73 103 148 189 230 284 351 418
#
# _framework density 26.081336
#
# number of rings (size 3 to 8) (size 9 to 14) (size 15 to 20)
#    1.000    0.333    1.667    2.000    7.000    4.667 
#    0.000    0.000    0.000    0.000    0.000    0.000 
#    0.000    0.000    0.000    0.000    0.000    0.000 
#
# Total GULP energy -66882.048426 kJ/mol
# GULP energy per Si atom -5573.504036 kJ/mol
# Density = 2.602197 g / cm^3
# Si number density = 26.081336 Si / 1000 Ang^3
#
#
#
# Elastic Constant Matrix: (Units=GPa)
#
#
# Indices 1 2 3 4 5 6 
#
# 1 148.3822 38.4488 64.3651 2.6506 -2.8232 17.1681
# 2 38.4488 35.1655 36.6699 -15.7899 -2.2083 -2.1001
# 3 64.3651 36.6699 212.6899 -13.6089 -11.7465 14.2531
# 4 2.6506 -15.7899 -13.6089 27.4385 4.3231 5.0827
# 5 -2.8232 -2.2083 -11.7465 4.3231 59.1998 4.8732
# 6 17.1681 -2.1001 14.2531 5.0827 4.8732 38.9813
#
#
#
# Elastic Compliance Matrix: (Units=1/GPa)
#
#
# Indices 1 2 3 4 5 6 
#
# 1 0.012669 -0.018091 -0.001073 -0.011429 0.000945 -0.004790
# 2 -0.018091 0.071457 -0.005094 0.039129 -0.002800 0.008928
# 3 -0.001073 -0.005094 0.006147 0.000460 0.001130 -0.002251
# 4 -0.011429 0.039129 0.000460 0.060932 -0.003399 -0.000547
# 5 0.000945 -0.002800 0.001130 -0.003399 0.017530 -0.002729
# 6 -0.004790 0.008928 -0.002251 -0.000547 -0.002729 0.029479
#
#
# Mechanical properties :
#
#
# Convention : Reuss Voigt Hill
#
# Bulk Modulus (GPa) = 23.94859 75.02279 49.48569
# Shear Modulus (GPa) = 19.18283 42.24083 30.71183
#
# Velocity S-wave (km/s) = 2.71495 4.02877 3.43525
# Velocity P-wave (km/s) = 4.36236 7.10413 5.89486
#
# Compressibility (1/GPa) = 0.04175612
#
# Stress axis : x y z
#
# Youngs Moduli (GPa) = 78.93320 13.99445 162.67185
#
# Poissons Ratio (x) = 0.25318 0.17452
# Poissons Ratio (y) = 1.42801 0.82870
# Poissons Ratio (z) = 0.08468 0.07129
#
# Static dielectric constant tensor:
#      x y z
#    x 2.249360 -0.124340 -0.037430 
#    y -0.124340 2.251170 0.030310 
#    z -0.037430 0.030310 1.983780 
# 
# From -- ./inp_files/214203.got.cif
#   From: 2010.05.17/outbox.cif.g08.bks.cpg/sg2_108_cif.got.tgz:214203.got - 2010.06.03 11:33:40.
