data_PCOD9050186
_publ_section_title
;
Structure prediction by ZEFSAII (Michael W. Deem and Ramdas Pophale) SiO2 
 PCOD9050186
Probable space group: P -1
;
_chemical_formula_sum "Si O2"
_cell_formula_units_Z 16
_cell_length_a 14.573182
_cell_length_b 10.136372
_cell_length_c 15.657309
_cell_angle_alpha 44.208788
_cell_angle_beta 154.778524
_cell_angle_gamma 132.279616
_cell_volume 684.910019
_symmetry_space_group_name_H-M "P -1"
_symmetry_group_IT_number 2
_symmetry_cell_setting 'triclinic'
loop_
_space_group_symop_operation_xyz
x,y,z
-x,-y,-z
loop_
_atom_site_type_symbol
_atom_site_label
_atom_site_fract_x
_atom_site_fract_y
_atom_site_fract_z
Si Si1 0.448632 0.048625 0.597091
Si Si2 0.178929 0.164849 0.470453
Si Si3 0.145530 0.176508 0.003079
Si Si4 0.347611 0.536230 0.087099
Si Si5 0.665661 0.538129 0.200021
Si Si6 0.426578 0.527723 0.522058
Si Si7 0.750107 0.058394 0.197429
Si Si8 0.046295 0.780045 0.353555
O O1 0.371853 0.096825 0.605996
O O2 0.550990 0.246049 0.550404
O O3 0.631897 0.902659 0.808324
O O4 0.216410 0.965436 0.402689
O O5 0.205915 0.392269 0.396832
O O6 0.944933 0.071572 0.285997
O O7 0.198530 0.080286 0.619451
O O8 0.207903 0.338669 0.048790
O O9 0.017473 0.267869 0.775808
O O10 0.000000 0.000000 0.000000
O O11 0.551778 0.529095 0.199810
O O12 0.425385 0.557024 0.240723
O O13 0.241355 0.718637 0.876812
O O14 0.816891 0.364528 0.411708
O O15 0.809260 0.737065 0.216467
O O16 0.500000 0.500000 0.000000
O O17 0.500000 0.500000 0.500000
O O18 0.500000 0.000000 0.000000
#
# Coordination Sequence:
#
# PCOD9050186 Si02
#       8
#     2   2   2   2   2   2   2   2
#     4  11  25  46  72  99 151 190 247 303 357 447
#     4  10  25  47  71 102 141 193 243 301 371 424
#     4  12  28  45  71 113 149 197 247 296 378 444
#     4  12  25  44  78 103 151 187 242 307 370 441
#     4  11  24  44  69 109 152 190 236 295 372 453
#     4  10  24  49  70 100 139 200 249 299 357 430
#     4  11  25  44  71 108 141 182 246 304 362 435
#     4  11  24  43  69 107 152 191 235 295 373 446
#
# _framework density 23.360731000000001
#
# number of rings (size 3 to 8) (size 9 to 14) (size 15 to 20)
#    0.000    1.000    3.750    0.750    8.750    1.000 
#    0.000    1.250    0.000    0.000    0.000    0.000 
#    0.000    0.000    0.000    0.000    0.000    0.000 
#
# Total GULP energy -89195.624073 kJ/mol
# GULP energy per Si atom -5574.726505 kJ/mol
# Density = 2.330756 g / cm^3
# Si number density = 23.360731 Si / 1000 Ang^3
#
#
#
# Elastic Constant Matrix: (Units=GPa)
#
#
# Indices 1 2 3 4 5 6 
#
# 1 67.7488 40.5857 30.0959 19.1883 3.4739 24.2024
# 2 40.5857 173.7773 43.0322 28.2660 9.7004 23.0313
# 3 30.0959 43.0322 87.4826 19.5536 -0.2324 12.6548
# 4 19.1883 28.2660 19.5536 44.0842 3.2476 5.3227
# 5 3.4739 9.7004 -0.2324 3.2476 39.7484 6.5396
# 6 24.2024 23.0313 12.6548 5.3227 6.5396 36.1982
#
#
#
# Elastic Compliance Matrix: (Units=1/GPa)
#
#
# Indices 1 2 3 4 5 6 
#
# 1 0.023877 -0.001995 -0.004107 -0.005843 0.000921 -0.012566
# 2 -0.001995 0.007522 -0.002111 -0.002681 -0.001106 -0.002120
# 3 -0.004107 -0.002111 0.014767 -0.003411 0.001374 -0.000820
# 4 -0.005843 -0.002681 -0.003411 0.028224 -0.001647 0.002952
# 5 0.000921 -0.001106 0.001374 -0.001647 0.026297 -0.004901
# 6 -0.012566 -0.002120 -0.000820 0.002952 -0.004901 0.038115
#
#
# Mechanical properties :
#
#
# Convention : Reuss Voigt Hill
#
# Bulk Modulus (GPa) = 33.62433 61.82626 47.72530
# Shear Modulus (GPa) = 30.27769 38.35915 34.31842
#
# Velocity S-wave (km/s) = 3.60404 4.05660 3.83700
# Velocity P-wave (km/s) = 5.63414 6.96166 6.33278
#
# Compressibility (1/GPa) = 0.02974037
#
# Stress axis : x y z
#
# Youngs Moduli (GPa) = 41.88212 132.94571 67.72051
#
# Poissons Ratio (x) = 0.26524 0.27810
# Poissons Ratio (y) = 0.08356 0.14294
# Poissons Ratio (z) = 0.17199 0.28060
#
# Static dielectric constant tensor:
#      x y z
#    x 2.135270 0.080500 -1.189740 
#    y 0.080500 1.993650 -0.606130 
#    z -1.189740 -0.606130 10.964580 
# 
# From -- ./inp_files/575850.got.cif
#   From: 2010.05.17/outbox.cif.g08.bks.cpg/sg2_288_cif.got.tgz:575850.got - 2010.06.03 11:33:40.
