data_PCOD9050076
_publ_section_title
;
Structure prediction by ZEFSAII (Michael W. Deem and Ramdas Pophale) SiO2 
 PCOD9050076
Probable space group: P -1
;
_chemical_formula_sum "Si O2"
_cell_formula_units_Z 16
_cell_length_a 14.860521
_cell_length_b 8.305096
_cell_length_c 11.320245
_cell_angle_alpha 34.119311
_cell_angle_beta 115.640588
_cell_angle_gamma 105.149518
_cell_volume 693.407500
_symmetry_space_group_name_H-M "P -1"
_symmetry_group_IT_number 2
_symmetry_cell_setting 'triclinic'
loop_
_space_group_symop_operation_xyz
x,y,z
-x,-y,-z
loop_
_atom_site_type_symbol
_atom_site_label
_atom_site_fract_x
_atom_site_fract_y
_atom_site_fract_z
Si Si1 0.413381 0.666766 0.763050
Si Si2 0.087147 0.152136 0.901489
Si Si3 0.960874 0.344115 0.254321
Si Si4 0.870797 0.331705 0.964198
Si Si5 0.380807 0.113428 0.832800
Si Si6 0.663582 0.746698 0.521354
Si Si7 0.542928 0.331232 0.476174
Si Si8 0.307839 0.146731 0.023866
O O1 0.471414 0.658347 0.677291
O O2 0.362191 0.002033 0.548153
O O3 0.500000 0.500000 0.000000
O O4 0.323399 0.479961 0.828567
O O5 0.061692 0.486905 0.734511
O O6 0.204175 0.075239 0.058503
O O7 0.099774 0.003451 0.867095
O O8 0.000000 0.000000 0.000000
O O9 0.045658 0.500079 0.147241
O O10 0.875422 0.363305 0.090036
O O11 0.000000 0.000000 0.500000
O O12 0.764969 0.514589 0.742254
O O13 0.342214 0.042687 0.726431
O O14 0.376670 0.455641 0.597558
O O15 0.319292 0.061698 0.943523
O O16 0.500000 0.000000 0.000000
O O17 0.566097 0.588352 0.572894
O O18 0.596918 0.028241 0.745292
#
# Coordination Sequence:
#
# PCOD9050076 Si02
#       8
#     2   2   2   2   2   2   2   2
#     4  11  24  42  61 104 146 190 242 287 356 434
#     4  10  24  48  75 103 143 185 242 307 369 438
#     4  10  24  49  74 100 138 180 235 313 373 431
#     4  10  25  45  68 109 137 180 247 295 367 445
#     4  11  23  41  61  99 144 185 239 288 346 438
#     4  12  23  41  69 101 145 190 238 299 355 438
#     4  11  23  41  65  94 143 192 232 286 358 426
#     4  11  24  43  68  99 141 194 234 294 363 429
#
# _framework density 23.074456000000001
#
# number of rings (size 3 to 8) (size 9 to 14) (size 15 to 20)
#    0.000    1.250    2.500    2.250    5.250    1.500 
#    0.000    2.500    0.000    0.000    0.000    0.000 
#    0.000    0.000    0.000    0.000    0.000    0.000 
#
# Total GULP energy -89123.626281 kJ/mol
# GULP energy per Si atom -5570.226643 kJ/mol
# Density = 2.302194 g / cm^3
# Si number density = 23.074456 Si / 1000 Ang^3
#
#
#
# Elastic Constant Matrix: (Units=GPa)
#
#
# Indices 1 2 3 4 5 6 
#
# 1 104.1183 26.0666 25.8339 12.4769 11.8335 9.8474
# 2 26.0666 99.1934 39.6028 -11.6368 2.2341 -7.2104
# 3 25.8339 39.6028 90.2654 -1.0049 3.4952 -6.5786
# 4 12.4769 -11.6368 -1.0049 51.2306 -2.0183 -1.5077
# 5 11.8335 2.2341 3.4952 -2.0183 29.7926 1.4623
# 6 9.8474 -7.2104 -6.5786 -1.5077 1.4623 32.1909
#
#
#
# Elastic Compliance Matrix: (Units=1/GPa)
#
#
# Indices 1 2 3 4 5 6 
#
# 1 0.012442 -0.003024 -0.002469 -0.004088 -0.004458 -0.004977
# 2 -0.003024 0.013446 -0.004799 0.003822 0.000863 0.003096
# 3 -0.002469 -0.004799 0.014094 -0.000154 -0.000450 0.002574
# 4 -0.004088 0.003822 -0.000154 0.021573 0.002671 0.002964
# 5 -0.004458 0.000863 -0.000450 0.002671 0.035506 -0.000023
# 6 -0.004977 0.003096 0.002574 0.002964 -0.000023 0.033947
#
#
# Mechanical properties :
#
#
# Convention : Reuss Voigt Hill
#
# Bulk Modulus (GPa) = 51.55724 52.95376 52.25550
# Shear Modulus (GPa) = 31.63402 36.11442 33.87422
#
# Velocity S-wave (km/s) = 3.70666 3.96046 3.83566
# Velocity P-wave (km/s) = 6.38055 6.62665 6.50477
#
# Compressibility (1/GPa) = 0.01939592
#
# Stress axis : x y z
#
# Youngs Moduli (GPa) = 80.37562 74.37145 70.95253
#
# Poissons Ratio (x) = 0.22493 0.17521
# Poissons Ratio (y) = 0.24309 0.34049
# Poissons Ratio (z) = 0.19848 0.35690
#
# Static dielectric constant tensor:
#      x y z
#    x 1.859980 -0.023320 -0.022700 
#    y -0.023320 2.113350 -0.001960 
#    z -0.022700 -0.001960 1.831710 
# 
# From -- ./inp_files/446546.got.cif
#   From: 2010.05.17/outbox.cif.g08.bks.cpg/sg2_224_cif.got.tgz:446546.got - 2010.06.03 11:33:40.
