data_PCOD9050776
_publ_section_title
;
Structure prediction by ZEFSAII (Michael W. Deem and Ramdas Pophale) SiO2 
 PCOD9050776
Probable space group: P -1
;
_chemical_formula_sum "Si O2"
_cell_formula_units_Z 16
_cell_length_a 9.041056
_cell_length_b 4.975221
_cell_length_c 28.978838
_cell_angle_alpha 88.860628
_cell_angle_beta 32.255835
_cell_angle_gamma 80.609895
_cell_volume 668.874861
_symmetry_space_group_name_H-M "P -1"
_symmetry_group_IT_number 2
_symmetry_cell_setting 'triclinic'
loop_
_space_group_symop_operation_xyz
x,y,z
-x,-y,-z
loop_
_atom_site_type_symbol
_atom_site_label
_atom_site_fract_x
_atom_site_fract_y
_atom_site_fract_z
Si Si1 0.266545 0.252249 0.584669
Si Si2 0.811507 0.543587 0.927204
Si Si3 0.405867 0.403094 0.726487
Si Si4 0.429411 0.705178 0.865121
Si Si5 0.166797 0.958291 0.019467
Si Si6 0.328655 0.850638 0.244143
Si Si7 0.274991 0.537690 0.488986
Si Si8 0.678333 0.848469 0.607306
O O1 0.171065 0.471710 0.567229
O O2 0.431820 0.380195 0.579026
O O3 0.003673 0.142186 0.670394
O O4 0.500000 0.000000 0.500000
O O5 0.764326 0.848761 0.959776
O O6 0.060601 0.493998 0.823313
O O7 0.937983 0.297051 0.931783
O O8 0.500000 0.500000 0.000000
O O9 0.546882 0.269166 0.738302
O O10 0.524012 0.662824 0.680409
O O11 0.517279 0.166187 0.659472
O O12 0.520301 0.377528 0.833498
O O13 0.098629 0.829318 0.936902
O O14 0.612812 0.855621 0.783991
O O15 0.428113 0.814660 0.917134
O O16 0.326761 0.272362 0.442306
O O17 0.011866 0.773273 0.535498
#
# Coordination Sequence:
#
# PCOD9050776 Si02
#       8
#     2   2   2   2   2   2   2   2
#     4  11  25  43  68  96 137 175 216 272 340 388
#     4  12  25  44  65  94 135 177 215 268 328 394
#     4  12  23  43  68  97 129 171 230 263 320 394
#     4  11  23  41  70  98 127 166 217 284 316 388
#     4  11  22  44  68  96 129 166 222 267 336 382
#     4  12  23  42  68  98 132 170 222 270 329 387
#     4  10  25  44  66  99 133 174 220 270 334 390
#     4  11  25  44  71  97 131 177 223 273 318 390
#
# _framework density 23.920767999999999
#
# number of rings (size 3 to 8) (size 9 to 14) (size 15 to 20)
#    0.000    0.750    3.750    3.375    5.250    3.000 
#    6.750    0.000    0.000    0.000    0.000    0.000 
#    0.000    0.000    0.000    0.000    0.000    0.000 
#
# Total GULP energy -89644.351924 kJ/mol
# GULP energy per Si atom -5602.771995 kJ/mol
# Density = 2.386632 g / cm^3
# Si number density = 23.920768 Si / 1000 Ang^3
#
#
#
# Elastic Constant Matrix: (Units=GPa)
#
#
# Indices 1 2 3 4 5 6 
#
# 1 85.2498 23.2087 48.9468 7.8638 -6.4838 24.9369
# 2 23.2087 85.7270 10.0700 5.0323 4.0697 14.1711
# 3 48.9468 10.0700 117.8084 2.7346 -4.7003 27.7876
# 4 7.8638 5.0323 2.7346 50.2973 5.5312 4.9737
# 5 -6.4838 4.0697 -4.7003 5.5312 32.0400 -8.9580
# 6 24.9369 14.1711 27.7876 4.9737 -8.9580 36.2825
#
#
#
# Elastic Compliance Matrix: (Units=1/GPa)
#
#
# Indices 1 2 3 4 5 6 
#
# 1 0.017894 -0.003163 -0.005619 -0.001774 0.001808 -0.006070
# 2 -0.003163 0.013344 0.001164 -0.000046 -0.003494 -0.004786
# 3 -0.005619 0.001164 0.012149 0.000890 -0.001439 -0.006374
# 4 -0.001774 -0.000046 0.000890 0.020994 -0.004830 -0.003514
# 5 0.001808 -0.003494 -0.001439 -0.004830 0.035630 0.010683
# 6 -0.006070 -0.004786 -0.006374 -0.003514 0.010683 0.041604
#
#
# Mechanical properties :
#
#
# Convention : Reuss Voigt Hill
#
# Bulk Modulus (GPa) = 35.52195 50.35960 42.94078
# Shear Modulus (GPa) = 30.07773 37.49460 33.78616
#
# Velocity S-wave (km/s) = 3.54982 3.96340 3.76229
# Velocity P-wave (km/s) = 5.62882 6.48406 6.07152
#
# Compressibility (1/GPa) = 0.02815160
#
# Stress axis : x y z
#
# Youngs Moduli (GPa) = 55.88332 74.93892 82.31144
#
# Poissons Ratio (x) = 0.23701 0.46253
# Poissons Ratio (y) = 0.17674 -0.09580
# Poissons Ratio (z) = 0.31402 -0.08722
#
# Static dielectric constant tensor:
#      x y z
#    x 2.006570 -0.049270 0.024570 
#    y -0.049270 1.887680 -0.010940 
#    z 0.024570 -0.010940 1.897370 
# 
# From -- ./inp_files/38129.got.cif
#   From: 2010.05.17/outbox.cif.g08.bks.cpg/sg2_20_cif.got.tgz:38129.got - 2010.06.03 11:33:40.
