data_PCOD9050108
_publ_section_title
;
Structure prediction by ZEFSAII (Michael W. Deem and Ramdas Pophale) SiO2 
 PCOD9050108
Probable space group: P -1
;
_chemical_formula_sum "Si O2"
_cell_formula_units_Z 12
_cell_length_a 7.218034
_cell_length_b 12.740710
_cell_length_c 16.201875
_cell_angle_alpha 28.556360
_cell_angle_beta 67.461347
_cell_angle_gamma 48.863071
_cell_volume 451.373977
_symmetry_space_group_name_H-M "P -1"
_symmetry_group_IT_number 2
_symmetry_cell_setting 'triclinic'
loop_
_space_group_symop_operation_xyz
x,y,z
-x,-y,-z
loop_
_atom_site_type_symbol
_atom_site_label
_atom_site_fract_x
_atom_site_fract_y
_atom_site_fract_z
Si Si1 0.162719 0.599414 0.437744
Si Si2 0.275973 0.557587 0.807658
Si Si3 0.158541 0.730425 0.893513
Si Si4 0.265461 0.203251 0.325255
Si Si5 0.645435 0.877408 0.148326
Si Si6 0.320880 0.431977 0.357590
O O1 0.380556 0.328443 0.655377
O O2 0.293874 0.586945 0.339494
O O3 0.000000 0.500000 0.500000
O O4 0.986542 0.932344 0.281702
O O5 0.118645 0.707730 0.819110
O O6 0.489794 0.584489 0.728694
O O7 0.016673 0.728841 0.667099
O O8 0.495058 0.177972 0.024654
O O9 0.500000 0.500000 0.000000
O O10 0.122992 0.545371 0.085290
O O11 0.993540 0.642280 0.238794
O O12 0.485142 0.937577 0.400794
O O13 0.500000 0.000000 0.000000
O O14 0.500000 0.000000 0.500000
#
# Coordination Sequence:
#
# PCOD9050108 Si02
#       6
#     2   2   2   2   2   2
#     4  10  24  48  76 110 152 203 255 313 385 465
#     4  12  27  48  76 115 155 203 259 320 385 460
#     4  12  25  48  78 111 152 205 255 316 388 464
#     4  12  27  49  76 113 154 200 257 323 388 462
#     4  11  24  46  75 113 153 199 255 322 384 453
#     4  11  24  47  75 110 152 200 254 318 382 460
#
# _framework density 26.585491999999999
#
# number of rings (size 3 to 8) (size 9 to 14) (size 15 to 20)
#    0.000    0.667    0.000    8.500    0.000    5.333 
#    0.000    4.167    0.000    0.000    0.000    0.000 
#    0.000    0.000    0.000    0.000    0.000    0.000 
#
# Total GULP energy -67187.740521 kJ/mol
# GULP energy per Si atom -5598.978377 kJ/mol
# Density = 2.652498 g / cm^3
# Si number density = 26.585492 Si / 1000 Ang^3
#
#
#
# Elastic Constant Matrix: (Units=GPa)
#
#
# Indices 1 2 3 4 5 6 
#
# 1 140.0741 28.3854 41.8353 7.9126 18.0115 -3.7393
# 2 28.3854 143.7193 69.2830 -12.5256 -7.2031 21.6257
# 3 41.8353 69.2830 176.7608 -28.5573 -1.5329 20.6900
# 4 7.9126 -12.5256 -28.5573 69.6782 10.5701 1.0411
# 5 18.0115 -7.2031 -1.5329 10.5701 43.7016 -3.2484
# 6 -3.7393 21.6257 20.6900 1.0411 -3.2484 40.6765
#
#
#
# Elastic Compliance Matrix: (Units=1/GPa)
#
#
# Indices 1 2 3 4 5 6 
#
# 1 0.008607 -0.001361 -0.002066 -0.001606 -0.003282 0.002345
# 2 -0.001361 0.009220 -0.002792 0.000476 0.001608 -0.003491
# 3 -0.002066 -0.002792 0.008087 0.003136 -0.000301 -0.002923
# 4 -0.001606 0.000476 0.003136 0.016450 -0.003328 -0.002683
# 5 -0.003282 0.001608 -0.000301 -0.003328 0.025377 0.001108
# 6 0.002345 -0.003491 -0.002923 -0.002683 0.001108 0.028300
#
#
# Mechanical properties :
#
#
# Convention : Reuss Voigt Hill
#
# Bulk Modulus (GPa) = 74.21002 82.17353 78.19177
# Shear Modulus (GPa) = 44.25873 52.21462 48.23668
#
# Velocity S-wave (km/s) = 4.08459 4.43654 4.26420
# Velocity P-wave (km/s) = 7.08657 7.56440 7.32938
#
# Compressibility (1/GPa) = 0.01347527
#
# Stress axis : x y z
#
# Youngs Moduli (GPa) = 116.18093 108.45618 123.65359
#
# Poissons Ratio (x) = 0.14764 0.25547
# Poissons Ratio (y) = 0.15816 0.34529
# Poissons Ratio (z) = 0.24003 0.30285
#
# Static dielectric constant tensor:
#      x y z
#    x 2.699070 0.303570 -0.459040 
#    y 0.303570 2.440030 -0.092230 
#    z -0.459040 -0.092230 2.459070 
# 
# From -- ./inp_files/292802.got.cif
#   From: 2010.05.17/outbox.cif.g08.bks.cpg/sg2_147_cif.got.tgz:292802.got - 2010.06.03 11:33:40.
