data_PCOD9050290
_publ_section_title
;
Structure prediction by ZEFSAII (Michael W. Deem and Ramdas Pophale) SiO2 
 PCOD9050290
Probable space group: P -1
;
_chemical_formula_sum "Si O2"
_cell_formula_units_Z 15
_cell_length_a 20.158717
_cell_length_b 10.611915
_cell_length_c 8.724879
_cell_angle_alpha 103.491814
_cell_angle_beta 55.124668
_cell_angle_gamma 148.033496
_cell_volume 660.567634
_symmetry_space_group_name_H-M "P -1"
_symmetry_group_IT_number 2
_symmetry_cell_setting 'triclinic'
loop_
_space_group_symop_operation_xyz
x,y,z
-x,-y,-z
loop_
_atom_site_type_symbol
_atom_site_label
_atom_site_fract_x
_atom_site_fract_y
_atom_site_fract_z
Si Si1 0.680311 0.269018 0.737970
Si Si2 0.036283 0.777126 0.586329
Si Si3 0.883397 0.846871 0.264896
Si Si4 0.889888 0.337719 0.334608
Si Si5 0.775242 0.065537 0.106286
Si Si6 0.542043 0.193088 0.589453
Si Si7 0.000000 0.000000 0.500000
Si Si8 0.298757 0.222514 0.124604
O O1 0.754101 0.235208 0.576932
O O2 0.624970 0.269739 0.663333
O O3 0.857125 0.580928 0.683426
O O4 0.500000 0.000000 0.000000
O O5 0.998948 0.596115 0.680603
O O6 0.123727 0.010305 0.646367
O O7 0.174693 0.947209 0.314016
O O8 0.692291 0.499045 0.396376
O O9 0.969209 0.916902 0.330809
O O10 0.000000 0.000000 0.000000
O O11 0.784710 0.096296 0.284043
O O12 0.022907 0.617726 0.136838
O O13 0.640227 0.984514 0.203747
O O14 0.709264 0.837153 0.055665
O O15 0.500000 0.000000 0.500000
O O16 0.200560 0.215604 0.290544
O O17 0.500000 0.500000 0.000000
#
# Coordination Sequence:
#
# PCOD9050290 Si02
#       8
#     2   2   2   2   2   2   1   2
#     4  12  26  45  77 108 145 197 253 318 387 452
#     4  11  25  47  66 105 147 180 253 301 376 457
#     4  11  27  45  77 107 147 203 246 314 389 450
#     4  11  25  44  69 106 140 195 237 313 377 453
#     4  11  24  43  74 100 147 191 248 306 383 444
#     4  12  26  48  72 110 148 188 260 312 372 465
#     4  10  24  50  72 106 154 196 262 314 376 460
#     4  11  24  46  71 104 141 201 241 310 385 446
#
# _framework density 22.707743000000001
#
# number of rings (size 3 to 8) (size 9 to 14) (size 15 to 20)
#    0.000    0.800    2.667    4.400    7.467    0.000 
#    2.400    1.333    0.000    0.000    0.000    0.000 
#    0.000    0.000    0.000    0.000    0.000    0.000 
#
# Total GULP energy -83637.572949 kJ/mol
# GULP energy per Si atom -5575.838197 kJ/mol
# Density = 2.265606 g / cm^3
# Si number density = 22.707743 Si / 1000 Ang^3
#
#
#
# Elastic Constant Matrix: (Units=GPa)
#
#
# Indices 1 2 3 4 5 6 
#
# 1 84.1110 14.2756 23.0960 2.5925 -16.5760 20.5190
# 2 14.2756 146.3932 65.1496 14.9747 -4.0615 8.1190
# 3 23.0960 65.1496 151.3186 2.5998 -16.4005 3.1962
# 4 2.5925 14.9747 2.5998 49.9448 1.0875 -4.2607
# 5 -16.5760 -4.0615 -16.4005 1.0875 42.4669 -3.8773
# 6 20.5190 8.1190 3.1962 -4.2607 -3.8773 32.2598
#
#
#
# Elastic Compliance Matrix: (Units=1/GPa)
#
#
# Indices 1 2 3 4 5 6 
#
# 1 0.015604 0.000041 -0.001670 -0.001641 0.004631 -0.009430
# 2 0.000041 0.008912 -0.003830 -0.002657 -0.000756 -0.002331
# 3 -0.001670 -0.003830 0.008733 0.000861 0.002476 0.001572
# 4 -0.001641 -0.002657 0.000861 0.021245 -0.000709 0.004348
# 5 0.004631 -0.000756 0.002476 -0.000709 0.026263 0.000062
# 6 -0.009430 -0.002331 0.001572 0.004348 0.000062 0.038009
#
#
# Mechanical properties :
#
#
# Convention : Reuss Voigt Hill
#
# Bulk Modulus (GPa) = 44.78234 65.20725 54.99479
# Shear Modulus (GPa) = 36.46222 43.55442 40.00832
#
# Velocity S-wave (km/s) = 4.01149 4.38430 4.20203
# Velocity P-wave (km/s) = 6.42028 7.37615 6.91475
#
# Compressibility (1/GPa) = 0.02233023
#
# Stress axis : x y z
#
# Youngs Moduli (GPa) = 64.08464 112.21383 114.51010
#
# Poissons Ratio (x) = -0.00458 0.19123
# Poissons Ratio (y) = -0.00262 0.43858
# Poissons Ratio (z) = 0.10702 0.42979
#
# Static dielectric constant tensor:
#      x y z
#    x 1.846920 -0.023100 0.026250 
#    y -0.023100 1.710440 -0.095090 
#    z 0.026250 -0.095090 1.752420 
# 
# From -- ./inp_files/345433.got.cif
#   From: 2010.05.17/outbox.cif.g08.bks.cpg/sg2_173_cif.got.tgz:345433.got - 2010.06.03 11:33:40.
