data_PCOD9050521
_publ_section_title
;
Structure prediction by ZEFSAII (Michael W. Deem and Ramdas Pophale) SiO2 
 PCOD9050521
Probable space group: P -1
;
_chemical_formula_sum "Si O2"
_cell_formula_units_Z 14
_cell_length_a 12.890543
_cell_length_b 9.186494
_cell_length_c 18.517067
_cell_angle_alpha 144.298566
_cell_angle_beta 150.374302
_cell_angle_gamma 48.833567
_cell_volume 623.861883
_symmetry_space_group_name_H-M "P -1"
_symmetry_group_IT_number 2
_symmetry_cell_setting 'triclinic'
loop_
_space_group_symop_operation_xyz
x,y,z
-x,-y,-z
loop_
_atom_site_type_symbol
_atom_site_label
_atom_site_fract_x
_atom_site_fract_y
_atom_site_fract_z
Si Si1 0.578095 0.756620 0.195441
Si Si2 0.094289 0.500663 0.640127
Si Si3 0.206700 0.914277 0.124613
Si Si4 0.487045 0.606917 0.454236
Si Si5 0.000099 0.419854 0.885440
Si Si6 0.751525 0.045004 0.163373
Si Si7 0.752663 0.240190 0.403811
O O1 0.723896 0.673602 0.314403
O O2 0.374740 0.858381 0.143984
O O3 0.714891 0.990177 0.328369
O O4 0.500000 0.500000 0.000000
O O5 0.200537 0.795278 0.817008
O O6 0.000000 0.500000 0.500000
O O7 0.966347 0.451582 0.619385
O O8 0.342695 0.136325 0.344458
O O9 0.122258 0.657293 0.011524
O O10 0.000000 0.000000 0.000000
O O11 0.500000 0.500000 0.500000
O O12 0.559351 0.394149 0.360087
O O13 0.246365 0.648104 0.314389
O O14 0.128150 0.190555 0.861939
O O15 0.000000 0.500000 0.000000
O O16 0.804391 0.163536 0.323008
O O17 0.500000 0.000000 0.000000
#
# Coordination Sequence:
#
# PCOD9050521 Si02
#       7
#     2   2   2   2   2   2   2
#     4  12  25  43  74 105 136 184 243 297 357 424
#     4  10  25  42  69 101 140 182 230 290 358 421
#     4  12  27  48  75 106 148 190 244 299 368 429
#     4  12  26  48  76 106 149 191 240 302 366 432
#     4  12  28  48  75 111 148 191 242 301 364 435
#     4  11  24  48  71 102 149 188 236 297 361 431
#     4  11  24  44  72 103 140 183 246 291 358 425
#
# _framework density 22.440866
#
# number of rings (size 3 to 8) (size 9 to 14) (size 15 to 20)
#    0.000    0.571    2.857    3.857    8.000    2.857 
#    0.000    0.000    0.000    0.000    0.000    0.000 
#    0.000    0.000    0.000    0.000    0.000    0.000 
#
# Total GULP energy -78133.163308 kJ/mol
# GULP energy per Si atom -5580.940236 kJ/mol
# Density = 2.238979 g / cm^3
# Si number density = 22.440866 Si / 1000 Ang^3
#
#
#
# Elastic Constant Matrix: (Units=GPa)
#
#
# Indices 1 2 3 4 5 6 
#
# 1 129.5363 89.4875 30.5515 9.7803 24.1844 3.9867
# 2 89.4875 192.0139 45.6277 4.5282 34.4611 2.4305
# 3 30.5515 45.6277 73.1768 -10.6790 27.6522 10.1025
# 4 9.7803 4.5282 -10.6790 48.3924 3.7395 10.1351
# 5 24.1844 34.4611 27.6522 3.7395 45.3425 16.1911
# 6 3.9867 2.4305 10.1025 10.1351 16.1911 53.9723
#
#
#
# Elastic Compliance Matrix: (Units=1/GPa)
#
#
# Indices 1 2 3 4 5 6 
#
# 1 0.011914 -0.004782 -0.001799 -0.002358 -0.001646 0.000609
# 2 -0.004782 0.008539 -0.002500 -0.000452 -0.002871 0.001383
# 3 -0.001799 -0.002500 0.020824 0.006347 -0.009670 -0.001943
# 4 -0.002358 -0.000452 0.006347 0.023763 -0.002555 -0.004689
# 5 -0.001646 -0.002871 -0.009670 -0.002555 0.033952 -0.007645
# 6 0.000609 0.001383 -0.001943 -0.004689 -0.007645 0.021958
#
#
# Mechanical properties :
#
#
# Convention : Reuss Voigt Hill
#
# Bulk Modulus (GPa) = 43.25876 80.67339 61.96608
# Shear Modulus (GPa) = 34.05615 44.81211 39.43413
#
# Velocity S-wave (km/s) = 3.89986 4.47351 4.19650
# Velocity P-wave (km/s) = 6.29263 7.91899 7.15219
#
# Compressibility (1/GPa) = 0.02311670
#
# Stress axis : x y z
#
# Youngs Moduli (GPa) = 83.93430 117.11018 48.02247
#
# Poissons Ratio (x) = 0.55999 0.08637
# Poissons Ratio (y) = 0.40135 0.12004
# Poissons Ratio (z) = 0.15096 0.29274
#
# Static dielectric constant tensor:
#      x y z
#    x 1.804460 0.046650 0.128430 
#    y 0.046650 1.967520 0.245240 
#    z 0.128430 0.245240 1.664690 
# 
# From -- ./inp_files/567083.got.cif
#   From: 2010.05.17/outbox.cif.g08.bks.cpg/sg2_284_cif.got.tgz:567083.got - 2010.06.03 11:33:40.
