data_PCOD9050166
_publ_section_title
;
Structure prediction by ZEFSAII (Michael W. Deem and Ramdas Pophale) SiO2 
 PCOD9050166
Probable space group: P -1
;
_chemical_formula_sum "Si O2"
_cell_formula_units_Z 16
_cell_length_a 14.796603
_cell_length_b 16.450415
_cell_length_c 8.628894
_cell_angle_alpha 67.647195
_cell_angle_beta 91.033300
_cell_angle_gamma 150.405088
_cell_volume 699.358831
_symmetry_space_group_name_H-M "P -1"
_symmetry_group_IT_number 2
_symmetry_cell_setting 'triclinic'
loop_
_space_group_symop_operation_xyz
x,y,z
-x,-y,-z
loop_
_atom_site_type_symbol
_atom_site_label
_atom_site_fract_x
_atom_site_fract_y
_atom_site_fract_z
Si Si1 0.991558 0.813184 0.879879
Si Si2 0.706683 0.196680 0.212398
Si Si3 0.348757 0.014558 0.233480
Si Si4 0.600441 0.910590 0.451953
Si Si5 0.131134 0.404109 0.670219
Si Si6 0.322905 0.414824 0.489837
Si Si7 0.555048 0.384980 0.965598
Si Si8 0.882270 0.907165 0.732355
O O1 0.892448 0.822282 0.876670
O O2 0.806565 0.594379 0.915616
O O3 0.995775 0.768987 0.074382
O O4 0.258458 0.046955 0.637395
O O5 0.549826 0.118675 0.152440
O O6 0.500000 0.000000 0.500000
O O7 0.715026 0.101877 0.237988
O O8 0.000000 0.500000 0.000000
O O9 0.343996 0.032123 0.405020
O O10 0.445712 0.194704 0.038555
O O11 0.310957 0.637498 0.591580
O O12 0.298220 0.484321 0.525929
O O13 0.919385 0.249036 0.660037
O O14 0.500000 0.500000 0.500000
O O15 0.401652 0.510220 0.249750
O O16 0.048310 0.123796 0.681540
O O17 0.378733 0.279745 0.151861
O O18 0.000000 0.000000 0.500000
#
# Coordination Sequence:
#
# PCOD9050166 Si02
#       8
#     2   2   2   2   2   2   2   2
#     4  12  25  42  71  98 142 185 242 299 366 441
#     4  10  24  48  81 114 147 197 250 306 379 455
#     4  11  24  48  73 106 145 189 244 304 373 443
#     4  11  25  48  75 102 146 189 241 298 375 441
#     4  12  27  44  69 109 143 189 245 301 369 439
#     4  12  27  42  64  99 146 188 248 303 361 437
#     4  12  24  44  69  96 140 191 237 301 368 436
#     4  12  25  41  65  99 130 189 243 293 363 434
#
# _framework density 22.878098000000001
#
# number of rings (size 3 to 8) (size 9 to 14) (size 15 to 20)
#    0.000    0.500    3.750    4.125    7.000    2.500 
#    0.000    0.625    0.000    0.000    0.000    0.000 
#    0.000    0.000    0.000    0.000    0.000    0.000 
#
# Total GULP energy -89348.679001 kJ/mol
# GULP energy per Si atom -5584.292438 kJ/mol
# Density = 2.282603 g / cm^3
# Si number density = 22.878098 Si / 1000 Ang^3
#
#
#
# Elastic Constant Matrix: (Units=GPa)
#
#
# Indices 1 2 3 4 5 6 
#
# 1 119.1931 31.6143 25.6665 -8.8449 9.8876 28.7756
# 2 31.6143 138.3886 38.3750 -15.3273 12.6599 37.4740
# 3 25.6665 38.3750 65.4667 -4.5652 3.6845 10.2378
# 4 -8.8449 -15.3273 -4.5652 36.2353 -8.0412 0.3158
# 5 9.8876 12.6599 3.6845 -8.0412 32.4618 -11.0248
# 6 28.7756 37.4740 10.2378 0.3158 -11.0248 37.1394
#
#
#
# Elastic Compliance Matrix: (Units=1/GPa)
#
#
# Indices 1 2 3 4 5 6 
#
# 1 0.012947 0.003331 -0.003991 0.002113 -0.009394 -0.015099
# 2 0.003331 0.014958 -0.006079 0.003921 -0.011824 -0.019541
# 3 -0.003991 -0.006079 0.019471 -0.000501 0.002852 0.004710
# 4 0.002113 0.003921 -0.000501 0.030619 0.003923 -0.004552
# 5 -0.009394 -0.011824 0.002852 0.003923 0.050236 0.033301
# 6 -0.015099 -0.019541 0.004710 -0.004552 0.033301 0.066967
#
#
# Mechanical properties :
#
#
# Convention : Reuss Voigt Hill
#
# Bulk Modulus (GPa) = 29.50083 57.15113 43.32598
# Shear Modulus (GPa) = 22.72970 36.32680 29.52825
#
# Velocity S-wave (km/s) = 3.15542 3.98910 3.59650
# Velocity P-wave (km/s) = 5.11844 6.80089 6.01874
#
# Compressibility (1/GPa) = 0.03389735
#
# Stress axis : x y z
#
# Youngs Moduli (GPa) = 77.23874 66.85246 51.35766
#
# Poissons Ratio (x) = -0.22269 0.20498
# Poissons Ratio (y) = -0.25729 0.31222
# Poissons Ratio (z) = 0.30828 0.40642
#
# Static dielectric constant tensor:
#      x y z
#    x 2.001350 0.052590 -0.162500 
#    y 0.052590 1.922840 -0.083260 
#    z -0.162500 -0.083260 2.048690 
# 
# From -- ./inp_files/314879.got.cif
#   From: 2010.05.17/outbox.cif.g08.bks.cpg/sg2_158_cif.got.tgz:314879.got - 2010.06.03 11:33:40.
