data_PCOD9050389
_publ_section_title
;
Structure prediction by ZEFSAII (Michael W. Deem and Ramdas Pophale) SiO2 
 PCOD9050389
Probable space group: P -1
;
_chemical_formula_sum "Si O2"
_cell_formula_units_Z 16
_cell_length_a 9.179995
_cell_length_b 9.037287
_cell_length_c 11.436016
_cell_angle_alpha 53.428532
_cell_angle_beta 102.324495
_cell_angle_gamma 94.524720
_cell_volume 742.989804
_symmetry_space_group_name_H-M "P -1"
_symmetry_group_IT_number 2
_symmetry_cell_setting 'triclinic'
loop_
_space_group_symop_operation_xyz
x,y,z
-x,-y,-z
loop_
_atom_site_type_symbol
_atom_site_label
_atom_site_fract_x
_atom_site_fract_y
_atom_site_fract_z
Si Si1 0.812455 0.019373 0.301716
Si Si2 0.517129 0.995472 0.863987
Si Si3 0.059731 0.623588 0.848613
Si Si4 0.295596 0.838457 0.541071
Si Si5 0.636372 0.786931 0.672476
Si Si6 0.644760 0.354653 0.589933
Si Si7 0.650463 0.603983 0.984785
Si Si8 0.165686 0.350670 0.418419
O O1 0.648582 0.016933 0.216075
O O2 0.807312 0.104479 0.393693
O O3 0.876646 0.807073 0.422868
O O4 0.908820 0.174891 0.188085
O O5 0.612571 0.805170 0.937911
O O6 0.593708 0.173946 0.737377
O O7 0.500000 0.000000 0.000000
O O8 0.216312 0.522246 0.878418
O O9 0.050369 0.363909 0.286403
O O10 0.000000 0.500000 0.000000
O O11 0.459950 0.817807 0.636887
O O12 0.302025 0.682646 0.517655
O O13 0.290709 0.024371 0.375657
O O14 0.692402 0.632675 0.843355
O O15 0.681339 0.740334 0.570606
O O16 0.500000 0.500000 0.500000
O O17 0.784716 0.454197 0.621857
O O18 0.500000 0.500000 0.000000
#
# Coordination Sequence:
#
# PCOD9050389 Si02
#       8
#     2   2   2   2   2   2   2   2
#     4  11  23  46  68  99 130 184 233 281 334 410
#     4  12  26  41  68 108 144 174 228 296 348 398
#     4  12  26  43  72 102 139 182 230 283 346 416
#     4  10  18  36  67  93 128 168 233 276 326 393
#     4  10  17  34  62  93 127 169 219 278 318 395
#     4  12  22  38  67 104 136 176 223 287 347 401
#     4  12  23  42  68  98 132 182 235 273 337 409
#     4  11  24  41  67 100 138 176 229 281 346 405
#
# _framework density 21.534617999999998
#
# number of rings (size 3 to 8) (size 9 to 14) (size 15 to 20)
#    0.000    0.750    7.500    1.125    3.500    1.000 
#    0.000    1.250    5.500    0.000    0.000    0.000 
#    0.000    0.000    0.000    0.000    0.000    0.000 
#
# Total GULP energy -89223.273122 kJ/mol
# GULP energy per Si atom -5576.454570 kJ/mol
# Density = 2.148560 g / cm^3
# Si number density = 21.534618 Si / 1000 Ang^3
#
#
#
# Elastic Constant Matrix: (Units=GPa)
#
#
# Indices 1 2 3 4 5 6 
#
# 1 67.4109 29.0393 32.4617 -7.9244 10.9836 21.7783
# 2 29.0393 118.4201 46.1195 -10.1916 -8.9243 22.6398
# 3 32.4617 46.1195 118.2157 -18.2367 0.4886 23.7173
# 4 -7.9244 -10.1916 -18.2367 40.4570 0.2320 -6.2450
# 5 10.9836 -8.9243 0.4886 0.2320 32.5683 0.5759
# 6 21.7783 22.6398 23.7173 -6.2450 0.5759 37.9660
#
#
#
# Elastic Compliance Matrix: (Units=1/GPa)
#
#
# Indices 1 2 3 4 5 6 
#
# 1 0.021720 -0.003099 -0.002867 0.000907 -0.007986 -0.008550
# 2 -0.003099 0.011280 -0.002869 0.000431 0.004232 -0.003150
# 3 -0.002867 -0.002869 0.011555 0.003414 0.000042 -0.003302
# 4 0.000907 0.000431 0.003414 0.026777 -0.000456 0.001501
# 5 -0.007986 0.004232 0.000042 -0.000456 0.034535 0.001433
# 6 -0.008550 -0.003150 -0.003302 0.001501 0.001433 0.035410
#
#
# Mechanical properties :
#
#
# Convention : Reuss Voigt Hill
#
# Bulk Modulus (GPa) = 37.19499 57.69862 47.44681
# Shear Modulus (GPa) = 29.77828 35.29335 32.53581
#
# Velocity S-wave (km/s) = 3.72265 4.05274 3.89120
# Velocity P-wave (km/s) = 5.98224 6.98221 6.50148
#
# Compressibility (1/GPa) = 0.02688534
#
# Stress axis : x y z
#
# Youngs Moduli (GPa) = 46.04040 88.65335 86.54616
#
# Poissons Ratio (x) = 0.27473 0.24812
# Poissons Ratio (y) = 0.14267 0.24828
# Poissons Ratio (z) = 0.13200 0.25432
#
# Static dielectric constant tensor:
#      x y z
#    x 1.879340 0.002320 -0.064070 
#    y 0.002320 1.818650 -0.048050 
#    z -0.064070 -0.048050 1.856710 
# 
# From -- ./inp_files/416330.got.cif
#   From: 2010.05.17/outbox.cif.g08.bks.cpg/sg2_209_cif.got.tgz:416330.got - 2010.06.03 11:33:40.
