data_PCOD9050377
_publ_section_title
;
Structure prediction by ZEFSAII (Michael W. Deem and Ramdas Pophale) SiO2 
 PCOD9050377
Probable space group: P -1
;
_chemical_formula_sum "Si O2"
_cell_formula_units_Z 16
_cell_length_a 5.481509
_cell_length_b 9.030970
_cell_length_c 12.673789
_cell_angle_alpha 84.589778
_cell_angle_beta 81.182816
_cell_angle_gamma 101.505616
_cell_volume 602.450535
_symmetry_space_group_name_H-M "P -1"
_symmetry_group_IT_number 2
_symmetry_cell_setting 'triclinic'
loop_
_space_group_symop_operation_xyz
x,y,z
-x,-y,-z
loop_
_atom_site_type_symbol
_atom_site_label
_atom_site_fract_x
_atom_site_fract_y
_atom_site_fract_z
Si Si1 0.025890 0.628534 0.341271
Si Si2 0.531523 0.545962 0.617855
Si Si3 0.405729 0.891445 0.207982
Si Si4 0.409218 0.319302 0.927194
Si Si5 0.130277 0.078271 0.089824
Si Si6 0.750023 0.141207 0.272864
Si Si7 0.053560 0.181253 0.457057
Si Si8 0.759753 0.387157 0.073233
O O1 0.248442 0.534391 0.346029
O O2 0.147571 0.769031 0.249625
O O3 0.759970 0.526879 0.324880
O O4 0.994038 0.714582 0.447837
O O5 0.500000 0.500000 0.500000
O O6 0.662899 0.727299 0.605135
O O7 0.600081 0.790174 0.163931
O O8 0.364422 0.008868 0.113702
O O9 0.509599 0.998893 0.292783
O O10 0.415639 0.493026 0.892127
O O11 0.200880 0.250972 0.032939
O O12 0.651686 0.301053 0.979434
O O13 0.965820 0.070547 0.205548
O O14 0.000000 0.000000 0.000000
O O15 0.738894 0.275931 0.181624
O O16 0.857826 0.192892 0.376015
O O17 0.000000 0.000000 0.500000
O O18 0.000000 0.500000 0.000000
#
# Coordination Sequence:
#
# PCOD9050377 Si02
#       8
#     2   2   2   2   2   2   2   2
#     4  11  27  54  80 116 161 211 269 329 398 487
#     4  10  24  54  80 109 152 211 263 323 403 475
#     4  12  27  45  76 113 151 211 269 319 403 487
#     4  11  24  45  70 105 151 203 254 326 394 473
#     4  12  23  44  74 105 149 199 261 330 388 473
#     4  12  26  47  75 115 153 207 269 324 407 479
#     4  11  26  52  82 117 160 206 261 344 403 469
#     4  11  24  46  70 105 154 196 257 324 400 466
#
# _framework density 26.558195999999999
#
# number of rings (size 3 to 8) (size 9 to 14) (size 15 to 20)
#    0.000    0.750    3.750    3.375    5.250    1.500 
#   13.500    0.000    0.000    0.000    0.000    0.000 
#    0.000    0.000    0.000    0.000    0.000    0.000 
#
# Total GULP energy -89427.383244 kJ/mol
# GULP energy per Si atom -5589.211453 kJ/mol
# Density = 2.649775 g / cm^3
# Si number density = 26.558196 Si / 1000 Ang^3
#
#
#
# Elastic Constant Matrix: (Units=GPa)
#
#
# Indices 1 2 3 4 5 6 
#
# 1 122.2099 77.5913 34.1742 -22.6971 11.1299 22.4506
# 2 77.5913 206.1135 51.6340 -21.1776 13.4108 16.9845
# 3 34.1742 51.6340 91.8042 -5.2189 13.8063 6.9744
# 4 -22.6971 -21.1776 -5.2189 60.7252 3.1448 -1.0813
# 5 11.1299 13.4108 13.8063 3.1448 46.5925 -6.4089
# 6 22.4506 16.9845 6.9744 -1.0813 -6.4089 60.6487
#
#
#
# Elastic Compliance Matrix: (Units=1/GPa)
#
#
# Indices 1 2 3 4 5 6 
#
# 1 0.012331 -0.003394 -0.001904 0.003308 -0.002117 -0.003560
# 2 -0.003394 0.006916 -0.002451 0.000955 -0.000579 -0.000443
# 3 -0.001904 -0.002451 0.013431 -0.000272 -0.002864 -0.000461
# 4 0.003308 0.000955 -0.000272 0.018113 -0.002398 -0.001391
# 5 -0.002117 -0.000579 -0.002864 -0.002398 0.023659 0.003733
# 6 -0.003560 -0.000443 -0.000461 -0.001391 0.003733 0.018353
#
#
# Mechanical properties :
#
#
# Convention : Reuss Voigt Hill
#
# Bulk Modulus (GPa) = 58.21379 82.99185 70.60282
# Shear Modulus (GPa) = 43.84894 50.70848 47.27871
#
# Velocity S-wave (km/s) = 4.06772 4.37433 4.22381
# Velocity P-wave (km/s) = 6.63541 7.53856 7.10136
#
# Compressibility (1/GPa) = 0.01717806
#
# Stress axis : x y z
#
# Youngs Moduli (GPa) = 81.09489 144.59970 74.45664
#
# Poissons Ratio (x) = 0.49077 0.14180
# Poissons Ratio (y) = 0.27523 0.18251
# Poissons Ratio (z) = 0.15444 0.35445
#
# Static dielectric constant tensor:
#      x y z
#    x 2.379820 0.052820 -0.131590 
#    y 0.052820 2.168970 -0.005660 
#    z -0.131590 -0.005660 2.087370 
# 
# From -- ./inp_files/480428.got.cif
#   From: 2010.05.17/outbox.cif.g08.bks.cpg/sg2_241_cif.got.tgz:480428.got - 2010.06.03 11:33:40.
