data_PCOD9050540
_publ_section_title
;
Structure prediction by ZEFSAII (Michael W. Deem and Ramdas Pophale) SiO2 
 PCOD9050540
Probable space group: P -1
;
_chemical_formula_sum "Si O2"
_cell_formula_units_Z 16
_cell_length_a 5.629377
_cell_length_b 19.072816
_cell_length_c 25.255635
_cell_angle_alpha 161.696826
_cell_angle_beta 124.703286
_cell_angle_gamma 53.104195
_cell_volume 681.030448
_symmetry_space_group_name_H-M "P -1"
_symmetry_group_IT_number 2
_symmetry_cell_setting 'triclinic'
loop_
_space_group_symop_operation_xyz
x,y,z
-x,-y,-z
loop_
_atom_site_type_symbol
_atom_site_label
_atom_site_fract_x
_atom_site_fract_y
_atom_site_fract_z
Si Si1 0.851406 0.066375 0.971493
Si Si2 0.813056 0.239503 0.976459
Si Si3 0.335506 0.408850 0.655493
Si Si4 0.446564 0.138934 0.375735
Si Si5 0.904970 0.935408 0.555131
Si Si6 0.690820 0.639918 0.590494
Si Si7 0.979739 0.319849 0.713861
Si Si8 0.198818 0.594530 0.134530
O O1 0.961690 0.125991 0.968682
O O2 0.733738 0.845023 0.781326
O O3 0.680967 0.325055 0.148562
O O4 0.000000 0.000000 0.000000
O O5 0.764057 0.038190 0.786984
O O6 0.474611 0.399910 0.052088
O O7 0.986178 0.423467 0.110027
O O8 0.303487 0.343262 0.543725
O O9 0.119693 0.287722 0.574209
O O10 0.654289 0.294735 0.637938
O O11 0.493747 0.235438 0.393434
O O12 0.765525 0.033899 0.366410
O O13 0.837642 0.859691 0.433263
O O14 0.703431 0.187364 0.722805
O O15 0.500000 0.500000 0.500000
O O16 0.000000 0.500000 0.500000
O O17 0.998458 0.299926 0.764444
O O18 0.000000 0.500000 0.000000
#
# Coordination Sequence:
#
# PCOD9050540 Si02
#       8
#     2   2   2   2   2   2   2   2
#     4  11  24  46  77 105 143 187 241 298 373 444
#     4  11  24  46  65 108 138 185 241 300 364 436
#     4  11  24  46  69 106 139 191 239 297 370 442
#     4  10  25  42  71  99 147 188 242 305 368 437
#     4  11  24  44  69  99 140 189 241 301 362 447
#     4  11  27  49  75 112 149 196 251 311 379 449
#     4  11  24  43  70  96 149 176 245 296 372 432
#     4  12  25  43  69 101 140 189 246 298 369 434
#
# _framework density 23.493807
#
# number of rings (size 3 to 8) (size 9 to 14) (size 15 to 20)
#    0.000    1.000    3.750    1.125    5.250    6.500 
#    0.000    1.875    0.000    0.000    0.000    0.000 
#    0.000    0.000    0.000    0.000    0.000    0.000 
#
# Total GULP energy -89181.373343 kJ/mol
# GULP energy per Si atom -5573.835834 kJ/mol
# Density = 2.344033 g / cm^3
# Si number density = 23.493807 Si / 1000 Ang^3
#
#
#
# Elastic Constant Matrix: (Units=GPa)
#
#
# Indices 1 2 3 4 5 6 
#
# 1 43.0471 23.5859 42.8542 -12.0406 6.7305 10.2330
# 2 23.5859 155.6288 58.3567 -27.3416 4.2729 22.5337
# 3 42.8542 58.3567 196.1167 -17.7280 -1.7798 21.4451
# 4 -12.0406 -27.3416 -17.7280 53.3641 9.9139 -2.4681
# 5 6.7305 4.2729 -1.7798 9.9139 32.2967 0.1771
# 6 10.2330 22.5337 21.4451 -2.4681 0.1771 24.1707
#
#
#
# Elastic Compliance Matrix: (Units=1/GPa)
#
#
# Indices 1 2 3 4 5 6 
#
# 1 0.034938 -0.000288 -0.006081 0.007136 -0.009723 -0.008327
# 2 -0.000288 0.008714 -0.001503 0.004055 -0.002386 -0.006236
# 3 -0.006081 -0.001503 0.007132 -0.000245 0.001948 -0.002391
# 4 0.007136 0.004055 -0.000245 0.023894 -0.009349 -0.004076
# 5 -0.009723 -0.002386 0.001948 -0.009349 0.036263 0.003393
# 6 -0.008327 -0.006236 -0.002391 -0.004076 0.003393 0.052393
#
#
# Mechanical properties :
#
#
# Convention : Reuss Voigt Hill
#
# Bulk Modulus (GPa) = 28.53967 71.59847 50.06907
# Shear Modulus (GPa) = 26.21111 39.96600 33.08856
#
# Velocity S-wave (km/s) = 3.34377 4.12895 3.75693
# Velocity P-wave (km/s) = 5.20403 7.29881 6.33855
#
# Compressibility (1/GPa) = 0.03503894
#
# Stress axis : x y z
#
# Youngs Moduli (GPa) = 28.62201 114.76124 140.21147
#
# Poissons Ratio (x) = 0.03308 0.85266
# Poissons Ratio (y) = 0.00825 0.21074
# Poissons Ratio (z) = 0.17406 0.17249
#
# Static dielectric constant tensor:
#      x y z
#    x 1.983920 -0.024390 -0.024290 
#    y -0.024390 1.913480 0.047540 
#    z -0.024290 0.047540 1.923280 
# 
# From -- ./inp_files/52183.got.cif
#   From: 2010.05.17/outbox.cif.g08.bks.cpg/sg2_27_cif.got.tgz:52183.got - 2010.06.03 11:33:40.
