data_PCOD9050696
_publ_section_title
;
Structure prediction by ZEFSAII (Michael W. Deem and Ramdas Pophale) SiO2 
 PCOD9050696
Probable space group: P -1
;
_chemical_formula_sum "Si O2"
_cell_formula_units_Z 16
_cell_length_a 13.524090
_cell_length_b 9.171188
_cell_length_c 8.727133
_cell_angle_alpha 122.728741
_cell_angle_beta 57.383588
_cell_angle_gamma 112.995189
_cell_volume 759.433616
_symmetry_space_group_name_H-M "P -1"
_symmetry_group_IT_number 2
_symmetry_cell_setting 'triclinic'
loop_
_space_group_symop_operation_xyz
x,y,z
-x,-y,-z
loop_
_atom_site_type_symbol
_atom_site_label
_atom_site_fract_x
_atom_site_fract_y
_atom_site_fract_z
Si Si1 0.833959 0.075560 0.175739
Si Si2 0.589827 0.157534 0.939834
Si Si3 0.102156 0.266235 0.615680
Si Si4 0.464571 0.470913 0.835249
Si Si5 0.990843 0.429457 0.297175
Si Si6 0.199303 0.309954 0.893311
Si Si7 0.839097 0.068430 0.801796
Si Si8 0.406872 0.837980 0.432001
O O1 0.936801 0.227286 0.224183
O O2 0.717707 0.134325 0.379937
O O3 0.843513 0.886637 0.127493
O O4 0.827605 0.061390 0.990167
O O5 0.723490 0.143050 0.875483
O O6 0.592579 0.156759 0.751108
O O7 0.542600 0.340355 0.125350
O O8 0.500000 0.000000 0.000000
O O9 0.092308 0.451048 0.651362
O O10 0.178664 0.303527 0.725819
O O11 0.965945 0.183030 0.722020
O O12 0.153724 0.123528 0.385436
O O13 0.333480 0.365711 0.864826
O O14 0.555273 0.341219 0.634427
O O15 0.500000 0.500000 0.000000
O O16 0.000000 0.500000 0.500000
O O17 0.116832 0.438293 0.112733
O O18 0.500000 0.000000 0.500000
#
# Coordination Sequence:
#
# PCOD9050696 Si02
#       8
#     2   2   2   2   2   2   2   2
#     4  12  26  44  72 100 142 186 235 284 353 423
#     4  11  25  45  73 100 138 184 234 291 355 416
#     4  11  26  46  71 103 142 182 235 292 347 416
#     4  10  25  43  72 100 138 186 232 288 352 417
#     4  12  28  42  70 108 141 183 233 289 354 419
#     4  12  24  47  73  99 144 184 235 289 356 416
#     4  11  25  45  72 100 143 184 235 288 354 414
#     4  11  23  47  69 101 136 183 238 293 349 416
#
# _framework density 21.068332000000002
#
# number of rings (size 3 to 8) (size 9 to 14) (size 15 to 20)
#    0.000    0.750    2.500    3.750   12.250    1.000 
#    0.000    2.500    0.000    0.000    0.000    0.000 
#    0.000    0.000    0.000    0.000    0.000    0.000 
#
# Total GULP energy -89503.451518 kJ/mol
# GULP energy per Si atom -5593.965720 kJ/mol
# Density = 2.102038 g / cm^3
# Si number density = 21.068332 Si / 1000 Ang^3
#
#
#
# Elastic Constant Matrix: (Units=GPa)
#
#
# Indices 1 2 3 4 5 6 
#
# 1 132.0519 39.9290 49.4662 8.3527 9.3676 -5.4384
# 2 39.9290 118.6044 36.1584 18.7183 -1.1194 -20.1601
# 3 49.4662 36.1584 140.7035 10.2198 -0.8061 -9.3911
# 4 8.3527 18.7183 10.2198 30.6275 -6.0110 -11.3227
# 5 9.3676 -1.1194 -0.8061 -6.0110 50.3427 2.1593
# 6 -5.4384 -20.1601 -9.3911 -11.3227 2.1593 32.8958
#
#
#
# Elastic Compliance Matrix: (Units=1/GPa)
#
#
# Indices 1 2 3 4 5 6 
#
# 1 0.009471 -0.002378 -0.002720 -0.000918 -0.001931 -0.000857
# 2 -0.002378 0.011072 -0.001414 -0.003933 -0.000002 0.004635
# 3 -0.002720 -0.001414 0.008545 -0.000857 0.000475 0.000797
# 4 -0.000918 -0.003933 -0.000857 0.040465 0.004437 0.010830
# 5 -0.001931 -0.000002 0.000475 0.004437 0.020761 -0.000021
# 6 -0.000857 0.004635 0.000797 0.010830 -0.000021 0.037054
#
#
# Mechanical properties :
#
#
# Convention : Reuss Voigt Hill
#
# Bulk Modulus (GPa) = 62.25663 71.38523 66.82093
# Shear Modulus (GPa) = 34.30611 40.49361 37.39986
#
# Velocity S-wave (km/s) = 4.03963 4.38883 4.21785
# Velocity P-wave (km/s) = 7.16744 7.72261 7.45020
#
# Compressibility (1/GPa) = 0.01606255
#
# Stress axis : x y z
#
# Youngs Moduli (GPa) = 105.59063 90.32060 117.02784
#
# Poissons Ratio (x) = 0.21480 0.31831
# Poissons Ratio (y) = 0.25112 0.16549
# Poissons Ratio (z) = 0.28720 0.12773
#
# Static dielectric constant tensor:
#      x y z
#    x 1.766920 0.001800 -0.031590 
#    y 0.001800 1.728180 0.071450 
#    z -0.031590 0.071450 1.647410 
# 
# From -- ./inp_files/226769.got.cif
#   From: 2010.05.17/outbox.cif.g08.bks.cpg/sg2_114_cif.got.tgz:226769.got - 2010.06.03 11:33:40.
