data_PCOD9050881
_publ_section_title
;
Structure prediction by ZEFSAII (Michael W. Deem and Ramdas Pophale) SiO2 
 PCOD9050881
Probable space group: P -1
;
_chemical_formula_sum "Si O2"
_cell_formula_units_Z 16
_cell_length_a 21.594489
_cell_length_b 11.902215
_cell_length_c 18.393396
_cell_angle_alpha 148.076799
_cell_angle_beta 162.190538
_cell_angle_gamma 33.303043
_cell_volume 753.284547
_symmetry_space_group_name_H-M "P -1"
_symmetry_group_IT_number 2
_symmetry_cell_setting 'triclinic'
loop_
_space_group_symop_operation_xyz
x,y,z
-x,-y,-z
loop_
_atom_site_type_symbol
_atom_site_label
_atom_site_fract_x
_atom_site_fract_y
_atom_site_fract_z
Si Si1 0.092009 0.402557 0.200130
Si Si2 0.634936 0.275610 0.054873
Si Si3 0.441683 0.043967 0.328310
Si Si4 0.993037 0.506021 0.408434
Si Si5 0.413622 0.191772 0.906715
Si Si6 0.136131 0.179935 0.272287
Si Si7 0.638623 0.251278 0.339010
Si Si8 0.623507 0.424976 0.669398
O O1 0.256688 0.196807 0.245388
O O2 0.086011 0.372607 0.263899
O O3 0.176773 0.614450 0.385970
O O4 0.865836 0.402265 0.917182
O O5 0.851918 0.334105 0.352503
O O6 0.500000 0.500000 0.000000
O O7 0.527245 0.184247 0.952628
O O8 0.647112 0.114495 0.912532
O O9 0.563087 0.201365 0.504978
O O10 0.620727 0.911780 0.505682
O O11 0.073293 0.277956 0.335021
O O12 0.000000 0.500000 0.500000
O O13 0.764926 0.601249 0.180576
O O14 0.319623 0.976173 0.698106
O O15 0.565312 0.212215 0.154170
O O16 0.000000 0.000000 0.000000
O O17 0.455712 0.401846 0.261011
O O18 0.500000 0.500000 0.500000
#
# Coordination Sequence:
#
# PCOD9050881 Si02
#       8
#     2   2   2   2   2   2   2   2
#     4  11  25  43  70 101 135 182 231 282 355 409
#     4  12  24  43  66 100 139 180 227 281 345 407
#     4  11  25  42  67 104 135 184 228 282 350 412
#     4  12  26  42  71 103 141 183 231 282 348 414
#     4  11  24  45  68  99 138 179 231 283 344 412
#     4  12  24  43  71 103 142 182 226 290 348 413
#     4  10  25  44  70  98 134 182 229 285 343 411
#     4  11  24  45  67  97 138 174 233 290 338 412
#
# _framework density 21.240314000000001
#
# number of rings (size 3 to 8) (size 9 to 14) (size 15 to 20)
#    0.000    0.750    3.750    2.625    3.500    6.000 
#    0.000    3.125    0.000    0.000    0.000    0.000 
#    0.000    0.000    0.000    0.000    0.000    0.000 
#
# Total GULP energy -89544.344940 kJ/mol
# GULP energy per Si atom -5596.521559 kJ/mol
# Density = 2.119197 g / cm^3
# Si number density = 21.240314 Si / 1000 Ang^3
#
#
#
# Elastic Constant Matrix: (Units=GPa)
#
#
# Indices 1 2 3 4 5 6 
#
# 1 104.2663 25.3276 29.6858 2.5865 -6.2708 5.5509
# 2 25.3276 62.4589 21.7311 4.5924 -3.5199 0.5953
# 3 29.6858 21.7311 92.1391 -8.5723 0.3703 -11.0216
# 4 2.5865 4.5924 -8.5723 43.4314 -5.8289 -9.4479
# 5 -6.2708 -3.5199 0.3703 -5.8289 31.0727 1.3462
# 6 5.5509 0.5953 -11.0216 -9.4479 1.3462 37.0464
#
#
#
# Elastic Compliance Matrix: (Units=1/GPa)
#
#
# Indices 1 2 3 4 5 6 
#
# 1 0.011713 -0.003274 -0.003531 -0.001490 0.001894 -0.003202
# 2 -0.003274 0.018977 -0.003893 -0.002811 0.001083 -0.001729
# 3 -0.003531 -0.003893 0.014054 0.004599 -0.000717 0.005972
# 4 -0.001490 -0.002811 0.004599 0.026654 0.003967 0.008290
# 5 0.001894 0.001083 -0.000717 0.003967 0.033471 -0.000719
# 6 -0.003202 -0.001729 0.005972 0.008290 -0.000719 0.031418
#
#
# Mechanical properties :
#
#
# Convention : Reuss Voigt Hill
#
# Bulk Modulus (GPa) = 42.83235 45.81705 44.32470
# Shear Modulus (GPa) = 30.21760 34.45142 32.33451
#
# Velocity S-wave (km/s) = 3.77590 4.03175 3.90592
# Velocity P-wave (km/s) = 6.26253 6.57959 6.42302
#
# Compressibility (1/GPa) = 0.02334684
#
# Stress axis : x y z
#
# Youngs Moduli (GPa) = 85.37685 52.69503 71.15409
#
# Poissons Ratio (x) = 0.17254 0.25122
# Poissons Ratio (y) = 0.27956 0.27704
# Poissons Ratio (z) = 0.30144 0.20517
#
# Static dielectric constant tensor:
#      x y z
#    x 1.768060 -0.001130 0.001760 
#    y -0.001130 1.774970 -0.008380 
#    z 0.001760 -0.008380 1.750630 
# 
# From -- ./inp_files/578053.got.cif
#   From: 2010.05.17/outbox.cif.g08.bks.cpg/sg2_290_cif.got.tgz:578053.got - 2010.06.03 11:33:40.
