data_PCOD9050617
_publ_section_title
;
Structure prediction by ZEFSAII (Michael W. Deem and Ramdas Pophale) SiO2 
 PCOD9050617
Probable space group: P -1
;
_chemical_formula_sum "Si O2"
_cell_formula_units_Z 12
_cell_length_a 9.144083
_cell_length_b 11.457412
_cell_length_c 14.100148
_cell_angle_alpha 46.514463
_cell_angle_beta 35.567742
_cell_angle_gamma 37.942419
_cell_volume 523.811919
_symmetry_space_group_name_H-M "P -1"
_symmetry_group_IT_number 2
_symmetry_cell_setting 'triclinic'
loop_
_space_group_symop_operation_xyz
x,y,z
-x,-y,-z
loop_
_atom_site_type_symbol
_atom_site_label
_atom_site_fract_x
_atom_site_fract_y
_atom_site_fract_z
Si Si1 0.191135 0.583153 0.897950
Si Si2 0.276806 0.533657 0.681880
Si Si3 0.233463 0.576494 0.223877
Si Si4 0.191324 0.093478 0.367184
Si Si5 0.760732 0.796516 0.516784
Si Si6 0.843520 0.785621 0.127637
O O1 0.356447 0.581452 0.714999
O O2 0.456881 0.439752 0.908424
O O3 0.992899 0.219415 0.054611
O O4 0.000000 0.500000 0.000000
O O5 0.500000 0.500000 0.500000
O O6 0.264529 0.348127 0.780679
O O7 0.956410 0.717358 0.723299
O O8 0.306277 0.360977 0.320396
O O9 0.998121 0.698105 0.362475
O O10 0.080093 0.676274 0.149211
O O11 0.128282 0.152842 0.476372
O O12 0.543862 0.965732 0.228103
O O13 0.000000 0.000000 0.500000
O O14 0.500000 0.000000 0.500000
#
# Coordination Sequence:
#
# PCOD9050617 Si02
#       6
#     2   2   2   2   2   2
#     4  10  25  43  67  95 133 182 220 269 338 397
#     4  11  22  42  66  96 133 171 223 269 326 390
#     4  11  23  43  70  91 140 173 222 279 327 398
#     4  12  24  38  68 100 135 169 220 276 324 395
#     4  11  24  40  66 108 127 171 228 277 332 383
#     4  11  23  43  63  97 133 177 219 270 336 389
#
# _framework density 22.908985999999999
#
# number of rings (size 3 to 8) (size 9 to 14) (size 15 to 20)
#    0.000    1.000    5.000    1.500    7.000    0.667 
#    0.000    4.167    0.000    0.000    0.000    0.000 
#    0.000    0.000    0.000    0.000    0.000    0.000 
#
# Total GULP energy -66920.856595 kJ/mol
# GULP energy per Si atom -5576.738050 kJ/mol
# Density = 2.285684 g / cm^3
# Si number density = 22.908986 Si / 1000 Ang^3
#
#
#
# Elastic Constant Matrix: (Units=GPa)
#
#
# Indices 1 2 3 4 5 6 
#
# 1 146.1717 22.5757 51.8551 19.6163 29.4855 3.9095
# 2 22.5757 92.4412 18.3849 20.3573 3.0414 -10.0685
# 3 51.8551 18.3849 80.8997 24.6348 16.7739 6.6159
# 4 19.6163 20.3573 24.6348 24.8417 4.4676 -4.7524
# 5 29.4855 3.0414 16.7739 4.4676 48.3556 7.8583
# 6 3.9095 -10.0685 6.6159 -4.7524 7.8583 36.4959
#
#
#
# Elastic Compliance Matrix: (Units=1/GPa)
#
#
# Indices 1 2 3 4 5 6 
#
# 1 0.009676 -0.000955 -0.004736 -0.001370 -0.004113 0.000266
# 2 -0.000955 0.013486 0.000474 -0.010342 0.000142 0.002360
# 3 -0.004736 0.000474 0.021985 -0.019096 -0.002130 -0.005375
# 4 -0.001370 -0.010342 -0.019096 0.070662 -0.000038 0.009965
# 5 -0.004113 0.000142 -0.002130 -0.000038 0.024644 -0.004446
# 6 0.000266 0.002360 -0.005375 0.009965 -0.004446 0.031252
#
#
# Mechanical properties :
#
#
# Convention : Reuss Voigt Hill
#
# Bulk Modulus (GPa) = 28.80777 56.12711 42.46744
# Shear Modulus (GPa) = 25.81165 37.05177 31.43171
#
# Velocity S-wave (km/s) = 3.36028 4.02599 3.70810
# Velocity P-wave (km/s) = 5.25904 6.79446 6.07545
#
# Compressibility (1/GPa) = 0.03471285
#
# Stress axis : x y z
#
# Youngs Moduli (GPa) = 103.35352 74.14830 45.48482
#
# Poissons Ratio (x) = 0.07080 0.21544
# Poissons Ratio (y) = 0.09869 -0.02157
# Poissons Ratio (z) = 0.48953 -0.03516
#
# Static dielectric constant tensor:
#      x y z
#    x 1.748690 -0.112570 -0.635970 
#    y -0.112570 1.834450 -0.265590 
#    z -0.635970 -0.265590 0.656210 
# 
# From -- ./inp_files/22459.got.cif
#   From: 2010.05.17/outbox.cif.g08.bks.cpg/sg2_12_cif.got.tgz:22459.got - 2010.06.03 11:33:40.
