data_PCOD9050325
_publ_section_title
;
Structure prediction by ZEFSAII (Michael W. Deem and Ramdas Pophale) SiO2 
 PCOD9050325
Probable space group: P -1
;
_chemical_formula_sum "Si O2"
_cell_formula_units_Z 14
_cell_length_a 12.131018
_cell_length_b 11.840157
_cell_length_c 8.216629
_cell_angle_alpha 54.443051
_cell_angle_beta 129.680877
_cell_angle_gamma 143.479972
_cell_volume 534.464791
_symmetry_space_group_name_H-M "P -1"
_symmetry_group_IT_number 2
_symmetry_cell_setting 'triclinic'
loop_
_space_group_symop_operation_xyz
x,y,z
-x,-y,-z
loop_
_atom_site_type_symbol
_atom_site_label
_atom_site_fract_x
_atom_site_fract_y
_atom_site_fract_z
Si Si1 0.000000 0.000000 0.000000
Si Si2 0.895956 0.224389 0.865358
Si Si3 0.780612 0.533961 0.536600
Si Si4 0.192871 0.770695 0.556808
Si Si5 0.383082 0.195863 0.327697
Si Si6 0.000000 0.500000 0.000000
Si Si7 0.482420 0.111346 0.022012
Si Si8 0.237611 0.187073 0.549552
O O1 0.757220 0.840423 0.914099
O O2 0.001143 0.158640 0.947908
O O3 0.877030 0.315436 0.617317
O O4 0.997333 0.354197 0.011444
O O5 0.675224 0.039416 0.866206
O O6 0.610892 0.383791 0.374679
O O7 0.805530 0.424555 0.777637
O O8 0.725899 0.638117 0.488473
O O9 0.000608 0.696156 0.534744
O O10 0.306093 0.741452 0.808725
O O11 0.333712 0.999639 0.471287
O O12 0.295543 0.205429 0.401868
O O13 0.378305 0.172587 0.788806
O O14 0.500000 0.000000 0.000000
O O15 0.000000 0.000000 0.500000
#
# Coordination Sequence:
#
# PCOD9050325 Si02
#       8
#     1   2   2   2   2   1   2   2
#     4  10  24  50  78 116 160 212 260 336 420 466
#     4  11  26  47  82 112 164 216 271 337 413 487
#     4  12  27  46  80 119 158 210 274 337 406 495
#     4  11  25  49  78 111 161 210 267 340 414 490
#     4  11  23  45  77 110 158 209 266 335 403 487
#     4  12  26  48  78 116 162 206 272 336 400 488
#     4  12  23  44  80 118 154 222 274 326 415 492
#     4  12  23  43  78 117 162 215 277 331 403 495
#
# _framework density 26.194431000000002
#
# number of rings (size 3 to 8) (size 9 to 14) (size 15 to 20)
#    0.000    0.571    2.857    5.143    4.000    1.714 
#    0.000    5.714    3.143    0.000    0.000    0.000 
#    0.000    0.000    0.000    0.000    0.000    0.000 
#
# Total GULP energy -77971.943262 kJ/mol
# GULP energy per Si atom -5569.424519 kJ/mol
# Density = 2.613481 g / cm^3
# Si number density = 26.194431 Si / 1000 Ang^3
#
#
#
# Elastic Constant Matrix: (Units=GPa)
#
#
# Indices 1 2 3 4 5 6 
#
# 1 141.4489 18.8123 41.6031 -11.0908 19.1810 -23.8209
# 2 18.8123 86.6686 14.2683 14.1270 15.5940 -10.5270
# 3 41.6031 14.2683 124.4234 28.0545 34.1894 -1.5822
# 4 -11.0908 14.1270 28.0545 48.1708 -1.5400 1.7288
# 5 19.1810 15.5940 34.1894 -1.5400 50.2544 -2.0382
# 6 -23.8209 -10.5270 -1.5822 1.7288 -2.0382 44.4524
#
#
#
# Elastic Compliance Matrix: (Units=1/GPa)
#
#
# Indices 1 2 3 4 5 6 
#
# 1 0.009625 -0.001673 -0.004060 0.004910 -0.000062 0.004423
# 2 -0.001673 0.013695 0.001581 -0.005561 -0.004760 0.002401
# 3 -0.004060 0.001581 0.013741 -0.009630 -0.008639 -0.001334
# 4 0.004910 -0.005561 -0.009630 0.029357 0.007309 0.000165
# 5 -0.000062 -0.004760 -0.008639 0.007309 0.027481 -0.000492
# 6 0.004423 0.002401 -0.001334 0.000165 -0.000492 0.025358
#
#
# Mechanical properties :
#
#
# Convention : Reuss Voigt Hill
#
# Bulk Modulus (GPa) = 34.77276 55.76759 45.27018
# Shear Modulus (GPa) = 36.45716 47.09934 41.77825
#
# Velocity S-wave (km/s) = 3.73472 4.24496 3.99799
# Velocity P-wave (km/s) = 5.64811 6.73516 6.21545
#
# Compressibility (1/GPa) = 0.02875814
#
# Stress axis : x y z
#
# Youngs Moduli (GPa) = 103.89945 73.01680 72.77249
#
# Poissons Ratio (x) = 0.12213 0.29547
# Poissons Ratio (y) = 0.17378 -0.11505
# Poissons Ratio (z) = 0.42185 -0.11544
#
# Static dielectric constant tensor:
#      x y z
#    x 2.045730 0.014670 -0.075020 
#    y 0.014670 2.068180 -0.036310 
#    z -0.075020 -0.036310 2.141750 
# 
# From -- ./inp_files/262211.got.cif
#   From: 2010.05.17/outbox.cif.g08.bks.cpg/sg2_132_cif.got.tgz:262211.got - 2010.06.03 11:33:40.
