data_PCOD9050670
_publ_section_title
;
Structure prediction by ZEFSAII (Michael W. Deem and Ramdas Pophale) SiO2 
 PCOD9050670
Probable space group: P -1
;
_chemical_formula_sum "Si O2"
_cell_formula_units_Z 16
_cell_length_a 8.726058
_cell_length_b 14.188679
_cell_length_c 9.539088
_cell_angle_alpha 143.952515
_cell_angle_beta 91.688928
_cell_angle_gamma 80.839558
_cell_volume 676.043671
_symmetry_space_group_name_H-M "P -1"
_symmetry_group_IT_number 2
_symmetry_cell_setting 'triclinic'
loop_
_space_group_symop_operation_xyz
x,y,z
-x,-y,-z
loop_
_atom_site_type_symbol
_atom_site_label
_atom_site_fract_x
_atom_site_fract_y
_atom_site_fract_z
Si Si1 0.296037 0.119938 0.996489
Si Si2 0.215793 0.720453 0.917421
Si Si3 0.133329 0.557125 0.164770
Si Si4 0.910498 0.915158 0.279165
Si Si5 0.340828 0.210849 0.701869
Si Si6 0.847739 0.497492 0.584877
Si Si7 0.666068 0.961119 0.780401
Si Si8 0.379543 0.658752 0.125131
O O1 0.252648 0.313434 0.185413
O O2 0.279292 0.103183 0.142166
O O3 0.178204 0.026937 0.800752
O O4 0.478366 0.040354 0.872109
O O5 0.234242 0.617488 0.651571
O O6 0.249234 0.897840 0.098240
O O7 0.334449 0.629899 0.930275
O O8 0.044793 0.760310 0.037545
O O9 0.100189 0.584255 0.360776
O O10 0.217844 0.686012 0.244106
O O11 0.269004 0.393016 0.970185
O O12 0.000000 0.500000 0.000000
O O13 0.762119 0.884014 0.323983
O O14 0.000000 0.000000 0.500000
O O15 0.527612 0.194556 0.699623
O O16 0.303563 0.182553 0.505886
O O17 0.000000 0.500000 0.500000
O O18 0.500000 0.500000 0.000000
#
# Coordination Sequence:
#
# PCOD9050670 Si02
#       8
#     2   2   2   2   2   2   2   2
#     4  11  27  50  71 107 146 192 250 293 378 441
#     4  12  26  47  71 109 144 193 245 297 383 425
#     4  11  24  45  74 111 142 187 251 301 366 437
#     4  12  24  46  73 107 144 192 244 308 363 437
#     4  11  23  46  72 102 145 190 240 304 365 425
#     4  12  25  47  75 104 149 190 235 312 363 436
#     4  11  28  48  74 104 148 199 238 307 366 450
#     4  10  25  43  70 109 141 188 244 300 366 433
#
# _framework density 23.667107999999999
#
# number of rings (size 3 to 8) (size 9 to 14) (size 15 to 20)
#    0.000    0.750    3.750    2.250    8.750    4.000 
#    2.250    0.000    0.000    0.000    0.000    0.000 
#    0.000    0.000    0.000    0.000    0.000    0.000 
#
# Total GULP energy -89331.908843 kJ/mol
# GULP energy per Si atom -5583.244303 kJ/mol
# Density = 2.361324 g / cm^3
# Si number density = 23.667108 Si / 1000 Ang^3
#
#
#
# Elastic Constant Matrix: (Units=GPa)
#
#
# Indices 1 2 3 4 5 6 
#
# 1 127.5925 56.1497 28.8135 -20.9217 18.4497 4.0662
# 2 56.1497 102.6637 35.8883 -45.9344 5.0713 -10.4170
# 3 28.8135 35.8883 122.7771 -40.9577 19.5993 -5.5588
# 4 -20.9217 -45.9344 -40.9577 55.7138 -10.1813 2.1222
# 5 18.4497 5.0713 19.5993 -10.1813 38.5175 -10.4817
# 6 4.0662 -10.4170 -5.5588 2.1222 -10.4817 34.8035
#
#
#
# Elastic Compliance Matrix: (Units=1/GPa)
#
#
# Indices 1 2 3 4 5 6 
#
# 1 0.012336 -0.008542 -0.000931 -0.004153 -0.007045 -0.006015
# 2 -0.008542 0.022171 0.000091 0.016234 0.007875 0.009030
# 3 -0.000931 0.000091 0.011370 0.007473 -0.003234 0.000523
# 4 -0.004153 0.016234 0.007473 0.036379 0.007452 0.006564
# 5 -0.007045 0.007875 -0.003234 0.007452 0.035419 0.012876
# 6 -0.006015 0.009030 0.000523 0.006564 0.012876 0.035700
#
#
# Mechanical properties :
#
#
# Convention : Reuss Voigt Hill
#
# Bulk Modulus (GPa) = 36.88293 66.08181 51.48237
# Shear Modulus (GPa) = 27.59730 41.28575 34.44152
#
# Velocity S-wave (km/s) = 3.41847 4.18118 3.81891
# Velocity P-wave (km/s) = 5.58562 7.16182 6.42226
#
# Compressibility (1/GPa) = 0.02711281
#
# Stress axis : x y z
#
# Youngs Moduli (GPa) = 81.06140 45.10319 87.95446
#
# Poissons Ratio (x) = 0.38528 0.08192
# Poissons Ratio (y) = 0.69243 -0.00803
# Poissons Ratio (z) = 0.07550 -0.00412
#
# Static dielectric constant tensor:
#      x y z
#    x 2.021320 0.029220 0.015070 
#    y 0.029220 1.893950 0.036360 
#    z 0.015070 0.036360 1.927230 
# 
# From -- ./inp_files/209358.got.cif
#   From: 2010.05.17/outbox.cif.g08.bks.cpg/sg2_105_cif.got.tgz:209358.got - 2010.06.03 11:33:40.
