data_PCOD9050045
_publ_section_title
;
Structure prediction by ZEFSAII (Michael W. Deem and Ramdas Pophale) SiO2 
 PCOD9050045
Probable space group: P -1
;
_chemical_formula_sum "Si O2"
_cell_formula_units_Z 16
_cell_length_a 9.561669
_cell_length_b 11.159487
_cell_length_c 11.710108
_cell_angle_alpha 126.299509
_cell_angle_beta 66.511720
_cell_angle_gamma 121.953358
_cell_volume 847.768688
_symmetry_space_group_name_H-M "P -1"
_symmetry_group_IT_number 2
_symmetry_cell_setting 'triclinic'
loop_
_space_group_symop_operation_xyz
x,y,z
-x,-y,-z
loop_
_atom_site_type_symbol
_atom_site_label
_atom_site_fract_x
_atom_site_fract_y
_atom_site_fract_z
Si Si1 0.741172 0.519736 0.722071
Si Si2 0.324064 0.848807 0.447060
Si Si3 0.002414 0.199067 0.329444
Si Si4 0.854079 0.691641 0.019140
Si Si5 0.560782 0.443016 0.065963
Si Si6 0.237990 0.022155 0.884247
Si Si7 0.183125 0.973467 0.136466
Si Si8 0.595487 0.110694 0.809004
O O1 0.672369 0.326421 0.627603
O O2 0.579706 0.564828 0.803274
O O3 0.870030 0.618751 0.637496
O O4 0.831133 0.579792 0.850748
O O5 0.159311 0.839248 0.561621
O O6 0.302240 0.857238 0.322740
O O7 0.500000 0.000000 0.500000
O O8 0.924947 0.124795 0.189100
O O9 0.101902 0.092517 0.278727
O O10 0.743137 0.583117 0.096340
O O11 0.778364 0.822875 0.080862
O O12 0.038468 0.796303 0.060963
O O13 0.500000 0.500000 0.000000
O O14 0.581474 0.276164 0.948252
O O15 0.403394 0.999941 0.781917
O O16 0.243939 0.037733 0.026375
O O17 0.324459 0.960794 0.161985
#
# Coordination Sequence:
#
# PCOD9050045 Si02
#       8
#     2   2   2   2   2   2   2   2
#     4  11  19  38  64  91 112 150 211 252 283 339
#     4  12  25  39  62  86 115 164 212 241 280 358
#     4  11  22  39  63  86 122 164 201 237 286 358
#     4  10  17  34  61  90 114 150 192 243 300 352
#     4  10  18  34  63  84 118 146 198 253 296 348
#     4  11  18  37  62  89 116 155 198 241 298 354
#     4  11  23  34  61  93 128 147 190 251 311 349
#     4  12  22  37  58  94 120 158 192 248 303 354
#
# _framework density 18.873073000000002
#
# number of rings (size 3 to 8) (size 9 to 14) (size 15 to 20)
#    0.000    1.000    8.750    1.500    1.750    1.000 
#    0.000    0.000    0.000    0.750    0.000    0.000 
#    0.000    0.000    0.000    0.000    0.000    0.000 
#
# Total GULP energy -89200.680621 kJ/mol
# GULP energy per Si atom -5575.042539 kJ/mol
# Density = 1.883012 g / cm^3
# Si number density = 18.873073 Si / 1000 Ang^3
#
#
#
# Elastic Constant Matrix: (Units=GPa)
#
#
# Indices 1 2 3 4 5 6 
#
# 1 81.7218 25.3201 19.8170 0.5448 -11.3821 -10.2108
# 2 25.3201 105.4961 24.4266 4.5008 -5.2245 21.9583
# 3 19.8170 24.4266 70.0767 -9.0278 -19.6692 -3.4824
# 4 0.5448 4.5008 -9.0278 36.1532 8.1852 -3.2858
# 5 -11.3821 -5.2245 -19.6692 8.1852 17.2854 -1.2414
# 6 -10.2108 21.9583 -3.4824 -3.2858 -1.2414 28.6065
#
#
#
# Elastic Compliance Matrix: (Units=1/GPa)
#
#
# Indices 1 2 3 4 5 6 
#
# 1 0.016872 -0.005997 0.001046 -0.000883 0.011707 0.011159
# 2 -0.005997 0.015556 -0.006743 -0.003501 -0.006381 -0.015581
# 3 0.001046 -0.006743 0.024431 0.001874 0.026273 0.009879
# 4 -0.000883 -0.003501 0.001874 0.032360 -0.014422 0.005692
# 5 0.011707 -0.006381 0.026273 -0.014422 0.101437 0.015020
# 6 0.011159 -0.015581 0.009879 0.005692 0.015020 0.053409
#
#
# Mechanical properties :
#
#
# Convention : Reuss Voigt Hill
#
# Bulk Modulus (GPa) = 29.87618 44.04689 36.96154
# Shear Modulus (GPa) = 17.94629 28.92440 23.43535
#
# Velocity S-wave (km/s) = 3.08700 3.91906 3.52765
# Velocity P-wave (km/s) = 5.34514 6.62328 6.01824
#
# Compressibility (1/GPa) = 0.03347148
#
# Stress axis : x y z
#
# Youngs Moduli (GPa) = 59.27063 64.28342 40.93087
#
# Poissons Ratio (x) = 0.38550 -0.04281
# Poissons Ratio (y) = 0.35544 0.27599
# Poissons Ratio (z) = -0.06199 0.43345
#
# Static dielectric constant tensor:
#      x y z
#    x 1.649820 0.064790 -0.014430 
#    y 0.064790 1.719870 -0.011810 
#    z -0.014430 -0.011810 1.710750 
# 
# From -- ./inp_files/391298.got.cif
#   From: 2010.05.17/outbox.cif.g08.bks.cpg/sg2_196_cif.got.tgz:391298.got - 2010.06.03 11:33:40.
