data_PCOD9051642
_publ_section_title
;
Structure prediction by ZEFSAII (Michael W. Deem and Ramdas Pophale) SiO2 
 PCOD9051642
Probable space group: P -1
;
_chemical_formula_sum "Si O2"
_cell_formula_units_Z 16
_cell_length_a 15.020579
_cell_length_b 6.347446
_cell_length_c 7.760030
_cell_angle_alpha 82.918953
_cell_angle_beta 76.725048
_cell_angle_gamma 106.263614
_cell_volume 677.199382
_symmetry_space_group_name_H-M "P -1"
_symmetry_group_IT_number 2
_symmetry_cell_setting 'triclinic'
loop_
_space_group_symop_operation_xyz
x,y,z
-x,-y,-z
loop_
_atom_site_type_symbol
_atom_site_label
_atom_site_fract_x
_atom_site_fract_y
_atom_site_fract_z
Si Si1 0.112612 0.141036 0.151220
Si Si2 0.671184 0.933436 0.633179
Si Si3 0.217360 0.629511 0.646942
Si Si4 0.396363 0.822642 0.101275
Si Si5 0.484621 0.511552 0.302947
Si Si6 0.923893 0.160175 0.123837
Si Si7 0.314191 0.448584 0.906735
Si Si8 0.148970 0.214780 0.512740
O O1 0.096348 0.123012 0.365193
O O2 0.038179 0.261408 0.096939
O O3 0.224077 0.282166 0.060758
O O4 0.093862 0.925011 0.056477
O O5 0.566841 0.748275 0.694972
O O6 0.745894 0.805393 0.568816
O O7 0.701973 0.140466 0.466723
O O8 0.675311 0.057014 0.799951
O O9 0.141111 0.696231 0.794093
O O10 0.271870 0.485575 0.738908
O O11 0.161937 0.471215 0.530848
O O12 0.418540 0.653570 0.248877
O O13 0.349123 0.679595 0.972306
O O14 0.500000 0.000000 0.000000
O O15 0.500000 0.500000 0.500000
O O16 0.588836 0.613527 0.156568
O O17 0.894499 0.942450 0.287949
#
# Coordination Sequence:
#
# PCOD9051642 Si02
#       8
#     2   2   2   2   2   2   2   2
#     4  11  24  45  74 102 143 186 231 298 362 417
#     4  11  24  44  68  97 140 183 237 288 348 424
#     4  11  25  45  72 103 139 185 240 293 352 430
#     4  12  27  44  67 105 138 182 241 290 353 421
#     4  12  27  44  68  97 144 189 234 294 349 422
#     4  10  25  47  70 107 141 182 238 294 358 429
#     4  12  25  43  71 101 142 184 235 296 353 420
#     4  11  23  47  72 103 142 184 238 292 357 422
#
# _framework density 23.626721
#
# number of rings (size 3 to 8) (size 9 to 14) (size 15 to 20)
#    0.000    0.750    2.500    4.500    7.000    2.000 
#    0.000    0.000    0.000    0.000    0.000    0.000 
#    0.000    0.000    0.000    0.000    0.000    0.000 
#
# Total GULP energy -89469.753958 kJ/mol
# GULP energy per Si atom -5591.859622 kJ/mol
# Density = 2.357295 g / cm^3
# Si number density = 23.626721 Si / 1000 Ang^3
#
#
#
# Elastic Constant Matrix: (Units=GPa)
#
#
# Indices 1 2 3 4 5 6 
#
# 1 81.8408 31.9108 27.4631 7.5880 -29.1774 6.5209
# 2 31.9108 94.7852 51.8857 16.0796 -0.2480 4.3811
# 3 27.4631 51.8857 100.3678 6.5309 3.4048 16.7449
# 4 7.5880 16.0796 6.5309 60.7048 5.9157 -3.1494
# 5 -29.1774 -0.2480 3.4048 5.9157 43.3205 4.9588
# 6 6.5209 4.3811 16.7449 -3.1494 4.9588 28.1491
#
#
#
# Elastic Compliance Matrix: (Units=1/GPa)
#
#
# Indices 1 2 3 4 5 6 
#
# 1 0.021304 -0.004908 -0.002692 -0.002883 0.015571 -0.005635
# 2 -0.004908 0.016593 -0.007514 -0.002550 -0.002639 0.003204
# 3 -0.002692 -0.007514 0.015826 0.000482 -0.002347 -0.007154
# 4 -0.002883 -0.002550 0.000482 0.018124 -0.004889 0.003667
# 5 0.015571 -0.002639 -0.002347 -0.004889 0.035390 -0.008582
# 6 -0.005635 0.003204 -0.007154 0.003667 -0.008582 0.042510
#
#
# Mechanical properties :
#
#
# Convention : Reuss Voigt Hill
#
# Bulk Modulus (GPa) = 42.56398 55.50144 49.03271
# Shear Modulus (GPa) = 26.62298 37.48381 32.05340
#
# Velocity S-wave (km/s) = 3.36045 3.98741 3.68728
# Velocity P-wave (km/s) = 5.75423 6.68889 6.23908
#
# Compressibility (1/GPa) = 0.02349404
#
# Stress axis : x y z
#
# Youngs Moduli (GPa) = 46.94062 60.26479 63.18572
#
# Poissons Ratio (x) = 0.29578 0.17012
# Poissons Ratio (y) = 0.23039 0.47479
# Poissons Ratio (z) = 0.12638 0.45284
#
# Static dielectric constant tensor:
#      x y z
#    x 1.893090 0.021510 -0.026410 
#    y 0.021510 1.899290 -0.026610 
#    z -0.026410 -0.026610 1.952120 
# 
# From -- ./inp_files/288639.got.cif
#   From: 2010.05.17/outbox.cif.g08.bks.cpg/sg2_145_cif.got.tgz:288639.got - 2010.06.03 11:33:40.
