data_PCOD9051590
_publ_section_title
;
Structure prediction by ZEFSAII (Michael W. Deem and Ramdas Pophale) SiO2 
 PCOD9051590
Probable space group: P -1
;
_chemical_formula_sum "Si O2"
_cell_formula_units_Z 16
_cell_length_a 8.856713
_cell_length_b 17.240504
_cell_length_c 11.987721
_cell_angle_alpha 151.056244
_cell_angle_beta 45.475288
_cell_angle_gamma 124.908911
_cell_volume 627.011702
_symmetry_space_group_name_H-M "P -1"
_symmetry_group_IT_number 2
_symmetry_cell_setting 'triclinic'
loop_
_space_group_symop_operation_xyz
x,y,z
-x,-y,-z
loop_
_atom_site_type_symbol
_atom_site_label
_atom_site_fract_x
_atom_site_fract_y
_atom_site_fract_z
Si Si1 0.844670 0.886075 0.383500
Si Si2 0.406081 0.089749 0.052628
Si Si3 0.764265 0.302452 0.177339
Si Si4 0.926383 0.739103 0.857749
Si Si5 0.188910 0.449521 0.923522
Si Si6 0.097689 0.374120 0.525118
Si Si7 0.521081 0.621109 0.038392
Si Si8 0.390057 0.955187 0.650945
O O1 0.769305 0.743709 0.322431
O O2 0.640794 0.985835 0.556941
O O3 0.000000 0.000000 0.500000
O O4 0.005853 0.782783 0.089030
O O5 0.589045 0.208837 0.091307
O O6 0.195087 0.213266 0.336062
O O7 0.500000 0.000000 0.000000
O O8 0.363397 0.979143 0.829711
O O9 0.743468 0.488896 0.391296
O O10 0.831279 0.282858 0.248058
O O11 0.942476 0.675962 0.642990
O O12 0.751164 0.646655 0.899814
O O13 0.798661 0.919255 0.141962
O O14 0.392326 0.540123 0.905923
O O15 0.000000 0.500000 0.000000
O O16 0.096282 0.537034 0.194281
O O17 0.411497 0.789338 0.361585
O O18 0.500000 0.500000 0.000000
#
# Coordination Sequence:
#
# PCOD9051590 Si02
#       8
#     2   2   2   2   2   2   2   2
#     4  11  22  41  69  98 136 171 231 275 334 411
#     4  11  26  42  67  99 137 179 228 287 342 398
#     4  11  22  42  69  95 131 182 227 282 333 413
#     4  11  25  43  72 101 136 187 229 279 344 412
#     4  11  27  43  70 102 136 179 226 288 346 391
#     4  10  25  47  64  99 136 181 233 271 348 415
#     4  12  24  44  69 103 139 174 227 288 339 402
#     4  11  24  44  66 101 136 180 228 274 341 409
#
# _framework density 25.517866000000001
#
# number of rings (size 3 to 8) (size 9 to 14) (size 15 to 20)
#    0.000    1.000    3.750    1.875    3.500    5.000 
#    0.000    2.500    0.000    0.000    0.000    0.000 
#    0.000    0.000    0.000    0.000    0.000    0.000 
#
# Total GULP energy -89297.569872 kJ/mol
# GULP energy per Si atom -5581.098117 kJ/mol
# Density = 2.545979 g / cm^3
# Si number density = 25.517866 Si / 1000 Ang^3
#
#
#
# Elastic Constant Matrix: (Units=GPa)
#
#
# Indices 1 2 3 4 5 6 
#
# 1 100.1724 31.6818 15.0612 15.6693 5.5000 16.2185
# 2 31.6818 57.7634 26.1403 13.1577 8.2651 -4.8306
# 3 15.0612 26.1403 116.1997 15.8726 -10.5690 -10.2689
# 4 15.6693 13.1577 15.8726 29.2944 1.3064 4.8335
# 5 5.5000 8.2651 -10.5690 1.3064 45.7586 9.7691
# 6 16.2185 -4.8306 -10.2689 4.8335 9.7691 47.9850
#
#
#
# Elastic Compliance Matrix: (Units=1/GPa)
#
#
# Indices 1 2 3 4 5 6 
#
# 1 0.013573 -0.007249 -0.000080 -0.003142 0.000858 -0.005193
# 2 -0.007249 0.025882 -0.004021 -0.006301 -0.005837 0.006018
# 3 -0.000080 -0.004021 0.010520 -0.004263 0.002923 0.001708
# 4 -0.003142 -0.006301 -0.004263 0.041727 0.000356 -0.004760
# 5 0.000858 -0.005837 0.002923 0.000356 0.024601 -0.005296
# 6 -0.005193 0.006018 0.001708 -0.004760 -0.005296 0.025124
#
#
# Mechanical properties :
#
#
# Convention : Reuss Voigt Hill
#
# Bulk Modulus (GPa) = 36.66587 46.65581 41.66084
# Shear Modulus (GPa) = 28.86544 38.02440 33.44492
#
# Velocity S-wave (km/s) = 3.36696 3.86438 3.62421
# Velocity P-wave (km/s) = 5.43278 6.18341 5.82021
#
# Compressibility (1/GPa) = 0.02727332
#
# Stress axis : x y z
#
# Youngs Moduli (GPa) = 73.67747 38.63752 95.05736
#
# Poissons Ratio (x) = 0.28010 0.00761
# Poissons Ratio (y) = 0.53411 0.38223
# Poissons Ratio (z) = 0.00590 0.15536
#
# Static dielectric constant tensor:
#      x y z
#    x 2.357740 -0.087310 0.168260 
#    y -0.087310 2.148370 -0.028680 
#    z 0.168260 -0.028680 2.074030 
# 
# From -- ./inp_files/403479.got.cif
#   From: 2010.05.17/outbox.cif.g08.bks.cpg/sg2_202_cif.got.tgz:403479.got - 2010.06.03 11:33:40.
