data_PCOD9051850
_publ_section_title
;
Structure prediction by ZEFSAII (Michael W. Deem and Ramdas Pophale) SiO2 
 PCOD9051850
Probable space group: P -1
;
_chemical_formula_sum "Si O2"
_cell_formula_units_Z 16
_cell_length_a 14.097430
_cell_length_b 11.947597
_cell_length_c 11.649053
_cell_angle_alpha 91.459050
_cell_angle_beta 151.003878
_cell_angle_gamma 106.320467
_cell_volume 741.572731
_symmetry_space_group_name_H-M "P -1"
_symmetry_group_IT_number 2
_symmetry_cell_setting 'triclinic'
loop_
_space_group_symop_operation_xyz
x,y,z
-x,-y,-z
loop_
_atom_site_type_symbol
_atom_site_label
_atom_site_fract_x
_atom_site_fract_y
_atom_site_fract_z
Si Si1 0.591158 0.773498 0.350861
Si Si2 0.897470 0.063197 0.244384
Si Si3 0.350306 0.547151 0.280989
Si Si4 0.088756 0.817129 0.491392
Si Si5 0.760096 0.312578 0.639022
Si Si6 0.267058 0.653593 0.782649
Si Si7 0.594093 0.720908 0.930175
Si Si8 0.421658 0.990685 0.631967
O O1 0.509323 0.643724 0.342422
O O2 0.845668 0.847317 0.551173
O O3 0.614113 0.897654 0.449943
O O4 0.377817 0.712191 0.026734
O O5 0.927520 0.117584 0.407166
O O6 0.761594 0.894153 0.104000
O O7 0.706444 0.072749 0.972906
O O8 0.500000 0.500000 0.500000
O O9 0.316879 0.643933 0.330208
O O10 0.060075 0.413782 0.943639
O O11 0.224942 0.753280 0.672007
O O12 0.259341 0.930876 0.576348
O O13 0.806875 0.702701 0.140885
O O14 0.624477 0.334300 0.394068
O O15 0.662901 0.149540 0.530681
O O16 0.465223 0.657974 0.914838
O O17 0.000000 0.500000 0.500000
#
# Coordination Sequence:
#
# PCOD9051850 Si02
#       8
#     2   2   2   2   2   2   2   2
#     4  12  25  43  69 106 139 177 238 289 342 407
#     4  11  21  38  64 107 138 179 222 267 340 411
#     4  11  28  52  75  92 134 186 232 296 354 411
#     4  12  21  38  66 100 146 187 210 264 341 406
#     4  10  25  48  72 102 129 185 236 278 355 412
#     4  12  25  40  61 103 147 186 228 272 334 417
#     4  11  22  39  69 100 141 176 221 274 339 412
#     4  11  23  40  74 104 139 183 225 289 338 410
#
# _framework density 21.575766000000002
#
# number of rings (size 3 to 8) (size 9 to 14) (size 15 to 20)
#    0.000    0.750    6.250    2.250    1.750    3.000 
#    2.250    4.375    0.000    0.000    0.000    0.000 
#    0.000    0.000    0.000    0.000    0.000    0.000 
#
# Total GULP energy -89446.039122 kJ/mol
# GULP energy per Si atom -5590.377445 kJ/mol
# Density = 2.152666 g / cm^3
# Si number density = 21.575766 Si / 1000 Ang^3
#
#
#
# Elastic Constant Matrix: (Units=GPa)
#
#
# Indices 1 2 3 4 5 6 
#
# 1 71.3392 11.2827 42.8165 14.1428 17.2128 -9.7640
# 2 11.2827 70.9252 40.9065 0.3847 15.1545 11.6966
# 3 42.8165 40.9065 144.5008 -0.6613 17.0959 -4.8554
# 4 14.1428 0.3847 -0.6613 29.1337 -0.8757 6.8792
# 5 17.2128 15.1545 17.0959 -0.8757 32.0118 1.1605
# 6 -9.7640 11.6966 -4.8554 6.8792 1.1605 26.1082
#
#
#
# Elastic Compliance Matrix: (Units=1/GPa)
#
#
# Indices 1 2 3 4 5 6 
#
# 1 0.025081 -0.000454 -0.005609 -0.015746 -0.011184 0.013186
# 2 -0.000454 0.020190 -0.005202 0.002125 -0.006098 -0.010471
# 3 -0.005609 -0.005202 0.010101 0.002694 0.000107 0.001397
# 4 -0.015746 0.002125 0.002694 0.046730 0.007989 -0.019008
# 5 -0.011184 -0.006098 0.000107 0.007989 0.040494 -0.005336
# 6 0.013186 -0.010471 0.001397 -0.019008 -0.005336 0.053430
#
#
# Mechanical properties :
#
#
# Convention : Reuss Voigt Hill
#
# Bulk Modulus (GPa) = 30.44823 52.97517 41.71170
# Shear Modulus (GPa) = 21.78618 30.23471 26.01045
#
# Velocity S-wave (km/s) = 3.18111 3.74749 3.47586
# Velocity P-wave (km/s) = 5.25694 6.58265 5.95679
#
# Compressibility (1/GPa) = 0.03284264
#
# Stress axis : x y z
#
# Youngs Moduli (GPa) = 39.87140 49.52947 98.99617
#
# Poissons Ratio (x) = 0.02251 0.55524
# Poissons Ratio (y) = 0.01812 0.51493
# Poissons Ratio (z) = 0.22363 0.25763
#
# Static dielectric constant tensor:
#      x y z
#    x 1.804000 -0.050770 -0.018970 
#    y -0.050770 1.805190 -0.012680 
#    z -0.018970 -0.012680 1.788990 
# 
# From -- ./inp_files/452304.got.cif
#   From: 2010.05.17/outbox.cif.g08.bks.cpg/sg2_227_cif.got.tgz:452304.got - 2010.06.03 11:33:40.
