data_PCOD9051586
_publ_section_title
;
Structure prediction by ZEFSAII (Michael W. Deem and Ramdas Pophale) SiO2 
 PCOD9051586
Probable space group: P -1
;
_chemical_formula_sum "Si O2"
_cell_formula_units_Z 14
_cell_length_a 8.087936
_cell_length_b 15.524997
_cell_length_c 5.326320
_cell_angle_alpha 120.819734
_cell_angle_beta 91.782299
_cell_angle_gamma 72.164046
_cell_volume 540.235001
_symmetry_space_group_name_H-M "P -1"
_symmetry_group_IT_number 2
_symmetry_cell_setting 'triclinic'
loop_
_space_group_symop_operation_xyz
x,y,z
-x,-y,-z
loop_
_atom_site_type_symbol
_atom_site_label
_atom_site_fract_x
_atom_site_fract_y
_atom_site_fract_z
Si Si1 0.584528 0.581890 0.515793
Si Si2 0.243652 0.124341 0.579697
Si Si3 0.973354 0.242228 0.388639
Si Si4 0.858660 0.664477 0.830641
Si Si5 0.150547 0.550226 0.011412
Si Si6 0.369089 0.930812 0.633455
Si Si7 0.313075 0.816039 0.953746
O O1 0.500000 0.500000 0.500000
O O2 0.754514 0.583841 0.683787
O O3 0.666732 0.538664 0.183385
O O4 0.457050 0.702666 0.716997
O O5 0.426766 0.077075 0.370486
O O6 0.066681 0.148355 0.447473
O O7 0.257804 0.048218 0.704635
O O8 0.233403 0.240896 0.844987
O O9 0.872762 0.201451 0.111747
O O10 0.130249 0.279490 0.346516
O O11 0.844624 0.351563 0.671206
O O12 0.059006 0.611239 0.844855
O O13 0.000000 0.500000 0.000000
O O14 0.320805 0.895377 0.846749
O O15 0.344832 0.856185 0.289521
#
# Coordination Sequence:
#
# PCOD9051586 Si02
#       7
#     2   2   2   2   2   2   2
#     4  12  26  44  73 104 151 197 243 312 369 433
#     4  10  25  46  80 100 146 192 245 299 380 444
#     4  11  26  45  72 103 149 194 245 304 369 451
#     4  11  23  46  69 105 140 193 249 297 365 458
#     4  11  25  42  68 101 138 198 251 296 364 444
#     4  11  27  50  75 111 144 195 244 314 370 441
#     4  12  29  47  72 113 154 184 252 309 369 437
#
# _framework density 25.914646999999999
#
# number of rings (size 3 to 8) (size 9 to 14) (size 15 to 20)
#    0.000    0.857    2.857    2.143   12.000    2.857 
#    0.000    0.000    0.000    0.000    0.000    0.000 
#    0.000    0.000    0.000    0.000    0.000    0.000 
#
# Total GULP energy -78419.412163 kJ/mol
# GULP energy per Si atom -5601.386583 kJ/mol
# Density = 2.585566 g / cm^3
# Si number density = 25.914647 Si / 1000 Ang^3
#
#
#
# Elastic Constant Matrix: (Units=GPa)
#
#
# Indices 1 2 3 4 5 6 
#
# 1 85.2752 10.4371 45.3215 11.1213 14.2802 13.0048
# 2 10.4371 88.6116 22.6861 5.8451 2.2284 14.6544
# 3 45.3215 22.6861 112.7918 12.5868 10.4231 -6.3721
# 4 11.1213 5.8451 12.5868 36.6563 0.8667 -8.0642
# 5 14.2802 2.2284 10.4231 0.8667 43.2712 -1.6745
# 6 13.0048 14.6544 -6.3721 -8.0642 -1.6745 42.0245
#
#
#
# Elastic Compliance Matrix: (Units=1/GPa)
#
#
# Indices 1 2 3 4 5 6 
#
# 1 0.017933 0.001489 -0.006997 -0.004987 -0.004529 -0.008267
# 2 0.001489 0.013138 -0.003223 -0.002765 -0.000572 -0.006084
# 3 -0.006997 -0.003223 0.012715 -0.000601 -0.000379 0.005087
# 4 -0.004987 -0.002765 -0.000601 0.031268 0.001635 0.008482
# 5 -0.004529 -0.000572 -0.000379 0.001635 0.024803 0.002846
# 6 -0.008267 -0.006084 0.005087 0.008482 0.002846 0.030988
#
#
# Mechanical properties :
#
#
# Convention : Reuss Voigt Hill
#
# Bulk Modulus (GPa) = 37.98833 49.28532 43.63682
# Shear Modulus (GPa) = 31.83046 38.27267 35.05156
#
# Velocity S-wave (km/s) = 3.50849 3.84718 3.68173
# Velocity P-wave (km/s) = 5.57705 6.22848 5.91175
#
# Compressibility (1/GPa) = 0.02632388
#
# Stress axis : x y z
#
# Youngs Moduli (GPa) = 55.76302 76.11527 78.64572
#
# Poissons Ratio (x) = -0.11336 0.55030
# Poissons Ratio (y) = -0.08305 0.25349
# Poissons Ratio (z) = 0.39019 0.24534
#
# Static dielectric constant tensor:
#      x y z
#    x 2.005400 -0.029880 -0.003320 
#    y -0.029880 2.111690 -0.045460 
#    z -0.003320 -0.045460 2.067760 
# 
# From -- ./inp_files/26878.got.cif
#   From: 2010.05.17/outbox.cif.g08.bks.cpg/sg2_14_cif.got.tgz:26878.got - 2010.06.03 11:33:40.
