data_PCOD9051023
_publ_section_title
;
Structure prediction by ZEFSAII (Michael W. Deem and Ramdas Pophale) SiO2 
 PCOD9051023
Probable space group: P -1
;
_chemical_formula_sum "Si O2"
_cell_formula_units_Z 16
_cell_length_a 8.287252
_cell_length_b 11.192524
_cell_length_c 11.724488
_cell_angle_alpha 130.028826
_cell_angle_beta 89.651032
_cell_angle_gamma 119.052946
_cell_volume 647.292616
_symmetry_space_group_name_H-M "P -1"
_symmetry_group_IT_number 2
_symmetry_cell_setting 'triclinic'
loop_
_space_group_symop_operation_xyz
x,y,z
-x,-y,-z
loop_
_atom_site_type_symbol
_atom_site_label
_atom_site_fract_x
_atom_site_fract_y
_atom_site_fract_z
Si Si1 0.160692 0.553254 0.864879
Si Si2 0.183078 0.902884 0.735343
Si Si3 0.301493 0.728025 0.217346
Si Si4 0.604378 0.233896 0.232526
Si Si5 0.241296 0.160415 0.074509
Si Si6 0.443616 0.169063 0.517622
Si Si7 0.096436 0.186166 0.530666
Si Si8 0.755525 0.525746 0.606230
O O1 0.256962 0.690609 0.836140
O O2 0.168112 0.376282 0.721271
O O3 0.921364 0.447427 0.831734
O O4 0.283601 0.665268 0.048626
O O5 0.363093 0.892401 0.762349
O O6 0.075509 0.862189 0.589199
O O7 0.993631 0.706105 0.686995
O O8 0.253676 0.112621 0.914685
O O9 0.494140 0.773277 0.314689
O O10 0.340862 0.938332 0.357618
O O11 0.371190 0.115635 0.119435
O O12 0.664847 0.426962 0.421646
O O13 0.309834 0.369256 0.249173
O O14 0.000000 0.000000 0.000000
O O15 0.291435 0.208648 0.492152
O O16 0.668737 0.325992 0.554092
O O17 0.000000 0.000000 0.500000
#
# Coordination Sequence:
#
# PCOD9051023 Si02
#       8
#     2   2   2   2   2   2   2   2
#     4  11  24  48  74 108 141 187 243 297 363 424
#     4  11  26  45  70 107 146 192 236 300 361 424
#     4  10  25  48  73 104 142 190 246 297 355 431
#     4  12  24  44  75 107 146 189 238 302 359 434
#     4  10  25  45  67 108 149 187 237 288 366 430
#     4  11  25  44  72 104 142 192 240 295 361 425
#     4  12  26  45  72 102 145 191 241 295 358 428
#     4  11  24  43  72 105 146 189 237 294 365 430
#
# _framework density 24.718340000000001
#
# number of rings (size 3 to 8) (size 9 to 14) (size 15 to 20)
#    0.000    1.000    2.500    2.625    5.250    4.500 
#    2.250    0.000    0.000    0.000    0.000    0.000 
#    0.000    0.000    0.000    0.000    0.000    0.000 
#
# Total GULP energy -89387.639707 kJ/mol
# GULP energy per Si atom -5586.727482 kJ/mol
# Density = 2.466208 g / cm^3
# Si number density = 24.718340 Si / 1000 Ang^3
#
#
#
# Elastic Constant Matrix: (Units=GPa)
#
#
# Indices 1 2 3 4 5 6 
#
# 1 86.2925 51.9035 50.1381 -7.3463 23.2937 -12.0953
# 2 51.9035 91.0234 42.0372 -15.0161 16.5524 4.7446
# 3 50.1381 42.0372 222.2449 -32.5826 0.0351 -14.8294
# 4 -7.3463 -15.0161 -32.5826 34.4320 -0.3518 7.7063
# 5 23.2937 16.5524 0.0351 -0.3518 38.0090 -0.5273
# 6 -12.0953 4.7446 -14.8294 7.7063 -0.5273 38.0793
#
#
#
# Elastic Compliance Matrix: (Units=1/GPa)
#
#
# Indices 1 2 3 4 5 6 
#
# 1 0.023881 -0.011645 -0.003369 -0.005204 -0.009489 0.008646
# 2 -0.011645 0.019790 -0.000563 0.007365 -0.001523 -0.007895
# 3 -0.003369 -0.000563 0.006088 0.004720 0.002354 0.000448
# 4 -0.005204 0.007365 0.004720 0.037474 0.000209 -0.008313
# 5 -0.009489 -0.001523 0.002354 0.000209 0.032767 -0.001496
# 6 0.008646 -0.007895 0.000448 -0.008313 -0.001496 0.031827
#
#
# Mechanical properties :
#
#
# Convention : Reuss Voigt Hill
#
# Bulk Modulus (GPa) = 53.75246 76.41313 65.08280
# Shear Modulus (GPa) = 26.42978 39.13620 32.78299
#
# Velocity S-wave (km/s) = 3.27347 3.98337 3.64574
# Velocity P-wave (km/s) = 6.00672 7.22059 6.64145
#
# Compressibility (1/GPa) = 0.01860380
#
# Stress axis : x y z
#
# Youngs Moduli (GPa) = 41.87511 50.53160 164.26658
#
# Poissons Ratio (x) = 0.58842 0.55347
# Poissons Ratio (y) = 0.48762 0.09249
# Poissons Ratio (z) = 0.14109 0.02845
#
# Static dielectric constant tensor:
#      x y z
#    x 2.046380 0.076230 -0.042200 
#    y 0.076230 2.000570 -0.018000 
#    z -0.042200 -0.018000 1.962660 
# 
# From -- ./inp_files/393114.got.cif
#   From: 2010.05.17/outbox.cif.g08.bks.cpg/sg2_197_cif.got.tgz:393114.got - 2010.06.03 11:33:40.
