data_PCOD9051146
_publ_section_title
;
Structure prediction by ZEFSAII (Michael W. Deem and Ramdas Pophale) SiO2 
 PCOD9051146
Probable space group: P -1
;
_chemical_formula_sum "Si O2"
_cell_formula_units_Z 12
_cell_length_a 23.086602
_cell_length_b 5.014170
_cell_length_c 23.200615
_cell_angle_alpha 52.783741
_cell_angle_beta 12.844079
_cell_angle_gamma 54.394641
_cell_volume 475.022918
_symmetry_space_group_name_H-M "P -1"
_symmetry_group_IT_number 2
_symmetry_cell_setting 'triclinic'
loop_
_space_group_symop_operation_xyz
x,y,z
-x,-y,-z
loop_
_atom_site_type_symbol
_atom_site_label
_atom_site_fract_x
_atom_site_fract_y
_atom_site_fract_z
Si Si1 0.202417 0.500370 0.657400
Si Si2 0.538752 0.126617 0.292798
Si Si3 0.768522 0.716497 0.218749
Si Si4 0.270897 0.931203 0.276819
Si Si5 0.807658 0.775950 0.927911
Si Si6 0.701338 0.835774 0.654419
O O1 0.299956 0.303748 0.532994
O O2 0.194950 0.252739 0.752024
O O3 0.944077 0.696642 0.867177
O O4 0.725954 0.022397 0.177390
O O5 0.418309 0.795259 0.423473
O O6 0.690424 0.408642 0.071248
O O7 0.500000 0.500000 0.500000
O O8 0.000000 0.500000 0.000000
O O9 0.271898 0.540584 0.344260
O O10 0.309404 0.154986 0.267042
O O11 0.000000 0.000000 0.500000
O O12 0.500000 0.000000 0.000000
O O13 0.044067 0.939894 0.640341
O O14 0.563281 0.009475 0.131635
#
# Coordination Sequence:
#
# PCOD9051146 Si02
#       6
#     2   2   2   2   2   2
#     4  11  27  48  73 104 148 198 258 312 377 433
#     4  11  27  48  73 104 148 198 258 312 377 433
#     4  10  25  45  71 101 138 194 262 323 365 429
#     4  12  26  52  82 112 150 191 240 293 352 430
#     4  12  28  48  74 112 158 197 242 303 372 448
#     4  12  28  47  78 117 152 191 242 293 362 439
#
# _framework density 25.261939000000002
#
# number of rings (size 3 to 8) (size 9 to 14) (size 15 to 20)
#    0.000    0.667    1.667    3.500   11.667    3.333 
#    0.000    0.000    0.000    0.000    0.000    0.000 
#    0.000    0.000    0.000    0.000    0.000    0.000 
#
# Total GULP energy -67315.427540 kJ/mol
# GULP energy per Si atom -5609.618962 kJ/mol
# Density = 2.520444 g / cm^3
# Si number density = 25.261939 Si / 1000 Ang^3
#
#
#
# Elastic Constant Matrix: (Units=GPa)
#
#
# Indices 1 2 3 4 5 6 
#
# 1 84.6037 -6.8701 22.5639 5.1971 -19.0780 -6.7257
# 2 -6.8701 97.8675 38.5604 5.0812 -4.5846 -19.1858
# 3 22.5639 38.5604 181.5887 14.3320 -3.9591 -23.6249
# 4 5.1971 5.0812 14.3320 50.0946 -20.4988 -5.8447
# 5 -19.0780 -4.5846 -3.9591 -20.4988 51.6632 10.9718
# 6 -6.7257 -19.1858 -23.6249 -5.8447 10.9718 44.5712
#
#
#
# Elastic Compliance Matrix: (Units=1/GPa)
#
#
# Indices 1 2 3 4 5 6 
#
# 1 0.013744 0.002100 -0.002041 0.001260 0.005452 0.000719
# 2 0.002100 0.012109 -0.002279 0.000017 0.000806 0.004125
# 3 -0.002041 -0.002279 0.006671 -0.001881 -0.001705 0.002420
# 4 0.001260 0.000017 -0.001881 0.024471 0.010046 -0.000063
# 5 0.005452 0.000806 -0.001705 0.010046 0.026337 -0.004900
# 6 0.000719 0.004125 0.002420 -0.000063 -0.004900 0.026800
#
#
# Mechanical properties :
#
#
# Convention : Reuss Voigt Hill
#
# Bulk Modulus (GPa) = 35.60889 52.50759 44.05824
# Shear Modulus (GPa) = 40.34420 49.91951 45.13186
#
# Velocity S-wave (km/s) = 4.00063 4.45013 4.23135
# Velocity P-wave (km/s) = 5.95538 6.87279 6.43046
#
# Compressibility (1/GPa) = 0.02808287
#
# Stress axis : x y z
#
# Youngs Moduli (GPa) = 72.75968 82.58399 149.91082
#
# Poissons Ratio (x) = -0.17341 0.30592
# Poissons Ratio (y) = -0.15278 0.34170
# Poissons Ratio (z) = 0.14848 0.18824
#
# Static dielectric constant tensor:
#      x y z
#    x 2.014460 -0.019830 0.015800 
#    y -0.019830 1.952610 -0.018660 
#    z 0.015800 -0.018660 1.957780 
# 
# From -- ./inp_files/621006.got.cif
#   From: 2010.05.17/outbox.cif.g08.bks.cpg/sg2_311_cif.got.tgz:621006.got - 2010.06.03 11:33:40.
