data_PCOD9051490
_publ_section_title
;
Structure prediction by ZEFSAII (Michael W. Deem and Ramdas Pophale) SiO2 
 PCOD9051490
Probable space group: P -1
;
_chemical_formula_sum "Si O2"
_cell_formula_units_Z 10
_cell_length_a 9.025897
_cell_length_b 7.384433
_cell_length_c 9.963337
_cell_angle_alpha 44.688252
_cell_angle_beta 63.379060
_cell_angle_gamma 71.165762
_cell_volume 417.488341
_symmetry_space_group_name_H-M "P -1"
_symmetry_group_IT_number 2
_symmetry_cell_setting 'triclinic'
loop_
_space_group_symop_operation_xyz
x,y,z
-x,-y,-z
loop_
_atom_site_type_symbol
_atom_site_label
_atom_site_fract_x
_atom_site_fract_y
_atom_site_fract_z
Si Si1 0.478021 0.254051 0.971878
Si Si2 0.054120 0.793273 0.479528
Si Si3 0.651961 0.490353 0.343123
Si Si4 0.950386 0.858532 0.960086
Si Si5 0.777682 0.491996 0.876992
O O1 0.444592 0.512413 0.759071
O O2 0.643967 0.302480 0.964946
O O3 0.326207 0.279394 0.127264
O O4 0.500000 0.000000 0.000000
O O5 0.904565 0.588597 0.659796
O O6 0.222606 0.687391 0.530441
O O7 0.000000 0.000000 0.500000
O O8 0.063999 0.936172 0.259885
O O9 0.500000 0.500000 0.500000
O O10 0.778447 0.718906 0.132838
O O11 0.100556 0.650736 0.990382
O O12 0.000000 0.000000 0.000000
#
# Coordination Sequence:
#
# PCOD9051490 Si02
#       5
#     2   2   2   2   2
#     4  11  24  47  73 105 151 187 237 309 365 420
#     4  11  25  46  73 101 146 195 238 298 367 429
#     4  11  27  41  70 106 140 185 245 292 357 435
#     4  11  25  46  72 103 146 192 240 299 364 430
#     4  10  25  46  72 108 142 190 248 294 357 448
#
# _framework density 23.952767000000001
#
# number of rings (size 3 to 8) (size 9 to 14) (size 15 to 20)
#    0.000    1.200    0.000    3.600   11.200    4.800 
#    0.000    3.000    0.000    0.000    0.000    0.000 
#    0.000    0.000    0.000    0.000    0.000    0.000 
#
# Total GULP energy -55808.932500 kJ/mol
# GULP energy per Si atom -5580.893250 kJ/mol
# Density = 2.389825 g / cm^3
# Si number density = 23.952767 Si / 1000 Ang^3
#
#
#
# Elastic Constant Matrix: (Units=GPa)
#
#
# Indices 1 2 3 4 5 6 
#
# 1 149.4966 84.3891 53.6962 0.1762 16.7060 -45.1597
# 2 84.3891 142.4556 56.4443 7.4623 -12.4658 -24.2344
# 3 53.6962 56.4443 186.4025 -8.6707 32.0918 -35.8608
# 4 0.1762 7.4623 -8.6707 32.9779 -10.2906 6.6888
# 5 16.7060 -12.4658 32.0918 -10.2906 43.3172 8.1282
# 6 -45.1597 -24.2344 -35.8608 6.6888 8.1282 61.2489
#
#
#
# Elastic Compliance Matrix: (Units=1/GPa)
#
#
# Indices 1 2 3 4 5 6 
#
# 1 0.016788 -0.010090 0.003031 -0.004249 -0.015001 0.012615
# 2 -0.010090 0.015099 -0.005166 0.000762 0.013438 -0.006357
# 3 0.003031 -0.005166 0.009338 -0.001393 -0.011276 0.007307
# 4 -0.004249 0.000762 -0.001393 0.035793 0.013138 -0.009299
# 5 -0.015001 0.013438 -0.011276 0.013138 0.047994 -0.020149
# 6 0.012615 -0.006357 0.007307 -0.009299 -0.020149 0.031081
#
#
# Mechanical properties :
#
#
# Convention : Reuss Voigt Hill
#
# Bulk Modulus (GPa) = 59.61482 96.37934 77.99708
# Shear Modulus (GPa) = 26.86215 46.43047 36.64631
#
# Velocity S-wave (km/s) = 3.35246 4.40752 3.91569
# Velocity P-wave (km/s) = 6.31885 8.13795 7.28540
#
# Compressibility (1/GPa) = 0.01677435
#
# Stress axis : x y z
#
# Youngs Moduli (GPa) = 59.56513 66.23088 107.08664
#
# Poissons Ratio (x) = 0.66828 -0.32460
# Poissons Ratio (y) = 0.60102 0.55326
# Poissons Ratio (z) = -0.18055 0.34218
#
# Static dielectric constant tensor:
#      x y z
#    x 2.125820 -0.119890 0.146310 
#    y -0.119890 2.127100 -0.197830 
#    z 0.146310 -0.197830 2.197430 
# 
# From -- ./inp_files/143992.got.cif
#   From: 2010.05.17/outbox.cif.g08.bks.cpg/sg2_72_cif.got.tgz:143992.got - 2010.06.03 11:33:40.
