data_PCOD9051364
_publ_section_title
;
Structure prediction by ZEFSAII (Michael W. Deem and Ramdas Pophale) SiO2 
 PCOD9051364
Probable space group: P -1
;
_chemical_formula_sum "Si O2"
_cell_formula_units_Z 12
_cell_length_a 21.621671
_cell_length_b 7.474633
_cell_length_c 4.878007
_cell_angle_alpha 85.254949
_cell_angle_beta 84.294466
_cell_angle_gamma 33.465988
_cell_volume 432.577976
_symmetry_space_group_name_H-M "P -1"
_symmetry_group_IT_number 2
_symmetry_cell_setting 'triclinic'
loop_
_space_group_symop_operation_xyz
x,y,z
-x,-y,-z
loop_
_atom_site_type_symbol
_atom_site_label
_atom_site_fract_x
_atom_site_fract_y
_atom_site_fract_z
Si Si1 0.318227 0.223795 0.787077
Si Si2 0.559257 0.599867 0.998394
Si Si3 0.013044 0.645916 0.658428
Si Si4 0.903333 0.367198 0.892774
Si Si5 0.759678 0.273034 0.638332
Si Si6 0.350316 0.790369 0.481645
O O1 0.278284 0.487111 0.590588
O O2 0.220277 0.409206 0.020972
O O3 0.328514 0.028577 0.603250
O O4 0.440382 0.954913 0.902740
O O5 0.568853 0.522728 0.318356
O O6 0.662133 0.483334 0.880861
O O7 0.595184 0.341471 0.826067
O O8 0.077940 0.501875 0.936316
O O9 0.000000 0.500000 0.500000
O O10 0.883313 0.012121 0.723412
O O11 0.072404 0.644369 0.428947
O O12 0.000000 0.000000 0.000000
O O13 0.756644 0.082652 0.520074
#
# Coordination Sequence:
#
# PCOD9051364 Si02
#       6
#     2   2   2   2   2   2
#     4  12  24  48  74 102 147 187 234 298 351 427
#     4  10  25  47  70 106 142 186 235 293 358 418
#     4  12  27  50  75 102 146 190 241 300 355 428
#     4  12  28  47  71 109 140 189 242 292 361 424
#     4  10  26  45  74 103 143 180 243 285 359 416
#     4  10  25  46  68 109 139 185 237 288 360 419
#
# _framework density 27.740662
#
# number of rings (size 3 to 8) (size 9 to 14) (size 15 to 20)
#    1.000    0.000    1.667    3.500    4.667    2.000 
#    3.000    0.000    0.000    0.000    0.000    0.000 
#    0.000    0.000    0.000    0.000    0.000    0.000 
#
# Total GULP energy -67389.764211 kJ/mol
# GULP energy per Si atom -5615.813684 kJ/mol
# Density = 2.767752 g / cm^3
# Si number density = 27.740662 Si / 1000 Ang^3
#
#
#
# Elastic Constant Matrix: (Units=GPa)
#
#
# Indices 1 2 3 4 5 6 
#
# 1 109.3816 39.2510 42.8813 15.9726 -6.5087 -13.9551
# 2 39.2510 138.0665 40.8648 17.1850 -13.3577 -31.2553
# 3 42.8813 40.8648 146.4085 8.3242 -7.1063 -12.1801
# 4 15.9726 17.1850 8.3242 51.4883 -3.5452 4.9133
# 5 -6.5087 -13.3577 -7.1063 -3.5452 51.7572 11.9051
# 6 -13.9551 -31.2553 -12.1801 4.9133 11.9051 59.1797
#
#
#
# Elastic Compliance Matrix: (Units=1/GPa)
#
#
# Indices 1 2 3 4 5 6 
#
# 1 0.011364 -0.001824 -0.002549 -0.002629 0.000109 0.001388
# 2 -0.001824 0.009655 -0.001597 -0.002760 0.000842 0.004400
# 3 -0.002549 -0.001597 0.008049 0.000033 0.000342 0.000141
# 4 -0.002629 -0.002760 0.000033 0.021646 0.001399 -0.004150
# 5 0.000109 0.000842 0.000342 0.001399 0.020548 -0.003709
# 6 0.001388 0.004400 0.000141 -0.004150 -0.003709 0.020669
#
#
# Mechanical properties :
#
#
# Convention : Reuss Voigt Hill
#
# Bulk Modulus (GPa) = 58.38313 71.09453 64.73883
# Shear Modulus (GPa) = 45.62907 50.54234 48.08571
#
# Velocity S-wave (km/s) = 4.06007 4.27307 4.16793
# Velocity P-wave (km/s) = 6.56282 7.07315 6.82276
#
# Compressibility (1/GPa) = 0.01712823
#
# Stress axis : x y z
#
# Youngs Moduli (GPa) = 87.99988 103.57011 124.24069
#
# Poissons Ratio (x) = 0.18893 0.31668
# Poissons Ratio (y) = 0.16053 0.19838
# Poissons Ratio (z) = 0.22430 0.16538
#
# Static dielectric constant tensor:
#      x y z
#    x 2.267420 0.048400 0.016700 
#    y 0.048400 2.107390 0.055930 
#    z 0.016700 0.055930 2.045160 
# 
# From -- ./inp_files/122496.got.cif
#   From: 2010.05.17/outbox.cif.g08.bks.cpg/sg2_62_cif.got.tgz:122496.got - 2010.06.03 11:33:40.
