data_PCOD9051879
_publ_section_title
;
Structure prediction by ZEFSAII (Michael W. Deem and Ramdas Pophale) SiO2 
 PCOD9051879
Probable space group: P -1
;
_chemical_formula_sum "Si O2"
_cell_formula_units_Z 14
_cell_length_a 5.201903
_cell_length_b 10.981364
_cell_length_c 13.041587
_cell_angle_alpha 64.296197
_cell_angle_beta 102.930773
_cell_angle_gamma 129.097565
_cell_volume 519.634409
_symmetry_space_group_name_H-M "P -1"
_symmetry_group_IT_number 2
_symmetry_cell_setting 'triclinic'
loop_
_space_group_symop_operation_xyz
x,y,z
-x,-y,-z
loop_
_atom_site_type_symbol
_atom_site_label
_atom_site_fract_x
_atom_site_fract_y
_atom_site_fract_z
Si Si1 0.679537 0.455819 0.109409
Si Si2 0.276791 0.831559 0.728677
Si Si3 0.366197 0.123843 0.533249
Si Si4 0.509059 0.585682 0.672267
Si Si5 0.680259 0.005590 0.876224
Si Si6 0.280300 0.258699 0.687469
Si Si7 0.361583 0.743851 0.093750
O O1 0.572700 0.268739 0.194410
O O2 0.657357 0.510309 0.201759
O O3 0.065589 0.576958 0.073318
O O4 0.500000 0.500000 0.000000
O O5 0.905664 0.702828 0.694695
O O6 0.465259 0.000719 0.612585
O O7 0.324624 0.911850 0.818089
O O8 0.565868 0.282680 0.416078
O O9 0.333388 0.198686 0.608240
O O10 0.000000 0.000000 0.500000
O O11 0.341080 0.438524 0.624562
O O12 0.734422 0.139238 0.914920
O O13 0.952545 0.107881 0.774516
O O14 0.646904 0.859121 0.993613
O O15 0.559836 0.307341 0.776651
#
# Coordination Sequence:
#
# PCOD9051879 Si02
#       7
#     2   2   2   2   2   2   2
#     4  12  27  45  76 109 149 192 241 298 371 436
#     4  11  25  46  71 105 149 191 239 302 358 427
#     4  10  25  48  73 107 146 190 247 304 359 432
#     4  11  25  47  72 109 146 193 245 299 361 431
#     4  11  25  41  73 106 143 195 238 297 362 433
#     4  12  23  47  74 104 147 191 243 302 363 426
#     4  11  24  46  68 109 148 189 242 294 364 442
#
# _framework density 26.942019999999999
#
# number of rings (size 3 to 8) (size 9 to 14) (size 15 to 20)
#    0.000    0.857    4.286    1.714    6.000    4.000 
#    2.571    1.429    0.000    0.000    0.000    0.000 
#    0.000    0.000    0.000    0.000    0.000    0.000 
#
# Total GULP energy -78247.969976 kJ/mol
# GULP energy per Si atom -5589.140713 kJ/mol
# Density = 2.688070 g / cm^3
# Si number density = 26.942020 Si / 1000 Ang^3
#
#
#
# Elastic Constant Matrix: (Units=GPa)
#
#
# Indices 1 2 3 4 5 6 
#
# 1 64.9082 33.5039 31.9421 -6.7815 14.4590 -6.3912
# 2 33.5039 148.9071 73.4994 -2.1844 3.1752 -15.5704
# 3 31.9421 73.4994 167.4897 -13.8143 10.5550 -11.1916
# 4 -6.7815 -2.1844 -13.8143 65.4234 -11.2971 7.0177
# 5 14.4590 3.1752 10.5550 -11.2971 47.3404 -9.1475
# 6 -6.3912 -15.5704 -11.1916 7.0177 -9.1475 40.5965
#
#
#
# Elastic Compliance Matrix: (Units=1/GPa)
#
#
# Indices 1 2 3 4 5 6 
#
# 1 0.019213 -0.003294 -0.001848 0.000613 -0.005089 0.000000
# 2 -0.003294 0.009404 -0.003483 -0.000788 0.001465 0.002595
# 3 -0.001848 -0.003483 0.008010 0.001248 -0.000648 0.000220
# 4 0.000613 -0.000788 0.001248 0.016334 0.003102 -0.001987
# 5 -0.005089 0.001465 -0.000648 0.003102 0.024340 0.004530
# 6 0.000000 0.002595 0.000220 -0.001987 0.004530 0.027053
#
#
# Mechanical properties :
#
#
# Convention : Reuss Voigt Hill
#
# Bulk Modulus (GPa) = 51.60122 73.24399 62.42260
# Shear Modulus (GPa) = 39.04383 46.82936 42.93660
#
# Velocity S-wave (km/s) = 3.81094 4.17364 3.99641
# Velocity P-wave (km/s) = 6.20956 7.10426 6.67192
#
# Compressibility (1/GPa) = 0.01937939
#
# Stress axis : x y z
#
# Youngs Moduli (GPa) = 52.04724 106.33605 124.84989
#
# Poissons Ratio (x) = 0.35022 0.23068
# Poissons Ratio (y) = 0.17142 0.43481
# Poissons Ratio (z) = 0.09617 0.37033
#
# Static dielectric constant tensor:
#      x y z
#    x 2.271300 -0.101940 0.030910 
#    y -0.101940 2.290100 -0.021350 
#    z 0.030910 -0.021350 2.088860 
# 
# From -- ./inp_files/364110.got.cif
#   From: 2010.05.17/outbox.cif.g08.bks.cpg/sg2_183_cif.got.tgz:364110.got - 2010.06.03 11:33:40.
