data_PCOD9051592
_publ_section_title
;
Structure prediction by ZEFSAII (Michael W. Deem and Ramdas Pophale) SiO2 
 PCOD9051592
Probable space group: P -1
;
_chemical_formula_sum "Si O2"
_cell_formula_units_Z 14
_cell_length_a 6.343699
_cell_length_b 10.888636
_cell_length_c 8.311298
_cell_angle_alpha 99.073486
_cell_angle_beta 81.367467
_cell_angle_gamma 98.760060
_cell_volume 555.604664
_symmetry_space_group_name_H-M "P -1"
_symmetry_group_IT_number 2
_symmetry_cell_setting 'triclinic'
loop_
_space_group_symop_operation_xyz
x,y,z
-x,-y,-z
loop_
_atom_site_type_symbol
_atom_site_label
_atom_site_fract_x
_atom_site_fract_y
_atom_site_fract_z
Si Si1 0.831574 0.509093 0.662266
Si Si2 0.489564 0.300006 0.547956
Si Si3 0.698397 0.083849 0.580262
Si Si4 0.496754 0.675180 0.806941
Si Si5 0.008301 0.966993 0.747055
Si Si6 0.169466 0.415562 0.802918
Si Si7 0.220608 0.189115 0.974518
O O1 0.624530 0.431911 0.593209
O O2 0.734695 0.632811 0.747353
O O3 0.000000 0.500000 0.500000
O O4 0.938520 0.450520 0.789617
O O5 0.599055 0.211749 0.638071
O O6 0.535042 0.265403 0.352048
O O7 0.254950 0.329370 0.631636
O O8 0.887999 0.097476 0.427986
O O9 0.500000 0.000000 0.500000
O O10 0.802056 0.024977 0.709901
O O11 0.325512 0.550033 0.831728
O O12 0.542148 0.774989 0.965646
O O13 0.936182 0.872013 0.879006
O O14 0.177969 0.080548 0.821332
O O15 0.168356 0.318601 0.928263
#
# Coordination Sequence:
#
# PCOD9051592 Si02
#       7
#     2   2   2   2   2   2   2
#     4  11  20  38  65  92 128 163 212 264 306 363
#     4  11  22  38  67  98 121 165 219 266 312 367
#     4  11  23  44  73  95 118 165 224 270 311 364
#     4  11  23  39  63  99 129 169 213 257 317 383
#     4  10  25  47  65  95 127 165 219 265 317 381
#     4  11  22  42  64  95 133 167 213 260 314 384
#     4  11  24  43  65  90 137 173 200 263 329 380
#
# _framework density 25.197775
#
# number of rings (size 3 to 8) (size 9 to 14) (size 15 to 20)
#    0.000    1.143    2.857    3.857    2.000    2.857 
#    0.000   21.429    0.000    0.000    0.000    0.000 
#    0.000    0.000    0.000    0.000    0.000    0.000 
#
# Total GULP energy -78202.958454 kJ/mol
# GULP energy per Si atom -5585.925604 kJ/mol
# Density = 2.514042 g / cm^3
# Si number density = 25.197775 Si / 1000 Ang^3
#
#
#
# Elastic Constant Matrix: (Units=GPa)
#
#
# Indices 1 2 3 4 5 6 
#
# 1 70.8472 22.4237 22.1906 -8.1021 16.8171 -13.6046
# 2 22.4237 91.1399 33.7658 -5.9434 9.0374 17.8628
# 3 22.1906 33.7658 113.7443 -14.0361 16.2610 17.4669
# 4 -8.1021 -5.9434 -14.0361 49.9446 8.5134 5.8752
# 5 16.8171 9.0374 16.2610 8.5134 40.4326 5.5738
# 6 -13.6046 17.8628 17.4669 5.8752 5.5738 34.3406
#
#
#
# Elastic Compliance Matrix: (Units=1/GPa)
#
#
# Indices 1 2 3 4 5 6 
#
# 1 0.022292 -0.006174 -0.003304 0.001733 -0.008980 0.014885
# 2 -0.006174 0.015035 -0.001743 0.001278 0.000985 -0.009759
# 3 -0.003304 -0.001743 0.011864 0.003866 -0.002908 -0.006626
# 4 0.001733 0.001278 0.003866 0.023267 -0.006795 -0.004822
# 5 -0.008980 0.000985 -0.002908 -0.006795 0.031755 -0.006582
# 6 0.014885 -0.009759 -0.006626 -0.004822 -0.006582 0.045357
#
#
# Mechanical properties :
#
#
# Convention : Reuss Voigt Hill
#
# Bulk Modulus (GPa) = 37.38657 48.05462 42.72060
# Shear Modulus (GPa) = 27.63491 38.10032 32.86762
#
# Velocity S-wave (km/s) = 3.31527 3.89273 3.61555
# Velocity P-wave (km/s) = 5.43361 6.27031 5.86690
#
# Compressibility (1/GPa) = 0.02674758
#
# Stress axis : x y z
#
# Youngs Moduli (GPa) = 44.85910 66.50948 84.28765
#
# Poissons Ratio (x) = 0.41065 0.27851
# Poissons Ratio (y) = 0.27698 0.14694
# Poissons Ratio (z) = 0.14823 0.11595
#
# Static dielectric constant tensor:
#      x y z
#    x 2.412130 0.108570 -0.239990 
#    y 0.108570 2.173270 0.030240 
#    z -0.239990 0.030240 2.300570 
# 
# From -- ./inp_files/78307.got.cif
#   From: 2010.05.17/outbox.cif.g08.bks.cpg/sg2_40_cif.got.tgz:78307.got - 2010.06.03 11:33:40.
