data_PCOD9051741
_publ_section_title
;
Structure prediction by ZEFSAII (Michael W. Deem and Ramdas Pophale) SiO2 
 PCOD9051741
Probable space group: P -1
;
_chemical_formula_sum "Si O2"
_cell_formula_units_Z 12
_cell_length_a 12.356944
_cell_length_b 6.534876
_cell_length_c 9.345915
_cell_angle_alpha 117.850701
_cell_angle_beta 112.395015
_cell_angle_gamma 51.331069
_cell_volume 516.630971
_symmetry_space_group_name_H-M "P -1"
_symmetry_group_IT_number 2
_symmetry_cell_setting 'triclinic'
loop_
_space_group_symop_operation_xyz
x,y,z
-x,-y,-z
loop_
_atom_site_type_symbol
_atom_site_label
_atom_site_fract_x
_atom_site_fract_y
_atom_site_fract_z
Si Si1 0.719757 0.390027 0.493951
Si Si2 0.187236 0.279368 0.895805
Si Si3 0.516112 0.185131 0.293717
Si Si4 0.064792 0.799063 0.202726
Si Si5 0.900127 0.423121 0.344064
Si Si6 0.522278 0.243623 0.010775
O O1 0.646468 0.216937 0.392586
O O2 0.591852 0.681338 0.587045
O O3 0.840670 0.257096 0.629420
O O4 0.790862 0.418452 0.397117
O O5 0.178778 0.367130 0.755844
O O6 0.064205 0.225939 0.830262
O O7 0.149712 0.552362 0.053161
O O8 0.321673 0.009653 0.948628
O O9 0.535604 0.898984 0.163838
O O10 0.451413 0.351237 0.165622
O O11 0.000081 0.114510 0.228606
O O12 0.000000 0.500000 0.500000
O O13 0.500000 0.500000 0.000000
#
# Coordination Sequence:
#
# PCOD9051741 Si02
#       6
#     2   2   2   2   2   2
#     4  11  23  50  73 111 155 194 249 310 379 447
#     4  11  25  49  77 109 151 195 261 310 367 454
#     4  10  25  47  74 106 154 199 251 306 370 452
#     4  11  24  47  76 111 152 198 247 311 380 447
#     4  12  26  45  78 115 149 196 244 318 383 439
#     4  11  25  51  77 108 147 206 257 308 370 447
#
# _framework density 23.227412000000001
#
# number of rings (size 3 to 8) (size 9 to 14) (size 15 to 20)
#    0.000    1.000    3.333    2.000    2.333    5.333 
#    9.000    2.500    0.000    0.000    0.000    0.000 
#    0.000    0.000    0.000    0.000    0.000    0.000 
#
# Total GULP energy -67064.368690 kJ/mol
# GULP energy per Si atom -5588.697391 kJ/mol
# Density = 2.317455 g / cm^3
# Si number density = 23.227412 Si / 1000 Ang^3
#
#
#
# Elastic Constant Matrix: (Units=GPa)
#
#
# Indices 1 2 3 4 5 6 
#
# 1 139.3994 59.0023 62.7253 -10.4670 29.3638 -17.4524
# 2 59.0023 160.7169 81.1658 -8.7674 12.1933 4.3839
# 3 62.7253 81.1658 138.0622 7.7826 27.3580 -5.8454
# 4 -10.4670 -8.7674 7.7826 35.0463 2.5450 7.0609
# 5 29.3638 12.1933 27.3580 2.5450 53.8926 -3.4951
# 6 -17.4524 4.3839 -5.8454 7.0609 -3.4951 33.9585
#
#
#
# Elastic Compliance Matrix: (Units=1/GPa)
#
#
# Indices 1 2 3 4 5 6 
#
# 1 0.011006 -0.002277 -0.002859 0.002728 -0.003868 0.004493
# 2 -0.002277 0.010071 -0.005536 0.003793 0.001329 -0.004075
# 3 -0.002859 -0.005536 0.012846 -0.005297 -0.003317 0.002217
# 4 0.002728 0.003793 -0.005297 0.033013 -0.001671 -0.007036
# 5 -0.003868 0.001329 -0.003317 -0.001671 0.022118 -0.000106
# 6 0.004493 -0.004075 0.002217 -0.007036 -0.000106 0.034116
#
#
# Mechanical properties :
#
#
# Convention : Reuss Voigt Hill
#
# Bulk Modulus (GPa) = 79.49270 93.77393 86.63331
# Shear Modulus (GPa) = 33.62328 40.26517 36.94422
#
# Velocity S-wave (km/s) = 3.80882 4.16807 3.99249
# Velocity P-wave (km/s) = 7.32399 7.97643 7.65716
#
# Compressibility (1/GPa) = 0.01257977
#
# Stress axis : x y z
#
# Youngs Moduli (GPa) = 90.86160 99.29410 77.84393
#
# Poissons Ratio (x) = 0.22609 0.22253
# Poissons Ratio (y) = 0.20689 0.43094
# Poissons Ratio (z) = 0.25975 0.54968
#
# Static dielectric constant tensor:
#      x y z
#    x 1.966480 -0.071790 -0.038880 
#    y -0.071790 1.864220 0.063870 
#    z -0.038880 0.063870 1.897740 
# 
# From -- ./inp_files/228725.got.cif
#   From: 2010.05.17/outbox.cif.g08.bks.cpg/sg2_115_cif.got.tgz:228725.got - 2010.06.03 11:33:40.
