data_PCOD9051936
_publ_section_title
;
Structure prediction by ZEFSAII (Michael W. Deem and Ramdas Pophale) SiO2 
 PCOD9051936
Probable space group: P -1
;
_chemical_formula_sum "Si O2"
_cell_formula_units_Z 14
_cell_length_a 12.855313
_cell_length_b 12.409984
_cell_length_c 9.702372
_cell_angle_alpha 118.258180
_cell_angle_beta 145.369253
_cell_angle_gamma 60.294312
_cell_volume 757.230782
_symmetry_space_group_name_H-M "P -1"
_symmetry_group_IT_number 2
_symmetry_cell_setting 'triclinic'
loop_
_space_group_symop_operation_xyz
x,y,z
-x,-y,-z
loop_
_atom_site_type_symbol
_atom_site_label
_atom_site_fract_x
_atom_site_fract_y
_atom_site_fract_z
Si Si1 0.898097 0.664409 0.691771
Si Si2 0.427716 0.914563 0.562162
Si Si3 0.635717 0.129783 0.860144
Si Si4 0.949495 0.919661 0.769034
Si Si5 0.376211 0.351627 0.366850
Si Si6 0.697660 0.493319 0.889342
Si Si7 0.609395 0.607603 0.146069
O O1 0.887298 0.800080 0.694638
O O2 0.774980 0.670765 0.699674
O O3 0.801003 0.588359 0.430039
O O4 0.111735 0.602243 0.920198
O O5 0.398427 0.877606 0.347074
O O6 0.512934 0.783631 0.646895
O O7 0.567238 0.009792 0.771908
O O8 0.227268 0.991814 0.442658
O O9 0.513094 0.258279 0.861862
O O10 0.855054 0.121933 0.122087
O O11 0.000000 0.000000 0.000000
O O12 0.528739 0.420078 0.644478
O O13 0.285250 0.438569 0.195031
O O14 0.650288 0.593584 0.020625
O O15 0.500000 0.500000 0.000000
#
# Coordination Sequence:
#
# PCOD9051936 Si02
#       7
#     2   2   2   2   2   2   2
#     4  12  21  38  62  89 114 152 200 241 288 341
#     4  10  17  35  55  84 112 151 190 238 285 336
#     4  10  19  33  56  86 116 143 195 242 287 330
#     4  10  19  30  59  92 111 142 195 247 285 333
#     4  11  22  41  59  83 122 157 194 236 288 355
#     4  11  25  38  58  88 119 158 192 236 296 349
#     4  12  21  39  60  87 121 152 192 247 292 336
#
# _framework density 18.488420000000001
#
# number of rings (size 3 to 8) (size 9 to 14) (size 15 to 20)
#    0.000    1.143    4.286    5.143    0.000    0.000 
#    0.000    0.714    0.000    0.857    0.000    0.000 
#    0.000    0.000    0.000    0.000    0.000    0.000 
#
# Total GULP energy -78178.976810 kJ/mol
# GULP energy per Si atom -5584.212629 kJ/mol
# Density = 1.844634 g / cm^3
# Si number density = 18.488420 Si / 1000 Ang^3
#
#
#
# Elastic Constant Matrix: (Units=GPa)
#
#
# Indices 1 2 3 4 5 6 
#
# 1 55.4365 11.4109 24.1955 1.8726 9.3952 -20.7098
# 2 11.4109 89.8005 18.7814 6.9829 -2.7226 -14.7131
# 3 24.1955 18.7814 68.2639 7.4582 2.1569 -5.3943
# 4 1.8726 6.9829 7.4582 24.2218 1.8222 11.7990
# 5 9.3952 -2.7226 2.1569 1.8222 18.8138 -1.9500
# 6 -20.7098 -14.7131 -5.3943 11.7990 -1.9500 26.5840
#
#
#
# Elastic Compliance Matrix: (Units=1/GPa)
#
#
# Indices 1 2 3 4 5 6 
#
# 1 0.037680 0.004360 -0.009203 -0.018666 -0.011452 0.037344
# 2 0.004360 0.015002 -0.003144 -0.012047 0.003246 0.016646
# 3 -0.009203 -0.003144 0.018662 -0.002341 0.001819 -0.003950
# 4 -0.018666 -0.012047 -0.002341 0.074052 -0.005018 -0.054919
# 5 -0.011452 0.003246 0.001819 -0.005018 0.059602 -0.000157
# 6 0.037344 0.016646 -0.003950 -0.054919 -0.000157 0.099484
#
#
# Mechanical properties :
#
#
# Convention : Reuss Voigt Hill
#
# Bulk Modulus (GPa) = 18.06013 35.80849 26.93431
# Shear Modulus (GPa) = 14.75303 24.53147 19.64225
#
# Velocity S-wave (km/s) = 2.82788 3.64655 3.26300
# Velocity P-wave (km/s) = 4.52240 6.09425 5.36619
#
# Compressibility (1/GPa) = 0.05537058
#
# Stress axis : x y z
#
# Youngs Moduli (GPa) = 26.53916 66.65834 53.58492
#
# Poissons Ratio (x) = -0.29060 0.49312
# Poissons Ratio (y) = -0.11570 0.16845
# Poissons Ratio (z) = 0.24423 0.20955
#
# Static dielectric constant tensor:
#      x y z
#    x 1.618800 -0.026760 0.014000 
#    y -0.026760 1.633740 -0.017590 
#    z 0.014000 -0.017590 1.634660 
# 
# From -- ./inp_files/260415.got.cif
#   From: 2010.05.17/outbox.cif.g08.bks.cpg/sg2_131_cif.got.tgz:260415.got - 2010.06.03 11:33:40.
