data_PCOD9051511
_publ_section_title
;
Structure prediction by ZEFSAII (Michael W. Deem and Ramdas Pophale) SiO2 
 PCOD9051511
Probable space group: P -1
;
_chemical_formula_sum "Si O2"
_cell_formula_units_Z 16
_cell_length_a 19.705239
_cell_length_b 5.909773
_cell_length_c 9.111928
_cell_angle_alpha 80.262888
_cell_angle_beta 58.861324
_cell_angle_gamma 47.938783
_cell_volume 647.518588
_symmetry_space_group_name_H-M "P -1"
_symmetry_group_IT_number 2
_symmetry_cell_setting 'triclinic'
loop_
_space_group_symop_operation_xyz
x,y,z
-x,-y,-z
loop_
_atom_site_type_symbol
_atom_site_label
_atom_site_fract_x
_atom_site_fract_y
_atom_site_fract_z
Si Si1 0.083528 0.669826 0.029425
Si Si2 0.522901 0.149697 0.332995
Si Si3 0.344528 0.311596 0.341237
Si Si4 0.037080 0.048895 0.305562
Si Si5 0.102101 0.300504 0.700531
Si Si6 0.284188 0.085698 0.691059
Si Si7 0.404684 0.887457 0.055170
Si Si8 0.195779 0.985242 0.317285
O O1 0.006054 0.604438 0.132916
O O2 0.097164 0.754268 0.164263
O O3 0.200391 0.387174 0.857776
O O4 0.000000 0.000000 0.000000
O O5 0.403485 0.395083 0.363056
O O6 0.500000 0.000000 0.500000
O O7 0.599627 0.182887 0.327002
O O8 0.587846 0.992897 0.122006
O O9 0.310600 0.188524 0.509254
O O10 0.250969 0.628812 0.324412
O O11 0.412139 0.039892 0.170669
O O12 0.931116 0.365932 0.308455
O O13 0.114530 0.102825 0.262158
O O14 0.000000 0.000000 0.500000
O O15 0.206439 0.043321 0.716391
O O16 0.131226 0.173603 0.516788
O O17 0.289455 0.983482 0.182614
O O18 0.500000 0.500000 0.000000
#
# Coordination Sequence:
#
# PCOD9051511 Si02
#       8
#     2   2   2   2   2   2   2   2
#     4  12  26  44  70 102 149 192 242 289 368 424
#     4  10  25  46  73 104 143 185 236 298 365 428
#     4  11  24  50  72 103 148 184 243 299 361 432
#     4  12  27  44  70 106 144 193 244 299 349 427
#     4  12  25  47  70 105 148 190 244 295 354 435
#     4  11  24  44  72 102 145 196 230 301 359 428
#     4  12  26  46  78 108 140 188 246 299 361 437
#     4  12  26  42  78 105 139 194 240 299 361 415
#
# _framework density 24.709716
#
# number of rings (size 3 to 8) (size 9 to 14) (size 15 to 20)
#    0.000    0.500    5.000    2.625    3.500    0.000 
#    0.000    6.875    0.000    0.000    0.000    0.000 
#    0.000    0.000    0.000    0.000    0.000    0.000 
#
# Total GULP energy -89359.595044 kJ/mol
# GULP energy per Si atom -5584.974690 kJ/mol
# Density = 2.465348 g / cm^3
# Si number density = 24.709716 Si / 1000 Ang^3
#
#
#
# Elastic Constant Matrix: (Units=GPa)
#
#
# Indices 1 2 3 4 5 6 
#
# 1 148.1702 14.8240 22.0107 1.3662 17.8101 -25.3807
# 2 14.8240 70.2892 33.7735 7.0443 4.4296 -7.1483
# 3 22.0107 33.7735 176.6955 7.0528 15.8731 9.2658
# 4 1.3662 7.0443 7.0528 42.3673 6.5122 5.1506
# 5 17.8101 4.4296 15.8731 6.5122 36.4887 2.2721
# 6 -25.3807 -7.1483 9.2658 5.1506 2.2721 29.8188
#
#
#
# Elastic Compliance Matrix: (Units=1/GPa)
#
#
# Indices 1 2 3 4 5 6 
#
# 1 0.008857 -0.000193 -0.001099 -0.000416 -0.004260 0.008231
# 2 -0.000193 0.016709 -0.003310 -0.002825 -0.000325 0.005383
# 3 -0.001099 -0.003310 0.006780 0.000189 -0.001813 -0.003730
# 4 -0.000416 -0.002825 0.000189 0.025255 -0.003722 -0.005169
# 5 -0.004260 -0.000325 -0.001813 -0.003722 0.031281 -0.004881
# 6 0.008231 0.005383 -0.003730 -0.005169 -0.004881 0.044256
#
#
# Mechanical properties :
#
#
# Convention : Reuss Voigt Hill
#
# Bulk Modulus (GPa) = 43.20939 59.59681 51.40310
# Shear Modulus (GPa) = 33.32081 43.37142 38.34611
#
# Velocity S-wave (km/s) = 3.67616 4.19410 3.94364
# Velocity P-wave (km/s) = 5.96185 6.90109 6.44860
#
# Compressibility (1/GPa) = 0.02314312
#
# Stress axis : x y z
#
# Youngs Moduli (GPa) = 112.90136 59.84753 147.49488
#
# Poissons Ratio (x) = 0.01154 0.16207
# Poissons Ratio (y) = 0.02176 0.48821
# Poissons Ratio (z) = 0.12406 0.19810
#
# Static dielectric constant tensor:
#      x y z
#    x 2.091970 0.067490 -0.040970 
#    y 0.067490 1.973170 -0.030870 
#    z -0.040970 -0.030870 1.985180 
# 
# From -- ./inp_files/340335.got.cif
#   From: 2010.05.17/outbox.cif.g08.bks.cpg/sg2_171_cif.got.tgz:340335.got - 2010.06.03 11:33:40.
