data_PCOD9051142
_publ_section_title
;
Structure prediction by ZEFSAII (Michael W. Deem and Ramdas Pophale) SiO2 
 PCOD9051142
Probable space group: P -1
;
_chemical_formula_sum "Si O2"
_cell_formula_units_Z 14
_cell_length_a 4.958218
_cell_length_b 17.572076
_cell_length_c 9.568780
_cell_angle_alpha 105.466445
_cell_angle_beta 61.909107
_cell_angle_gamma 128.633501
_cell_volume 574.076056
_symmetry_space_group_name_H-M "P -1"
_symmetry_group_IT_number 2
_symmetry_cell_setting 'triclinic'
loop_
_space_group_symop_operation_xyz
x,y,z
-x,-y,-z
loop_
_atom_site_type_symbol
_atom_site_label
_atom_site_fract_x
_atom_site_fract_y
_atom_site_fract_z
Si Si1 0.503668 0.021856 0.347215
Si Si2 0.626983 0.310881 0.930017
Si Si3 0.664741 0.863798 0.738700
Si Si4 0.583035 0.897937 0.066285
Si Si5 0.791943 0.332519 0.420211
Si Si6 0.830824 0.604191 0.915318
Si Si7 0.734130 0.604003 0.412928
O O1 0.281012 0.060514 0.353470
O O2 0.953214 0.109422 0.268937
O O3 0.500000 0.000000 0.500000
O O4 0.389738 0.929143 0.235948
O O5 0.468454 0.197822 0.907130
O O6 0.310723 0.328289 0.992886
O O7 0.794491 0.351335 0.063576
O O8 0.982871 0.376665 0.770988
O O9 0.456266 0.763915 0.658577
O O10 0.447861 0.871726 0.925605
O O11 0.000000 0.000000 0.000000
O O12 0.550552 0.370236 0.549411
O O13 0.989267 0.321244 0.496578
O O14 0.100364 0.406007 0.267541
O O15 0.500000 0.500000 0.000000
O O16 0.500000 0.500000 0.500000
#
# Coordination Sequence:
#
# PCOD9051142 Si02
#       7
#     2   2   2   2   2   2   2
#     4  11  25  44  70 101 136 180 233 289 350 417
#     4  12  26  45  72 107 143 188 241 290 365 425
#     4  11  24  44  67  99 137 183 232 289 352 412
#     4  10  25  45  71 100 145 187 238 291 351 423
#     4  12  25  43  74  98 144 182 237 289 361 425
#     4  12  25  46  74 105 139 185 244 299 350 431
#     4  12  26  47  70 105 146 187 232 300 369 424
#
# _framework density 24.387014000000001
#
# number of rings (size 3 to 8) (size 9 to 14) (size 15 to 20)
#    0.000    0.571    1.429    6.000    8.000    2.286 
#    0.000    0.000    0.000    0.000    0.000    0.000 
#    0.000    0.000    0.000    0.000    0.000    0.000 
#
# Total GULP energy -78345.582187 kJ/mol
# GULP energy per Si atom -5596.113013 kJ/mol
# Density = 2.433151 g / cm^3
# Si number density = 24.387014 Si / 1000 Ang^3
#
#
#
# Elastic Constant Matrix: (Units=GPa)
#
#
# Indices 1 2 3 4 5 6 
#
# 1 73.1074 21.0958 2.0747 -9.6190 -5.5119 -6.2758
# 2 21.0958 99.6697 -10.7424 6.2437 6.9572 -1.8449
# 3 2.0747 -10.7424 108.6474 -10.1308 10.1308 -3.9754
# 4 -9.6190 6.2437 -10.1308 32.8584 2.2828 5.6471
# 5 -5.5119 6.9572 10.1308 2.2828 25.8032 -4.0040
# 6 -6.2758 -1.8449 -3.9754 5.6471 -4.0040 28.0137
#
#
#
# Elastic Compliance Matrix: (Units=1/GPa)
#
#
# Indices 1 2 3 4 5 6 
#
# 1 0.016066 -0.004027 -0.000634 0.004412 0.004850 0.003048
# 2 -0.004027 0.011495 0.001364 -0.002641 -0.004266 -0.000029
# 3 -0.000634 0.001364 0.010070 0.002969 -0.004703 0.000106
# 4 0.004412 -0.002641 0.002969 0.034455 -0.003523 -0.006213
# 5 0.004850 -0.004266 -0.004703 -0.003523 0.044211 0.007167
# 6 0.003048 -0.000029 0.000106 -0.006213 0.007167 0.038670
#
#
# Mechanical properties :
#
#
# Convention : Reuss Voigt Hill
#
# Bulk Modulus (GPa) = 32.22013 34.03117 33.12565
# Shear Modulus (GPa) = 29.08510 35.26815 32.17663
#
# Velocity S-wave (km/s) = 3.45722 3.80700 3.63632
# Velocity P-wave (km/s) = 5.40159 5.77142 5.58956
#
# Compressibility (1/GPa) = 0.03103649
#
# Stress axis : x y z
#
# Youngs Moduli (GPa) = 62.24142 86.99221 99.30217
#
# Poissons Ratio (x) = 0.35036 0.06298
# Poissons Ratio (y) = 0.25067 -0.13544
# Poissons Ratio (z) = 0.03948 -0.11865
#
# Static dielectric constant tensor:
#      x y z
#    x 1.899770 0.043740 -0.052130 
#    y 0.043740 1.969090 -0.060310 
#    z -0.052130 -0.060310 2.015220 
# 
# From -- ./inp_files/139214.got.cif
#   From: 2010.05.17/outbox.cif.g08.bks.cpg/sg2_70_cif.got.tgz:139214.got - 2010.06.03 11:33:40.
