data_PCOD9051138
_publ_section_title
;
Structure prediction by ZEFSAII (Michael W. Deem and Ramdas Pophale) SiO2 
 PCOD9051138
Probable space group: P -1
;
_chemical_formula_sum "Si O2"
_cell_formula_units_Z 16
_cell_length_a 11.051246
_cell_length_b 11.589089
_cell_length_c 7.748730
_cell_angle_alpha 55.997128
_cell_angle_beta 55.489595
_cell_angle_gamma 63.419684
_cell_volume 665.430758
_symmetry_space_group_name_H-M "P -1"
_symmetry_group_IT_number 2
_symmetry_cell_setting 'triclinic'
loop_
_space_group_symop_operation_xyz
x,y,z
-x,-y,-z
loop_
_atom_site_type_symbol
_atom_site_label
_atom_site_fract_x
_atom_site_fract_y
_atom_site_fract_z
Si Si1 0.073325 0.291240 0.587339
Si Si2 0.454502 0.383316 0.958139
Si Si3 0.257145 0.105347 0.869012
Si Si4 0.497964 0.165066 0.811783
Si Si5 0.243799 0.542020 0.250510
Si Si6 0.799809 0.142382 0.410012
Si Si7 0.083400 0.173998 0.308205
Si Si8 0.591409 0.124574 0.274884
O O1 0.146849 0.161022 0.756615
O O2 0.158476 0.415529 0.475103
O O3 0.103849 0.270408 0.375049
O O4 0.895518 0.327367 0.734911
O O5 0.430313 0.288518 0.894492
O O6 0.611520 0.438105 0.772501
O O7 0.319509 0.503956 0.032139
O O8 0.483073 0.267136 0.186428
O O9 0.400714 0.180999 0.702096
O O10 0.317541 0.941040 0.914638
O O11 0.188370 0.143302 0.081242
O O12 0.665849 0.173902 0.627080
O O13 0.500000 0.000000 0.000000
O O14 0.712661 0.151656 0.292829
O O15 0.923527 0.227908 0.301814
O O16 0.888949 0.980018 0.491716
O O17 0.500000 0.000000 0.500000
#
# Coordination Sequence:
#
# PCOD9051138 Si02
#       8
#     2   2   2   2   2   2   2   2
#     4  11  24  48  69  92 137 183 231 274 339 396
#     4  11  23  43  71  97 135 177 235 274 335 404
#     4  12  24  39  72 106 129 179 222 278 350 408
#     4  12  21  40  66 104 135 171 219 279 352 407
#     4  10  25  45  70  91 130 196 227 275 324 400
#     4  11  23  38  61 106 144 169 209 282 356 404
#     4  11  24  41  64 101 143 170 217 280 344 412
#     4  12  22  39  71 105 140 172 221 284 348 409
#
# _framework density 24.044575999999999
#
# number of rings (size 3 to 8) (size 9 to 14) (size 15 to 20)
#    0.000    0.750    5.000    2.250    1.750    1.500 
#    0.000    6.250    2.750    0.000    0.000    0.000 
#    0.000    0.000    0.000    0.000    0.000    0.000 
#
# Total GULP energy -89331.128604 kJ/mol
# GULP energy per Si atom -5583.195538 kJ/mol
# Density = 2.398985 g / cm^3
# Si number density = 24.044576 Si / 1000 Ang^3
#
#
#
# Elastic Constant Matrix: (Units=GPa)
#
#
# Indices 1 2 3 4 5 6 
#
# 1 123.3747 20.6980 35.3511 20.9679 13.2826 10.7036
# 2 20.6980 67.1146 27.8677 25.9922 4.2967 12.8706
# 3 35.3511 27.8677 71.0122 24.2220 -2.9693 9.0468
# 4 20.9679 25.9922 24.2220 39.3364 2.7771 -1.8873
# 5 13.2826 4.2967 -2.9693 2.7771 40.1616 15.5781
# 6 10.7036 12.8706 9.0468 -1.8873 15.5781 37.8444
#
#
#
# Elastic Compliance Matrix: (Units=1/GPa)
#
#
# Indices 1 2 3 4 5 6 
#
# 1 0.010166 -0.000050 -0.004207 -0.002597 -0.003236 -0.000650
# 2 -0.000050 0.023088 -0.003211 -0.013760 0.001510 -0.008378
# 3 -0.004207 -0.003211 0.021820 -0.009811 0.006372 -0.006046
# 4 -0.002597 -0.013760 -0.009811 0.042975 -0.006196 0.012453
# 5 -0.003236 0.001510 0.006372 -0.006196 0.032443 -0.014785
# 6 -0.000650 -0.008378 -0.006046 0.012453 -0.014785 0.037609
#
#
# Mechanical properties :
#
#
# Convention : Reuss Voigt Hill
#
# Bulk Modulus (GPa) = 24.91588 47.70389 36.30989
# Shear Modulus (GPa) = 25.45601 35.30748 30.38174
#
# Velocity S-wave (km/s) = 3.25730 3.83615 3.55851
# Velocity P-wave (km/s) = 4.95293 6.28524 5.65843
#
# Compressibility (1/GPa) = 0.04013504
#
# Stress axis : x y z
#
# Youngs Moduli (GPa) = 98.37091 43.31291 45.82909
#
# Poissons Ratio (x) = 0.00218 0.19282
# Poissons Ratio (y) = 0.00495 0.14718
# Poissons Ratio (z) = 0.41389 0.13910
#
# Static dielectric constant tensor:
#      x y z
#    x 1.941980 -0.002170 -0.020860 
#    y -0.002170 1.937140 0.014030 
#    z -0.020860 0.014030 2.011690 
# 
# From -- ./inp_files/204100.got.cif
#   From: 2010.05.17/outbox.cif.g08.bks.cpg/sg2_103_cif.got.tgz:204100.got - 2010.06.03 11:33:40.
