data_PCOD9051559
_publ_section_title
;
Structure prediction by ZEFSAII (Michael W. Deem and Ramdas Pophale) SiO2 
 PCOD9051559
Probable space group: P -1
;
_chemical_formula_sum "Si O2"
_cell_formula_units_Z 14
_cell_length_a 10.603526
_cell_length_b 8.374822
_cell_length_c 15.273521
_cell_angle_alpha 148.991623
_cell_angle_beta 129.286474
_cell_angle_gamma 55.547834
_cell_volume 539.909480
_symmetry_space_group_name_H-M "P -1"
_symmetry_group_IT_number 2
_symmetry_cell_setting 'triclinic'
loop_
_space_group_symop_operation_xyz
x,y,z
-x,-y,-z
loop_
_atom_site_type_symbol
_atom_site_label
_atom_site_fract_x
_atom_site_fract_y
_atom_site_fract_z
Si Si1 0.436472 0.770791 0.479762
Si Si2 0.048577 0.881621 0.743431
Si Si3 0.075810 0.132847 0.683820
Si Si4 0.597277 0.625339 0.019352
Si Si5 0.751401 0.974248 0.781909
Si Si6 0.358718 0.446959 0.702446
Si Si7 0.845095 0.698415 0.866673
O O1 0.584574 0.794949 0.623817
O O2 0.536132 0.654990 0.383292
O O3 0.296307 0.536976 0.317498
O O4 0.355875 0.120804 0.599679
O O5 0.016041 0.980860 0.676101
O O6 0.889946 0.835930 0.712084
O O7 0.818682 0.403992 0.326803
O O8 0.135312 0.160325 0.962648
O O9 0.008518 0.489267 0.821060
O O10 0.273057 0.129752 0.779976
O O11 0.000000 0.000000 0.500000
O O12 0.460260 0.693593 0.918119
O O13 0.698902 0.316462 0.884541
O O14 0.500000 0.500000 0.000000
O O15 0.814817 0.957613 0.900946
#
# Coordination Sequence:
#
# PCOD9051559 Si02
#       7
#     2   2   2   2   2   2   2
#     4  10  25  46  75 111 155 196 251 321 374 446
#     4  12  27  50  82 108 156 204 255 311 383 462
#     4  12  31  47  75 118 156 197 257 323 381 444
#     4  11  25  47  76 106 155 202 252 308 380 458
#     4  11  26  46  79 112 152 204 251 308 386 454
#     4  10  25  46  78 109 148 201 259 301 389 448
#     4  12  26  48  77 111 156 198 256 314 379 451
#
# _framework density 25.930271999999999
#
# number of rings (size 3 to 8) (size 9 to 14) (size 15 to 20)
#    0.000    0.857    1.429    3.000   14.000    4.000 
#    0.000    0.000    0.000    0.000    0.000    0.000 
#    0.000    0.000    0.000    0.000    0.000    0.000 
#
# Total GULP energy -78457.467805 kJ/mol
# GULP energy per Si atom -5604.104843 kJ/mol
# Density = 2.587125 g / cm^3
# Si number density = 25.930272 Si / 1000 Ang^3
#
#
#
# Elastic Constant Matrix: (Units=GPa)
#
#
# Indices 1 2 3 4 5 6 
#
# 1 94.1329 33.3500 27.7097 -5.8584 9.3266 -16.1162
# 2 33.3500 113.6072 36.6582 -21.0629 -5.7789 -6.7140
# 3 27.7097 36.6582 158.6233 -21.8535 16.3232 9.3311
# 4 -5.8584 -21.0629 -21.8535 43.3986 7.4193 -3.0010
# 5 9.3266 -5.7789 16.3232 7.4193 59.4859 -2.2912
# 6 -16.1162 -6.7140 9.3311 -3.0010 -2.2912 37.0330
#
#
#
# Elastic Compliance Matrix: (Units=1/GPa)
#
#
# Indices 1 2 3 4 5 6 
#
# 1 0.013373 -0.003096 -0.001761 0.000096 -0.001710 0.005604
# 2 -0.003096 0.011185 -0.001757 0.003956 0.001620 0.001544
# 3 -0.001761 -0.001757 0.007885 0.003112 -0.002561 -0.002978
# 4 0.000096 0.003956 0.003112 0.027330 -0.003818 0.001953
# 5 -0.001710 0.001620 -0.002561 -0.003818 0.018455 0.001027
# 6 0.005604 0.001544 -0.002978 0.001953 0.001027 0.030694
#
#
# Mechanical properties :
#
#
# Convention : Reuss Voigt Hill
#
# Bulk Modulus (GPa) = 52.03776 62.42214 57.22995
# Shear Modulus (GPa) = 38.89385 45.89321 42.39353
#
# Velocity S-wave (km/s) = 3.87711 4.21155 4.04778
# Velocity P-wave (km/s) = 6.33676 6.91193 6.63059
#
# Compressibility (1/GPa) = 0.01921681
#
# Stress axis : x y z
#
# Youngs Moduli (GPa) = 74.77549 89.40662 126.81654
#
# Poissons Ratio (x) = 0.27676 0.22336
# Poissons Ratio (y) = 0.23147 0.22277
# Poissons Ratio (z) = 0.13170 0.15706
#
# Static dielectric constant tensor:
#      x y z
#    x 2.007650 -0.012300 0.040570 
#    y -0.012300 1.975330 0.017520 
#    z 0.040570 0.017520 2.151370 
# 
# From -- ./inp_files/464846.got.cif
#   From: 2010.05.17/outbox.cif.g08.bks.cpg/sg2_233_cif.got.tgz:464846.got - 2010.06.03 11:33:40.
