data_PCOD9051575
_publ_section_title
;
Structure prediction by ZEFSAII (Michael W. Deem and Ramdas Pophale) SiO2 
 PCOD9051575
Probable space group: P -1
;
_chemical_formula_sum "Si O2"
_cell_formula_units_Z 14
_cell_length_a 11.996410
_cell_length_b 4.980922
_cell_length_c 13.124640
_cell_angle_alpha 62.068307
_cell_angle_beta 113.622272
_cell_angle_gamma 126.911488
_cell_volume 546.034044
_symmetry_space_group_name_H-M "P -1"
_symmetry_group_IT_number 2
_symmetry_cell_setting 'triclinic'
loop_
_space_group_symop_operation_xyz
x,y,z
-x,-y,-z
loop_
_atom_site_type_symbol
_atom_site_label
_atom_site_fract_x
_atom_site_fract_y
_atom_site_fract_z
Si Si1 0.128472 0.804258 0.555241
Si Si2 0.602841 0.865073 0.527622
Si Si3 0.524859 0.180420 0.088780
Si Si4 0.715072 0.491393 0.777872
Si Si5 0.872120 0.481037 0.019667
Si Si6 0.033625 0.210686 0.321475
Si Si7 0.829555 0.744031 0.158212
O O1 0.082863 0.750734 0.665206
O O2 0.000000 0.500000 0.500000
O O3 0.275579 0.871860 0.553228
O O4 0.121466 0.144772 0.452427
O O5 0.500000 0.500000 0.500000
O O6 0.675870 0.763023 0.663712
O O7 0.500000 0.000000 0.500000
O O8 0.681968 0.376142 0.160613
O O9 0.420126 0.891993 0.183596
O O10 0.500000 0.500000 0.000000
O O11 0.500000 0.000000 0.000000
O O12 0.839701 0.500752 0.752757
O O13 0.783343 0.593700 0.896407
O O14 0.936943 0.885864 0.267852
O O15 0.791346 0.057345 0.084612
O O16 0.000000 0.500000 0.000000
O O17 0.908533 0.711559 0.093378
#
# Coordination Sequence:
#
# PCOD9051575 Si02
#       7
#     2   2   2   2   2   2   2
#     4  10  25  51  80 111 162 202 277 346 408 482
#     4  11  29  54  82 120 159 212 275 338 412 493
#     4  12  25  48  73 113 163 212 258 320 397 482
#     4  11  25  50  80 116 165 218 266 336 415 478
#     4  12  25  44  76 116 159 204 270 331 398 488
#     4  10  25  46  77 117 150 216 266 338 410 474
#     4  12  25  46  73 114 160 207 270 322 399 490
#
# _framework density 25.639429
#
# number of rings (size 3 to 8) (size 9 to 14) (size 15 to 20)
#    0.000    0.857    4.286    0.429    8.000    3.429 
#    5.143    0.000    0.000    0.000    0.000    0.000 
#    0.000    0.000    0.000    0.000    0.000    0.000 
#
# Total GULP energy -78264.170069 kJ/mol
# GULP energy per Si atom -5590.297862 kJ/mol
# Density = 2.558107 g / cm^3
# Si number density = 25.639429 Si / 1000 Ang^3
#
#
#
# Elastic Constant Matrix: (Units=GPa)
#
#
# Indices 1 2 3 4 5 6 
#
# 1 230.7166 99.0924 63.3146 -1.2757 -23.0520 6.9370
# 2 99.0924 164.9276 26.5122 11.9635 -30.6631 1.1377
# 3 63.3146 26.5122 153.3254 12.2555 0.0384 -6.9911
# 4 -1.2757 11.9635 12.2555 41.0211 5.4209 -7.8459
# 5 -23.0520 -30.6631 0.0384 5.4209 52.2275 -5.0429
# 6 6.9370 1.1377 -6.9911 -7.8459 -5.0429 69.1762
#
#
#
# Elastic Compliance Matrix: (Units=1/GPa)
#
#
# Indices 1 2 3 4 5 6 
#
# 1 0.006591 -0.003617 -0.002263 0.001751 0.000548 -0.000592
# 2 -0.003617 0.009232 0.000174 -0.003382 0.004189 0.000150
# 3 -0.002263 0.000174 0.007634 -0.002187 -0.000608 0.000703
# 4 0.001751 -0.003382 -0.002187 0.027040 -0.003781 0.002450
# 5 0.000548 0.004189 -0.000608 -0.003781 0.022339 0.001014
# 6 -0.000592 0.000150 0.000703 0.002450 0.001014 0.014936
#
#
# Mechanical properties :
#
#
# Convention : Reuss Voigt Hill
#
# Bulk Modulus (GPa) = 83.03952 102.97867 93.00909
# Shear Modulus (GPa) = 48.44951 56.48832 52.46891
#
# Velocity S-wave (km/s) = 4.35172 4.69890 4.52864
# Velocity P-wave (km/s) = 7.59656 8.34811 7.98119
#
# Compressibility (1/GPa) = 0.01204246
#
# Stress axis : x y z
#
# Youngs Moduli (GPa) = 151.71368 108.32138 130.99739
#
# Poissons Ratio (x) = 0.39184 0.29650
# Poissons Ratio (y) = 0.54880 -0.02273
# Poissons Ratio (z) = 0.34339 -0.01880
#
# Static dielectric constant tensor:
#      x y z
#    x 2.058070 0.021550 0.036510 
#    y 0.021550 2.048570 -0.059480 
#    z 0.036510 -0.059480 2.206570 
# 
# From -- ./inp_files/510691.got.cif
#   From: 2010.05.17/outbox.cif.g08.bks.cpg/sg2_256_cif.got.tgz:510691.got - 2010.06.03 11:33:40.
