data_PCOD9051350
_publ_section_title
;
Structure prediction by ZEFSAII (Michael W. Deem and Ramdas Pophale) SiO2 
 PCOD9051350
Probable space group: P -1
;
_chemical_formula_sum "Si O2"
_cell_formula_units_Z 16
_cell_length_a 11.888016
_cell_length_b 9.247241
_cell_length_c 13.796605
_cell_angle_alpha 102.962358
_cell_angle_beta 148.816434
_cell_angle_gamma 95.927099
_cell_volume 620.703188
_symmetry_space_group_name_H-M "P -1"
_symmetry_group_IT_number 2
_symmetry_cell_setting 'triclinic'
loop_
_space_group_symop_operation_xyz
x,y,z
-x,-y,-z
loop_
_atom_site_type_symbol
_atom_site_label
_atom_site_fract_x
_atom_site_fract_y
_atom_site_fract_z
Si Si1 0.624922 0.087651 0.448644
Si Si2 0.322809 0.458206 0.213732
Si Si3 0.860914 0.032860 0.782451
Si Si4 0.514205 0.751780 0.999820
Si Si5 0.207927 0.541049 0.337132
Si Si6 0.170868 0.862318 0.949137
Si Si7 0.483916 0.557486 0.133026
Si Si8 0.890346 0.171226 0.331409
O O1 0.759570 0.008316 0.593359
O O2 0.820367 0.305882 0.620275
O O3 0.386941 0.047794 0.339725
O O4 0.478979 0.995503 0.227562
O O5 0.281382 0.565969 0.281275
O O6 0.559113 0.447953 0.428376
O O7 0.398950 0.551826 0.179673
O O8 0.065483 0.249599 0.983296
O O9 0.011167 0.937887 0.887658
O O10 0.400726 0.636265 0.998240
O O11 0.745551 0.962485 0.226312
O O12 0.606442 0.645960 0.991044
O O13 0.295067 0.757855 0.778438
O O14 0.956240 0.334897 0.130239
O O15 0.119615 0.844052 0.795098
O O16 0.809469 0.689299 0.390186
#
# Coordination Sequence:
#
# PCOD9051350 Si02
#       8
#     2   2   2   2   2   2   2   2
#     4  11  25  42  62  93 137 184 220 269 320 385
#     4  11  21  40  69 100 132 183 219 264 333 400
#     4  11  23  42  62  91 137 180 222 271 320 383
#     4  10  25  46  68 102 130 166 226 283 331 400
#     4  11  23  41  67  97 138 178 218 267 320 397
#     4  12  23  44  68  97 136 178 223 267 332 400
#     4  11  23  45  72  97 135 173 217 277 342 388
#     4  11  24  44  73  98 130 174 219 279 339 394
#
# _framework density 25.777215000000002
#
# number of rings (size 3 to 8) (size 9 to 14) (size 15 to 20)
#    0.000    1.000    3.750    3.375    0.000    2.500 
#    4.500    5.000    0.000    0.000    0.000    0.000 
#    0.000    0.000    0.000    0.000    0.000    0.000 
#
# Total GULP energy -89796.885944 kJ/mol
# GULP energy per Si atom -5612.305372 kJ/mol
# Density = 2.571854 g / cm^3
# Si number density = 25.777215 Si / 1000 Ang^3
#
#
#
# Elastic Constant Matrix: (Units=GPa)
#
#
# Indices 1 2 3 4 5 6 
#
# 1 73.3201 31.6891 13.0764 1.2903 -11.6316 13.5915
# 2 31.6891 144.8275 55.1805 8.0127 -2.2115 -0.5527
# 3 13.0764 55.1805 94.9947 -1.5071 -8.0459 -15.7562
# 4 1.2903 8.0127 -1.5071 46.4296 6.4057 -3.9980
# 5 -11.6316 -2.2115 -8.0459 6.4057 30.1157 -5.5593
# 6 13.5915 -0.5527 -15.7562 -3.9980 -5.5593 31.4871
#
#
#
# Elastic Compliance Matrix: (Units=1/GPa)
#
#
# Indices 1 2 3 4 5 6 
#
# 1 0.017489 -0.003161 -0.001428 -0.001334 0.005022 -0.007602
# 2 -0.003161 0.009870 -0.005822 -0.001689 -0.002053 -0.001953
# 3 -0.001428 -0.005822 0.016135 0.001745 0.004741 0.009647
# 4 -0.001334 -0.001689 0.001745 0.022832 -0.004375 0.003546
# 5 0.005022 -0.002053 0.004741 -0.004375 0.038371 0.006388
# 6 -0.007602 -0.001953 0.009647 0.003546 0.006388 0.041412
#
#
# Mechanical properties :
#
#
# Convention : Reuss Voigt Hill
#
# Bulk Modulus (GPa) = 44.11024 57.00381 50.55702
# Shear Modulus (GPa) = 28.65534 35.81957 32.23745
#
# Velocity S-wave (km/s) = 3.33776 3.73175 3.54024
# Velocity P-wave (km/s) = 5.65716 6.38201 6.03049
#
# Compressibility (1/GPa) = 0.02267047
#
# Stress axis : x y z
#
# Youngs Moduli (GPa) = 57.17854 101.32224 61.97750
#
# Poissons Ratio (x) = 0.32030 0.08850
# Poissons Ratio (y) = 0.18075 0.36086
# Poissons Ratio (z) = 0.08165 0.58994
#
# Static dielectric constant tensor:
#      x y z
#    x 2.047010 -0.003410 0.033840 
#    y -0.003410 1.957890 -0.007590 
#    z 0.033840 -0.007590 1.991500 
# 
# From -- ./inp_files/529847.got.cif
#   From: 2010.05.17/outbox.cif.g08.bks.cpg/sg2_265_cif.got.tgz:529847.got - 2010.06.03 11:33:40.
