data_PCOD9051562
_publ_section_title
;
Structure prediction by ZEFSAII (Michael W. Deem and Ramdas Pophale) SiO2 
 PCOD9051562
Probable space group: P -1
;
_chemical_formula_sum "Si O2"
_cell_formula_units_Z 16
_cell_length_a 13.283089
_cell_length_b 9.374166
_cell_length_c 10.023213
_cell_angle_alpha 44.870313
_cell_angle_beta 94.282688
_cell_angle_gamma 68.868234
_cell_volume 710.445896
_symmetry_space_group_name_H-M "P -1"
_symmetry_group_IT_number 2
_symmetry_cell_setting 'triclinic'
loop_
_space_group_symop_operation_xyz
x,y,z
-x,-y,-z
loop_
_atom_site_type_symbol
_atom_site_label
_atom_site_fract_x
_atom_site_fract_y
_atom_site_fract_z
Si Si1 0.503485 0.500814 0.273085
Si Si2 0.619232 0.003905 0.476075
Si Si3 0.074042 0.881607 0.723818
Si Si4 0.900119 0.796727 0.286764
Si Si5 0.634753 0.953877 0.199369
Si Si6 0.344586 0.525066 0.459027
Si Si7 0.895863 0.962449 0.893062
Si Si8 0.147590 0.361406 0.065944
O O1 0.383371 0.533692 0.306060
O O2 0.594098 0.399959 0.476265
O O3 0.568710 0.287572 0.311836
O O4 0.466099 0.763665 0.042657
O O5 0.651535 0.944587 0.365378
O O6 0.744629 0.817904 0.697491
O O7 0.500000 0.000000 0.500000
O O8 0.993280 0.895488 0.831327
O O9 0.114118 0.048396 0.683217
O O10 0.162857 0.585201 0.895811
O O11 0.000000 0.000000 0.500000
O O12 0.764314 0.862183 0.205839
O O13 0.000000 0.500000 0.500000
O O14 0.935785 0.880995 0.102729
O O15 0.608827 0.749293 0.311601
O O16 0.199635 0.738511 0.315800
O O17 0.835857 0.817517 0.934640
O O18 0.000000 0.500000 0.000000
#
# Coordination Sequence:
#
# PCOD9051562 Si02
#       8
#     2   2   2   2   2   2   2   2
#     4  11  24  48  68 102 141 192 242 303 371 443
#     4  12  26  47  73 108 148 197 245 311 373 447
#     4  11  26  45  71 106 146 195 250 305 375 453
#     4  12  27  44  72 108 149 189 254 310 377 448
#     4  12  27  43  74 103 146 190 252 304 374 448
#     4  11  23  45  73 100 141 186 243 302 374 439
#     4  11  23  47  71 104 144 196 243 310 375 442
#     4  10  25  46  76 101 144 197 249 301 376 438
#
# _framework density 22.521069000000001
#
# number of rings (size 3 to 8) (size 9 to 14) (size 15 to 20)
#    0.000    0.750    3.750    2.625   10.500    0.000 
#    4.500    0.000    0.000    0.000    0.000    0.000 
#    0.000    0.000    0.000    0.000    0.000    0.000 
#
# Total GULP energy -89297.721030 kJ/mol
# GULP energy per Si atom -5581.107564 kJ/mol
# Density = 2.246981 g / cm^3
# Si number density = 22.521069 Si / 1000 Ang^3
#
#
#
# Elastic Constant Matrix: (Units=GPa)
#
#
# Indices 1 2 3 4 5 6 
#
# 1 46.7201 13.4625 7.0669 8.0268 -1.4558 -1.9169
# 2 13.4625 90.1690 28.5605 -4.2119 1.5723 20.2581
# 3 7.0669 28.5605 113.5299 -11.3498 2.4298 4.6338
# 4 8.0268 -4.2119 -11.3498 58.0358 2.8041 -5.2816
# 5 -1.4558 1.5723 2.4298 2.8041 34.9235 -1.6139
# 6 -1.9169 20.2581 4.6338 -5.2816 -1.6139 28.9652
#
#
#
# Elastic Compliance Matrix: (Units=1/GPa)
#
#
# Indices 1 2 3 4 5 6 
#
# 1 0.023628 -0.004379 -0.000925 -0.003464 0.001720 0.004238
# 2 -0.004379 0.015069 -0.003049 0.000215 -0.001145 -0.010366
# 3 -0.000925 -0.003049 0.009808 0.001933 -0.000701 0.000816
# 4 -0.003464 0.000215 0.001933 0.018418 -0.001648 0.002578
# 5 0.001720 -0.001145 -0.000701 -0.001648 0.029047 0.002345
# 6 0.004238 -0.010366 0.000816 0.002578 0.002345 0.042524
#
#
# Mechanical properties :
#
#
# Convention : Reuss Voigt Hill
#
# Bulk Modulus (GPa) = 31.44814 38.73322 35.09068
# Shear Modulus (GPa) = 30.15684 37.80686 33.98185
#
# Velocity S-wave (km/s) = 3.66327 4.10168 3.88866
# Velocity P-wave (km/s) = 5.64685 6.29823 5.98141
#
# Compressibility (1/GPa) = 0.03179838
#
# Stress axis : x y z
#
# Youngs Moduli (GPa) = 42.32185 66.36296 101.95880
#
# Poissons Ratio (x) = 0.29059 0.09435
# Poissons Ratio (y) = 0.18532 0.31089
# Poissons Ratio (z) = 0.03916 0.20235
#
# Static dielectric constant tensor:
#      x y z
#    x 1.967350 0.102400 0.008850 
#    y 0.102400 1.664740 -0.081470 
#    z 0.008850 -0.081470 1.781970 
# 
# From -- ./inp_files/297478.got.cif
#   From: 2010.05.17/outbox.cif.g08.bks.cpg/sg2_149_cif.got.tgz:297478.got - 2010.06.03 11:33:40.
