data_PCOD9051352
_publ_section_title
;
Structure prediction by ZEFSAII (Michael W. Deem and Ramdas Pophale) SiO2 
 PCOD9051352
Probable space group: P -1
;
_chemical_formula_sum "Si O2"
_cell_formula_units_Z 16
_cell_length_a 8.787413
_cell_length_b 11.343515
_cell_length_c 9.253468
_cell_angle_alpha 83.373932
_cell_angle_beta 130.661396
_cell_angle_gamma 99.070922
_cell_volume 690.849248
_symmetry_space_group_name_H-M "P -1"
_symmetry_group_IT_number 2
_symmetry_cell_setting 'triclinic'
loop_
_space_group_symop_operation_xyz
x,y,z
-x,-y,-z
loop_
_atom_site_type_symbol
_atom_site_label
_atom_site_fract_x
_atom_site_fract_y
_atom_site_fract_z
Si Si1 0.667640 0.749280 0.062091
Si Si2 0.361691 0.837151 0.066268
Si Si3 0.945942 0.360345 0.963432
Si Si4 0.704587 0.873715 0.500571
Si Si5 0.040107 0.018969 0.850389
Si Si6 0.191380 0.595551 0.438814
Si Si7 0.617855 0.699440 0.713640
Si Si8 0.901129 0.668199 0.472666
O O1 0.485510 0.811841 0.006321
O O2 0.739487 0.661424 0.240961
O O3 0.852189 0.850821 0.133162
O O4 0.599444 0.697255 0.874430
O O5 0.246359 0.712249 0.070475
O O6 0.526212 0.892092 0.277071
O O7 0.197214 0.925566 0.924300
O O8 0.907313 0.350771 0.769928
O O9 0.000000 0.500000 0.000000
O O10 0.145588 0.311560 0.154528
O O11 0.598645 0.814576 0.587353
O O12 0.839003 0.779622 0.513615
O O13 0.848463 0.985593 0.633824
O O14 0.000000 0.000000 0.000000
O O15 0.431734 0.607475 0.561974
O O16 0.121636 0.455170 0.435628
O O17 0.114220 0.666044 0.520408
#
# Coordination Sequence:
#
# PCOD9051352 Si02
#       8
#     2   2   2   2   2   2   2   2
#     4  11  25  47  69 103 138 180 232 291 339 412
#     4  11  26  45  69 105 137 178 235 281 346 409
#     4  12  25  42  70 102 143 185 229 281 340 413
#     4  11  24  45  71 103 134 183 224 287 340 414
#     4  12  25  47  73  98 140 179 235 288 347 406
#     4  11  25  44  70 104 139 185 225 279 349 412
#     4  12  24  42  72 100 136 184 228 279 346 410
#     4  10  25  46  68 102 145 172 232 286 340 415
#
# _framework density 23.159901999999999
#
# number of rings (size 3 to 8) (size 9 to 14) (size 15 to 20)
#    0.000    0.750    5.000    1.125    5.250    5.000 
#    2.250    0.000    0.000    0.000    0.000    0.000 
#    0.000    0.000    0.000    0.000    0.000    0.000 
#
# Total GULP energy -89421.656541 kJ/mol
# GULP energy per Si atom -5588.853534 kJ/mol
# Density = 2.310719 g / cm^3
# Si number density = 23.159902 Si / 1000 Ang^3
#
#
#
# Elastic Constant Matrix: (Units=GPa)
#
#
# Indices 1 2 3 4 5 6 
#
# 1 79.9264 6.6387 26.0017 11.5298 4.9245 13.5459
# 2 6.6387 49.9828 2.9777 6.5609 8.5878 17.7125
# 3 26.0017 2.9777 84.5966 12.9270 6.0960 0.6228
# 4 11.5298 6.5609 12.9270 27.9682 13.6964 0.4989
# 5 4.9245 8.5878 6.0960 13.6964 31.5977 5.0165
# 6 13.5459 17.7125 0.6228 0.4989 5.0165 24.7168
#
#
#
# Elastic Compliance Matrix: (Units=1/GPa)
#
#
# Indices 1 2 3 4 5 6 
#
# 1 0.016273 0.002373 -0.004217 -0.006097 0.001989 -0.010793
# 2 0.002373 0.028319 -0.000505 -0.006026 -0.002015 -0.021051
# 3 -0.004217 -0.000505 0.013814 -0.004396 -0.000360 0.002487
# 4 -0.006097 -0.006026 -0.004396 0.051650 -0.020687 0.010927
# 5 0.001989 -0.002015 -0.000360 -0.020687 0.042156 -0.007776
# 6 -0.010793 -0.021051 0.002487 0.010927 -0.007776 0.062754
#
#
# Mechanical properties :
#
#
# Convention : Reuss Voigt Hill
#
# Bulk Modulus (GPa) = 18.61945 31.74911 25.18428
# Shear Modulus (GPa) = 21.04670 28.78237 24.91454
#
# Velocity S-wave (km/s) = 3.01783 3.52911 3.28344
# Velocity P-wave (km/s) = 4.49444 5.50859 5.02716
#
# Compressibility (1/GPa) = 0.05370728
#
# Stress axis : x y z
#
# Youngs Moduli (GPa) = 61.45295 35.31215 72.38939
#
# Poissons Ratio (x) = -0.08381 0.30528
# Poissons Ratio (y) = -0.14585 0.03658
# Poissons Ratio (z) = 0.25916 0.01784
#
# Static dielectric constant tensor:
#      x y z
#    x 1.920200 -0.111100 0.106200 
#    y -0.111100 2.585220 -1.091280 
#    z 0.106200 -1.091280 3.528970 
# 
# From -- ./inp_files/187079.got.cif
#   From: 2010.05.17/outbox.cif.g08.bks.cpg/sg2_94_cif.got.tgz:187079.got - 2010.06.03 11:33:40.
