data_PCOD9051887
_publ_section_title
;
Structure prediction by ZEFSAII (Michael W. Deem and Ramdas Pophale) SiO2 
 PCOD9051887
Probable space group: P -1
;
_chemical_formula_sum "Si O2"
_cell_formula_units_Z 14
_cell_length_a 14.082445
_cell_length_b 9.365315
_cell_length_c 5.839398
_cell_angle_alpha 56.207409
_cell_angle_beta 84.940883
_cell_angle_gamma 73.041240
_cell_volume 609.534602
_symmetry_space_group_name_H-M "P -1"
_symmetry_group_IT_number 2
_symmetry_cell_setting 'triclinic'
loop_
_space_group_symop_operation_xyz
x,y,z
-x,-y,-z
loop_
_atom_site_type_symbol
_atom_site_label
_atom_site_fract_x
_atom_site_fract_y
_atom_site_fract_z
Si Si1 0.448077 0.714886 0.186067
Si Si2 0.797405 0.303558 0.951772
Si Si3 0.631079 0.588383 0.545758
Si Si4 0.279622 0.822207 0.506278
Si Si5 0.386520 0.040973 0.569023
Si Si6 0.999378 0.596019 0.164273
Si Si7 0.892761 0.985895 0.945348
O O1 0.562185 0.683026 0.262914
O O2 0.436179 0.534348 0.233232
O O3 0.373906 0.736844 0.399243
O O4 0.401720 0.896496 0.898316
O O5 0.738346 0.440327 0.647873
O O6 0.899659 0.347023 0.924690
O O7 0.821171 0.093198 0.066268
O O8 0.731351 0.320501 0.175733
O O9 0.646643 0.752103 0.539417
O O10 0.312506 0.988104 0.456695
O O11 0.168547 0.896822 0.355376
O O12 0.500000 0.000000 0.500000
O O13 0.000000 0.500000 0.500000
O O14 0.000000 0.500000 0.000000
O O15 0.910078 0.780924 0.053788
O O16 0.000000 0.000000 0.000000
#
# Coordination Sequence:
#
# PCOD9051887 Si02
#       7
#     2   2   2   2   2   2   2
#     4  11  25  47  67 105 150 197 244 320 371 452
#     4  11  26  47  74 106 142 203 252 309 392 465
#     4  11  24  45  72 101 149 191 254 299 377 456
#     4  12  24  46  74 102 148 195 252 305 393 451
#     4  12  26  44  68 107 148 197 253 311 378 447
#     4  11  29  50  78 115 152 192 258 329 396 468
#     4  10  25  48  74 100 147 189 250 316 386 462
#
# _framework density 22.968343000000001
#
# number of rings (size 3 to 8) (size 9 to 14) (size 15 to 20)
#    0.000    0.857    4.286    0.429    8.000    5.714 
#    0.000    0.000    0.000    0.000    0.000    0.000 
#    0.000    0.000    0.000    0.000    0.000    0.000 
#
# Total GULP energy -77947.196602 kJ/mol
# GULP energy per Si atom -5567.656900 kJ/mol
# Density = 2.291607 g / cm^3
# Si number density = 22.968343 Si / 1000 Ang^3
#
#
#
# Elastic Constant Matrix: (Units=GPa)
#
#
# Indices 1 2 3 4 5 6 
#
# 1 104.7957 27.5320 35.0705 1.2539 21.3873 11.2035
# 2 27.5320 136.0116 58.4404 -26.4969 10.3016 15.4162
# 3 35.0705 58.4404 92.8104 4.2983 4.8182 -12.8999
# 4 1.2539 -26.4969 4.2983 29.3677 -5.5706 10.4844
# 5 21.3873 10.3016 4.8182 -5.5706 53.7697 -3.8205
# 6 11.2035 15.4162 -12.8999 10.4844 -3.8205 40.1003
#
#
#
# Elastic Compliance Matrix: (Units=1/GPa)
#
#
# Indices 1 2 3 4 5 6 
#
# 1 0.013919 0.004945 -0.010120 0.008511 -0.005533 -0.011798
# 2 0.004945 0.030590 -0.027598 0.042766 -0.003305 -0.033516
# 3 -0.010120 -0.027598 0.038968 -0.042808 0.004054 0.037551
# 4 0.008511 0.042766 -0.042808 0.099176 -0.001637 -0.058676
# 5 -0.005533 -0.003305 0.004054 -0.001637 0.021367 0.006585
# 6 -0.011798 -0.033516 0.037551 -0.058676 0.006585 0.069167
#
#
# Mechanical properties :
#
#
# Convention : Reuss Voigt Hill
#
# Bulk Modulus (GPa) = 55.76910 63.96706 59.86808
# Shear Modulus (GPa) = 14.50503 38.81921 26.66212
#
# Velocity S-wave (km/s) = 2.51574 4.11556 3.41078
# Velocity P-wave (km/s) = 5.72470 7.10594 6.45238
#
# Compressibility (1/GPa) = 0.01793108
#
# Stress axis : x y z
#
# Youngs Moduli (GPa) = 71.84651 32.69047 25.66228
#
# Poissons Ratio (x) = -0.16166 0.25970
# Poissons Ratio (y) = -0.35529 0.70822
# Poissons Ratio (z) = 0.72708 0.90218
#
# Static dielectric constant tensor:
#      x y z
#    x 1.860250 0.047870 0.035380 
#    y 0.047870 1.966050 0.074800 
#    z 0.035380 0.074800 1.909660 
# 
# From -- ./inp_files/47680.got.cif
#   From: 2010.05.17/outbox.cif.g08.bks.cpg/sg2_24_cif.got.tgz:47680.got - 2010.06.03 11:33:40.
