data_PCOD9051094
_publ_section_title
;
Structure prediction by ZEFSAII (Michael W. Deem and Ramdas Pophale) SiO2 
 PCOD9051094
Probable space group: P -1
;
_chemical_formula_sum "Si O2"
_cell_formula_units_Z 16
_cell_length_a 11.886337
_cell_length_b 9.745108
_cell_length_c 13.294884
_cell_angle_alpha 61.465802
_cell_angle_beta 30.196183
_cell_angle_gamma 51.669823
_cell_volume 600.920699
_symmetry_space_group_name_H-M "P -1"
_symmetry_group_IT_number 2
_symmetry_cell_setting 'triclinic'
loop_
_space_group_symop_operation_xyz
x,y,z
-x,-y,-z
loop_
_atom_site_type_symbol
_atom_site_label
_atom_site_fract_x
_atom_site_fract_y
_atom_site_fract_z
Si Si1 0.872917 0.821079 0.506330
Si Si2 0.420759 0.131730 0.858314
Si Si3 0.806692 0.680961 0.231473
Si Si4 0.227436 0.760102 0.937069
Si Si5 0.431052 0.339590 0.122512
Si Si6 0.652964 0.372892 0.674822
Si Si7 0.675618 0.075806 0.383617
Si Si8 0.887730 0.688678 0.805215
O O1 0.782022 0.669902 0.634637
O O2 0.166184 0.736005 0.334895
O O3 0.677365 0.957988 0.692215
O O4 0.821365 0.939729 0.406651
O O5 0.251683 0.206030 0.864040
O O6 0.507181 0.275658 0.774467
O O7 0.251689 0.133615 0.083182
O O8 0.529727 0.740094 0.470925
O O9 0.977689 0.472328 0.162808
O O10 0.983061 0.731289 0.148199
O O11 0.324810 0.800562 0.952741
O O12 0.458961 0.571603 0.786351
O O13 0.191228 0.885681 0.826160
O O14 0.314423 0.326367 0.109190
O O15 0.500000 0.500000 0.000000
O O16 0.872558 0.346012 0.435430
O O17 0.500000 0.000000 0.500000
#
# Coordination Sequence:
#
# PCOD9051094 Si02
#       8
#     2   2   2   2   2   2   2   2
#     4  10  25  45  69 107 141 186 231 292 356 417
#     4  11  24  46  68  99 147 179 240 295 344 410
#     4  11  24  43  70 104 140 184 237 283 351 418
#     4  12  24  44  74 107 140 188 233 286 354 421
#     4  11  22  42  70 102 143 177 234 282 347 426
#     4  11  24  42  73 101 138 187 237 285 351 414
#     4  11  24  47  69 102 148 181 227 291 352 416
#     4  11  23  41  68 107 135 187 233 289 343 416
#
# _framework density 26.625810000000001
#
# number of rings (size 3 to 8) (size 9 to 14) (size 15 to 20)
#    0.000    1.000    5.000    0.750    0.000    8.000 
#    2.250    3.750    0.000    0.000    0.000    0.000 
#    0.000    0.000    0.000    0.000    0.000    0.000 
#
# Total GULP energy -89477.936665 kJ/mol
# GULP energy per Si atom -5592.371042 kJ/mol
# Density = 2.656521 g / cm^3
# Si number density = 26.625810 Si / 1000 Ang^3
#
#
#
# Elastic Constant Matrix: (Units=GPa)
#
#
# Indices 1 2 3 4 5 6 
#
# 1 94.3243 35.8054 35.2645 13.8959 -0.1437 -26.1549
# 2 35.8054 125.7868 39.3690 16.4703 11.9170 -24.1440
# 3 35.2645 39.3690 144.7581 28.1893 18.2240 -6.4044
# 4 13.8959 16.4703 28.1893 44.2317 3.0574 4.6122
# 5 -0.1437 11.9170 18.2240 3.0574 52.2800 3.6670
# 6 -26.1549 -24.1440 -6.4044 4.6122 3.6670 51.1604
#
#
#
# Elastic Compliance Matrix: (Units=1/GPa)
#
#
# Indices 1 2 3 4 5 6 
#
# 1 0.014378 -0.001844 -0.002226 -0.003148 0.000970 0.006416
# 2 -0.001844 0.010227 -0.001389 -0.002633 -0.001985 0.004090
# 3 -0.002226 -0.001389 0.008989 -0.004325 -0.002563 -0.000095
# 4 -0.003148 -0.002633 -0.004325 0.027895 0.000887 -0.005972
# 5 0.000970 -0.001985 -0.002563 0.000887 0.020587 -0.002317
# 6 0.006416 0.004090 -0.000095 -0.005972 -0.002317 0.025449
#
#
# Mechanical properties :
#
#
# Convention : Reuss Voigt Hill
#
# Bulk Modulus (GPa) = 44.09956 65.08299 54.59128
# Shear Modulus (GPa) = 39.68144 46.49645 43.08895
#
# Velocity S-wave (km/s) = 3.86468 4.18340 4.02719
# Velocity P-wave (km/s) = 6.04260 6.91600 6.49400
#
# Compressibility (1/GPa) = 0.02267596
#
# Stress axis : x y z
#
# Youngs Moduli (GPa) = 69.54863 97.77702 111.24858
#
# Poissons Ratio (x) = 0.18033 0.24769
# Poissons Ratio (y) = 0.12827 0.15448
# Poissons Ratio (z) = 0.15485 0.13577
#
# Static dielectric constant tensor:
#      x y z
#    x 2.092180 0.010370 0.084410 
#    y 0.010370 2.147710 0.014890 
#    z 0.084410 0.014890 2.136370 
# 
# From -- ./inp_files/518823.got.cif
#   From: 2010.05.17/outbox.cif.g08.bks.cpg/sg2_260_cif.got.tgz:518823.got - 2010.06.03 11:33:40.
