data_PCOD9051448
_publ_section_title
;
Structure prediction by ZEFSAII (Michael W. Deem and Ramdas Pophale) SiO2 
 PCOD9051448
Probable space group: P -1
;
_chemical_formula_sum "Si O2"
_cell_formula_units_Z 16
_cell_length_a 6.740333
_cell_length_b 17.701764
_cell_length_c 13.002167
_cell_angle_alpha 37.656722
_cell_angle_beta 94.758951
_cell_angle_gamma 120.411074
_cell_volume 651.957541
_symmetry_space_group_name_H-M "P -1"
_symmetry_group_IT_number 2
_symmetry_cell_setting 'triclinic'
loop_
_space_group_symop_operation_xyz
x,y,z
-x,-y,-z
loop_
_atom_site_type_symbol
_atom_site_label
_atom_site_fract_x
_atom_site_fract_y
_atom_site_fract_z
Si Si1 0.234810 0.169395 0.932106
Si Si2 0.593911 0.371822 0.928553
Si Si3 0.043904 0.145398 0.283238
Si Si4 0.051970 0.422245 0.997643
Si Si5 0.781983 0.515875 0.461206
Si Si6 0.238737 0.888344 0.190130
Si Si7 0.698106 0.964305 0.253408
Si Si8 0.499014 0.598403 0.647825
O O1 0.410910 0.239596 0.969372
O O2 0.167550 0.999822 0.079658
O O3 0.943320 0.104233 0.028524
O O4 0.472021 0.339091 0.685700
O O5 0.829510 0.375431 0.955313
O O6 0.372132 0.284974 0.106955
O O7 0.679761 0.552334 0.712513
O O8 0.000503 0.259717 0.210865
O O9 0.832082 0.054355 0.273168
O O10 0.000000 0.000000 0.500000
O O11 0.000000 0.500000 0.000000
O O12 0.340321 0.544069 0.809900
O O13 0.957488 0.690817 0.351350
O O14 0.000000 0.500000 0.500000
O O15 0.714562 0.512833 0.340827
O O16 0.396830 0.895414 0.287520
O O17 0.500000 0.000000 0.000000
O O18 0.657973 0.798673 0.422726
#
# Coordination Sequence:
#
# PCOD9051448 Si02
#       8
#     2   2   2   2   2   2   2   2
#     4  11  26  47  70 105 147 194 255 288 371 442
#     4  10  25  46  71 104 146 190 241 308 369 449
#     4  10  25  47  74 105 148 188 243 317 377 436
#     4  11  26  47  75 106 140 190 249 305 383 455
#     4  12  24  46  69 107 150 201 244 306 366 438
#     4  12  26  44  73 101 150 197 249 306 367 433
#     4  11  26  47  71 109 146 197 245 311 365 449
#     4  11  26  46  72 105 150 191 247 311 374 436
#
# _framework density 24.541477
#
# number of rings (size 3 to 8) (size 9 to 14) (size 15 to 20)
#    0.000    1.000    2.500    1.500   10.500    4.000 
#    2.250    0.000    0.000    0.000    0.000    0.000 
#    0.000    0.000    0.000    0.000    0.000    0.000 
#
# Total GULP energy -89495.955243 kJ/mol
# GULP energy per Si atom -5593.497203 kJ/mol
# Density = 2.448562 g / cm^3
# Si number density = 24.541477 Si / 1000 Ang^3
#
#
#
# Elastic Constant Matrix: (Units=GPa)
#
#
# Indices 1 2 3 4 5 6 
#
# 1 112.6890 38.5094 57.5560 -2.2310 13.9640 2.3854
# 2 38.5094 94.1860 42.8178 -10.3004 -3.8624 -24.3592
# 3 57.5560 42.8178 163.1415 -17.6203 13.6068 -13.8332
# 4 -2.2310 -10.3004 -17.6203 49.4025 -0.6693 5.5788
# 5 13.9640 -3.8624 13.6068 -0.6693 39.4775 0.4319
# 6 2.3854 -24.3592 -13.8332 5.5788 0.4319 39.3488
#
#
#
# Elastic Compliance Matrix: (Units=1/GPa)
#
#
# Indices 1 2 3 4 5 6 
#
# 1 0.013035 -0.005391 -0.003423 -0.001232 -0.003923 -0.005113
# 2 -0.005391 0.016449 -0.001772 0.001522 0.004048 0.009627
# 3 -0.003423 -0.001772 0.008343 0.002230 -0.001820 0.001747
# 4 -0.001232 0.001522 0.002230 0.021442 0.000193 -0.001241
# 5 -0.003923 0.004048 -0.001820 0.000193 0.027726 0.001772
# 6 -0.005113 0.009627 0.001747 -0.001241 0.001772 0.032454
#
#
# Mechanical properties :
#
#
# Convention : Reuss Voigt Hill
#
# Bulk Modulus (GPa) = 60.04512 71.97588 66.01050
# Shear Modulus (GPa) = 34.20594 41.05463 37.63029
#
# Velocity S-wave (km/s) = 3.73742 4.09451 3.92003
# Velocity P-wave (km/s) = 6.56843 7.19342 6.88802
#
# Compressibility (1/GPa) = 0.01665414
#
# Stress axis : x y z
#
# Youngs Moduli (GPa) = 76.71818 60.79214 119.85875
#
# Poissons Ratio (x) = 0.32776 0.41028
# Poissons Ratio (y) = 0.41362 0.21241
# Poissons Ratio (z) = 0.26261 0.10773
#
# Static dielectric constant tensor:
#      x y z
#    x 1.994500 0.021210 0.043120 
#    y 0.021210 2.006860 0.008830 
#    z 0.043120 0.008830 2.032410 
# 
# From -- ./inp_files/48419.got.cif
#   From: 2010.05.17/outbox.cif.g08.bks.cpg/sg2_25_cif.got.tgz:48419.got - 2010.06.03 11:33:40.
