data_PCOD9051351
_publ_section_title
;
Structure prediction by ZEFSAII (Michael W. Deem and Ramdas Pophale) SiO2 
 PCOD9051351
Probable space group: P -1
;
_chemical_formula_sum "Si O2"
_cell_formula_units_Z 16
_cell_length_a 8.456633
_cell_length_b 12.971342
_cell_length_c 15.375136
_cell_angle_alpha 133.124191
_cell_angle_beta 105.269091
_cell_angle_gamma 111.847198
_cell_volume 736.880155
_symmetry_space_group_name_H-M "P -1"
_symmetry_group_IT_number 2
_symmetry_cell_setting 'triclinic'
loop_
_space_group_symop_operation_xyz
x,y,z
-x,-y,-z
loop_
_atom_site_type_symbol
_atom_site_label
_atom_site_fract_x
_atom_site_fract_y
_atom_site_fract_z
Si Si1 0.871630 0.696549 0.845413
Si Si2 0.787665 0.800049 0.285194
Si Si3 0.675338 0.873586 0.965469
Si Si4 0.193580 0.793018 0.109150
Si Si5 0.955641 0.070838 0.291652
Si Si6 0.794705 0.468206 0.408869
Si Si7 0.524182 0.734901 0.582134
Si Si8 0.760879 0.493271 0.019229
O O1 0.719770 0.736085 0.875756
O O2 0.671361 0.458610 0.629706
O O3 0.008357 0.716689 0.959173
O O4 0.101865 0.898304 0.928254
O O5 0.774255 0.622660 0.169046
O O6 0.484769 0.644361 0.161067
O O7 0.000000 0.000000 0.500000
O O8 0.869102 0.918172 0.271486
O O9 0.387217 0.719894 0.800769
O O10 0.731190 0.940984 0.112518
O O11 0.026230 0.684790 0.111611
O O12 0.427339 0.065099 0.303446
O O13 0.274987 0.686058 0.050684
O O14 0.060416 0.293542 0.464748
O O15 0.194009 0.150137 0.323089
O O16 0.594373 0.376520 0.404625
O O17 0.000000 0.500000 0.500000
#
# Coordination Sequence:
#
# PCOD9051351 Si02
#       8
#     2   2   2   2   2   2   2   2
#     4  11  21  36  71 101 129 178 223 279 331 400
#     4  11  26  47  71  98 139 183 230 283 350 405
#     4  11  21  40  67  97 135 177 226 272 332 409
#     4  11  23  43  72 100 138 175 231 295 336 394
#     4  12  24  44  71  98 132 186 228 280 335 414
#     4  12  27  42  64 106 147 175 220 277 343 415
#     4  12  22  42  69 100 134 177 229 270 335 418
#     4  10  25  46  68 102 133 178 238 287 342 404
#
# _framework density 21.713165
#
# number of rings (size 3 to 8) (size 9 to 14) (size 15 to 20)
#    0.000    0.750    6.250    1.125    3.500    3.500 
#    2.250    2.500    0.000    0.000    0.000    0.000 
#    0.000    0.000    0.000    0.000    0.000    0.000 
#
# Total GULP energy -89597.511997 kJ/mol
# GULP energy per Si atom -5599.844500 kJ/mol
# Density = 2.166374 g / cm^3
# Si number density = 21.713165 Si / 1000 Ang^3
#
#
#
# Elastic Constant Matrix: (Units=GPa)
#
#
# Indices 1 2 3 4 5 6 
#
# 1 54.6473 15.1495 14.7174 7.5820 8.4694 -19.3893
# 2 15.1495 58.0173 23.7112 6.5785 -6.5041 -16.6109
# 3 14.7174 23.7112 167.2540 -3.0573 2.0007 -21.3303
# 4 7.5820 6.5785 -3.0573 41.3171 -13.3058 -6.0453
# 5 8.4694 -6.5041 2.0007 -13.3058 19.1684 6.7073
# 6 -19.3893 -16.6109 -21.3303 -6.0453 6.7073 36.7391
#
#
#
# Elastic Compliance Matrix: (Units=1/GPa)
#
#
# Indices 1 2 3 4 5 6 
#
# 1 0.033223 -0.005561 0.000445 -0.012734 -0.032117 0.019046
# 2 -0.005561 0.021665 -0.002155 0.001004 0.009304 0.004076
# 3 0.000445 -0.002155 0.006762 0.000466 -0.002620 0.003742
# 4 -0.012734 0.001004 0.000466 0.036210 0.033188 -0.006097
# 5 -0.032117 0.009304 -0.002620 0.033188 0.102453 -0.027508
# 6 0.019046 0.004076 0.003742 -0.006097 -0.027508 0.045305
#
#
# Mechanical properties :
#
#
# Convention : Reuss Voigt Hill
#
# Bulk Modulus (GPa) = 21.22722 43.00829 32.11775
# Shear Modulus (GPa) = 18.12499 34.53429 26.32964
#
# Velocity S-wave (km/s) = 2.89233 3.99240 3.48604
# Velocity P-wave (km/s) = 4.57728 6.41115 5.57021
#
# Compressibility (1/GPa) = 0.04710933
#
# Stress axis : x y z
#
# Youngs Moduli (GPa) = 30.09986 46.15681 147.87842
#
# Poissons Ratio (x) = 0.25666 -0.06584
# Poissons Ratio (y) = 0.16737 0.31871
# Poissons Ratio (z) = -0.01340 0.09948
#
# Static dielectric constant tensor:
#      x y z
#    x 1.825620 0.002960 0.006810 
#    y 0.002960 1.755020 0.008420 
#    z 0.006810 0.008420 1.781300 
# 
# From -- ./inp_files/273656.got.cif
#   From: 2010.05.17/outbox.cif.g08.bks.cpg/sg2_137_cif.got.tgz:273656.got - 2010.06.03 11:33:40.
