data_PCOD9051329
_publ_section_title
;
Structure prediction by ZEFSAII (Michael W. Deem and Ramdas Pophale) SiO2 
 PCOD9051329
Probable space group: P -1
;
_chemical_formula_sum "Si O2"
_cell_formula_units_Z 14
_cell_length_a 17.356501
_cell_length_b 9.622349
_cell_length_c 8.558241
_cell_angle_alpha 32.228189
_cell_angle_beta 59.163511
_cell_angle_gamma 66.865897
_cell_volume 651.892850
_symmetry_space_group_name_H-M "P -1"
_symmetry_group_IT_number 2
_symmetry_cell_setting 'triclinic'
loop_
_space_group_symop_operation_xyz
x,y,z
-x,-y,-z
loop_
_atom_site_type_symbol
_atom_site_label
_atom_site_fract_x
_atom_site_fract_y
_atom_site_fract_z
Si Si1 0.256280 0.737871 0.436675
Si Si2 0.883092 0.261337 0.137103
Si Si3 0.986301 0.806427 0.548077
Si Si4 0.451634 0.744641 0.371718
Si Si5 0.901514 0.084528 0.965372
Si Si6 0.528235 0.745675 0.628031
Si Si7 0.737794 0.782228 0.266367
O O1 0.189885 0.724359 0.665963
O O2 0.351965 0.720373 0.434524
O O3 0.240841 0.491655 0.570949
O O4 0.258079 0.002283 0.081951
O O5 0.907940 0.960561 0.404625
O O6 0.872159 0.286497 0.936286
O O7 0.955782 0.499995 0.884634
O O8 0.070887 0.820298 0.329644
O O9 0.000000 0.000000 0.500000
O O10 0.500000 0.500000 0.500000
O O11 0.466917 0.741328 0.542201
O O12 0.500000 0.000000 0.000000
O O13 0.815555 0.876937 0.220545
O O14 0.000000 0.000000 0.000000
O O15 0.635026 0.759725 0.460666
O O16 0.500000 0.000000 0.500000
O O17 0.500000 0.500000 0.000000
#
# Coordination Sequence:
#
# PCOD9051329 Si02
#       7
#     2   2   2   2   2   2   2
#     4  12  24  45  70 103 135 184 239 284 345 429
#     4  11  24  40  64  98 129 172 225 280 343 401
#     4  11  22  42  67  93 130 174 225 279 339 406
#     4  12  23  46  72 101 143 185 233 290 353 426
#     4  10  25  46  67 100 142 182 232 294 351 410
#     4  12  26  46  71 108 144 182 233 294 361 422
#     4  12  26  47  71 100 142 187 235 288 352 423
#
# _framework density 21.475923999999999
#
# number of rings (size 3 to 8) (size 9 to 14) (size 15 to 20)
#    0.000    0.571    2.857    5.143    2.000    5.714 
#    5.143    0.000    0.000    0.000    0.000    0.000 
#    0.000    0.000    0.000    0.000    0.000    0.000 
#
# Total GULP energy -78111.239014 kJ/mol
# GULP energy per Si atom -5579.374215 kJ/mol
# Density = 2.142704 g / cm^3
# Si number density = 21.475924 Si / 1000 Ang^3
#
#
#
# Elastic Constant Matrix: (Units=GPa)
#
#
# Indices 1 2 3 4 5 6 
#
# 1 103.7156 20.0714 31.0112 5.5731 -16.2674 12.5424
# 2 20.0714 172.0345 55.0519 6.8829 -13.0786 14.7447
# 3 31.0112 55.0519 137.4092 3.0008 -1.0670 -1.6283
# 4 5.5731 6.8829 3.0008 43.0865 -6.2388 -4.7435
# 5 -16.2674 -13.0786 -1.0670 -6.2388 38.4707 1.4390
# 6 12.5424 14.7447 -1.6283 -4.7435 1.4390 50.9916
#
#
#
# Elastic Compliance Matrix: (Units=1/GPa)
#
#
# Indices 1 2 3 4 5 6 
#
# 1 0.011611 0.000187 -0.002674 -0.000997 0.004858 -0.003225
# 2 0.000187 0.007132 -0.002890 -0.000878 0.002369 -0.002349
# 3 -0.002674 -0.002890 0.009044 0.000104 -0.001915 0.001846
# 4 -0.000997 -0.000878 0.000104 0.024215 0.003110 0.002667
# 5 0.004858 0.002369 -0.001915 0.003110 0.029397 -0.002481
# 6 -0.003225 -0.002349 0.001846 0.002667 -0.002481 0.021461
#
#
# Mechanical properties :
#
#
# Convention : Reuss Voigt Hill
#
# Bulk Modulus (GPa) = 58.71206 69.49204 64.10205
# Shear Modulus (GPa) = 41.91420 46.97808 44.44614
#
# Velocity S-wave (km/s) = 4.42258 4.68212 4.55420
# Velocity P-wave (km/s) = 7.31279 7.85226 7.58732
#
# Compressibility (1/GPa) = 0.01703228
#
# Stress axis : x y z
#
# Youngs Moduli (GPa) = 86.12801 140.20616 110.57618
#
# Poissons Ratio (x) = -0.02617 0.29566
# Poissons Ratio (y) = -0.01607 0.31956
# Poissons Ratio (z) = 0.23029 0.40518
#
# Static dielectric constant tensor:
#      x y z
#    x 1.936330 -0.079850 0.048560 
#    y -0.079850 1.802680 0.090090 
#    z 0.048560 0.090090 1.800240 
# 
# From -- ./inp_files/328259.got.cif
#   From: 2010.05.17/outbox.cif.g08.bks.cpg/sg2_165_cif.got.tgz:328259.got - 2010.06.03 11:33:40.
