data_PCOD9052905
_publ_section_title
;
Structure prediction by ZEFSAII (Michael W. Deem and Ramdas Pophale) SiO2 
 PCOD9052905
Probable space group: P -1
;
_chemical_formula_sum "Si O2"
_cell_formula_units_Z 13
_cell_length_a 9.034194
_cell_length_b 8.892917
_cell_length_c 7.740542
_cell_angle_alpha 57.278448
_cell_angle_beta 90.493528
_cell_angle_gamma 98.636176
_cell_volume 515.286629
_symmetry_space_group_name_H-M "P -1"
_symmetry_group_IT_number 2
_symmetry_cell_setting 'triclinic'
loop_
_space_group_symop_operation_xyz
x,y,z
-x,-y,-z
loop_
_atom_site_type_symbol
_atom_site_label
_atom_site_fract_x
_atom_site_fract_y
_atom_site_fract_z
Si Si1 0.500000 0.500000 0.500000
Si Si2 0.228674 0.009182 0.133912
Si Si3 0.074966 0.623219 0.770511
Si Si4 0.888250 0.051621 0.179560
Si Si5 0.419500 0.291401 0.140370
Si Si6 0.785011 0.664179 0.573248
Si Si7 0.636364 0.239859 0.441013
O O1 0.667580 0.507741 0.582619
O O2 0.515473 0.316311 0.508022
O O3 0.282712 0.894105 0.362133
O O4 0.355042 0.192448 0.025643
O O5 0.202275 0.902723 0.018953
O O6 0.064857 0.060212 0.135921
O O7 0.118296 0.821556 0.735022
O O8 0.232957 0.592244 0.717642
O O9 0.948519 0.613039 0.632617
O O10 0.000000 0.500000 0.000000
O O11 0.816238 0.846949 0.349776
O O12 0.277846 0.291147 0.266413
O O13 0.541199 0.185644 0.298412
O O14 0.500000 0.500000 0.000000
#
# Coordination Sequence:
#
# PCOD9052905 Si02
#       7
#     1   2   2   2   2   2   2
#     4  10  28  44  72 106 140 190 238 306 358 420
#     4  11  24  45  74 107 146 193 242 299 365 433
#     4  12  25  44  76 107 139 194 245 300 361 438
#     4  11  25  44  73 109 145 185 247 304 359 431
#     4  11  24  45  72 104 148 193 234 298 368 436
#     4  11  23  47  72  97 149 184 239 295 369 422
#     4  11  25  47  73 103 148 193 244 291 372 430
#
# _framework density 25.228674999999999
#
# number of rings (size 3 to 8) (size 9 to 14) (size 15 to 20)
#    0.000    0.923    3.077    2.769    6.462    3.077 
#    0.000    3.846    0.000    0.000    0.000    0.000 
#    0.000    0.000    0.000    0.000    0.000    0.000 
#
# Total GULP energy -72509.899446 kJ/mol
# GULP energy per Si atom -5577.684573 kJ/mol
# Density = 2.517125 g / cm^3
# Si number density = 25.228675 Si / 1000 Ang^3
#
#
#
# Elastic Constant Matrix: (Units=GPa)
#
#
# Indices 1 2 3 4 5 6 
#
# 1 108.0326 24.4861 21.9698 10.7700 17.5033 39.9405
# 2 24.4861 97.6130 12.2491 22.4612 19.8716 42.8269
# 3 21.9698 12.2491 89.0587 -3.7926 16.7516 20.7427
# 4 10.7700 22.4612 -3.7926 31.2520 10.0136 6.8673
# 5 17.5033 19.8716 16.7516 10.0136 35.8026 7.2528
# 6 39.9405 42.8269 20.7427 6.8673 7.2528 49.9020
#
#
#
# Elastic Compliance Matrix: (Units=1/GPa)
#
#
# Indices 1 2 3 4 5 6 
#
# 1 0.014896 0.004659 0.000079 -0.003334 -0.006011 -0.014622
# 2 0.004659 0.021910 0.001801 -0.009921 -0.008312 -0.020709
# 3 0.000079 0.001801 0.014184 0.004333 -0.007466 -0.007016
# 4 -0.003334 -0.009921 0.004333 0.042225 -0.007650 0.004682
# 5 -0.006011 -0.008312 -0.007466 -0.007650 0.039002 0.010432
# 6 -0.014622 -0.020709 -0.007016 0.004682 0.010432 0.050271
#
#
# Mechanical properties :
#
#
# Convention : Reuss Voigt Hill
#
# Bulk Modulus (GPa) = 15.60802 45.79047 30.69924
# Shear Modulus (GPa) = 26.20995 39.12461 32.66728
#
# Velocity S-wave (km/s) = 3.22669 3.94229 3.60230
# Velocity P-wave (km/s) = 4.48130 6.23793 5.43111
#
# Compressibility (1/GPa) = 0.06406964
#
# Stress axis : x y z
#
# Youngs Moduli (GPa) = 67.12987 45.64069 70.50051
#
# Poissons Ratio (x) = -0.21266 -0.00554
# Poissons Ratio (y) = -0.31279 -0.12699
# Poissons Ratio (z) = -0.00528 -0.08221
#
# Static dielectric constant tensor:
#      x y z
#    x 1.923090 0.104920 -0.025630 
#    y 0.104920 1.986580 -0.023220 
#    z -0.025630 -0.023220 2.117660 
# 
# From -- ./inp_files/156494.got.cif
#   From: 2010.05.17/outbox.cif.g08.bks.cpg/sg2_79_cif.got.tgz:156494.got - 2010.06.03 11:33:40.
