data_PCOD9052241
_publ_section_title
;
Structure prediction by ZEFSAII (Michael W. Deem and Ramdas Pophale) SiO2 
 PCOD9052241
Probable space group: P -1
;
_chemical_formula_sum "Si O2"
_cell_formula_units_Z 15
_cell_length_a 5.061067
_cell_length_b 6.401265
_cell_length_c 19.268699
_cell_angle_alpha 76.345179
_cell_angle_beta 112.248518
_cell_angle_gamma 105.723253
_cell_volume 549.881414
_symmetry_space_group_name_H-M "P -1"
_symmetry_group_IT_number 2
_symmetry_cell_setting 'triclinic'
loop_
_space_group_symop_operation_xyz
x,y,z
-x,-y,-z
loop_
_atom_site_type_symbol
_atom_site_label
_atom_site_fract_x
_atom_site_fract_y
_atom_site_fract_z
Si Si1 0.653137 0.310293 0.058332
Si Si2 0.178083 0.016623 0.617675
Si Si3 0.877751 0.919791 0.897946
Si Si4 0.504787 0.294234 0.251377
Si Si5 0.500000 0.000000 0.500000
Si Si6 0.186346 0.647873 0.451567
Si Si7 0.344291 0.568082 0.326999
Si Si8 0.122038 0.370069 0.827077
O O1 0.396185 0.114127 0.074833
O O2 0.834477 0.422831 0.133888
O O3 0.898265 0.232036 0.043753
O O4 0.500000 0.500000 0.000000
O O5 0.248217 0.846655 0.695618
O O6 0.297407 0.950960 0.561928
O O7 0.363768 0.256508 0.639849
O O8 0.858339 0.087912 0.575730
O O9 0.723687 0.837092 0.815599
O O10 0.084911 0.154252 0.886583
O O11 0.385384 0.350690 0.309281
O O12 0.622309 0.534366 0.209313
O O13 0.497753 0.270558 0.490762
O O14 0.161172 0.556630 0.380054
O O15 0.000000 0.500000 0.500000
O O16 0.162510 0.673235 0.244475
#
# Coordination Sequence:
#
# PCOD9052241 Si02
#       8
#     2   2   2   2   1   2   2   2
#     4  11  26  47  75 113 157 201 243 297 365 439
#     4  11  25  45  69 101 136 183 242 305 376 446
#     4  11  25  46  76 110 152 192 252 301 363 441
#     4  11  25  44  71 103 143 189 245 312 372 441
#     4  10  26  44  66  94 132 182 234 288 374 446
#     4  11  27  47  68  98 140 184 241 307 375 452
#     4  11  24  44  70 101 136 186 244 302 373 435
#     4  11  25  43  74 105 145 191 245 303 362 438
#
# _framework density 27.278607999999998
#
# number of rings (size 3 to 8) (size 9 to 14) (size 15 to 20)
#    0.000    1.067    2.667    1.600    7.467    6.400 
#    0.000    0.000    0.000    0.000    0.000    0.000 
#    0.000    0.000    0.000    0.000    0.000    0.000 
#
# Total GULP energy -83766.217294 kJ/mol
# GULP energy per Si atom -5584.414486 kJ/mol
# Density = 2.721652 g / cm^3
# Si number density = 27.278608 Si / 1000 Ang^3
#
#
#
# Elastic Constant Matrix: (Units=GPa)
#
#
# Indices 1 2 3 4 5 6 
#
# 1 113.1504 34.7827 21.4300 -2.7746 2.8535 15.4595
# 2 34.7827 102.5859 35.3973 2.0629 -5.9913 32.4814
# 3 21.4300 35.3973 100.3717 9.5369 8.7014 -1.4009
# 4 -2.7746 2.0629 9.5369 58.3585 -1.6840 -8.2256
# 5 2.8535 -5.9913 8.7014 -1.6840 33.9914 -7.0606
# 6 15.4595 32.4814 -1.4009 -8.2256 -7.0606 39.4311
#
#
#
# Elastic Compliance Matrix: (Units=1/GPa)
#
#
# Indices 1 2 3 4 5 6 
#
# 1 0.010164 -0.002392 -0.001277 0.000424 -0.001388 -0.002220
# 2 -0.002392 0.016766 -0.005589 -0.001585 0.001791 -0.013082
# 3 -0.001277 -0.005589 0.012681 -0.001367 -0.003217 0.004694
# 4 0.000424 -0.001585 -0.001367 0.018235 0.002031 0.005259
# 5 -0.001388 0.001791 -0.003217 0.002031 0.031830 0.005078
# 6 -0.002220 -0.013082 0.004694 0.005259 0.005078 0.039180
#
#
# Mechanical properties :
#
#
# Convention : Reuss Voigt Hill
#
# Bulk Modulus (GPa) = 47.40788 55.48089 51.44439
# Shear Modulus (GPa) = 32.38247 41.32275 36.85261
#
# Velocity S-wave (km/s) = 3.44917 3.89632 3.67954
# Velocity P-wave (km/s) = 5.76882 6.37373 6.07880
#
# Compressibility (1/GPa) = 0.02109354
#
# Stress axis : x y z
#
# Youngs Moduli (GPa) = 98.38912 59.64425 78.85783
#
# Poissons Ratio (x) = 0.14267 0.10073
# Poissons Ratio (y) = 0.23535 0.44076
# Poissons Ratio (z) = 0.12568 0.33337
#
# Static dielectric constant tensor:
#      x y z
#    x 2.302180 -0.011640 0.087200 
#    y -0.011640 2.216020 -0.072600 
#    z 0.087200 -0.072600 2.148950 
# 
# From -- ./inp_files/9633.got.cif
#   From: 2010.05.17/outbox.cif.g08.bks.cpg/sg2_5_cif.got.tgz:9633.got - 2010.06.03 11:33:40.
