data_PCOD9052979
_publ_section_title
;
Structure prediction by ZEFSAII (Michael W. Deem and Ramdas Pophale) SiO2 
 PCOD9052979
Probable space group: P -1
;
_chemical_formula_sum "Si O2"
_cell_formula_units_Z 14
_cell_length_a 9.621531
_cell_length_b 12.428381
_cell_length_c 14.594228
_cell_angle_alpha 29.815829
_cell_angle_beta 136.212778
_cell_angle_gamma 126.951139
_cell_volume 598.836159
_symmetry_space_group_name_H-M "P -1"
_symmetry_group_IT_number 2
_symmetry_cell_setting 'triclinic'
loop_
_space_group_symop_operation_xyz
x,y,z
-x,-y,-z
loop_
_atom_site_type_symbol
_atom_site_label
_atom_site_fract_x
_atom_site_fract_y
_atom_site_fract_z
Si Si1 0.494145 0.694602 0.985007
Si Si2 0.314586 0.138658 0.862084
Si Si3 0.287142 0.392949 0.480333
Si Si4 0.412414 0.246150 0.278655
Si Si5 0.962580 0.210940 0.015580
Si Si6 0.339155 0.112694 0.531393
Si Si7 0.072676 0.738311 0.840423
O O1 0.253719 0.713066 0.875762
O O2 0.496362 0.901884 0.765982
O O3 0.603052 0.747663 0.092090
O O4 0.535777 0.446334 0.156194
O O5 0.242339 0.303689 0.625013
O O6 0.131853 0.999951 0.914721
O O7 0.500000 0.000000 0.000000
O O8 0.500000 0.500000 0.500000
O O9 0.312393 0.209899 0.548502
O O10 0.118898 0.575674 0.233885
O O11 0.404806 0.280728 0.361200
O O12 0.194200 0.234591 0.135330
O O13 0.500000 0.000000 0.500000
O O14 0.854518 0.199530 0.071632
O O15 0.110846 0.094142 0.400687
O O16 0.000000 0.500000 0.000000
#
# Coordination Sequence:
#
# PCOD9052979 Si02
#       7
#     2   2   2   2   2   2   2
#     4  12  21  38  59  89 123 154 193 245 301 362
#     4  12  22  33  58  98 130 149 180 230 308 381
#     4  12  19  32  60  93 130 158 176 226 314 383
#     4  11  26  45  62  79 113 166 220 254 281 331
#     4  11  21  37  56  89 125 153 192 244 295 358
#     4  11  21  33  59  89 117 152 196 247 304 347
#     4  11  17  32  55  89 123 148 184 238 303 368
#
# _framework density 23.378682999999999
#
# number of rings (size 3 to 8) (size 9 to 14) (size 15 to 20)
#    0.000    0.571    8.571    1.286    0.000    4.000 
#    0.000    0.714    0.000    6.000    0.000    0.000 
#    0.000    0.000    0.000    0.000    0.000    0.000 
#
# Total GULP energy -78101.516594 kJ/mol
# GULP energy per Si atom -5578.679757 kJ/mol
# Density = 2.332547 g / cm^3
# Si number density = 23.378683 Si / 1000 Ang^3
#
#
#
# Elastic Constant Matrix: (Units=GPa)
#
#
# Indices 1 2 3 4 5 6 
#
# 1 25.0214 13.7496 17.6794 4.6759 -14.6518 -1.7614
# 2 13.7496 142.4966 73.7659 -2.0601 -1.3032 15.3599
# 3 17.6794 73.7659 203.9856 10.1458 -12.6469 -4.5578
# 4 4.6759 -2.0601 10.1458 34.4382 -1.8636 -3.6383
# 5 -14.6518 -1.3032 -12.6469 -1.8636 31.7119 2.8118
# 6 -1.7614 15.3599 -4.5578 -3.6383 2.8118 22.3432
#
#
#
# Elastic Compliance Matrix: (Units=1/GPa)
#
#
# Indices 1 2 3 4 5 6 
#
# 1 0.060999 -0.005526 -0.001225 -0.006387 0.026742 0.003952
# 2 -0.005526 0.010259 -0.003650 0.001480 -0.002823 -0.007637
# 3 -0.001225 -0.003650 0.006574 -0.001557 0.001521 0.003309
# 4 -0.006387 0.001480 -0.001557 0.030704 -0.002010 0.003414
# 5 0.026742 -0.002823 0.001521 -0.002010 0.044400 -0.001556
# 6 0.003952 -0.007637 0.003309 0.003414 -0.001556 0.051745
#
#
# Mechanical properties :
#
#
# Convention : Reuss Voigt Hill
#
# Bulk Modulus (GPa) = 17.53436 64.65483 41.09460
# Shear Modulus (GPa) = 20.45056 35.45256 27.95156
#
# Velocity S-wave (km/s) = 2.96083 3.89838 3.46150
# Velocity P-wave (km/s) = 4.38236 6.92667 5.79585
#
# Compressibility (1/GPa) = 0.05703088
#
# Stress axis : x y z
#
# Youngs Moduli (GPa) = 16.39383 97.47246 152.11022
#
# Poissons Ratio (x) = 0.53860 0.18627
# Poissons Ratio (y) = 0.09059 0.55526
# Poissons Ratio (z) = 0.02008 0.35581
#
# Static dielectric constant tensor:
#      x y z
#    x 1.993830 -0.010040 -0.021370 
#    y -0.010040 2.042190 -0.066010 
#    z -0.021370 -0.066010 1.947050 
# 
# From -- ./inp_files/455786.got.cif
#   From: 2010.05.17/outbox.cif.g08.bks.cpg/sg2_228_cif.got.tgz:455786.got - 2010.06.03 11:33:40.
