data_PCOD9052945
_publ_section_title
;
Structure prediction by ZEFSAII (Michael W. Deem and Ramdas Pophale) SiO2 
 PCOD9052945
Probable space group: P -1
;
_chemical_formula_sum "Si O2"
_cell_formula_units_Z 14
_cell_length_a 14.617020
_cell_length_b 9.799715
_cell_length_c 5.778843
_cell_angle_alpha 113.563410
_cell_angle_beta 117.695504
_cell_angle_gamma 55.124437
_cell_volume 590.978764
_symmetry_space_group_name_H-M "P -1"
_symmetry_group_IT_number 2
_symmetry_cell_setting 'triclinic'
loop_
_space_group_symop_operation_xyz
x,y,z
-x,-y,-z
loop_
_atom_site_type_symbol
_atom_site_label
_atom_site_fract_x
_atom_site_fract_y
_atom_site_fract_z
Si Si1 0.634358 0.217482 0.622584
Si Si2 0.123321 0.837630 0.974725
Si Si3 0.001616 0.314947 0.507434
Si Si4 0.152282 0.347566 0.325523
Si Si5 0.562212 0.212535 0.050426
Si Si6 0.390181 0.112888 0.606450
Si Si7 0.175067 0.046830 0.833068
O O1 0.568106 0.298928 0.358324
O O2 0.658294 0.021053 0.501754
O O3 0.761158 0.211754 0.769937
O O4 0.570896 0.280056 0.845051
O O5 0.090471 0.691141 0.785474
O O6 0.159670 0.895986 0.821364
O O7 0.000000 0.000000 0.000000
O O8 0.924550 0.457532 0.700142
O O9 0.097993 0.349025 0.515047
O O10 0.082592 0.129338 0.577146
O O11 0.289853 0.275459 0.471672
O O12 0.138940 0.208574 0.065823
O O13 0.685038 0.036188 0.083696
O O14 0.450287 0.178959 0.910422
O O15 0.500000 0.000000 0.500000
#
# Coordination Sequence:
#
# PCOD9052945 Si02
#       7
#     2   2   2   2   2   2   2
#     4  10  20  33  54  87 114 148 195 251 290 346
#     4  11  19  36  57  82 117 155 203 240 295 356
#     4  11  24  35  58  85 124 157 189 250 304 361
#     4  11  21  40  54  88 122 152 197 246 305 357
#     4  10  20  33  60  88 116 144 203 256 289 339
#     4  10  17  35  58  84 114 153 202 246 293 347
#     4  11  20  36  60  85 113 156 201 245 291 363
#
# _framework density 23.689516999999999
#
# number of rings (size 3 to 8) (size 9 to 14) (size 15 to 20)
#    0.000    1.429    5.714    3.000    0.000    1.143 
#    0.000    0.000    0.000    8.571    0.000    0.000 
#    0.000    2.286    0.000    0.000    0.000    0.000 
#
# Total GULP energy -77961.278236 kJ/mol
# GULP energy per Si atom -5568.662731 kJ/mol
# Density = 2.363560 g / cm^3
# Si number density = 23.689517 Si / 1000 Ang^3
#
#
#
# Elastic Constant Matrix: (Units=GPa)
#
#
# Indices 1 2 3 4 5 6 
#
# 1 46.4153 13.3688 46.3989 -6.1107 28.9361 -11.1049
# 2 13.3688 44.9159 15.2497 5.3958 2.2466 -16.2796
# 3 46.3989 15.2497 136.9125 -11.7134 12.7603 -3.6596
# 4 -6.1107 5.3958 -11.7134 32.7344 -2.7280 2.0884
# 5 28.9361 2.2466 12.7603 -2.7280 49.8555 -4.2648
# 6 -11.1049 -16.2796 -3.6596 2.0884 -4.2648 19.4202
#
#
#
# Elastic Compliance Matrix: (Units=1/GPa)
#
#
# Indices 1 2 3 4 5 6 
#
# 1 0.067137 -0.003341 -0.018562 0.002203 -0.031817 0.024868
# 2 -0.003341 0.035904 -0.003170 -0.009283 0.003129 0.029275
# 3 -0.018562 -0.003170 0.013309 0.003003 0.006854 -0.009581
# 4 0.002203 -0.009283 0.003003 0.034138 -0.000596 -0.009758
# 5 -0.031817 0.003129 0.006854 -0.000596 0.036058 -0.006297
# 6 0.024868 0.029275 -0.009581 -0.009758 -0.006297 0.088115
#
#
# Mechanical properties :
#
#
# Convention : Reuss Voigt Hill
#
# Bulk Modulus (GPa) = 15.10456 42.03096 28.56776
# Shear Modulus (GPa) = 14.41442 30.61711 22.51576
#
# Velocity S-wave (km/s) = 2.46940 3.59894 3.08629
# Velocity P-wave (km/s) = 3.81057 5.92037 4.97852
#
# Compressibility (1/GPa) = 0.06620515
#
# Stress axis : x y z
#
# Youngs Moduli (GPa) = 14.89490 27.85206 75.13441
#
# Poissons Ratio (x) = 0.09305 1.39462
# Poissons Ratio (y) = 0.04976 0.23820
# Poissons Ratio (z) = 0.27647 0.08830
#
# Static dielectric constant tensor:
#      x y z
#    x 2.003420 0.073170 -0.027130 
#    y 0.073170 1.957790 0.010920 
#    z -0.027130 0.010920 2.070230 
# 
# From -- ./inp_files/94164.got.cif
#   From: 2010.05.17/outbox.cif.g08.bks.cpg/sg2_48_cif.got.tgz:94164.got - 2010.06.03 11:33:40.
