data_PCOD9052162
_publ_section_title
;
Structure prediction by ZEFSAII (Michael W. Deem and Ramdas Pophale) SiO2 
 PCOD9052162
Probable space group: P -1
;
_chemical_formula_sum "Si O2"
_cell_formula_units_Z 15
_cell_length_a 8.283791
_cell_length_b 5.206140
_cell_length_c 16.400443
_cell_angle_alpha 91.713571
_cell_angle_beta 91.492419
_cell_angle_gamma 59.152468
_cell_volume 606.918496
_symmetry_space_group_name_H-M "P -1"
_symmetry_group_IT_number 2
_symmetry_cell_setting 'triclinic'
loop_
_space_group_symop_operation_xyz
x,y,z
-x,-y,-z
loop_
_atom_site_type_symbol
_atom_site_label
_atom_site_fract_x
_atom_site_fract_y
_atom_site_fract_z
Si Si1 0.523124 0.236745 0.555427
Si Si2 0.875076 0.206011 0.636341
Si Si3 0.421988 0.602157 0.879388
Si Si4 0.564390 0.726870 0.732601
Si Si5 0.500000 0.000000 0.000000
Si Si6 0.688191 0.967933 0.874485
Si Si7 0.788366 0.767919 0.345290
Si Si8 0.051566 0.749071 0.782816
O O1 0.500000 0.500000 0.500000
O O2 0.732927 0.112859 0.593555
O O3 0.347133 0.339018 0.616511
O O4 0.500000 0.000000 0.500000
O O5 0.724846 0.536736 0.669228
O O6 0.051124 0.218080 0.598731
O O7 0.975276 0.992038 0.712285
O O8 0.567428 0.524633 0.805203
O O9 0.388618 0.886807 0.931292
O O10 0.519025 0.273134 0.920921
O O11 0.235669 0.680577 0.831599
O O12 0.598842 0.952969 0.787534
O O13 0.367323 0.906355 0.686519
O O14 0.695846 0.762867 0.947076
O O15 0.891893 0.877845 0.850300
O O16 0.896284 0.554516 0.267935
#
# Coordination Sequence:
#
# PCOD9052162 Si02
#       8
#     2   2   2   2   1   2   2   2
#     4  12  31  54  75 112 165 213 248 309 393 486
#     4  12  26  46  80 114 147 193 261 318 385 448
#     4  11  22  42  66 101 145 189 246 306 382 441
#     4  11  21  43  72 106 145 186 246 324 367 436
#     4  10  26  42  64  92 152 210 232 294 384 472
#     4  11  22  42  66 101 145 189 246 306 382 441
#     4  12  26  46  80 114 147 193 261 318 385 448
#     4  12  24  41  76 112 132 188 256 332 362 442
#
# _framework density 24.715015000000001
#
# number of rings (size 3 to 8) (size 9 to 14) (size 15 to 20)
#    0.000    0.533    5.333    2.800    3.733    1.600 
#    0.000    1.333    0.000    0.000    0.000    0.000 
#    0.000    0.000    0.000    0.000    0.000    0.000 
#
# Total GULP energy -83513.068421 kJ/mol
# GULP energy per Si atom -5567.537895 kJ/mol
# Density = 2.465876 g / cm^3
# Si number density = 24.715015 Si / 1000 Ang^3
#
#
#
# Elastic Constant Matrix: (Units=GPa)
#
#
# Indices 1 2 3 4 5 6 
#
# 1 150.1871 31.3993 36.5996 7.1283 22.9531 -7.3885
# 2 31.3993 98.2272 24.7687 12.4687 10.8732 -4.3615
# 3 36.5996 24.7687 60.8314 10.5719 5.4608 8.2545
# 4 7.1283 12.4687 10.5719 34.3004 11.8794 4.5700
# 5 22.9531 10.8732 5.4608 11.8794 46.0818 4.9531
# 6 -7.3885 -4.3615 8.2545 4.5700 4.9531 42.7815
#
#
#
# Elastic Compliance Matrix: (Units=1/GPa)
#
#
# Indices 1 2 3 4 5 6 
#
# 1 0.008839 -0.001119 -0.005072 0.001202 -0.004142 0.002742
# 2 -0.001119 0.012145 -0.003973 -0.002788 -0.001363 0.002267
# 3 -0.005072 -0.003973 0.022407 -0.004577 0.002570 -0.005413
# 4 0.001202 -0.002788 -0.004577 0.034375 -0.008052 -0.001933
# 5 -0.004142 -0.001363 0.002570 -0.008052 0.026236 -0.003528
# 6 0.002742 0.002267 -0.005413 -0.001933 -0.003528 0.025739
#
#
# Mechanical properties :
#
#
# Convention : Reuss Voigt Hill
#
# Bulk Modulus (GPa) = 43.35620 54.97565 49.16593
# Shear Modulus (GPa) = 31.69452 39.06462 35.37957
#
# Velocity S-wave (km/s) = 3.58495 3.97999 3.78762
# Velocity P-wave (km/s) = 5.89206 6.58882 6.25016
#
# Compressibility (1/GPa) = 0.02306475
#
# Stress axis : x y z
#
# Youngs Moduli (GPa) = 113.13276 82.33614 44.62866
#
# Poissons Ratio (x) = 0.09213 0.22634
# Poissons Ratio (y) = 0.12659 0.17730
# Poissons Ratio (z) = 0.57378 0.32710
#
# Static dielectric constant tensor:
#      x y z
#    x 2.784770 0.997930 -0.614730 
#    y 0.997930 3.256260 -0.771870 
#    z -0.614730 -0.771870 2.461650 
# 
# From -- ./inp_files/552819.got.cif
#   From: 2010.05.17/outbox.cif.g08.bks.cpg/sg2_277_cif.got.tgz:552819.got - 2010.06.03 11:33:40.
