data_PCOD9052928
_publ_section_title
;
Structure prediction by ZEFSAII (Michael W. Deem and Ramdas Pophale) SiO2 
 PCOD9052928
Probable space group: P -1
;
_chemical_formula_sum "Si O2"
_cell_formula_units_Z 15
_cell_length_a 4.906672
_cell_length_b 11.951861
_cell_length_c 12.365273
_cell_angle_alpha 105.144855
_cell_angle_beta 120.827068
_cell_angle_gamma 69.776769
_cell_volume 581.116993
_symmetry_space_group_name_H-M "P -1"
_symmetry_group_IT_number 2
_symmetry_cell_setting 'triclinic'
loop_
_space_group_symop_operation_xyz
x,y,z
-x,-y,-z
loop_
_atom_site_type_symbol
_atom_site_label
_atom_site_fract_x
_atom_site_fract_y
_atom_site_fract_z
Si Si1 0.000000 0.000000 0.000000
Si Si2 0.933537 0.063761 0.754899
Si Si3 0.442486 0.734434 0.997136
Si Si4 0.937188 0.590292 0.908210
Si Si5 0.615693 0.712108 0.272343
Si Si6 0.748120 0.301446 0.483367
Si Si7 0.342589 0.951280 0.621740
Si Si8 0.552042 0.507506 0.348658
O O1 0.800685 0.136464 0.031275
O O2 0.977497 0.951906 0.106792
O O3 0.725282 0.200871 0.732966
O O4 0.664411 0.987832 0.654742
O O5 0.255649 0.014715 0.736571
O O6 0.687062 0.706013 0.939197
O O7 0.245055 0.632171 0.938471
O O8 0.620766 0.724164 0.147728
O O9 0.763276 0.534039 0.765453
O O10 0.000000 0.500000 0.000000
O O11 0.650903 0.577728 0.286101
O O12 0.905606 0.751904 0.401626
O O13 0.598320 0.191645 0.395460
O O14 0.788725 0.386171 0.412802
O O15 0.534287 0.394073 0.549094
O O16 0.000000 0.000000 0.500000
#
# Coordination Sequence:
#
# PCOD9052928 Si02
#       8
#     1   2   2   2   2   2   2   2
#     4  10  28  50  74 110 148 180 248 288 374 418
#     4  11  27  45  76 103 142 187 233 298 352 424
#     4  11  27  45  76 103 142 187 233 298 352 424
#     4  12  25  47  72 106 139 186 240 290 352 423
#     4  11  23  45  69  98 138 188 229 289 349 419
#     4  11  26  43  68 100 140 186 232 291 347 417
#     4  12  25  47  72 106 139 186 240 290 352 423
#     4  11  26  43  68 100 140 186 232 291 347 417
#
# _framework density 25.812362
#
# number of rings (size 3 to 8) (size 9 to 14) (size 15 to 20)
#    0.000    0.800    2.667    2.800    7.467    4.267 
#    0.000    0.000    0.000    0.000    0.000    0.000 
#    0.000    0.000    0.000    0.000    0.000    0.000 
#
# Total GULP energy -83911.461885 kJ/mol
# GULP energy per Si atom -5594.097459 kJ/mol
# Density = 2.575361 g / cm^3
# Si number density = 25.812362 Si / 1000 Ang^3
#
#
#
# Elastic Constant Matrix: (Units=GPa)
#
#
# Indices 1 2 3 4 5 6 
#
# 1 91.5088 24.8711 21.2131 10.6677 3.4171 7.2295
# 2 24.8711 139.5854 28.8343 4.6788 -9.3946 7.6359
# 3 21.2131 28.8343 57.2568 16.8843 -2.5675 5.3507
# 4 10.6677 4.6788 16.8843 38.6659 4.2829 -5.3832
# 5 3.4171 -9.3946 -2.5675 4.2829 32.7276 14.4335
# 6 7.2295 7.6359 5.3507 -5.3832 14.4335 30.6541
#
#
#
# Elastic Compliance Matrix: (Units=1/GPa)
#
#
# Indices 1 2 3 4 5 6 
#
# 1 0.012481 -0.001451 -0.003119 -0.002101 -0.000793 -0.002033
# 2 -0.001451 0.008509 -0.003321 0.000019 0.003607 -0.002893
# 3 -0.003119 -0.003321 0.024576 -0.011199 0.006103 -0.007567
# 4 -0.002101 0.000019 -0.011199 0.034499 -0.011257 0.013804
# 5 -0.000793 0.003607 0.006103 -0.011257 0.044527 -0.024719
# 6 -0.002033 -0.002893 -0.007567 0.013804 -0.024719 0.049206
#
#
# Mechanical properties :
#
#
# Convention : Reuss Voigt Hill
#
# Bulk Modulus (GPa) = 33.57545 48.68756 41.13151
# Shear Modulus (GPa) = 25.06162 34.63836 29.84999
#
# Velocity S-wave (km/s) = 3.11933 3.66721 3.40431
# Velocity P-wave (km/s) = 5.09994 6.06913 5.60552
#
# Compressibility (1/GPa) = 0.02978366
#
# Stress axis : x y z
#
# Youngs Moduli (GPa) = 80.12488 117.52249 40.68934
#
# Poissons Ratio (x) = 0.17054 0.12691
# Poissons Ratio (y) = 0.11627 0.13513
# Poissons Ratio (z) = 0.24992 0.39028
#
# Static dielectric constant tensor:
#      x y z
#    x 2.075160 -0.046990 0.031020 
#    y -0.046990 2.047010 0.011480 
#    z 0.031020 0.011480 2.057780 
# 
# From -- ./inp_files/67500.got.cif
#   From: 2010.05.17/outbox.cif.g08.bks.cpg/sg2_34_cif.got.tgz:67500.got - 2010.06.03 11:33:40.
