data_PCOD9052168
_publ_section_title
;
Structure prediction by ZEFSAII (Michael W. Deem and Ramdas Pophale) SiO2 
 PCOD9052168
Probable space group: P -1
;
_chemical_formula_sum "Si O2"
_cell_formula_units_Z 12
_cell_length_a 5.128320
_cell_length_b 21.250447
_cell_length_c 5.479467
_cell_angle_alpha 74.522992
_cell_angle_beta 74.862575
_cell_angle_gamma 61.000616
_cell_volume 497.152817
_symmetry_space_group_name_H-M "P -1"
_symmetry_group_IT_number 2
_symmetry_cell_setting 'triclinic'
loop_
_space_group_symop_operation_xyz
x,y,z
-x,-y,-z
loop_
_atom_site_type_symbol
_atom_site_label
_atom_site_fract_x
_atom_site_fract_y
_atom_site_fract_z
Si Si1 0.482574 0.212152 0.432115
Si Si2 0.322264 0.012488 0.780542
Si Si3 0.190237 0.692972 0.632856
Si Si4 0.160385 0.565214 0.017514
Si Si5 0.168750 0.566618 0.514510
Si Si6 0.253101 0.869411 0.051160
O O1 0.565809 0.277544 0.418470
O O2 0.674712 0.176844 0.170430
O O3 0.139326 0.241113 0.397746
O O4 0.539300 0.167632 0.722312
O O5 0.500000 0.000000 0.500000
O O6 0.237129 0.945341 0.876815
O O7 0.073180 0.096150 0.774168
O O8 0.500000 0.000000 0.000000
O O9 0.184950 0.641146 0.907419
O O10 0.226322 0.637732 0.459422
O O11 0.002861 0.563028 0.805640
O O12 0.500000 0.500000 0.000000
O O13 0.004153 0.567339 0.306466
O O14 0.500000 0.500000 0.500000
#
# Coordination Sequence:
#
# PCOD9052168 Si02
#       6
#     2   2   2   2   2   2
#     4  12  28  43  70  99 150 183 226 277 358 423
#     4  11  24  47  80 101 137 176 238 283 338 401
#     4  10  26  42  66  97 138 186 232 280 354 419
#     4   8  16  34  63  87 126 168 233 287 338 391
#     4   8  16  34  63  87 126 168 233 287 338 391
#     4  11  28  46  68 111 136 185 230 287 338 419
#
# _framework density 24.137450000000001
#
# number of rings (size 3 to 8) (size 9 to 14) (size 15 to 20)
#    1.000    1.000    0.000    2.000   11.667    2.667 
#    0.000    1.667    0.000    0.000    0.000    0.000 
#    0.000    0.000    0.000    0.000    0.000    0.000 
#
# Total GULP energy -66833.158231 kJ/mol
# GULP energy per Si atom -5569.429853 kJ/mol
# Density = 2.408251 g / cm^3
# Si number density = 24.137450 Si / 1000 Ang^3
#
#
#
# Elastic Constant Matrix: (Units=GPa)
#
#
# Indices 1 2 3 4 5 6 
#
# 1 47.7920 13.0190 8.4421 -3.2604 3.1448 4.5234
# 2 13.0190 101.9364 40.1487 4.7338 -3.1095 0.7019
# 3 8.4421 40.1487 225.1205 25.5030 9.6797 -0.3305
# 4 -3.2604 4.7338 25.5030 52.9905 6.0347 5.9172
# 5 3.1448 -3.1095 9.6797 6.0347 26.4026 -3.3158
# 6 4.5234 0.7019 -0.3305 5.9172 -3.3158 37.2710
#
#
#
# Elastic Compliance Matrix: (Units=1/GPa)
#
#
# Indices 1 2 3 4 5 6 
#
# 1 0.022573 -0.002919 -0.000469 0.002709 -0.003915 -0.003467
# 2 -0.002919 0.011033 -0.001900 -0.000590 0.002535 0.000449
# 3 -0.000469 -0.001900 0.005111 -0.002188 -0.001497 0.000352
# 4 0.002709 -0.000590 -0.002188 0.021169 -0.004948 -0.004138
# 5 -0.003915 0.002535 -0.001497 -0.004948 0.040928 0.004841
# 6 -0.003467 0.000449 0.000352 -0.004138 0.004841 0.028334
#
#
# Mechanical properties :
#
#
# Convention : Reuss Voigt Hill
#
# Bulk Modulus (GPa) = 35.53690 55.34093 45.43892
# Shear Modulus (GPa) = 33.53365 44.21542 38.87454
#
# Velocity S-wave (km/s) = 3.73135 4.28462 4.01752
# Velocity P-wave (km/s) = 5.77223 6.88872 6.35504
#
# Compressibility (1/GPa) = 0.02813976
#
# Stress axis : x y z
#
# Youngs Moduli (GPa) = 44.30129 90.63964 195.64811
#
# Poissons Ratio (x) = 0.26461 0.09184
# Poissons Ratio (y) = 0.12933 0.37166
# Poissons Ratio (z) = 0.02080 0.17218
#
# Static dielectric constant tensor:
#      x y z
#    x 1.970710 -0.001360 -0.056570 
#    y -0.001360 2.004170 -0.008730 
#    z -0.056570 -0.008730 2.018180 
# 
# From -- ./inp_files/10648.got.cif
#   From: 2010.05.17/outbox.cif.g08.bks.cpg/sg2_6_cif.got.tgz:10648.got - 2010.06.03 11:33:40.
