data_PCOD9052648
_publ_section_title
;
Structure prediction by ZEFSAII (Michael W. Deem and Ramdas Pophale) SiO2 
 PCOD9052648
Probable space group: P -1
;
_chemical_formula_sum "Si O2"
_cell_formula_units_Z 16
_cell_length_a 8.836034
_cell_length_b 14.190229
_cell_length_c 14.479250
_cell_angle_alpha 29.371218
_cell_angle_beta 121.198397
_cell_angle_gamma 127.713823
_cell_volume 703.868472
_symmetry_space_group_name_H-M "P -1"
_symmetry_group_IT_number 2
_symmetry_cell_setting 'triclinic'
loop_
_space_group_symop_operation_xyz
x,y,z
-x,-y,-z
loop_
_atom_site_type_symbol
_atom_site_label
_atom_site_fract_x
_atom_site_fract_y
_atom_site_fract_z
Si Si1 0.053267 0.954297 0.251611
Si Si2 0.804881 0.025337 0.270026
Si Si3 0.663428 0.291976 0.883146
Si Si4 0.643624 0.974553 0.450325
Si Si5 0.566889 0.745431 0.809486
Si Si6 0.504597 0.591855 0.524214
Si Si7 0.750400 0.275288 0.569297
Si Si8 0.758816 0.061742 0.944614
O O1 0.264101 0.139431 0.162368
O O2 0.085061 0.737799 0.435042
O O3 0.957165 0.974644 0.300732
O O4 0.921047 0.994227 0.097485
O O5 0.803873 0.018677 0.385401
O O6 0.606170 0.839450 0.334760
O O7 0.781285 0.233606 0.049643
O O8 0.648568 0.514361 0.692295
O O9 0.742584 0.235992 0.860677
O O10 0.440894 0.135817 0.948375
O O11 0.652422 0.844140 0.653296
O O12 0.442552 0.838631 0.452988
O O13 0.609484 0.181106 0.292603
O O14 0.500000 0.500000 0.000000
O O15 0.500000 0.500000 0.500000
O O16 0.303688 0.543811 0.554454
O O17 0.786831 0.152926 0.773297
#
# Coordination Sequence:
#
# PCOD9052648 Si02
#       8
#     2   2   2   2   2   2   2   2
#     4  10  22  37  61  89 124 162 194 251 307 345
#     4  10  21  39  59  89 125 159 200 242 298 360
#     4  10  18  32  58  86 119 168 200 233 285 356
#     4   9  20  40  65  86 114 158 199 246 295 362
#     4  10  22  43  67  86 112 152 206 253 301 356
#     4  11  18  32  58  83 121 166 209 234 277 363
#     4  10  19  36  57  88 123 159 197 238 299 353
#     4  10  17  35  57  85 127 159 194 239 296 357
#
# _framework density 22.731521000000001
#
# number of rings (size 3 to 8) (size 9 to 14) (size 15 to 20)
#    0.000    2.000    3.750    1.875    0.000    2.500 
#    0.000   10.625    0.000    0.000    0.000    0.000 
#    0.000    0.000    0.000    0.000    0.000    0.000 
#
# Total GULP energy -89226.407512 kJ/mol
# GULP energy per Si atom -5576.650470 kJ/mol
# Density = 2.267978 g / cm^3
# Si number density = 22.731521 Si / 1000 Ang^3
#
#
#
# Elastic Constant Matrix: (Units=GPa)
#
#
# Indices 1 2 3 4 5 6 
#
# 1 114.2512 16.7462 45.7050 11.9338 36.0126 -24.8946
# 2 16.7462 53.1715 21.4413 11.1558 2.6517 -6.2829
# 3 45.7050 21.4413 94.1687 5.4632 17.7984 -19.6033
# 4 11.9338 11.1558 5.4632 31.4043 -5.6646 -0.8806
# 5 36.0126 2.6517 17.7984 -5.6646 27.6743 -2.1227
# 6 -24.8946 -6.2829 -19.6033 -0.8806 -2.1227 35.0174
#
#
#
# Elastic Compliance Matrix: (Units=1/GPa)
#
#
# Indices 1 2 3 4 5 6 
#
# 1 0.024085 -0.000708 -0.001843 -0.013949 -0.031894 0.013679
# 2 -0.000708 0.022252 -0.004138 -0.006865 0.000123 0.001007
# 3 -0.001843 -0.004138 0.015050 -0.001496 -0.006736 0.005926
# 4 -0.013949 -0.006865 -0.001496 0.044675 0.028215 -0.009153
# 5 -0.031894 0.000123 -0.006736 0.028215 0.086162 -0.020490
# 6 0.013679 0.001007 0.005926 -0.009153 -0.020490 0.040308
#
#
# Mechanical properties :
#
#
# Convention : Reuss Voigt Hill
#
# Bulk Modulus (GPa) = 20.83032 47.70850 34.26941
# Shear Modulus (GPa) = 19.09024 30.66579 24.87802
#
# Velocity S-wave (km/s) = 2.90110 3.67692 3.31180
# Velocity P-wave (km/s) = 4.51723 6.24977 5.45275
#
# Compressibility (1/GPa) = 0.04800694
#
# Stress axis : x y z
#
# Youngs Moduli (GPa) = 41.52010 44.93963 66.44691
#
# Poissons Ratio (x) = 0.03184 0.12247
# Poissons Ratio (y) = 0.02942 0.27496
# Poissons Ratio (z) = 0.07653 0.18596
#
# Static dielectric constant tensor:
#      x y z
#    x 1.954650 -0.008730 0.024000 
#    y -0.008730 1.864100 0.010510 
#    z 0.024000 0.010510 1.861360 
# 
# From -- ./inp_files/443918.got.cif
#   From: 2010.05.17/outbox.cif.g08.bks.cpg/sg2_222_cif.got.tgz:443918.got - 2010.06.03 11:33:40.
