data_PCOD9052235
_publ_section_title
;
Structure prediction by ZEFSAII (Michael W. Deem and Ramdas Pophale) SiO2 
 PCOD9052235
Probable space group: P -1
;
_chemical_formula_sum "Si O2"
_cell_formula_units_Z 13
_cell_length_a 17.815115
_cell_length_b 11.795539
_cell_length_c 8.690609
_cell_angle_alpha 141.162053
_cell_angle_beta 131.926085
_cell_angle_gamma 29.626716
_cell_volume 565.925799
_symmetry_space_group_name_H-M "P -1"
_symmetry_group_IT_number 2
_symmetry_cell_setting 'triclinic'
loop_
_space_group_symop_operation_xyz
x,y,z
-x,-y,-z
loop_
_atom_site_type_symbol
_atom_site_label
_atom_site_fract_x
_atom_site_fract_y
_atom_site_fract_z
Si Si1 0.372051 0.305982 0.833957
Si Si2 0.382681 0.765777 0.017602
Si Si3 0.500000 0.000000 0.000000
Si Si4 0.940463 0.688928 0.766253
Si Si5 0.852209 0.453157 0.493017
Si Si6 0.710222 0.412757 0.530677
Si Si7 0.112736 0.831037 0.188364
O O1 0.274203 0.358868 0.614928
O O2 0.407471 0.132742 0.844858
O O3 0.532539 0.168109 0.851846
O O4 0.265345 0.615832 0.070261
O O5 0.343971 0.693026 0.741893
O O6 0.500000 0.500000 0.000000
O O7 0.228968 0.006259 0.154683
O O8 0.580943 0.699596 0.743621
O O9 0.923558 0.554039 0.728336
O O10 0.000000 0.500000 0.500000
O O11 0.046777 0.715516 0.976408
O O12 0.778952 0.455591 0.541900
O O13 0.985822 0.140875 0.287837
O O14 0.837655 0.189405 0.592648
#
# Coordination Sequence:
#
# PCOD9052235 Si02
#       7
#     2   2   1   2   2   2   2
#     4  11  24  47  72 107 145 193 243 304 368 431
#     4  12  26  44  77 109 146 196 246 299 370 442
#     4  10  26  44  66 104 148 186 238 304 364 430
#     4  12  27  44  74 111 141 194 249 296 368 435
#     4  12  24  45  78 101 150 190 247 302 364 440
#     4  11  25  47  71 106 151 188 241 309 365 434
#     4  11  25  49  70 109 148 189 243 307 366 431
#
# _framework density 22.971208000000001
#
# number of rings (size 3 to 8) (size 9 to 14) (size 15 to 20)
#    0.000    0.615    4.615    1.846    4.308    4.308 
#    5.538    0.000    0.000    0.000    0.000    0.000 
#    0.000    0.000    0.000    0.000    0.000    0.000 
#
# Total GULP energy -72490.092459 kJ/mol
# GULP energy per Si atom -5576.160958 kJ/mol
# Density = 2.291892 g / cm^3
# Si number density = 22.971208 Si / 1000 Ang^3
#
#
#
# Elastic Constant Matrix: (Units=GPa)
#
#
# Indices 1 2 3 4 5 6 
#
# 1 50.2271 32.4291 12.6162 -8.5975 4.2249 -6.6444
# 2 32.4291 135.3135 68.2482 -5.1826 -4.1427 0.7483
# 3 12.6162 68.2482 118.0957 1.2650 -3.0780 -8.8932
# 4 -8.5975 -5.1826 1.2650 42.8333 1.8033 -9.1614
# 5 4.2249 -4.1427 -3.0780 1.8033 30.9010 4.5136
# 6 -6.6444 0.7483 -8.8932 -9.1614 4.5136 38.2249
#
#
#
# Elastic Compliance Matrix: (Units=1/GPa)
#
#
# Indices 1 2 3 4 5 6 
#
# 1 0.026691 -0.007210 0.001649 0.006259 -0.005892 0.007360
# 2 -0.007210 0.012562 -0.006680 -0.000585 0.002549 -0.003494
# 3 0.001649 -0.006680 0.012393 -0.000119 -0.000364 0.003315
# 4 0.006259 -0.000585 -0.000119 0.026360 -0.003626 0.007818
# 5 -0.005892 0.002549 -0.000364 -0.003626 0.034577 -0.006111
# 6 0.007360 -0.003494 0.003315 0.007818 -0.006111 0.030875
#
#
# Mechanical properties :
#
#
# Convention : Reuss Voigt Hill
#
# Bulk Modulus (GPa) = 36.81250 58.91370 47.86310
# Shear Modulus (GPa) = 28.24933 35.08136 31.66534
#
# Velocity S-wave (km/s) = 3.51061 3.91217 3.71682
# Velocity P-wave (km/s) = 5.70025 6.79037 6.26905
#
# Compressibility (1/GPa) = 0.02716469
#
# Stress axis : x y z
#
# Youngs Moduli (GPa) = 37.46600 79.60318 80.68768
#
# Poissons Ratio (x) = 0.57391 -0.13303
# Poissons Ratio (y) = 0.27012 0.53900
# Poissons Ratio (z) = -0.06177 0.53175
#
# Static dielectric constant tensor:
#      x y z
#    x 1.910430 -0.016420 -0.035480 
#    y -0.016420 1.833400 0.004790 
#    z -0.035480 0.004790 1.856270 
# 
# From -- ./inp_files/333938.got.cif
#   From: 2010.05.17/outbox.cif.g08.bks.cpg/sg2_167_cif.got.tgz:333938.got - 2010.06.03 11:33:40.
