data_PCOD9052549
_publ_section_title
;
Structure prediction by ZEFSAII (Michael W. Deem and Ramdas Pophale) SiO2 
 PCOD9052549
Probable space group: P -1
;
_chemical_formula_sum "Si O2"
_cell_formula_units_Z 10
_cell_length_a 13.332346
_cell_length_b 12.077714
_cell_length_c 5.078018
_cell_angle_alpha 74.145857
_cell_angle_beta 100.286080
_cell_angle_gamma 147.878411
_cell_volume 416.003426
_symmetry_space_group_name_H-M "P -1"
_symmetry_group_IT_number 2
_symmetry_cell_setting 'triclinic'
loop_
_space_group_symop_operation_xyz
x,y,z
-x,-y,-z
loop_
_atom_site_type_symbol
_atom_site_label
_atom_site_fract_x
_atom_site_fract_y
_atom_site_fract_z
Si Si1 0.420570 0.988932 0.218220
Si Si2 0.984418 0.749804 0.512312
Si Si3 0.627765 0.803020 0.857366
Si Si4 0.002825 0.614688 0.122359
Si Si5 0.328776 0.370415 0.694307
O O1 0.500000 0.000000 0.500000
O O2 0.196907 0.769286 0.260221
O O3 0.500000 0.000000 0.000000
O O4 0.454677 0.157158 0.090908
O O5 0.201610 0.994251 0.386953
O O6 0.844168 0.725162 0.450004
O O7 0.991147 0.701397 0.836477
O O8 0.907056 0.585657 0.355356
O O9 0.728485 0.804911 0.088378
O O10 0.442449 0.562131 0.820386
O O11 0.000000 0.500000 0.000000
O O12 0.500000 0.500000 0.500000
#
# Coordination Sequence:
#
# PCOD9052549 Si02
#       5
#     2   2   2   2   2
#     4  11  25  43  73 102 142 188 232 303 355 430
#     4  11  26  47  74 104 151 189 240 309 360 437
#     4  10  26  47  67 110 143 190 250 289 378 428
#     4  11  26  45  72 109 144 194 242 293 373 434
#     4  11  27  44  76 104 144 195 246 306 354 442
#
# _framework density 24.038262
#
# number of rings (size 3 to 8) (size 9 to 14) (size 15 to 20)
#    0.000    1.200    0.000    3.600   19.600    0.800 
#    0.000    0.000    0.000    0.000    0.000    0.000 
#    0.000    0.000    0.000    0.000    0.000    0.000 
#
# Total GULP energy -55762.835152 kJ/mol
# GULP energy per Si atom -5576.283515 kJ/mol
# Density = 2.398355 g / cm^3
# Si number density = 24.038262 Si / 1000 Ang^3
#
#
#
# Elastic Constant Matrix: (Units=GPa)
#
#
# Indices 1 2 3 4 5 6 
#
# 1 184.9212 25.1993 63.4887 13.2785 32.5290 -8.0129
# 2 25.1993 45.4664 17.2395 10.4668 22.3391 -17.7257
# 3 63.4887 17.2395 144.6211 21.7501 33.8667 1.0248
# 4 13.2785 10.4668 21.7501 27.7195 6.8569 6.7633
# 5 32.5290 22.3391 33.8667 6.8569 55.8257 4.5733
# 6 -8.0129 -17.7257 1.0248 6.7633 4.5733 48.2823
#
#
#
# Elastic Compliance Matrix: (Units=1/GPa)
#
#
# Indices 1 2 3 4 5 6 
#
# 1 0.006822 -0.001380 -0.002250 -0.000710 -0.002049 0.000967
# 2 -0.001380 0.041320 0.001936 -0.017008 -0.016358 0.018831
# 3 -0.002250 0.001936 0.009737 -0.006494 -0.004694 0.001485
# 4 -0.000710 -0.017008 -0.006494 0.049768 0.006175 -0.013780
# 5 -0.002049 -0.016358 -0.004694 0.006175 0.028546 -0.009815
# 6 0.000967 0.018831 0.001485 -0.013780 -0.009815 0.030614
#
#
# Mechanical properties :
#
#
# Convention : Reuss Voigt Hill
#
# Bulk Modulus (GPa) = 18.35263 65.20708 41.77985
# Shear Modulus (GPa) = 26.54488 44.30425 35.42456
#
# Velocity S-wave (km/s) = 3.32667 4.29776 3.84301
# Velocity P-wave (km/s) = 4.73360 7.19812 6.09179
#
# Compressibility (1/GPa) = 0.05448811
#
# Stress axis : x y z
#
# Youngs Moduli (GPa) = 146.58872 24.20160 102.69780
#
# Poissons Ratio (x) = 0.03341 0.23111
# Poissons Ratio (y) = 0.20236 -0.19878
# Poissons Ratio (z) = 0.32989 -0.04684
#
# Static dielectric constant tensor:
#      x y z
#    x 2.097340 -0.116110 -0.059940 
#    y -0.116110 2.569610 -0.002300 
#    z -0.059940 -0.002300 1.938160 
# 
# From -- ./inp_files/69425.got.cif
#   From: 2010.05.17/outbox.cif.g08.bks.cpg/sg2_35_cif.got.tgz:69425.got - 2010.06.03 11:33:40.
