data_PCOD9052418
_publ_section_title
;
Structure prediction by ZEFSAII (Michael W. Deem and Ramdas Pophale) SiO2 
 PCOD9052418
Probable space group: P -1
;
_chemical_formula_sum "Si O2"
_cell_formula_units_Z 11
_cell_length_a 13.067861
_cell_length_b 9.152238
_cell_length_c 9.609853
_cell_angle_alpha 149.792702
_cell_angle_beta 132.913976
_cell_angle_gamma 62.589610
_cell_volume 397.102606
_symmetry_space_group_name_H-M "P -1"
_symmetry_group_IT_number 2
_symmetry_cell_setting 'triclinic'
loop_
_space_group_symop_operation_xyz
x,y,z
-x,-y,-z
loop_
_atom_site_type_symbol
_atom_site_label
_atom_site_fract_x
_atom_site_fract_y
_atom_site_fract_z
Si Si1 0.481316 0.628024 0.391120
Si Si2 0.694973 0.705410 0.408701
Si Si3 0.848602 0.230024 0.176858
Si Si4 0.500000 0.000000 0.000000
Si Si5 0.916215 0.222366 0.546309
Si Si6 0.211729 0.769010 0.295714
O O1 0.548323 0.683732 0.342816
O O2 0.304633 0.557511 0.163476
O O3 0.524055 0.348458 0.258355
O O4 0.526357 0.896494 0.770592
O O5 0.725331 0.387330 0.160600
O O6 0.725507 0.918611 0.475771
O O7 0.820182 0.924583 0.809807
O O8 0.861230 0.146409 0.278680
O O9 0.000000 0.500000 0.500000
O O10 0.776664 0.182494 0.486505
O O11 0.000000 0.000000 0.500000
O O12 0.037684 0.570832 0.947869
#
# Coordination Sequence:
#
# PCOD9052418 Si02
#       6
#     2   2   2   1   2   2
#     4  11  26  46  76 105 150 186 240 299 371 424
#     4  12  27  47  75 111 143 193 241 300 365 432
#     4  12  26  47  75 104 150 189 246 297 359 430
#     4  10  26  46  68 112 140 192 236 294 360 438
#     4  11  27  45  72 105 142 200 241 300 357 429
#     4  11  27  46  71 105 148 189 246 297 363 428
#
# _framework density 27.70065
#
# number of rings (size 3 to 8) (size 9 to 14) (size 15 to 20)
#    0.000    0.727    1.818    3.273   15.273    0.000 
#    0.000    3.636    0.000    0.000    0.000    0.000 
#    0.000    0.000    0.000    0.000    0.000    0.000 
#
# Total GULP energy -61556.738967 kJ/mol
# GULP energy per Si atom -5596.067179 kJ/mol
# Density = 2.763760 g / cm^3
# Si number density = 27.700650 Si / 1000 Ang^3
#
#
#
# Elastic Constant Matrix: (Units=GPa)
#
#
# Indices 1 2 3 4 5 6 
#
# 1 190.7130 66.5795 16.9835 11.3374 -3.4862 18.1020
# 2 66.5795 179.0881 17.2401 10.1807 -20.0614 23.8971
# 3 16.9835 17.2401 97.8204 17.2438 -25.5824 0.5501
# 4 11.3374 10.1807 17.2438 46.4483 1.3764 -15.7918
# 5 -3.4862 -20.0614 -25.5824 1.3764 56.7238 6.0210
# 6 18.1020 23.8971 0.5501 -15.7918 6.0210 53.9558
#
#
#
# Elastic Compliance Matrix: (Units=1/GPa)
#
#
# Indices 1 2 3 4 5 6 
#
# 1 0.006220 -0.002016 -0.000576 -0.001377 -0.000393 -0.001547
# 2 -0.002016 0.007273 0.000336 -0.002553 0.003047 -0.003635
# 3 -0.000576 0.000336 0.012950 -0.005772 0.006327 -0.002483
# 4 -0.001377 -0.002553 -0.005772 0.028311 -0.005396 0.010540
# 5 -0.000393 0.003047 0.006327 -0.005396 0.022235 -0.005343
# 6 -0.001547 -0.003635 -0.002483 0.010540 -0.005343 0.024369
#
#
# Mechanical properties :
#
#
# Convention : Reuss Voigt Hill
#
# Bulk Modulus (GPa) = 45.60024 74.35865 59.97944
# Shear Modulus (GPa) = 44.17716 55.88013 50.02865
#
# Velocity S-wave (km/s) = 3.99783 4.49629 4.25437
# Velocity P-wave (km/s) = 6.14880 7.33876 6.76998
#
# Compressibility (1/GPa) = 0.02192971
#
# Stress axis : x y z
#
# Youngs Moduli (GPa) = 160.76646 137.50028 77.22062
#
# Poissons Ratio (x) = 0.27725 0.04447
# Poissons Ratio (y) = 0.32416 -0.02593
# Poissons Ratio (z) = 0.09259 -0.04616
#
# Static dielectric constant tensor:
#      x y z
#    x 2.147110 0.231690 -0.130340 
#    y 0.231690 1.760750 0.172490 
#    z -0.130340 0.172490 1.867320 
# 
# From -- ./inp_files/246298.got.cif
#   From: 2010.05.17/outbox.cif.g08.bks.cpg/sg2_124_cif.got.tgz:246298.got - 2010.06.03 11:33:40.
