data_PCOD9052046
_publ_section_title
;
Structure prediction by ZEFSAII (Michael W. Deem and Ramdas Pophale) SiO2 
 PCOD9052046
Probable space group: P -1
;
_chemical_formula_sum "Si O2"
_cell_formula_units_Z 12
_cell_length_a 11.524832
_cell_length_b 6.118399
_cell_length_c 17.397802
_cell_angle_alpha 91.671588
_cell_angle_beta 26.991175
_cell_angle_gamma 107.567360
_cell_volume 441.850963
_symmetry_space_group_name_H-M "P -1"
_symmetry_group_IT_number 2
_symmetry_cell_setting 'triclinic'
loop_
_space_group_symop_operation_xyz
x,y,z
-x,-y,-z
loop_
_atom_site_type_symbol
_atom_site_label
_atom_site_fract_x
_atom_site_fract_y
_atom_site_fract_z
Si Si1 0.790191 0.652308 0.924568
Si Si2 0.330122 0.563690 0.776666
Si Si3 0.892717 0.703353 0.539002
Si Si4 0.207865 0.090819 0.797570
Si Si5 0.145611 0.793323 0.556799
Si Si6 0.512419 0.008969 0.082494
O O1 0.639629 0.329118 0.028372
O O2 0.895640 0.694979 0.772659
O O3 0.652119 0.835511 0.020344
O O4 0.087283 0.842740 0.809015
O O5 0.520660 0.525424 0.731349
O O6 0.212533 0.347581 0.774542
O O7 0.614155 0.874314 0.589273
O O8 0.000000 0.500000 0.000000
O O9 0.001200 0.341317 0.441590
O O10 0.000000 0.000000 0.500000
O O11 0.146848 0.805147 0.322820
O O12 0.587093 0.246265 0.583141
O O13 0.000000 0.000000 0.000000
O O14 0.500000 0.000000 0.000000
#
# Coordination Sequence:
#
# PCOD9052046 Si02
#       6
#     2   2   2   2   2   2
#     4  12  31  51  85 123 170 218 277 340 418 488
#     4  11  25  48  80 115 162 209 279 334 416 487
#     4  10  25  49  83 117 158 216 278 340 409 491
#     4  12  27  47  78 116 163 224 268 344 407 499
#     4  11  26  51  77 122 160 216 277 343 408 493
#     4  12  28  56  80 124 168 220 274 346 409 494
#
# _framework density 27.158480999999998
#
# number of rings (size 3 to 8) (size 9 to 14) (size 15 to 20)
#    0.000    0.667    1.667    4.000   14.000    1.333 
#    0.000    0.000    0.000    0.000    0.000    0.000 
#    0.000    0.000    0.000    0.000    0.000    0.000 
#
# Total GULP energy -66816.235465 kJ/mol
# GULP energy per Si atom -5568.019622 kJ/mol
# Density = 2.709667 g / cm^3
# Si number density = 27.158481 Si / 1000 Ang^3
#
#
#
# Elastic Constant Matrix: (Units=GPa)
#
#
# Indices 1 2 3 4 5 6 
#
# 1 105.5413 41.1827 69.1612 -5.0618 -10.4512 6.4034
# 2 41.1827 213.5212 67.5296 -34.0674 -4.6179 15.9394
# 3 69.1612 67.5296 193.5674 -4.3693 -8.9212 3.1628
# 4 -5.0618 -34.0674 -4.3693 60.3630 -2.3891 -0.1622
# 5 -10.4512 -4.6179 -8.9212 -2.3891 51.1740 5.3747
# 6 6.4034 15.9394 3.1628 -0.1622 5.3747 58.0900
#
#
#
# Elastic Compliance Matrix: (Units=1/GPa)
#
#
# Indices 1 2 3 4 5 6 
#
# 1 0.012842 -0.001003 -0.004125 0.000286 0.001941 -0.001095
# 2 -0.001003 0.006022 -0.001629 0.003207 0.000359 -0.001477
# 3 -0.004125 -0.001629 0.007192 -0.000736 0.000178 0.000492
# 4 0.000286 0.003207 -0.000736 0.018391 0.001176 -0.000929
# 5 0.001941 0.000359 0.000178 0.001176 0.020287 -0.002196
# 6 -0.001095 -0.001477 0.000492 -0.000929 -0.002196 0.017915
#
#
# Mechanical properties :
#
#
# Convention : Reuss Voigt Hill
#
# Bulk Modulus (GPa) = 79.73572 96.48632 88.11102
# Shear Modulus (GPa) = 49.82974 56.24250 53.03612
#
# Velocity S-wave (km/s) = 4.28808 4.55565 4.42389
# Velocity P-wave (km/s) = 7.34438 7.95463 7.65559
#
# Compressibility (1/GPa) = 0.01254143
#
# Stress axis : x y z
#
# Youngs Moduli (GPa) = 77.87241 166.06197 139.04646
#
# Poissons Ratio (x) = 0.16656 0.57350
# Poissons Ratio (y) = 0.07811 0.22656
# Poissons Ratio (z) = 0.32119 0.27058
#
# Static dielectric constant tensor:
#      x y z
#    x 2.582180 -0.067150 -0.346660 
#    y -0.067150 1.942410 0.202370 
#    z -0.346660 0.202370 2.184380 
# 
# From -- ./inp_files/33753.got.cif
#   From: 2010.05.17/outbox.cif.g08.bks.cpg/sg2_17_cif.got.tgz:33753.got - 2010.06.03 11:33:40.
