data_PCOD9052763
_publ_section_title
;
Structure prediction by ZEFSAII (Michael W. Deem and Ramdas Pophale) SiO2 
 PCOD9052763
Probable space group: P -1
;
_chemical_formula_sum "Si O2"
_cell_formula_units_Z 16
_cell_length_a 5.934815
_cell_length_b 11.963267
_cell_length_c 11.155634
_cell_angle_alpha 95.644453
_cell_angle_beta 120.273290
_cell_angle_gamma 74.557170
_cell_volume 658.727702
_symmetry_space_group_name_H-M "P -1"
_symmetry_group_IT_number 2
_symmetry_cell_setting 'triclinic'
loop_
_space_group_symop_operation_xyz
x,y,z
-x,-y,-z
loop_
_atom_site_type_symbol
_atom_site_label
_atom_site_fract_x
_atom_site_fract_y
_atom_site_fract_z
Si Si1 0.521571 0.350182 0.746281
Si Si2 0.132078 0.585373 0.705664
Si Si3 0.220873 0.799106 0.635011
Si Si4 0.782727 0.535901 0.050259
Si Si5 0.206860 0.168584 0.691840
Si Si6 0.908690 0.769378 0.068145
Si Si7 0.553753 0.625078 0.520102
Si Si8 0.475369 0.039063 0.137957
O O1 0.398962 0.488401 0.730303
O O2 0.288384 0.289240 0.710488
O O3 0.612745 0.316405 0.632424
O O4 0.788819 0.302517 0.888854
O O5 0.170542 0.713215 0.717237
O O6 0.050527 0.530853 0.799407
O O7 0.862117 0.601099 0.558982
O O8 0.461172 0.713064 0.613593
O O9 0.303578 0.902497 0.736441
O O10 0.981330 0.840346 0.474793
O O11 0.733265 0.675319 0.038362
O O12 0.500000 0.500000 0.000000
O O13 0.000000 0.500000 0.000000
O O14 0.095023 0.165520 0.797391
O O15 0.491541 0.069753 0.774470
O O16 0.790455 0.855396 0.937023
O O17 0.500000 0.500000 0.500000
O O18 0.500000 0.000000 0.000000
#
# Coordination Sequence:
#
# PCOD9052763 Si02
#       8
#     2   2   2   2   2   2   2   2
#     4  12  22  42  71 111 152 192 243 307 400 467
#     4  12  25  40  70 111 147 193 242 309 384 475
#     4  12  24  46  75 108 147 190 254 319 390 462
#     4  12  27  44  68 109 160 211 256 312 389 486
#     4  11  23  46  73 103 139 190 255 324 380 454
#     4  11  24  45  70 101 146 199 248 311 383 458
#     4  12  23  38  69 110 153 187 235 305 387 476
#     4  10  26  49  74  97 138 202 262 321 385 454
#
# _framework density 24.289248000000001
#
# number of rings (size 3 to 8) (size 9 to 14) (size 15 to 20)
#    0.000    0.500    5.000    3.750    3.500    0.500 
#    0.000    3.125    0.000    0.000    0.000    0.000 
#    0.000    0.000    0.000    0.000    0.000    0.000 
#
# Total GULP energy -89083.019881 kJ/mol
# GULP energy per Si atom -5567.688743 kJ/mol
# Density = 2.423396 g / cm^3
# Si number density = 24.289248 Si / 1000 Ang^3
#
#
#
# Elastic Constant Matrix: (Units=GPa)
#
#
# Indices 1 2 3 4 5 6 
#
# 1 60.8785 10.7227 27.7591 2.5912 0.5542 -11.7053
# 2 10.7227 84.2705 45.8318 -11.5291 0.2824 -2.4535
# 3 27.7591 45.8318 136.3931 -23.0437 8.2409 -14.1424
# 4 2.5912 -11.5291 -23.0437 59.1836 -5.7394 7.8639
# 5 0.5542 0.2824 8.2409 -5.7394 47.3909 -3.8202
# 6 -11.7053 -2.4535 -14.1424 7.8639 -3.8202 14.7060
#
#
#
# Elastic Compliance Matrix: (Units=1/GPa)
#
#
# Indices 1 2 3 4 5 6 
#
# 1 0.021391 -0.001191 -0.003055 -0.004452 0.001083 0.016552
# 2 -0.001191 0.014786 -0.004897 0.001605 0.000659 -0.003877
# 3 -0.003055 -0.004897 0.010643 0.002508 -0.001049 0.005373
# 4 -0.004452 0.001605 0.002508 0.019985 0.001119 -0.011260
# 5 0.001083 0.000659 -0.001049 0.001119 0.021808 0.005030
# 6 0.016552 -0.003877 0.005373 -0.011260 0.005030 0.093022
#
#
# Mechanical properties :
#
#
# Convention : Reuss Voigt Hill
#
# Bulk Modulus (GPa) = 35.04516 50.01884 42.53200
# Shear Modulus (GPa) = 23.87407 37.40468 30.63937
#
# Velocity S-wave (km/s) = 3.13854 3.92850 3.55553
# Velocity P-wave (km/s) = 5.25295 6.41991 5.86552
#
# Compressibility (1/GPa) = 0.02853461
#
# Stress axis : x y z
#
# Youngs Moduli (GPa) = 46.74861 67.63268 93.95740
#
# Poissons Ratio (x) = 0.08057 0.28700
# Poissons Ratio (y) = 0.05569 0.46008
# Poissons Ratio (z) = 0.14280 0.33117
#
# Static dielectric constant tensor:
#      x y z
#    x 1.964990 -0.059570 0.044610 
#    y -0.059570 1.885830 0.177560 
#    z 0.044610 0.177560 1.986080 
# 
# From -- ./inp_files/364638.got.cif
#   From: 2010.05.17/outbox.cif.g08.bks.cpg/sg2_183_cif.got.tgz:364638.got - 2010.06.03 11:33:40.
