data_PCOD9052424
_publ_section_title
;
Structure prediction by ZEFSAII (Michael W. Deem and Ramdas Pophale) SiO2 
 PCOD9052424
Probable space group: P -1
;
_chemical_formula_sum "Si O2"
_cell_formula_units_Z 15
_cell_length_a 12.188066
_cell_length_b 16.625925
_cell_length_c 5.474265
_cell_angle_alpha 120.052709
_cell_angle_beta 67.521617
_cell_angle_gamma 138.802434
_cell_volume 632.390701
_symmetry_space_group_name_H-M "P -1"
_symmetry_group_IT_number 2
_symmetry_cell_setting 'triclinic'
loop_
_space_group_symop_operation_xyz
x,y,z
-x,-y,-z
loop_
_atom_site_type_symbol
_atom_site_label
_atom_site_fract_x
_atom_site_fract_y
_atom_site_fract_z
Si Si1 0.500000 0.000000 0.500000
Si Si2 0.378560 0.410297 0.748520
Si Si3 0.894151 0.427671 0.230106
Si Si4 0.161353 0.129028 0.687355
Si Si5 0.241902 0.843672 0.913988
Si Si6 0.300200 0.499228 0.602375
Si Si7 0.026008 0.199004 0.224070
Si Si8 0.705550 0.984072 0.474761
O O1 0.343718 0.879803 0.634823
O O2 0.429413 0.069260 0.698400
O O3 0.235805 0.258120 0.684932
O O4 0.292572 0.461374 0.831737
O O5 0.508659 0.424198 0.490014
O O6 0.500000 0.500000 0.000000
O O7 0.819213 0.283890 0.101531
O O8 0.753145 0.429526 0.327464
O O9 0.000000 0.500000 0.500000
O O10 0.000000 0.500000 0.000000
O O11 0.291934 0.117241 0.581220
O O12 0.108718 0.145639 0.013940
O O13 0.000000 0.000000 0.500000
O O14 0.088312 0.825238 0.936741
O O15 0.339617 0.955003 0.211749
O O16 0.169577 0.353184 0.378535
O O17 0.891008 0.108811 0.413432
#
# Coordination Sequence:
#
# PCOD9052424 Si02
#       8
#     1   2   2   2   2   2   2   2
#     4  10  26  46  68  96 150 190 250 300 384 452
#     4  11  26  47  70 104 147 197 242 320 381 450
#     4  12  28  46  79 116 147 202 260 316 387 462
#     4  12  24  43  75 102 140 190 252 306 379 455
#     4  11  24  47  71 105 148 197 249 319 381 457
#     4  11  25  47  71 104 149 194 251 312 384 460
#     4  11  22  43  73 103 146 187 252 315 378 451
#     4  11  24  44  68 102 142 192 243 314 378 453
#
# _framework density 23.719512999999999
#
# number of rings (size 3 to 8) (size 9 to 14) (size 15 to 20)
#    0.000    0.800    4.000    2.400    7.467    0.000 
#    2.400    0.000    0.000    0.000    0.000    0.000 
#    0.000    0.000    0.000    0.000    0.000    0.000 
#
# Total GULP energy -83511.904273 kJ/mol
# GULP energy per Si atom -5567.460285 kJ/mol
# Density = 2.366553 g / cm^3
# Si number density = 23.719513 Si / 1000 Ang^3
#
#
#
# Elastic Constant Matrix: (Units=GPa)
#
#
# Indices 1 2 3 4 5 6 
#
# 1 114.3432 19.3885 -1.0402 11.1682 -22.8962 -31.8973
# 2 19.3885 74.6430 20.5207 -17.3156 -4.3212 -14.6413
# 3 -1.0402 20.5207 59.0675 -0.3392 -14.0098 -4.0459
# 4 11.1682 -17.3156 -0.3392 40.0856 8.0701 -8.9238
# 5 -22.8962 -4.3212 -14.0098 8.0701 27.0984 0.3822
# 6 -31.8973 -14.6413 -4.0459 -8.9238 0.3822 52.2561
#
#
#
# Elastic Compliance Matrix: (Units=1/GPa)
#
#
# Indices 1 2 3 4 5 6 
#
# 1 0.016840 -0.006098 0.007596 -0.009638 0.019950 0.007367
# 2 -0.006098 0.020923 -0.009629 0.013705 -0.010930 0.003815
# 3 0.007596 -0.009629 0.025461 -0.009812 0.020939 0.002081
# 4 -0.009638 0.013705 -0.009812 0.038928 -0.022680 0.004011
# 5 0.019950 -0.010930 0.020939 -0.022680 0.069506 0.006355
# 6 0.007367 0.003815 0.002081 0.004011 0.006355 0.025502
#
#
# Mechanical properties :
#
#
# Convention : Reuss Voigt Hill
#
# Bulk Modulus (GPa) = 21.29352 36.19907 28.74629
# Shear Modulus (GPa) = 21.82684 37.83369 29.83026
#
# Velocity S-wave (km/s) = 3.03678 3.99813 3.55015
# Velocity P-wave (km/s) = 4.61441 6.05044 5.38055
#
# Compressibility (1/GPa) = 0.04696265
#
# Stress axis : x y z
#
# Youngs Moduli (GPa) = 59.38254 47.79403 39.27532
#
# Poissons Ratio (x) = 0.29147 -0.29834
# Poissons Ratio (y) = 0.36214 0.37817
# Poissons Ratio (z) = -0.45108 0.46019
#
# Static dielectric constant tensor:
#      x y z
#    x 1.647770 0.096150 -0.253120 
#    y 0.096150 1.855250 0.010810 
#    z -0.253120 0.010810 1.704230 
# 
# From -- ./inp_files/76663.got.cif
#   From: 2010.05.17/outbox.cif.g08.bks.cpg/sg2_39_cif.got.tgz:76663.got - 2010.06.03 11:33:40.
