data_PCOD9052033
_publ_section_title
;
Structure prediction by ZEFSAII (Michael W. Deem and Ramdas Pophale) SiO2 
 PCOD9052033
Probable space group: P -1
;
_chemical_formula_sum "Si O2"
_cell_formula_units_Z 16
_cell_length_a 10.155717
_cell_length_b 20.944344
_cell_length_c 5.007213
_cell_angle_alpha 59.545636
_cell_angle_beta 107.026604
_cell_angle_gamma 136.016453
_cell_volume 632.973669
_symmetry_space_group_name_H-M "P -1"
_symmetry_group_IT_number 2
_symmetry_cell_setting 'triclinic'
loop_
_space_group_symop_operation_xyz
x,y,z
-x,-y,-z
loop_
_atom_site_type_symbol
_atom_site_label
_atom_site_fract_x
_atom_site_fract_y
_atom_site_fract_z
Si Si1 0.620815 0.894830 0.882424
Si Si2 0.653243 0.583996 0.187450
Si Si3 0.034618 0.786670 0.131645
Si Si4 0.782257 0.222820 0.240249
Si Si5 0.864708 0.428751 0.822874
Si Si6 0.389677 0.580921 0.659645
Si Si7 0.986610 0.076625 0.449703
Si Si8 0.594811 0.785839 0.590172
O O1 0.441247 0.875526 0.726003
O O2 0.616584 0.822892 0.825983
O O3 0.582046 0.851663 0.247730
O O4 0.821945 0.009778 0.713540
O O5 0.500000 0.500000 0.500000
O O6 0.809268 0.687497 0.224110
O O7 0.738789 0.541722 0.187280
O O8 0.564389 0.600912 0.863475
O O9 0.143852 0.787408 0.428658
O O10 0.068914 0.885334 0.888280
O O11 0.101475 0.771445 0.936645
O O12 0.813060 0.323049 0.038362
O O13 0.673422 0.405424 0.689619
O O14 0.000000 0.500000 0.500000
O O15 0.000000 0.500000 0.000000
O O16 0.417016 0.666498 0.667592
O O17 0.202132 0.174707 0.461358
O O18 0.000000 0.000000 0.500000
#
# Coordination Sequence:
#
# PCOD9052033 Si02
#       8
#     2   2   2   2   2   2   2   2
#     4  11  25  45  75 106 142 187 246 297 360 435
#     4  11  27  44  71 107 148 192 243 306 370 433
#     4  12  28  49  71 106 154 185 243 307 367 435
#     4  12  27  47  70 106 150 197 238 299 364 434
#     4  12  27  45  71 103 146 196 248 292 350 438
#     4  11  25  43  72 104 144 195 240 301 364 431
#     4  10  25  49  78 109 141 188 244 310 373 432
#     4  11  23  44  73 108 141 180 245 305 358 424
#
# _framework density 25.277509999999999
#
# number of rings (size 3 to 8) (size 9 to 14) (size 15 to 20)
#    0.000    0.750    2.500    3.375   10.500    5.000 
#    0.000    0.000    0.000    0.000    0.000    0.000 
#    0.000    0.000    0.000    0.000    0.000    0.000 
#
# Total GULP energy -89352.771304 kJ/mol
# GULP energy per Si atom -5584.548206 kJ/mol
# Density = 2.521998 g / cm^3
# Si number density = 25.277510 Si / 1000 Ang^3
#
#
#
# Elastic Constant Matrix: (Units=GPa)
#
#
# Indices 1 2 3 4 5 6 
#
# 1 75.9766 40.2860 66.5183 -0.5624 14.1715 12.9212
# 2 40.2860 82.4490 36.4194 2.6130 5.5501 -4.1380
# 3 66.5183 36.4194 168.8684 27.1669 42.4289 -10.3454
# 4 -0.5624 2.6130 27.1669 60.8178 0.5864 8.9026
# 5 14.1715 5.5501 42.4289 0.5864 56.7237 1.1602
# 6 12.9212 -4.1380 -10.3454 8.9026 1.1602 34.6278
#
#
#
# Elastic Compliance Matrix: (Units=1/GPa)
#
#
# Indices 1 2 3 4 5 6 
#
# 1 0.037981 -0.013082 -0.016666 0.011813 0.004624 -0.023907
# 2 -0.013082 0.018012 0.002430 -0.003236 -0.000455 0.008607
# 3 -0.016666 0.002430 0.016562 -0.009656 -0.008653 0.014230
# 4 0.011813 -0.003236 -0.009656 0.022971 0.004632 -0.013740
# 5 0.004624 -0.000455 -0.008653 0.004632 0.023073 -0.006329
# 6 -0.023907 0.008607 0.014230 -0.013740 -0.006329 0.046824
#
#
# Mechanical properties :
#
#
# Convention : Reuss Voigt Hill
#
# Bulk Modulus (GPa) = 55.80454 68.19348 61.99901
# Shear Modulus (GPa) = 22.12090 42.70523 32.41306
#
# Velocity S-wave (km/s) = 2.96145 4.11476 3.58479
# Velocity P-wave (km/s) = 5.81535 7.04354 6.45871
#
# Compressibility (1/GPa) = 0.01791969
#
# Stress axis : x y z
#
# Youngs Moduli (GPa) = 26.32919 55.51804 60.37892
#
# Poissons Ratio (x) = 0.72626 1.00630
# Poissons Ratio (y) = 0.34443 -0.14675
# Poissons Ratio (z) = 0.43881 -0.13493
#
# Static dielectric constant tensor:
#      x y z
#    x 2.135600 0.045710 -0.051710 
#    y 0.045710 2.032080 -0.034500 
#    z -0.051710 -0.034500 1.936910 
# 
# From -- ./inp_files/83957.got.cif
#   From: 2010.05.17/outbox.cif.g08.bks.cpg/sg2_42_cif.got.tgz:83957.got - 2010.06.03 11:33:40.
