data_PCOD9052534
_publ_section_title
;
Structure prediction by ZEFSAII (Michael W. Deem and Ramdas Pophale) SiO2 
 PCOD9052534
Probable space group: P -1
;
_chemical_formula_sum "Si O2"
_cell_formula_units_Z 15
_cell_length_a 5.447284
_cell_length_b 11.652606
_cell_length_c 12.645689
_cell_angle_alpha 61.030159
_cell_angle_beta 58.029903
_cell_angle_gamma 67.433682
_cell_volume 586.906746
_symmetry_space_group_name_H-M "P -1"
_symmetry_group_IT_number 2
_symmetry_cell_setting 'triclinic'
loop_
_space_group_symop_operation_xyz
x,y,z
-x,-y,-z
loop_
_atom_site_type_symbol
_atom_site_label
_atom_site_fract_x
_atom_site_fract_y
_atom_site_fract_z
Si Si1 0.006394 0.649893 0.467785
Si Si2 0.597763 0.008802 0.804714
Si Si3 0.000000 0.000000 0.500000
Si Si4 0.686106 0.402179 0.919006
Si Si5 0.140433 0.850720 0.885041
Si Si6 0.455327 0.717303 0.200873
Si Si7 0.173552 0.549262 0.683896
Si Si8 0.380072 0.770822 0.649490
O O1 0.699402 0.724801 0.548714
O O2 0.000000 0.500000 0.500000
O O3 0.114273 0.727386 0.310968
O O4 0.211425 0.632189 0.533385
O O5 0.315389 0.939227 0.878566
O O6 0.847004 0.925080 0.861708
O O7 0.475592 0.146947 0.829983
O O8 0.765214 0.026897 0.647774
O O9 0.777748 0.102114 0.433826
O O10 0.515509 0.325376 0.908453
O O11 0.865443 0.498711 0.772003
O O12 0.500000 0.500000 0.000000
O O13 0.895156 0.284963 0.986117
O O14 0.376928 0.804340 0.757948
O O15 0.603171 0.585511 0.288699
O O16 0.199685 0.650114 0.727656
#
# Coordination Sequence:
#
# PCOD9052534 Si02
#       8
#     2   2   1   2   2   2   2   2
#     4  12  24  43  72 118 156 191 248 327 400 467
#     4  11  29  50  77 114 156 208 258 319 389 467
#     4  10  26  46  78 112 154 208 248 316 384 480
#     4  12  29  49  78 108 148 204 267 323 387 462
#     4  11  29  51  76 112 156 211 260 320 380 464
#     4  12  28  46  77 114 151 205 255 322 391 469
#     4  12  25  47  76 112 150 199 255 329 392 463
#     4  11  26  47  77 114 156 199 257 318 397 466
#
# _framework density 25.557722999999999
#
# number of rings (size 3 to 8) (size 9 to 14) (size 15 to 20)
#    0.000    0.533    2.667    2.800   16.800    3.200 
#    0.000    0.000    0.000    0.000    0.000    0.000 
#    0.000    0.000    0.000    0.000    0.000    0.000 
#
# Total GULP energy -83801.653031 kJ/mol
# GULP energy per Si atom -5586.776869 kJ/mol
# Density = 2.549955 g / cm^3
# Si number density = 25.557723 Si / 1000 Ang^3
#
#
#
# Elastic Constant Matrix: (Units=GPa)
#
#
# Indices 1 2 3 4 5 6 
#
# 1 95.1665 53.7980 15.7332 -1.8984 13.0425 14.8545
# 2 53.7980 113.9726 33.9261 15.3332 18.4117 15.0846
# 3 15.7332 33.9261 94.2870 7.4688 11.2044 2.1861
# 4 -1.8984 15.3332 7.4688 38.5138 -6.0000 1.5552
# 5 13.0425 18.4117 11.2044 -6.0000 24.6153 -5.0762
# 6 14.8545 15.0846 2.1861 1.5552 -5.0762 59.8655
#
#
#
# Elastic Compliance Matrix: (Units=1/GPa)
#
#
# Indices 1 2 3 4 5 6 
#
# 1 0.015170 -0.006865 0.000058 0.003152 -0.002644 -0.002343
# 2 -0.006865 0.015671 -0.002755 -0.007364 -0.009189 -0.002733
# 3 0.000058 -0.002755 0.012214 -0.001890 -0.004002 -0.000056
# 4 0.003152 -0.007364 -0.001890 0.031329 0.012624 0.001399
# 5 -0.002644 -0.009189 -0.004002 0.012624 0.055341 0.007482
# 6 -0.002343 -0.002733 -0.000056 0.001399 0.007482 0.018574
#
#
# Mechanical properties :
#
#
# Convention : Reuss Voigt Hill
#
# Bulk Modulus (GPa) = 41.78523 56.70449 49.24486
# Shear Modulus (GPa) = 28.50626 37.93017 33.21822
#
# Velocity S-wave (km/s) = 3.34334 3.85658 3.60909
# Velocity P-wave (km/s) = 5.59363 6.48583 6.05618
#
# Compressibility (1/GPa) = 0.02393190
#
# Stress axis : x y z
#
# Youngs Moduli (GPa) = 65.92008 63.81138 81.87253
#
# Poissons Ratio (x) = 0.43804 -0.00471
# Poissons Ratio (y) = 0.45251 0.22553
# Poissons Ratio (z) = -0.00379 0.17577
#
# Static dielectric constant tensor:
#      x y z
#    x 2.189340 0.070440 -0.090020 
#    y 0.070440 2.011680 0.040900 
#    z -0.090020 0.040900 2.098500 
# 
# From -- ./inp_files/363788.got.cif
#   From: 2010.05.17/outbox.cif.g08.bks.cpg/sg2_182_cif.got.tgz:363788.got - 2010.06.03 11:33:40.
