data_PCOD9052840
_publ_section_title
;
Structure prediction by ZEFSAII (Michael W. Deem and Ramdas Pophale) SiO2 
 PCOD9052840
Probable space group: P -1
;
_chemical_formula_sum "Si O2"
_cell_formula_units_Z 11
_cell_length_a 12.188964
_cell_length_b 9.586704
_cell_length_c 4.925357
_cell_angle_alpha 75.209251
_cell_angle_beta 96.964196
_cell_angle_gamma 130.165730
_cell_volume 424.507446
_symmetry_space_group_name_H-M "P -1"
_symmetry_group_IT_number 2
_symmetry_cell_setting 'triclinic'
loop_
_space_group_symop_operation_xyz
x,y,z
-x,-y,-z
loop_
_atom_site_type_symbol
_atom_site_label
_atom_site_fract_x
_atom_site_fract_y
_atom_site_fract_z
Si Si1 0.219207 0.912511 0.556671
Si Si2 0.340119 0.878921 0.113464
Si Si3 0.218184 0.514629 0.951593
Si Si4 0.834614 0.820154 0.565630
Si Si5 0.597456 0.529511 0.261628
Si Si6 0.000000 0.500000 0.500000
O O1 0.259530 0.928344 0.874977
O O2 0.069801 0.709136 0.547219
O O3 0.232572 0.088325 0.386115
O O4 0.326660 0.909750 0.404373
O O5 0.256608 0.661737 0.125714
O O6 0.500000 0.000000 0.000000
O O7 0.354165 0.591329 0.756946
O O8 0.092151 0.480651 0.758568
O O9 0.185171 0.337158 0.179424
O O10 0.752101 0.721454 0.307717
O O11 0.000000 0.000000 0.500000
O O12 0.500000 0.500000 0.500000
O O13 0.500000 0.500000 0.000000
#
# Coordination Sequence:
#
# PCOD9052840 Si02
#       6
#     2   2   2   2   2   1
#     4  11  28  47  78 114 157 210 269 335 409 491
#     4  11  28  49  77 113 161 211 269 331 418 505
#     4  11  28  52  85 117 169 221 283 351 430 500
#     4  12  30  51  86 125 168 224 293 349 423 507
#     4  12  28  51  82 123 172 220 277 351 433 503
#     4  10  26  52  78 114 164 212 274 346 422 496
#
# _framework density 25.912386999999999
#
# number of rings (size 3 to 8) (size 9 to 14) (size 15 to 20)
#    0.000    0.727    1.818    1.636   17.818    2.909 
#    0.000    0.000    0.000    0.000    0.000    0.000 
#    0.000    0.000    0.000    0.000    0.000    0.000 
#
# Total GULP energy -61368.063115 kJ/mol
# GULP energy per Si atom -5578.914829 kJ/mol
# Density = 2.585341 g / cm^3
# Si number density = 25.912387 Si / 1000 Ang^3
#
#
#
# Elastic Constant Matrix: (Units=GPa)
#
#
# Indices 1 2 3 4 5 6 
#
# 1 94.4109 35.5694 53.5767 -4.6059 16.4959 -24.5753
# 2 35.5694 121.4075 67.0676 -10.0041 44.7149 -7.7681
# 3 53.5767 67.0676 158.2687 10.4037 31.6377 -11.0359
# 4 -4.6059 -10.0041 10.4037 55.1341 -6.0279 15.8092
# 5 16.4959 44.7149 31.6377 -6.0279 55.9794 -1.0307
# 6 -24.5753 -7.7681 -11.0359 15.8092 -1.0307 61.4902
#
#
#
# Elastic Compliance Matrix: (Units=1/GPa)
#
#
# Indices 1 2 3 4 5 6 
#
# 1 0.014817 -0.001584 -0.003844 0.000159 -0.000820 0.004977
# 2 -0.001584 0.014135 -0.003963 0.002356 -0.008336 -0.000304
# 3 -0.003844 -0.003963 0.009873 -0.003235 -0.001620 0.000540
# 4 0.000159 0.002356 -0.003235 0.021016 0.002060 -0.005588
# 5 -0.000820 -0.008336 -0.001620 0.002060 0.025868 -0.001767
# 6 0.004977 -0.000304 0.000540 -0.005588 -0.001767 0.019717
#
#
# Mechanical properties :
#
#
# Convention : Reuss Voigt Hill
#
# Bulk Modulus (GPa) = 49.89488 76.27939 63.08714
# Shear Modulus (GPa) = 38.19972 49.04562 43.62267
#
# Velocity S-wave (km/s) = 3.84368 4.35529 4.10746
# Velocity P-wave (km/s) = 6.24464 7.40221 6.84793
#
# Compressibility (1/GPa) = 0.02004214
#
# Stress axis : x y z
#
# Youngs Moduli (GPa) = 67.49143 70.74606 101.28349
#
# Poissons Ratio (x) = 0.11206 0.38934
# Poissons Ratio (y) = 0.10690 0.40143
# Poissons Ratio (z) = 0.25944 0.28040
#
# Static dielectric constant tensor:
#      x y z
#    x 2.506850 0.247860 -0.314450 
#    y 0.247860 2.200840 -0.252480 
#    z -0.314450 -0.252480 2.181290 
# 
# From -- ./inp_files/59068.got.cif
#   From: 2010.05.17/outbox.cif.g08.bks.cpg/sg2_30_cif.got.tgz:59068.got - 2010.06.03 11:33:40.
