data_PCOD9052582
_publ_section_title
;
Structure prediction by ZEFSAII (Michael W. Deem and Ramdas Pophale) SiO2 
 PCOD9052582
Probable space group: P -1
;
_chemical_formula_sum "Si O2"
_cell_formula_units_Z 16
_cell_length_a 8.911948
_cell_length_b 19.374570
_cell_length_c 5.006833
_cell_angle_alpha 117.266318
_cell_angle_beta 57.786245
_cell_angle_gamma 95.918551
_cell_volume 638.610601
_symmetry_space_group_name_H-M "P -1"
_symmetry_group_IT_number 2
_symmetry_cell_setting 'triclinic'
loop_
_space_group_symop_operation_xyz
x,y,z
-x,-y,-z
loop_
_atom_site_type_symbol
_atom_site_label
_atom_site_fract_x
_atom_site_fract_y
_atom_site_fract_z
Si Si1 0.343732 0.211356 0.071218
Si Si2 0.187982 0.383488 0.746576
Si Si3 0.522055 0.053981 0.826436
Si Si4 0.008076 0.167754 0.126131
Si Si5 0.553923 0.383972 0.671004
Si Si6 0.153699 0.521609 0.592498
Si Si7 0.674321 0.283796 0.868065
Si Si8 0.923789 0.078997 0.546643
O O1 0.252919 0.295041 0.428300
O O2 0.204233 0.189409 0.951614
O O3 0.382911 0.136628 0.097576
O O4 0.537513 0.225168 0.814239
O O5 0.338137 0.395710 0.847386
O O6 0.195962 0.452189 0.644977
O O7 0.974816 0.398054 0.034564
O O8 0.718346 0.075745 0.675923
O O9 0.500000 0.000000 0.500000
O O10 0.500000 0.000000 0.000000
O O11 0.871091 0.239523 0.520704
O O12 0.014033 0.096757 0.212176
O O13 0.938856 0.146619 0.868000
O O14 0.660639 0.453860 0.625858
O O15 0.609154 0.358759 0.873431
O O16 0.635381 0.313055 0.259749
O O17 0.000000 0.500000 0.500000
O O18 0.000000 0.000000 0.500000
#
# Coordination Sequence:
#
# PCOD9052582 Si02
#       8
#     2   2   2   2   2   2   2   2
#     4  11  26  48  75 107 145 191 248 292 373 430
#     4  10  26  47  71 107 147 194 242 302 359 438
#     4  12  26  47  74 107 146 191 241 302 357 432
#     4  12  25  44  72 101 144 185 230 306 352 432
#     4  11  26  45  75 101 149 187 243 294 365 425
#     4  11  26  46  72 109 146 194 244 302 362 435
#     4  11  26  45  73 109 140 189 239 305 354 437
#     4  12  25  46  69 105 143 184 240 293 369 431
#
# _framework density 25.054389
#
# number of rings (size 3 to 8) (size 9 to 14) (size 15 to 20)
#    0.000    0.750    1.250    4.500   10.500    2.500 
#    0.000    0.000    0.000    0.000    0.000    0.000 
#    0.000    0.000    0.000    0.000    0.000    0.000 
#
# Total GULP energy -89621.144618 kJ/mol
# GULP energy per Si atom -5601.321539 kJ/mol
# Density = 2.499736 g / cm^3
# Si number density = 25.054389 Si / 1000 Ang^3
#
#
#
# Elastic Constant Matrix: (Units=GPa)
#
#
# Indices 1 2 3 4 5 6 
#
# 1 117.5737 27.3497 27.3874 9.0880 -6.0810 20.6490
# 2 27.3497 89.2007 16.2770 12.2616 -7.8466 -1.4485
# 3 27.3874 16.2770 73.3587 9.8521 -3.5007 -7.1043
# 4 9.0880 12.2616 9.8521 42.9067 -4.8507 -11.0210
# 5 -6.0810 -7.8466 -3.5007 -4.8507 50.7448 3.8387
# 6 20.6490 -1.4485 -7.1043 -11.0210 3.8387 59.7711
#
#
#
# Elastic Compliance Matrix: (Units=1/GPa)
#
#
# Indices 1 2 3 4 5 6 
#
# 1 0.010944 -0.002421 -0.003709 -0.001881 0.000856 -0.004682
# 2 -0.002421 0.012689 -0.001470 -0.002521 0.001298 0.000421
# 3 -0.003709 -0.001470 0.015846 -0.001705 0.000046 0.002812
# 4 -0.001881 -0.002521 -0.001705 0.026296 0.001392 0.005145
# 5 0.000856 0.001298 0.000046 0.001392 0.020244 -0.001302
# 6 -0.004682 0.000421 0.002812 0.005145 -0.001302 0.019725
#
#
# Mechanical properties :
#
#
# Convention : Reuss Voigt Hill
#
# Bulk Modulus (GPa) = 41.18814 46.90680 44.04747
# Shear Modulus (GPa) = 38.74857 44.62579 41.68718
#
# Velocity S-wave (km/s) = 3.93692 4.22495 4.08348
# Velocity P-wave (km/s) = 6.09434 6.52403 6.31284
#
# Compressibility (1/GPa) = 0.02427883
#
# Stress axis : x y z
#
# Youngs Moduli (GPa) = 91.37158 78.80957 63.10740
#
# Poissons Ratio (x) = 0.19081 0.23405
# Poissons Ratio (y) = 0.22122 0.09279
# Poissons Ratio (z) = 0.33887 0.11587
#
# Static dielectric constant tensor:
#      x y z
#    x 1.964230 0.017900 -0.032500 
#    y 0.017900 2.021240 -0.027330 
#    z -0.032500 -0.027330 2.245650 
# 
# From -- ./inp_files/48806.got.cif
#   From: 2010.05.17/outbox.cif.g08.bks.cpg/sg2_25_cif.got.tgz:48806.got - 2010.06.03 11:33:40.
