data_PCOD9052666
_publ_section_title
;
Structure prediction by ZEFSAII (Michael W. Deem and Ramdas Pophale) SiO2 
 PCOD9052666
Probable space group: P -1
;
_chemical_formula_sum "Si O2"
_cell_formula_units_Z 15
_cell_length_a 20.885043
_cell_length_b 8.394504
_cell_length_c 12.568167
_cell_angle_alpha 37.398449
_cell_angle_beta 155.250053
_cell_angle_gamma 136.515088
_cell_volume 560.206836
_symmetry_space_group_name_H-M "P -1"
_symmetry_group_IT_number 2
_symmetry_cell_setting 'triclinic'
loop_
_space_group_symop_operation_xyz
x,y,z
-x,-y,-z
loop_
_atom_site_type_symbol
_atom_site_label
_atom_site_fract_x
_atom_site_fract_y
_atom_site_fract_z
Si Si1 0.500000 0.000000 0.500000
Si Si2 0.256905 0.450609 0.906123
Si Si3 0.268755 0.390700 0.205085
Si Si4 0.335045 0.046423 0.677768
Si Si5 0.794802 0.716114 0.443032
Si Si6 0.038423 0.769589 0.096774
Si Si7 0.909689 0.009081 0.176757
Si Si8 0.615125 0.076273 0.828047
O O1 0.532694 0.991010 0.426797
O O2 0.582962 0.696498 0.798850
O O3 0.255942 0.759856 0.718856
O O4 0.123966 0.301150 0.717662
O O5 0.231744 0.393108 0.023534
O O6 0.371447 0.646969 0.243731
O O7 0.335211 0.151406 0.502139
O O8 0.107335 0.420449 0.005578
O O9 0.262918 0.260933 0.534849
O O10 0.500000 0.000000 0.000000
O O11 0.822739 0.431202 0.587995
O O12 0.952833 0.890875 0.594996
O O13 0.676603 0.863266 0.112570
O O14 0.049543 0.889932 0.932406
O O15 0.000000 0.000000 0.000000
O O16 0.737748 0.104649 0.897747
#
# Coordination Sequence:
#
# PCOD9052666 Si02
#       8
#     1   2   2   2   2   2   2   2
#     4  10  26  48  72 104 148 202 260 310 376 448
#     4  11  26  49  75 111 153 206 254 318 377 457
#     4  12  24  47  77 108 154 201 254 315 384 450
#     4  12  28  47  76 115 149 205 264 312 377 465
#     4  12  25  46  75 114 153 203 253 313 389 458
#     4  12  25  44  72 115 153 197 250 312 385 457
#     4  11  23  45  72 107 154 197 249 315 379 448
#     4  11  24  45  76 107 145 207 253 314 384 458
#
# _framework density 26.775825000000001
#
# number of rings (size 3 to 8) (size 9 to 14) (size 15 to 20)
#    0.000    0.533    5.333    2.400    1.867    4.800 
#    0.000    0.667    0.000    0.000    0.000    0.000 
#    0.000    0.000    0.000    0.000    0.000    0.000 
#
# Total GULP energy -83697.043524 kJ/mol
# GULP energy per Si atom -5579.802902 kJ/mol
# Density = 2.671488 g / cm^3
# Si number density = 26.775825 Si / 1000 Ang^3
#
#
#
# Elastic Constant Matrix: (Units=GPa)
#
#
# Indices 1 2 3 4 5 6 
#
# 1 -211.9791 -175.5527 -31.4918 287.4891 84.6711 24.0408
# 2 -175.5527 -1.0731 13.0372 153.4016 44.6490 5.6370
# 3 -31.4918 13.0372 105.0324 -3.2122 -8.0380 -9.5799
# 4 287.4891 153.4016 -3.2122 -249.2215 -85.6752 -25.5209
# 5 84.6711 44.6490 -8.0380 -85.6752 28.5021 -9.4209
# 6 24.0408 5.6370 -9.5799 -25.5209 -9.4209 36.4115
#
#
#
# Elastic Compliance Matrix: (Units=1/GPa)
#
#
# Indices 1 2 3 4 5 6 
#
# 1 0.009894 -0.000095 0.003714 0.010086 0.002874 0.002272
# 2 -0.000095 0.011237 -0.000880 0.006037 0.001470 0.002703
# 3 0.003714 -0.000880 0.011260 0.002547 0.002165 0.002992
# 4 0.010086 0.006037 0.002547 0.012008 -0.002311 0.000895
# 5 0.002874 0.001470 0.002165 -0.002311 0.018439 0.001596
# 6 0.002272 0.002703 0.002992 0.000895 0.001596 0.027372
#
#
# Mechanical properties :
#
#
# Convention : Reuss Voigt Hill
#
# Bulk Modulus (GPa) = 26.40625 -55.11492 -14.35434
# Shear Modulus (GPa) = 51.35901 -31.12909 10.11496
#
# Velocity S-wave (km/s) = 4.38438 -3.41336 1.94573
# Velocity P-wave (km/s) = 5.95934 6.01359 0.56989
#
# Compressibility (1/GPa) = 0.03786982
#
# Stress axis : x y z
#
# Youngs Moduli (GPa) = 101.07522 88.99148 88.80971
#
# Poissons Ratio (x) = 0.00842 -0.32982
# Poissons Ratio (y) = 0.00957 0.07811
# Poissons Ratio (z) = -0.37537 0.07827
#
# Static dielectric constant tensor:
#      x y z
#    x 1.966480 0.604400 0.696290 
#    y 0.604400 -0.033310 -1.922500 
#    z 0.696290 -1.922500 0.373330 
# 
# From -- ./inp_files/469799.got.cif
#   From: 2010.05.17/outbox.cif.g08.bks.cpg/sg2_235_cif.got.tgz:469799.got - 2010.06.03 11:33:40.
