data_PCOD9052112
_publ_section_title
;
Structure prediction by ZEFSAII (Michael W. Deem and Ramdas Pophale) SiO2 
 PCOD9052112
Probable space group: P -1
;
_chemical_formula_sum "Si O2"
_cell_formula_units_Z 14
_cell_length_a 4.934180
_cell_length_b 9.626708
_cell_length_c 11.124525
_cell_angle_alpha 84.160922
_cell_angle_beta 71.676265
_cell_angle_gamma 90.905083
_cell_volume 498.379141
_symmetry_space_group_name_H-M "P -1"
_symmetry_group_IT_number 2
_symmetry_cell_setting 'triclinic'
loop_
_space_group_symop_operation_xyz
x,y,z
-x,-y,-z
loop_
_atom_site_type_symbol
_atom_site_label
_atom_site_fract_x
_atom_site_fract_y
_atom_site_fract_z
Si Si1 0.781524 0.794960 0.294823
Si Si2 0.767105 0.605263 0.978879
Si Si3 0.576121 0.466390 0.631653
Si Si4 0.325618 0.810903 0.084146
Si Si5 0.551919 0.849575 0.558414
Si Si6 0.550289 0.061923 0.183615
Si Si7 0.937553 0.369240 0.303612
O O1 0.491596 0.697563 0.326548
O O2 0.793834 0.796750 0.439027
O O3 0.052592 0.737178 0.193813
O O4 0.617094 0.729169 0.059785
O O5 0.878883 0.670719 0.832174
O O6 0.500000 0.500000 0.000000
O O7 0.000000 0.500000 0.000000
O O8 0.500000 0.500000 0.500000
O O9 0.311166 0.537920 0.724406
O O10 0.862153 0.541052 0.638539
O O11 0.358571 0.959518 0.134093
O O12 0.285951 0.837090 0.944327
O O13 0.739036 0.949132 0.235004
O O14 0.608438 0.864245 0.691346
O O15 0.255318 0.756938 0.601579
O O16 0.500000 0.000000 0.500000
#
# Coordination Sequence:
#
# PCOD9052112 Si02
#       7
#     2   2   2   2   2   2   2
#     4  11  25  47  80 120 167 219 282 345 424 507
#     4  12  30  51  84 122 167 221 278 350 426 505
#     4  12  27  48  82 117 165 216 275 345 422 498
#     4  11  27  48  82 121 165 223 282 355 425 502
#     4  10  25  51  79 118 166 224 281 347 418 501
#     4  10  26  49  77 122 166 226 282 352 418 504
#     4  12  28  51  79 120 165 216 281 346 422 498
#
# _framework density 28.091063999999999
#
# number of rings (size 3 to 8) (size 9 to 14) (size 15 to 20)
#    0.000    0.857    1.429    2.571   12.000    6.286 
#    0.000    0.000    0.000    0.000    0.000    0.000 
#    0.000    0.000    0.000    0.000    0.000    0.000 
#
# Total GULP energy -78409.331977 kJ/mol
# GULP energy per Si atom -5600.666570 kJ/mol
# Density = 2.802713 g / cm^3
# Si number density = 28.091064 Si / 1000 Ang^3
#
#
#
# Elastic Constant Matrix: (Units=GPa)
#
#
# Indices 1 2 3 4 5 6 
#
# 1 163.0637 55.3500 70.0573 -11.8165 -3.7521 2.3063
# 2 55.3500 132.7469 67.5897 -15.8236 -4.8324 4.2820
# 3 70.0573 67.5897 288.6266 -4.2680 -7.7947 -2.2427
# 4 -11.8165 -15.8236 -4.2680 44.3192 5.0599 9.2057
# 5 -3.7521 -4.8324 -7.7947 5.0599 49.5690 -3.6544
# 6 2.3063 4.2820 -2.2427 9.2057 -3.6544 38.5895
#
#
#
# Elastic Compliance Matrix: (Units=1/GPa)
#
#
# Indices 1 2 3 4 5 6 
#
# 1 0.007570 -0.002351 -0.001274 0.001172 -0.000016 -0.000547
# 2 -0.002351 0.009800 -0.001691 0.003069 0.000068 -0.001771
# 3 -0.001274 -0.001691 0.004179 -0.000754 0.000527 0.000736
# 4 0.001172 0.003069 -0.000754 0.025646 -0.002853 -0.006843
# 5 -0.000016 0.000068 0.000527 -0.002853 0.020750 0.002670
# 6 -0.000547 -0.001771 0.000736 -0.006843 0.002670 0.028071
#
#
# Mechanical properties :
#
#
# Convention : Reuss Voigt Hill
#
# Bulk Modulus (GPa) = 91.60322 107.82572 99.71447
# Shear Modulus (GPa) = 45.33611 52.59154 48.96383
#
# Velocity S-wave (km/s) = 4.02169 4.33156 4.17950
# Velocity P-wave (km/s) = 7.36516 7.96770 7.67235
#
# Compressibility (1/GPa) = 0.01091665
#
# Stress axis : x y z
#
# Youngs Moduli (GPa) = 132.09441 102.04370 239.30613
#
# Poissons Ratio (x) = 0.23990 0.30496
# Poissons Ratio (y) = 0.31055 0.40461
# Poissons Ratio (z) = 0.16833 0.17253
#
# Static dielectric constant tensor:
#      x y z
#    x 2.202500 -0.003110 0.046660 
#    y -0.003110 2.118430 0.030070 
#    z 0.046660 0.030070 2.244100 
# 
# From -- ./inp_files/363129.got.cif
#   From: 2010.05.17/outbox.cif.g08.bks.cpg/sg2_182_cif.got.tgz:363129.got - 2010.06.03 11:33:40.
