data_PCOD9052150
_publ_section_title
;
Structure prediction by ZEFSAII (Michael W. Deem and Ramdas Pophale) SiO2 
 PCOD9052150
Probable space group: P -1
;
_chemical_formula_sum "Si O2"
_cell_formula_units_Z 14
_cell_length_a 5.055536
_cell_length_b 6.811418
_cell_length_c 25.259549
_cell_angle_alpha 115.212700
_cell_angle_beta 67.337227
_cell_angle_gamma 132.911220
_cell_volume 570.385790
_symmetry_space_group_name_H-M "P -1"
_symmetry_group_IT_number 2
_symmetry_cell_setting 'triclinic'
loop_
_space_group_symop_operation_xyz
x,y,z
-x,-y,-z
loop_
_atom_site_type_symbol
_atom_site_label
_atom_site_fract_x
_atom_site_fract_y
_atom_site_fract_z
Si Si1 0.802525 0.104876 0.878297
Si Si2 0.495085 0.614489 0.685344
Si Si3 0.759369 0.792873 0.041789
Si Si4 0.499433 0.820894 0.397314
Si Si5 0.665271 0.173551 0.699677
Si Si6 0.535668 0.490283 0.200077
Si Si7 0.437941 0.702134 0.502447
O O1 0.467547 0.113673 0.905456
O O2 0.013755 0.216512 0.930492
O O3 0.071564 0.296954 0.832160
O O4 0.678816 0.796955 0.847166
O O5 0.714512 0.511518 0.632750
O O6 0.483409 0.595487 0.747440
O O7 0.079462 0.379661 0.671064
O O8 0.600745 0.902538 0.693086
O O9 0.500000 0.500000 0.000000
O O10 0.000000 0.000000 0.000000
O O11 0.607885 0.894790 0.335276
O O12 0.649948 0.836999 0.446188
O O13 0.426545 0.040007 0.440663
O O14 0.626329 0.342273 0.765949
O O15 0.500000 0.500000 0.500000
O O16 0.000000 0.500000 0.500000
#
# Coordination Sequence:
#
# PCOD9052150 Si02
#       7
#     2   2   2   2   2   2   2
#     4  12  26  45  78 107 152 192 248 301 362 427
#     4  11  25  44  72 100 149 188 246 298 376 436
#     4  12  26  48  74 110 150 196 246 299 360 427
#     4  10  26  41  68 105 138 193 236 310 358 450
#     4  11  25  44  72 100 149 188 246 298 376 436
#     4  11  26  44  68 113 140 198 242 309 362 441
#     4  11  26  45  72 102 143 184 251 297 374 432
#
# _framework density 24.544792999999999
#
# number of rings (size 3 to 8) (size 9 to 14) (size 15 to 20)
#    0.000    0.857    0.000    5.143   14.000    3.429 
#    0.000    0.000    0.000    0.000    0.000    0.000 
#    0.000    0.000    0.000    0.000    0.000    0.000 
#
# Total GULP energy -78181.016394 kJ/mol
# GULP energy per Si atom -5584.358314 kJ/mol
# Density = 2.448893 g / cm^3
# Si number density = 24.544793 Si / 1000 Ang^3
#
#
#
# Elastic Constant Matrix: (Units=GPa)
#
#
# Indices 1 2 3 4 5 6 
#
# 1 90.4894 41.7564 4.1295 -8.5065 -0.4515 -12.3570
# 2 41.7564 194.8111 27.0723 39.4928 -7.5781 -24.5657
# 3 4.1295 27.0723 70.1951 22.8529 -12.3371 -2.6304
# 4 -8.5065 39.4928 22.8529 38.6655 -11.7258 3.1123
# 5 -0.4515 -7.5781 -12.3371 -11.7258 16.1183 -4.9738
# 6 -12.3570 -24.5657 -2.6304 3.1123 -4.9738 49.4549
#
#
#
# Elastic Compliance Matrix: (Units=1/GPa)
#
#
# Indices 1 2 3 4 5 6 
#
# 1 0.014358 -0.004597 -0.001476 0.010091 0.004783 0.001072
# 2 -0.004597 0.008699 0.000174 -0.011176 -0.002928 0.003590
# 3 -0.001476 0.000174 0.018836 -0.009267 0.008378 0.002145
# 4 0.010091 -0.011176 -0.009267 0.052939 0.025112 -0.004329
# 5 0.004783 -0.002928 0.008378 0.025112 0.087773 0.007433
# 6 0.001072 0.003590 0.002145 -0.004329 0.007433 0.023406
#
#
# Mechanical properties :
#
#
# Convention : Reuss Voigt Hill
#
# Bulk Modulus (GPa) = 33.22882 55.71245 44.47063
# Shear Modulus (GPa) = 21.94514 39.68355 30.81435
#
# Velocity S-wave (km/s) = 2.99337 4.02528 3.54705
# Velocity P-wave (km/s) = 5.05118 6.65969 5.91041
#
# Compressibility (1/GPa) = 0.03009436
#
# Stress axis : x y z
#
# Youngs Moduli (GPa) = 69.64530 114.95764 53.09102
#
# Poissons Ratio (x) = 0.52846 0.07838
# Poissons Ratio (y) = 0.32016 -0.00924
# Poissons Ratio (z) = 0.10281 -0.02000
#
# Static dielectric constant tensor:
#      x y z
#    x 2.118680 0.059430 -0.045290 
#    y 0.059430 1.920740 0.002820 
#    z -0.045290 0.002820 1.936450 
# 
# From -- ./inp_files/125982.got.cif
#   From: 2010.05.17/outbox.cif.g08.bks.cpg/sg2_63_cif.got.tgz:125982.got - 2010.06.03 11:33:40.
