data_PCOD9052272
_publ_section_title
;
Structure prediction by ZEFSAII (Michael W. Deem and Ramdas Pophale) SiO2 
 PCOD9052272
Probable space group: P -1
;
_chemical_formula_sum "Si O2"
_cell_formula_units_Z 13
_cell_length_a 8.195290
_cell_length_b 11.439252
_cell_length_c 9.481538
_cell_angle_alpha 115.912271
_cell_angle_beta 69.338964
_cell_angle_gamma 69.630888
_cell_volume 600.273467
_symmetry_space_group_name_H-M "P -1"
_symmetry_group_IT_number 2
_symmetry_cell_setting 'triclinic'
loop_
_space_group_symop_operation_xyz
x,y,z
-x,-y,-z
loop_
_atom_site_type_symbol
_atom_site_label
_atom_site_fract_x
_atom_site_fract_y
_atom_site_fract_z
Si Si1 0.010018 0.611260 0.776614
Si Si2 0.129748 0.831767 0.958050
Si Si3 0.700888 0.853131 0.772342
Si Si4 0.524568 0.836376 0.365324
Si Si5 0.176455 0.947797 0.298332
Si Si6 0.000000 0.500000 0.000000
Si Si7 0.522361 0.706993 0.574117
O O1 0.008676 0.748840 0.934167
O O2 0.261183 0.475144 0.591522
O O3 0.850257 0.696320 0.740765
O O4 0.944819 0.530604 0.863797
O O5 0.355335 0.726302 0.748685
O O6 0.165164 0.851595 0.121355
O O7 0.000000 0.000000 0.000000
O O8 0.598353 0.813851 0.660936
O O9 0.846978 0.903546 0.693927
O O10 0.500000 0.000000 0.000000
O O11 0.402261 0.860408 0.268815
O O12 0.427127 0.783478 0.489292
O O13 0.773506 0.681646 0.199055
O O14 0.500000 0.000000 0.500000
O O15 0.000000 0.000000 0.500000
#
# Coordination Sequence:
#
# PCOD9052272 Si02
#       7
#     2   2   2   2   2   1   2
#     4  11  25  43  69 101 140 179 232 293 350 417
#     4  12  24  44  69  99 138 183 231 284 351 426
#     4  12  22  43  72 102 132 184 238 285 341 424
#     4  11  24  44  72  99 144 185 237 292 353 424
#     4  12  26  41  70 110 140 182 239 293 357 421
#     4  10  26  44  70 104 138 186 240 290 358 410
#     4  11  24  43  68 100 136 183 234 286 349 415
#
# _framework density 21.656797999999998
#
# number of rings (size 3 to 8) (size 9 to 14) (size 15 to 20)
#    0.000    0.615    4.615    2.769    4.308    0.000 
#    0.000    3.077    0.000    0.000    0.000    0.000 
#    0.000    0.000    0.000    0.000    0.000    0.000 
#
# Total GULP energy -72393.114755 kJ/mol
# GULP energy per Si atom -5568.701135 kJ/mol
# Density = 2.160751 g / cm^3
# Si number density = 21.656798 Si / 1000 Ang^3
#
#
#
# Elastic Constant Matrix: (Units=GPa)
#
#
# Indices 1 2 3 4 5 6 
#
# 1 35.1761 -1.3886 4.2423 1.9679 15.6318 -5.1311
# 2 -1.3886 96.2232 40.8522 -7.6166 -10.6975 -38.7579
# 3 4.2423 40.8522 110.7982 -5.0566 -4.8589 -6.1488
# 4 1.9679 -7.6166 -5.0566 46.0742 1.7203 0.0542
# 5 15.6318 -10.6975 -4.8589 1.7203 38.3639 -8.7226
# 6 -5.1311 -38.7579 -6.1488 0.0542 -8.7226 37.6224
#
#
#
# Elastic Compliance Matrix: (Units=1/GPa)
#
#
# Indices 1 2 3 4 5 6 
#
# 1 0.035260 0.000355 -0.002066 -0.001149 -0.014122 0.001565
# 2 0.000355 0.027686 -0.007805 0.003171 0.013353 0.030386
# 3 -0.002066 -0.007805 0.011551 0.000126 -0.001415 -0.006763
# 4 -0.001149 0.003171 0.000126 0.022245 0.001135 0.003362
# 5 -0.014122 0.013353 -0.001415 0.001135 0.040062 0.020885
# 6 0.001565 0.030386 -0.006763 0.003362 0.020885 0.061828
#
#
# Mechanical properties :
#
#
# Convention : Reuss Voigt Hill
#
# Bulk Modulus (GPa) = 18.02941 36.62326 27.32634
# Shear Modulus (GPa) = 21.17283 37.64487 29.40885
#
# Velocity S-wave (km/s) = 3.13014 4.17375 3.68904
# Velocity P-wave (km/s) = 4.62675 6.33833 5.54893
#
# Compressibility (1/GPa) = 0.05546494
#
# Stress axis : x y z
#
# Youngs Moduli (GPa) = 28.36087 36.11942 86.57470
#
# Poissons Ratio (x) = -0.01283 0.17886
# Poissons Ratio (y) = -0.01007 0.67572
# Poissons Ratio (z) = 0.05859 0.28191
#
# Static dielectric constant tensor:
#      x y z
#    x 1.788710 0.055910 -0.013310 
#    y 0.055910 1.840760 -0.017430 
#    z -0.013310 -0.017430 1.842140 
# 
# From -- ./inp_files/146831.got.cif
#   From: 2010.05.17/outbox.cif.g08.bks.cpg/sg2_74_cif.got.tgz:146831.got - 2010.06.03 11:33:40.
