data_PCOD9052570
_publ_section_title
;
Structure prediction by ZEFSAII (Michael W. Deem and Ramdas Pophale) SiO2 
 PCOD9052570
Probable space group: P -1
;
_chemical_formula_sum "Si O2"
_cell_formula_units_Z 14
_cell_length_a 9.275218
_cell_length_b 5.049084
_cell_length_c 12.279850
_cell_angle_alpha 82.666576
_cell_angle_beta 79.742301
_cell_angle_gamma 106.277190
_cell_volume 533.524555
_symmetry_space_group_name_H-M "P -1"
_symmetry_group_IT_number 2
_symmetry_cell_setting 'triclinic'
loop_
_space_group_symop_operation_xyz
x,y,z
-x,-y,-z
loop_
_atom_site_type_symbol
_atom_site_label
_atom_site_fract_x
_atom_site_fract_y
_atom_site_fract_z
Si Si1 0.402365 0.670155 0.631724
Si Si2 0.743577 0.978496 0.515263
Si Si3 0.804501 0.739296 0.022024
Si Si4 0.042945 0.731737 0.148227
Si Si5 0.612324 0.868174 0.219717
Si Si6 0.999164 0.262679 0.601372
Si Si7 0.385753 0.704893 0.075577
O O1 0.299130 0.766145 0.551518
O O2 0.353601 0.349157 0.689382
O O3 0.577532 0.750780 0.561281
O O4 0.401854 0.865287 0.727321
O O5 0.824678 0.054964 0.617801
O O6 0.874366 0.887158 0.438862
O O7 0.745011 0.924575 0.107884
O O8 0.907323 0.598276 0.087574
O O9 0.650489 0.535768 0.999317
O O10 0.910129 0.935963 0.905980
O O11 0.208061 0.689356 0.116650
O O12 0.984811 0.648462 0.281073
O O13 0.457246 0.694860 0.185349
O O14 0.000000 0.500000 0.500000
O O15 0.500000 0.000000 0.000000
#
# Coordination Sequence:
#
# PCOD9052570 Si02
#       7
#     2   2   2   2   2   2   2
#     4  11  27  46  78 111 151 199 252 322 383 456
#     4  10  26  47  70 108 148 197 258 312 384 450
#     4  11  26  46  74 107 155 200 251 312 386 469
#     4  11  26  47  72 108 153 198 256 311 392 457
#     4  12  26  45  78 112 151 199 255 315 392 457
#     4  11  26  46  76 107 147 200 257 314 384 456
#     4  12  25  45  72 111 152 201 255 315 385 461
#
# _framework density 26.240591999999999
#
# number of rings (size 3 to 8) (size 9 to 14) (size 15 to 20)
#    0.000    0.857    1.429    3.429   12.000    2.286 
#    0.000    0.000    0.000    0.000    0.000    0.000 
#    0.000    0.000    0.000    0.000    0.000    0.000 
#
# Total GULP energy -78413.973572 kJ/mol
# GULP energy per Si atom -5600.998112 kJ/mol
# Density = 2.618087 g / cm^3
# Si number density = 26.240592 Si / 1000 Ang^3
#
#
#
# Elastic Constant Matrix: (Units=GPa)
#
#
# Indices 1 2 3 4 5 6 
#
# 1 198.2532 20.1907 34.9689 6.5916 22.4431 14.2032
# 2 20.1907 84.3540 17.7910 -0.4283 2.1487 12.3478
# 3 34.9689 17.7910 109.6833 -5.1120 10.7144 1.8486
# 4 6.5916 -0.4283 -5.1120 47.3935 3.6861 3.8259
# 5 22.4431 2.1487 10.7144 3.6861 55.0619 7.7804
# 6 14.2032 12.3478 1.8486 3.8259 7.7804 47.5889
#
#
#
# Elastic Compliance Matrix: (Units=1/GPa)
#
#
# Indices 1 2 3 4 5 6 
#
# 1 0.005703 -0.000845 -0.001522 -0.000739 -0.001795 -0.001071
# 2 -0.000845 0.012886 -0.001817 0.000243 0.000623 -0.003142
# 3 -0.001522 -0.001817 0.010091 0.001343 -0.001456 0.000664
# 4 -0.000739 0.000243 0.001343 0.021559 -0.001211 -0.001430
# 5 -0.001795 0.000623 -0.001456 -0.001211 0.019611 -0.002678
# 6 -0.001071 -0.003142 0.000664 -0.001430 -0.002678 0.022675
#
#
# Mechanical properties :
#
#
# Convention : Reuss Voigt Hill
#
# Bulk Modulus (GPa) = 49.23626 59.79907 54.51767
# Shear Modulus (GPa) = 46.44029 51.29818 48.86924
#
# Velocity S-wave (km/s) = 4.21145 4.42624 4.32018
# Velocity P-wave (km/s) = 6.51556 6.99717 6.76066
#
# Compressibility (1/GPa) = 0.02031024
#
# Stress axis : x y z
#
# Youngs Moduli (GPa) = 175.34377 77.60550 99.09954
#
# Poissons Ratio (x) = 0.06560 0.15085
# Poissons Ratio (y) = 0.14822 0.18008
# Poissons Ratio (z) = 0.26691 0.14102
#
# Static dielectric constant tensor:
#      x y z
#    x 2.090020 -0.014770 0.016680 
#    y -0.014770 2.169350 0.042160 
#    z 0.016680 0.042160 2.088030 
# 
# From -- ./inp_files/37658.got.cif
#   From: 2010.05.17/outbox.cif.g08.bks.cpg/sg2_19_cif.got.tgz:37658.got - 2010.06.03 11:33:40.
