data_PCOD9052912
_publ_section_title
;
Structure prediction by ZEFSAII (Michael W. Deem and Ramdas Pophale) SiO2 
 PCOD9052912
Probable space group: P -1
;
_chemical_formula_sum "Si O2"
_cell_formula_units_Z 15
_cell_length_a 17.310619
_cell_length_b 8.828330
_cell_length_c 5.177653
_cell_angle_alpha 96.303759
_cell_angle_beta 99.768895
_cell_angle_gamma 47.606944
_cell_volume 575.896480
_symmetry_space_group_name_H-M "P -1"
_symmetry_group_IT_number 2
_symmetry_cell_setting 'triclinic'
loop_
_space_group_symop_operation_xyz
x,y,z
-x,-y,-z
loop_
_atom_site_type_symbol
_atom_site_label
_atom_site_fract_x
_atom_site_fract_y
_atom_site_fract_z
Si Si1 0.913449 0.819892 0.845736
Si Si2 0.897074 0.034962 0.371094
Si Si3 0.494449 0.187871 0.096390
Si Si4 0.614529 0.126365 0.658992
Si Si5 0.500000 0.500000 0.500000
Si Si6 0.745228 0.665551 0.486322
Si Si7 0.663216 0.474471 0.270157
Si Si8 0.858375 0.590076 0.014716
O O1 0.883626 0.923166 0.567548
O O2 0.844140 0.783882 0.953093
O O3 0.921851 0.941017 0.082245
O O4 0.025282 0.589456 0.844144
O O5 0.783672 0.264399 0.320213
O O6 0.000000 0.000000 0.500000
O O7 0.579685 0.128348 0.922473
O O8 0.380346 0.398873 0.997458
O O9 0.526623 0.230962 0.389621
O O10 0.500000 0.000000 0.000000
O O11 0.617006 0.302787 0.684405
O O12 0.689799 0.897451 0.558872
O O13 0.574281 0.470076 0.297355
O O14 0.664402 0.632706 0.463698
O O15 0.836903 0.528210 0.724843
O O16 0.785111 0.629975 0.211326
#
# Coordination Sequence:
#
# PCOD9052912 Si02
#       8
#     2   2   2   2   1   2   2   2
#     4  11  25  47  73 107 153 194 247 314 367 444
#     4  12  26  47  75 113 156 197 248 303 379 447
#     4  11  23  45  71 100 139 189 247 299 361 433
#     4  11  25  45  70 103 144 188 243 308 362 448
#     4  10  28  46  70 106 150 192 246 300 382 444
#     4  12  25  44  76 107 144 194 255 303 372 446
#     4  11  27  46  75 108 150 201 246 310 375 448
#     4  11  25  45  75 110 144 193 253 309 373 441
#
# _framework density 26.046347000000001
#
# number of rings (size 3 to 8) (size 9 to 14) (size 15 to 20)
#    0.000    0.800    1.333    4.800    5.600    7.467 
#    0.000    0.000    0.000    0.000    0.000    0.000 
#    0.000    0.000    0.000    0.000    0.000    0.000 
#
# Total GULP energy -83589.136403 kJ/mol
# GULP energy per Si atom -5572.609094 kJ/mol
# Density = 2.598706 g / cm^3
# Si number density = 26.046347 Si / 1000 Ang^3
#
#
#
# Elastic Constant Matrix: (Units=GPa)
#
#
# Indices 1 2 3 4 5 6 
#
# 1 107.2778 13.7167 18.8770 1.7362 -11.7940 -4.9495
# 2 13.7167 112.6867 7.4333 -23.8060 -3.2026 -0.3528
# 3 18.8770 7.4333 124.3193 -2.3261 -10.4193 -0.0951
# 4 1.7362 -23.8060 -2.3261 44.7958 0.0833 8.8951
# 5 -11.7940 -3.2026 -10.4193 0.0833 53.3358 -1.8896
# 6 -4.9495 -0.3528 -0.0951 8.8951 -1.8896 30.5650
#
#
#
# Elastic Compliance Matrix: (Units=1/GPa)
#
#
# Indices 1 2 3 4 5 6 
#
# 1 0.010080 -0.001429 -0.001310 -0.001662 0.001969 0.002217
# 2 -0.001429 0.010307 -0.000276 0.005879 0.000176 -0.001813
# 3 -0.001310 -0.000276 0.008377 0.000380 0.001322 -0.000218
# 4 -0.001662 0.005879 0.000380 0.027144 -0.000270 -0.008116
# 5 0.001969 0.000176 0.001322 -0.000270 0.019511 0.001610
# 6 0.002217 -0.001813 -0.000218 -0.008116 0.001610 0.035516
#
#
# Mechanical properties :
#
#
# Convention : Reuss Voigt Hill
#
# Bulk Modulus (GPa) = 43.98354 47.14865 45.56609
# Shear Modulus (GPa) = 40.14678 46.02309 43.08493
#
# Velocity S-wave (km/s) = 3.93027 4.20809 4.07155
# Velocity P-wave (km/s) = 6.12531 6.46157 6.29568
#
# Compressibility (1/GPa) = 0.02273578
#
# Stress axis : x y z
#
# Youngs Moduli (GPa) = 99.20297 97.01676 119.37589
#
# Poissons Ratio (x) = 0.13862 0.15634
# Poissons Ratio (y) = 0.14175 0.03295
# Poissons Ratio (z) = 0.12992 0.02678
#
# Static dielectric constant tensor:
#      x y z
#    x 2.111570 -0.105050 0.034280 
#    y -0.105050 1.897460 -0.146030 
#    z 0.034280 -0.146030 2.046670 
# 
# From -- ./inp_files/106988.got.cif
#   From: 2010.05.17/outbox.cif.g08.bks.cpg/sg2_54_cif.got.tgz:106988.got - 2010.06.03 11:33:40.
