data_PCOD9052959
_publ_section_title
;
Structure prediction by ZEFSAII (Michael W. Deem and Ramdas Pophale) SiO2 
 PCOD9052959
Probable space group: P -1
;
_chemical_formula_sum "Si O2"
_cell_formula_units_Z 16
_cell_length_a 23.743482
_cell_length_b 8.675148
_cell_length_c 9.130808
_cell_angle_alpha 120.046643
_cell_angle_beta 125.989516
_cell_angle_gamma 30.849306
_cell_volume 780.297803
_symmetry_space_group_name_H-M "P -1"
_symmetry_group_IT_number 2
_symmetry_cell_setting 'triclinic'
loop_
_space_group_symop_operation_xyz
x,y,z
-x,-y,-z
loop_
_atom_site_type_symbol
_atom_site_label
_atom_site_fract_x
_atom_site_fract_y
_atom_site_fract_z
Si Si1 0.578821 0.749630 0.125579
Si Si2 0.268277 0.554932 0.314539
Si Si3 0.412564 0.584909 0.591740
Si Si4 0.405058 0.912967 0.144034
Si Si5 0.799951 0.203351 0.010723
Si Si6 0.375935 0.977664 0.536104
Si Si7 0.034040 0.862938 0.148625
Si Si8 0.201051 0.198716 0.117921
O O1 0.489345 0.798101 0.087802
O O2 0.692764 0.443713 0.072306
O O3 0.623015 0.816201 0.331800
O O4 0.500000 0.000000 0.000000
O O5 0.320516 0.620713 0.501244
O O6 0.148284 0.745539 0.302879
O O7 0.359105 0.200429 0.276042
O O8 0.240584 0.665129 0.154779
O O9 0.508691 0.385265 0.769013
O O10 0.359240 0.882891 0.605558
O O11 0.490679 0.343809 0.462517
O O12 0.283700 0.052211 0.029316
O O13 0.912427 0.098178 0.162819
O O14 0.831919 0.930646 0.946765
O O15 0.282880 0.107397 0.332703
O O16 0.089403 0.551965 0.087288
O O17 0.000000 0.000000 0.000000
#
# Coordination Sequence:
#
# PCOD9052959 Si02
#       8
#     2   2   2   2   2   2   2   2
#     4  12  24  37  55  82 130 156 180 227 303 357
#     4  10  17  35  58  86 109 144 196 244 276 324
#     4  10  18  33  58  84 115 143 201 236 276 330
#     4  10  21  31  54  88 112 150 185 237 284 342
#     4  11  21  39  57  84 117 157 186 235 293 342
#     4  10  21  35  57  87 114 155 187 237 284 345
#     4   9  21  36  62  90 108 145 200 251 278 324
#     4  10  21  38  64  85 112 145 207 241 274 332
#
# _framework density 20.504992000000001
#
# number of rings (size 3 to 8) (size 9 to 14) (size 15 to 20)
#    0.000    1.750    3.750    0.750    7.000    0.500 
#    0.000    0.625    0.000    0.750    0.000    0.000 
#    0.000    0.000    0.000    0.000    0.000    0.000 
#
# Total GULP energy -89148.736125 kJ/mol
# GULP energy per Si atom -5571.796008 kJ/mol
# Density = 2.045832 g / cm^3
# Si number density = 20.504992 Si / 1000 Ang^3
#
#
#
# Elastic Constant Matrix: (Units=GPa)
#
#
# Indices 1 2 3 4 5 6 
#
# 1 111.3108 29.0266 6.3915 -8.8805 2.3016 -0.1085
# 2 29.0266 68.3220 9.4963 -23.4736 -3.3322 6.3072
# 3 6.3915 9.4963 25.6016 -4.8926 12.9355 -0.9405
# 4 -8.8805 -23.4736 -4.8926 16.2072 0.7207 5.3581
# 5 2.3016 -3.3322 12.9355 0.7207 28.7445 -8.6308
# 6 -0.1085 6.3072 -0.9405 5.3581 -8.6308 48.7603
#
#
#
# Elastic Compliance Matrix: (Units=1/GPa)
#
#
# Indices 1 2 3 4 5 6 
#
# 1 0.010196 -0.005131 -0.000616 -0.002249 -0.000846 0.000772
# 2 -0.005131 0.036056 -0.003547 0.051590 0.001866 -0.010083
# 3 -0.000616 -0.003547 0.057327 0.014736 -0.028036 -0.005019
# 4 -0.002249 0.051590 0.014736 0.148337 -0.011622 -0.024751
# 5 -0.000846 0.001866 -0.028036 -0.011622 0.050831 0.009490
# 6 0.000772 -0.010083 -0.005019 -0.024751 0.009490 0.026117
#
#
# Mechanical properties :
#
#
# Convention : Reuss Voigt Hill
#
# Bulk Modulus (GPa) = 11.76609 32.78480 22.27545
# Shear Modulus (GPa) = 13.30546 29.43038 21.36792
#
# Velocity S-wave (km/s) = 2.55009 3.79262 3.23163
# Velocity P-wave (km/s) = 3.79753 5.93313 4.98113
#
# Compressibility (1/GPa) = 0.08499003
#
# Stress axis : x y z
#
# Youngs Moduli (GPa) = 98.07599 27.73427 17.44370
#
# Poissons Ratio (x) = 0.14231 0.01075
# Poissons Ratio (y) = 0.50326 0.06188
# Poissons Ratio (z) = 0.06043 0.09839
#
# Static dielectric constant tensor:
#      x y z
#    x 1.775100 0.060140 0.024190 
#    y 0.060140 1.580850 -0.081460 
#    z 0.024190 -0.081460 1.729950 
# 
# From -- ./inp_files/180593.got.cif
#   From: 2010.05.17/outbox.cif.g08.bks.cpg/sg2_91_cif.got.tgz:180593.got - 2010.06.03 11:33:40.
