data_PCOD9052946
_publ_section_title
;
Structure prediction by ZEFSAII (Michael W. Deem and Ramdas Pophale) SiO2 
 PCOD9052946
Probable space group: P -1
;
_chemical_formula_sum "Si O2"
_cell_formula_units_Z 14
_cell_length_a 10.909851
_cell_length_b 12.658359
_cell_length_c 14.639030
_cell_angle_alpha 52.876291
_cell_angle_beta 80.831511
_cell_angle_gamma 36.338839
_cell_volume 689.767571
_symmetry_space_group_name_H-M "P -1"
_symmetry_group_IT_number 2
_symmetry_cell_setting 'triclinic'
loop_
_space_group_symop_operation_xyz
x,y,z
-x,-y,-z
loop_
_atom_site_type_symbol
_atom_site_label
_atom_site_fract_x
_atom_site_fract_y
_atom_site_fract_z
Si Si1 0.657662 0.620242 0.038798
Si Si2 0.058372 0.093262 0.917195
Si Si3 0.533465 0.024073 0.881175
Si Si4 0.850031 0.470170 0.908274
Si Si5 0.138401 0.549721 0.406104
Si Si6 0.754722 0.871257 0.669966
Si Si7 0.938479 0.666926 0.556359
O O1 0.951601 0.356074 0.199908
O O2 0.703798 0.529941 0.976490
O O3 0.399760 0.796236 0.029533
O O4 0.549118 0.874724 0.900365
O O5 0.894315 0.345039 0.876986
O O6 0.940024 0.250791 0.750567
O O7 0.000000 0.000000 0.000000
O O8 0.260993 0.370822 0.709453
O O9 0.500000 0.000000 0.000000
O O10 0.829116 0.812846 0.945186
O O11 0.742512 0.723303 0.765944
O O12 0.939139 0.737516 0.421736
O O13 0.093585 0.457502 0.400603
O O14 0.475641 0.211772 0.565355
O O15 0.754348 0.886049 0.551461
#
# Coordination Sequence:
#
# PCOD9052946 Si02
#       7
#     2   2   2   2   2   2   2
#     4  11  21  37  62  88 116 155 202 242 294 352
#     4  12  26  44  59  79 121 169 205 236 278 356
#     4  11  15  34  60  94 123 150 181 245 306 352
#     4  11  21  35  63  91 120 150 200 242 298 349
#     4  11  23  35  55  92 122 153 190 239 305 351
#     4  11  20  35  62  96 121 141 181 258 314 345
#     4  11  19  32  58  88 129 149 177 241 311 349
#
# _framework density 20.296695
#
# number of rings (size 3 to 8) (size 9 to 14) (size 15 to 20)
#    0.000    0.857    7.143    3.857    2.000    0.571 
#    0.000    0.714    0.000    6.000    0.000    0.000 
#    0.000    0.000    0.000    0.000    0.000    0.000 
#
# Total GULP energy -78143.713396 kJ/mol
# GULP energy per Si atom -5581.693814 kJ/mol
# Density = 2.025050 g / cm^3
# Si number density = 20.296695 Si / 1000 Ang^3
#
#
#
# Elastic Constant Matrix: (Units=GPa)
#
#
# Indices 1 2 3 4 5 6 
#
# 1 42.8633 16.1539 41.7722 6.6203 -8.4487 -1.6451
# 2 16.1539 113.3757 37.3114 36.5895 3.4605 9.0717
# 3 41.7722 37.3114 93.0507 14.1214 -3.5229 -11.4027
# 4 6.6203 36.5895 14.1214 41.6686 -7.8108 13.4567
# 5 -8.4487 3.4605 -3.5229 -7.8108 24.4167 4.3965
# 6 -1.6451 9.0717 -11.4027 13.4567 4.3965 -3.4435
#
#
#
# Elastic Compliance Matrix: (Units=1/GPa)
#
#
# Indices 1 2 3 4 5 6 
#
# 1 0.041118 -0.001035 -0.014873 -0.004843 0.007518 0.017553
# 2 -0.001035 0.014416 -0.004026 -0.011684 -0.006363 -0.001979
# 3 -0.014873 -0.004026 0.015560 0.007761 0.003740 -0.019925
# 4 -0.004843 -0.011684 0.007761 0.021856 0.002004 0.033805
# 5 0.007518 -0.006363 0.003740 0.002004 0.040755 0.027129
# 6 0.017553 -0.001979 -0.019925 0.033805 0.027129 -0.071279
#
#
# Mechanical properties :
#
#
# Convention : Reuss Voigt Hill
#
# Bulk Modulus (GPa) = 32.02456 48.86274 40.44365
# Shear Modulus (GPa) = 44.36432 22.79850 33.58141
#
# Velocity S-wave (km/s) = 4.68032 3.35515 4.07200
# Velocity P-wave (km/s) = 6.70967 6.25586 6.48673
#
# Compressibility (1/GPa) = 0.03122604
#
# Stress axis : x y z
#
# Youngs Moduli (GPa) = 24.32021 69.36801 64.26656
#
# Poissons Ratio (x) = 0.07179 0.95584
# Poissons Ratio (y) = 0.02517 0.25875
# Poissons Ratio (z) = 0.36171 0.27929
#
# Static dielectric constant tensor:
#      x y z
#    x 1.706700 0.000220 0.068370 
#    y 0.000220 1.847050 0.006850 
#    z 0.068370 0.006850 1.757050 
# 
# From -- ./inp_files/424195.got.cif
#   From: 2010.05.17/outbox.cif.g08.bks.cpg/sg2_213_cif.got.tgz:424195.got - 2010.06.03 11:33:40.
