data_PCOD9052116
_publ_section_title
;
Structure prediction by ZEFSAII (Michael W. Deem and Ramdas Pophale) SiO2 
 PCOD9052116
Probable space group: P -1
;
_chemical_formula_sum "Si O2"
_cell_formula_units_Z 14
_cell_length_a 5.358020
_cell_length_b 5.325553
_cell_length_c 22.231555
_cell_angle_alpha 88.256135
_cell_angle_beta 60.507896
_cell_angle_gamma 88.196666
_cell_volume 551.810970
_symmetry_space_group_name_H-M "P -1"
_symmetry_group_IT_number 2
_symmetry_cell_setting 'triclinic'
loop_
_space_group_symop_operation_xyz
x,y,z
-x,-y,-z
loop_
_atom_site_type_symbol
_atom_site_label
_atom_site_fract_x
_atom_site_fract_y
_atom_site_fract_z
Si Si1 0.015761 0.998982 0.755128
Si Si2 0.544909 0.714794 0.655805
Si Si3 0.935450 0.637132 0.155154
Si Si4 0.250868 0.834995 0.000959
Si Si5 0.546134 0.655296 0.847917
Si Si6 0.263770 0.336017 0.496679
Si Si7 0.118082 0.806768 0.351929
O O1 0.140771 0.110908 0.801192
O O2 0.019070 0.194246 0.697902
O O3 0.712871 0.934874 0.667528
O O4 0.216043 0.767360 0.710807
O O5 0.694094 0.912709 0.808916
O O6 0.683178 0.441353 0.657001
O O7 0.180193 0.517641 0.168742
O O8 0.666415 0.466661 0.173460
O O9 0.095803 0.685005 0.072943
O O10 0.385636 0.683824 0.930511
O O11 0.500000 0.000000 0.000000
O O12 0.000000 0.000000 0.000000
O O13 0.500000 0.500000 0.500000
O O14 0.409540 0.224279 0.420791
O O15 0.000000 0.500000 0.500000
O O16 0.118576 0.173913 0.567075
#
# Coordination Sequence:
#
# PCOD9052116 Si02
#       7
#     2   2   2   2   2   2   2
#     4  12  32  48  80 118 174 208 276 336 422 510
#     4  11  29  52  82 118 164 216 279 341 416 492
#     4  12  29  51  81 114 160 213 271 336 416 488
#     4  12  24  50  82 113 153 208 275 342 402 482
#     4  12  29  51  81 114 160 213 271 336 416 488
#     4  10  25  51  83 117 158 212 280 347 407 486
#     4  11  29  52  82 118 164 216 279 341 416 492
#
# _framework density 25.371008
#
# number of rings (size 3 to 8) (size 9 to 14) (size 15 to 20)
#    0.000    0.571    1.429    3.000   16.000    0.571 
#    0.000    0.000    0.000    0.000    0.000    0.000 
#    0.000    0.000    0.000    0.000    0.000    0.000 
#
# Total GULP energy -78506.795737 kJ/mol
# GULP energy per Si atom -5607.628267 kJ/mol
# Density = 2.531326 g / cm^3
# Si number density = 25.371008 Si / 1000 Ang^3
#
#
#
# Elastic Constant Matrix: (Units=GPa)
#
#
# Indices 1 2 3 4 5 6 
#
# 1 159.2626 47.5066 24.5902 14.6779 12.5694 14.8611
# 2 47.5066 88.4623 25.2810 11.2885 10.5602 7.0800
# 3 24.5902 25.2810 194.9027 15.7536 -2.9339 2.7507
# 4 14.6779 11.2885 15.7536 46.4716 0.0617 3.5151
# 5 12.5694 10.5602 -2.9339 0.0617 32.9098 2.0309
# 6 14.8611 7.0800 2.7507 3.5151 2.0309 56.0700
#
#
#
# Elastic Compliance Matrix: (Units=1/GPa)
#
#
# Indices 1 2 3 4 5 6 
#
# 1 0.007809 -0.003574 -0.000419 -0.001344 -0.001781 -0.001449
# 2 -0.003574 0.014266 -0.001292 -0.001852 -0.003290 -0.000556
# 3 -0.000419 -0.001292 0.005481 -0.001417 0.001062 0.000056
# 4 -0.001344 -0.001852 -0.001417 0.022934 0.000989 -0.000814
# 5 -0.001781 -0.003290 0.001062 0.000989 0.032239 -0.000394
# 6 -0.001449 -0.000556 0.000056 -0.000814 -0.000394 0.018352
#
#
# Mechanical properties :
#
#
# Convention : Reuss Voigt Hill
#
# Bulk Modulus (GPa) = 58.86844 70.82035 64.84440
# Shear Modulus (GPa) = 42.62083 50.10694 46.36388
#
# Velocity S-wave (km/s) = 4.10311 4.44888 4.27949
# Velocity P-wave (km/s) = 6.76023 7.37323 7.07338
#
# Compressibility (1/GPa) = 0.01698703
#
# Stress axis : x y z
#
# Youngs Moduli (GPa) = 128.04999 70.09566 182.44886
#
# Poissons Ratio (x) = 0.25051 0.07652
# Poissons Ratio (y) = 0.45763 0.23564
# Poissons Ratio (z) = 0.05371 0.09053
#
# Static dielectric constant tensor:
#      x y z
#    x 2.010340 -0.057180 -0.016910 
#    y -0.057180 2.142050 0.018120 
#    z -0.016910 0.018120 2.029830 
# 
# From -- ./inp_files/114219.got.cif
#   From: 2010.05.17/outbox.cif.g08.bks.cpg/sg2_58_cif.got.tgz:114219.got - 2010.06.03 11:33:40.
