data_PCOD9052629
_publ_section_title
;
Structure prediction by ZEFSAII (Michael W. Deem and Ramdas Pophale) SiO2 
 PCOD9052629
Probable space group: P -1
;
_chemical_formula_sum "Si O2"
_cell_formula_units_Z 13
_cell_length_a 12.367572
_cell_length_b 9.591415
_cell_length_c 15.294570
_cell_angle_alpha 49.308204
_cell_angle_beta 151.182591
_cell_angle_gamma 116.240737
_cell_volume 620.336481
_symmetry_space_group_name_H-M "P -1"
_symmetry_group_IT_number 2
_symmetry_cell_setting 'triclinic'
loop_
_space_group_symop_operation_xyz
x,y,z
-x,-y,-z
loop_
_atom_site_type_symbol
_atom_site_label
_atom_site_fract_x
_atom_site_fract_y
_atom_site_fract_z
Si Si1 0.172898 0.841819 0.620454
Si Si2 0.317399 0.162156 0.057777
Si Si3 0.174643 0.171297 0.769706
Si Si4 0.169387 0.551629 0.881080
Si Si5 0.478088 0.715037 0.155146
Si Si6 0.295354 0.530309 0.414651
Si Si7 0.000000 0.000000 0.000000
O O1 0.410860 0.893118 0.759341
O O2 0.210021 0.641597 0.780605
O O3 0.051100 0.831718 0.445483
O O4 0.000000 0.000000 0.500000
O O5 0.150001 0.250943 0.818060
O O6 0.301014 0.320122 0.057258
O O7 0.230299 0.998273 0.104127
O O8 0.313423 0.280914 0.764989
O O9 0.345183 0.942312 0.994518
O O10 0.896101 0.577109 0.697760
O O11 0.286862 0.646641 0.996865
O O12 0.581894 0.570919 0.367614
O O13 0.500000 0.500000 0.500000
O O14 0.137106 0.761743 0.216897
#
# Coordination Sequence:
#
# PCOD9052629 Si02
#       7
#     2   2   2   2   2   2   1
#     4  12  22  39  69 102 135 169 218 284 338 394
#     4  11  25  44  66  95 139 174 221 284 332 398
#     4  11  22  37  69 103 132 172 221 273 348 401
#     4  11  24  42  64 103 134 169 227 277 340 397
#     4  11  22  40  67 102 134 172 222 278 337 404
#     4  11  25  45  71  93 140 185 225 279 335 403
#     4  10  26  48  64  96 136 184 228 266 336 410
#
# _framework density 20.956368000000001
#
# number of rings (size 3 to 8) (size 9 to 14) (size 15 to 20)
#    0.000    0.923    4.615    2.308    2.154    3.692 
#    0.000    6.923    0.000    0.000    0.000    0.000 
#    0.000    0.000    0.000    0.000    0.000    0.000 
#
# Total GULP energy -72377.136114 kJ/mol
# GULP energy per Si atom -5567.472009 kJ/mol
# Density = 2.090867 g / cm^3
# Si number density = 20.956368 Si / 1000 Ang^3
#
#
#
# Elastic Constant Matrix: (Units=GPa)
#
#
# Indices 1 2 3 4 5 6 
#
# 1 118.3875 61.9906 37.9928 15.2284 20.6731 54.5107
# 2 61.9906 90.2677 59.3294 24.8563 -21.8147 18.8458
# 3 37.9928 59.3294 96.5524 19.4496 1.1477 32.8218
# 4 15.2284 24.8563 19.4496 51.2335 9.9774 1.0770
# 5 20.6731 -21.8147 1.1477 9.9774 18.7979 -17.0003
# 6 54.5107 18.8458 32.8218 1.0770 -17.0003 30.2009
#
#
#
# Elastic Compliance Matrix: (Units=1/GPa)
#
#
# Indices 1 2 3 4 5 6 
#
# 1 0.001897 0.005621 -0.006310 -0.003797 0.014042 0.007967
# 2 0.005621 0.011848 -0.001556 -0.004839 -0.008035 -0.020198
# 3 -0.006310 -0.001556 0.013337 -0.004452 0.009974 0.003640
# 4 -0.003797 -0.004839 -0.004452 0.025276 -0.004265 0.011409
# 5 0.014042 -0.008035 0.009974 -0.004265 0.004139 -0.028690
# 6 0.007967 -0.020198 0.003640 0.011409 -0.028690 0.010824
#
#
# Mechanical properties :
#
#
# Convention : Reuss Voigt Hill
#
# Bulk Modulus (GPa) = 44.26469 69.31482 56.78976
# Shear Modulus (GPa) = 63.01800 29.77279 46.39540
#
# Velocity S-wave (km/s) = 5.48966 3.77331 4.71032
# Velocity P-wave (km/s) = 7.83262 7.22021 7.53264
#
# Compressibility (1/GPa) = 0.02259137
#
# Stress axis : x y z
#
# Youngs Moduli (GPa) = 527.15197 84.39941 74.97846
#
# Poissons Ratio (x) = -0.47439 0.47315
# Poissons Ratio (y) = -2.96303 0.11666
# Poissons Ratio (z) = 3.32657 0.13132
#
# Static dielectric constant tensor:
#      x y z
#    x 1.762280 0.012870 0.028000 
#    y 0.012870 1.833610 -0.062220 
#    z 0.028000 -0.062220 1.795260 
# 
# From -- ./inp_files/375857.got.cif
#   From: 2010.05.17/outbox.cif.g08.bks.cpg/sg2_188_cif.got.tgz:375857.got - 2010.06.03 11:33:40.
