data_PCOD9052275
_publ_section_title
;
Structure prediction by ZEFSAII (Michael W. Deem and Ramdas Pophale) SiO2 
 PCOD9052275
Probable space group: P -1
;
_chemical_formula_sum "Si O2"
_cell_formula_units_Z 13
_cell_length_a 5.516508
_cell_length_b 9.737928
_cell_length_c 12.911934
_cell_angle_alpha 120.258627
_cell_angle_beta 96.612700
_cell_angle_gamma 103.383632
_cell_volume 560.236775
_symmetry_space_group_name_H-M "P -1"
_symmetry_group_IT_number 2
_symmetry_cell_setting 'triclinic'
loop_
_space_group_symop_operation_xyz
x,y,z
-x,-y,-z
loop_
_atom_site_type_symbol
_atom_site_label
_atom_site_fract_x
_atom_site_fract_y
_atom_site_fract_z
Si Si1 0.498314 0.711551 0.357121
Si Si2 0.812479 0.826809 0.046658
Si Si3 0.223476 0.483773 0.430275
Si Si4 0.908923 0.229942 0.768564
Si Si5 0.333137 0.562305 0.857862
Si Si6 0.000000 0.000000 0.500000
Si Si7 0.917774 0.194808 0.163965
O O1 0.278529 0.630883 0.402074
O O2 0.379231 0.788028 0.286718
O O3 0.564010 0.552967 0.256173
O O4 0.732430 0.858051 0.475205
O O5 0.033679 0.827809 0.138836
O O6 0.766716 0.004805 0.119034
O O7 0.552854 0.667495 0.988333
O O8 0.913283 0.811052 0.930746
O O9 0.500000 0.500000 0.500000
O O10 0.000000 0.500000 0.500000
O O11 0.106712 0.302370 0.301766
O O12 0.008124 0.127255 0.648036
O O13 0.077707 0.429536 0.844866
O O14 0.263960 0.700598 0.839312
#
# Coordination Sequence:
#
# PCOD9052275 Si02
#       7
#     2   2   2   2   2   1   2
#     4  11  24  47  73 108 149 190 259 316 380 454
#     4  11  25  43  69 106 147 195 248 305 387 446
#     4  12  27  47  79 108 149 206 257 313 386 462
#     4  11  24  43  73 105 145 193 245 314 383 455
#     4  11  21  45  71  99 147 194 246 314 370 452
#     4  10  26  44  70 106 148 192 246 320 372 454
#     4  11  25  46  68 105 149 191 254 312 368 455
#
# _framework density 23.204473
#
# number of rings (size 3 to 8) (size 9 to 14) (size 15 to 20)
#    0.000    0.923    3.077    2.308    4.308    4.923 
#    0.000    0.000    0.000    0.000    0.000    0.000 
#    0.000    0.000    0.000    0.000    0.000    0.000 
#
# Total GULP energy -72528.486355 kJ/mol
# GULP energy per Si atom -5579.114335 kJ/mol
# Density = 2.315166 g / cm^3
# Si number density = 23.204473 Si / 1000 Ang^3
#
#
#
# Elastic Constant Matrix: (Units=GPa)
#
#
# Indices 1 2 3 4 5 6 
#
# 1 71.0837 18.0760 35.6793 11.0280 -2.0791 -13.3523
# 2 18.0760 91.6292 49.2635 28.1966 4.9357 -5.4041
# 3 35.6793 49.2635 135.1020 26.6540 10.1737 -6.3277
# 4 11.0280 28.1966 26.6540 31.5770 5.2682 14.3118
# 5 -2.0791 4.9357 10.1737 5.2682 25.0500 -2.3277
# 6 -13.3523 -5.4041 -6.3277 14.3118 -2.3277 42.1951
#
#
#
# Elastic Compliance Matrix: (Units=1/GPa)
#
#
# Indices 1 2 3 4 5 6 
#
# 1 0.019001 0.001587 -0.003548 -0.010328 0.005760 0.009505
# 2 0.001587 0.018524 -0.003233 -0.018842 0.002587 0.008923
# 3 -0.003548 -0.003233 0.010873 -0.005390 -0.002775 0.001769
# 4 -0.010328 -0.018842 -0.005390 0.073452 -0.013390 -0.032142
# 5 0.005760 0.002587 -0.002775 -0.013390 0.044644 0.008742
# 6 0.009505 0.008923 0.001769 -0.032142 0.008742 0.039500
#
#
# Mechanical properties :
#
#
# Convention : Reuss Voigt Hill
#
# Bulk Modulus (GPa) = 26.30854 55.98360 41.14607
# Shear Modulus (GPa) = 21.82913 32.75082 27.28998
#
# Velocity S-wave (km/s) = 3.07046 3.76094 3.43310
# Velocity P-wave (km/s) = 4.89210 6.56034 5.78665
#
# Compressibility (1/GPa) = 0.03801046
#
# Stress axis : x y z
#
# Youngs Moduli (GPa) = 52.62821 53.98456 91.97006
#
# Poissons Ratio (x) = -0.08570 0.32631
# Poissons Ratio (y) = -0.08355 0.29737
# Poissons Ratio (z) = 0.18673 0.17455
#
# Static dielectric constant tensor:
#      x y z
#    x 1.970180 -0.005840 0.026510 
#    y -0.005840 1.879330 -0.037750 
#    z 0.026510 -0.037750 1.866890 
# 
# From -- ./inp_files/23182.got.cif
#   From: 2010.05.17/outbox.cif.g08.bks.cpg/sg2_12_cif.got.tgz:23182.got - 2010.06.03 11:33:40.
