data_PCOD9052784
_publ_section_title
;
Structure prediction by ZEFSAII (Michael W. Deem and Ramdas Pophale) SiO2 
 PCOD9052784
Probable space group: P -1
;
_chemical_formula_sum "Si O2"
_cell_formula_units_Z 14
_cell_length_a 5.831894
_cell_length_b 19.142974
_cell_length_c 8.208566
_cell_angle_alpha 135.023153
_cell_angle_beta 96.109300
_cell_angle_gamma 103.401159
_cell_volume 579.334829
_symmetry_space_group_name_H-M "P -1"
_symmetry_group_IT_number 2
_symmetry_cell_setting 'triclinic'
loop_
_space_group_symop_operation_xyz
x,y,z
-x,-y,-z
loop_
_atom_site_type_symbol
_atom_site_label
_atom_site_fract_x
_atom_site_fract_y
_atom_site_fract_z
Si Si1 0.873000 0.663427 0.296401
Si Si2 0.563369 0.495304 0.770664
Si Si3 0.060606 0.123499 0.545423
Si Si4 0.752065 0.046310 0.703455
Si Si5 0.274491 0.033418 0.986683
Si Si6 0.298233 0.775971 0.788683
Si Si7 0.707515 0.410546 0.319548
O O1 0.615431 0.597285 0.271324
O O2 0.883086 0.766694 0.366147
O O3 0.099521 0.704540 0.515408
O O4 0.834339 0.572235 0.003159
O O5 0.581082 0.435175 0.510267
O O6 0.427515 0.571417 0.821766
O O7 0.996121 0.116342 0.719643
O O8 0.251806 0.069391 0.435019
O O9 0.806578 0.030750 0.294251
O O10 0.500000 0.000000 0.500000
O O11 0.770288 0.129715 0.985532
O O12 0.425029 0.162593 0.174833
O O13 0.500000 0.000000 0.000000
O O14 0.000000 0.000000 0.000000
O O15 0.303620 0.706776 0.833134
O O16 0.000000 0.500000 0.500000
#
# Coordination Sequence:
#
# PCOD9052784 Si02
#       7
#     2   2   2   2   2   2   2
#     4  11  25  47  75 111 148 200 255 321 394 454
#     4  10  26  50  72 110 152 189 264 319 387 468
#     4  11  26  44  74 103 155 204 250 324 385 471
#     4  11  26  48  68 111 152 200 262 311 386 481
#     4  12  26  46  73 114 158 197 261 324 391 472
#     4  12  26  47  79 109 152 207 255 322 396 466
#     4  11  25  48  76 106 147 203 251 320 386 470
#
# _framework density 24.165645000000001
#
# number of rings (size 3 to 8) (size 9 to 14) (size 15 to 20)
#    0.000    0.857    4.286    0.857    6.000    0.571 
#    0.000    0.000    0.000    0.000    0.000    0.000 
#    0.000    0.000    0.000    0.000    0.000    0.000 
#
# Total GULP energy -78146.753186 kJ/mol
# GULP energy per Si atom -5581.910942 kJ/mol
# Density = 2.411064 g / cm^3
# Si number density = 24.165645 Si / 1000 Ang^3
#
#
#
# Elastic Constant Matrix: (Units=GPa)
#
#
# Indices 1 2 3 4 5 6 
#
# 1 74.7615 24.9823 16.1035 3.3169 10.1110 -2.3262
# 2 24.9823 141.4572 14.5349 21.7774 -3.7692 4.9983
# 3 16.1035 14.5349 101.3050 -4.5762 21.7729 6.4947
# 4 3.3169 21.7774 -4.5762 44.4786 1.6887 2.0003
# 5 10.1110 -3.7692 21.7729 1.6887 40.5999 -3.9576
# 6 -2.3262 4.9983 6.4947 2.0003 -3.9576 40.8798
#
#
#
# Elastic Compliance Matrix: (Units=1/GPa)
#
#
# Indices 1 2 3 4 5 6 
#
# 1 0.015014 -0.002646 -0.001399 0.000101 -0.003132 0.001092
# 2 -0.002646 0.008401 -0.001439 -0.004129 0.002331 -0.000521
# 3 -0.001399 -0.001439 0.011983 0.002406 -0.006561 -0.002560
# 4 0.000101 -0.004129 0.002406 0.024915 -0.002869 -0.001368
# 5 -0.003132 0.002331 -0.006561 -0.002869 0.029615 0.003586
# 6 0.001092 -0.000521 -0.002560 -0.001368 0.003586 0.025409
#
#
# Mechanical properties :
#
#
# Convention : Reuss Voigt Hill
#
# Bulk Modulus (GPa) = 40.93263 47.64055 44.28659
# Shear Modulus (GPa) = 37.18938 42.65185 39.92062
#
# Velocity S-wave (km/s) = 3.92718 4.20572 4.06884
# Velocity P-wave (km/s) = 6.12689 6.58340 6.35924
#
# Compressibility (1/GPa) = 0.02443039
#
# Stress axis : x y z
#
# Youngs Moduli (GPa) = 66.60280 119.04034 83.45134
#
# Poissons Ratio (x) = 0.31492 0.11678
# Poissons Ratio (y) = 0.17620 0.12008
# Poissons Ratio (z) = 0.09320 0.17129
#
# Static dielectric constant tensor:
#      x y z
#    x 2.007920 -0.008710 -0.072840 
#    y -0.008710 2.031370 -0.027510 
#    z -0.072840 -0.027510 1.977770 
# 
# From -- ./inp_files/141733.got.cif
#   From: 2010.05.17/outbox.cif.g08.bks.cpg/sg2_71_cif.got.tgz:141733.got - 2010.06.03 11:33:40.
