data_PCOD9052513
_publ_section_title
;
Structure prediction by ZEFSAII (Michael W. Deem and Ramdas Pophale) SiO2 
 PCOD9052513
Probable space group: P -1
;
_chemical_formula_sum "Si O2"
_cell_formula_units_Z 13
_cell_length_a 9.315861
_cell_length_b 10.829709
_cell_length_c 9.280186
_cell_angle_alpha 46.837133
_cell_angle_beta 132.723971
_cell_angle_gamma 119.694044
_cell_volume 500.839951
_symmetry_space_group_name_H-M "P -1"
_symmetry_group_IT_number 2
_symmetry_cell_setting 'triclinic'
loop_
_space_group_symop_operation_xyz
x,y,z
-x,-y,-z
loop_
_atom_site_type_symbol
_atom_site_label
_atom_site_fract_x
_atom_site_fract_y
_atom_site_fract_z
Si Si1 0.019763 0.338086 0.043933
Si Si2 0.188434 0.185258 0.551011
Si Si3 0.129149 0.909607 0.360653
Si Si4 0.500000 0.500000 0.500000
Si Si5 0.421413 0.916356 0.791958
Si Si6 0.807347 0.147111 0.854168
Si Si7 0.404137 0.513542 0.082667
O O1 0.812715 0.298551 0.852541
O O2 0.078177 0.201365 0.310403
O O3 0.198239 0.403432 0.012913
O O4 0.000000 0.500000 0.000000
O O5 0.347848 0.337892 0.556193
O O6 0.024983 0.183710 0.562943
O O7 0.301679 0.013232 0.753494
O O8 0.324429 0.961246 0.537721
O O9 0.180500 0.800380 0.344429
O O10 0.015175 0.069697 0.097469
O O11 0.483381 0.456074 0.339424
O O12 0.639453 0.000551 0.873761
O O13 0.392242 0.715401 0.940091
O O14 0.500000 0.500000 0.000000
#
# Coordination Sequence:
#
# PCOD9052513 Si02
#       7
#     2   2   2   1   2   2   2
#     4  11  26  50  71 110 158 204 254 329 395 465
#     4  11  25  48  77 107 160 197 266 320 390 468
#     4  11  25  47  75 114 151 197 265 326 381 478
#     4  10  26  46  74 116 154 204 256 322 398 466
#     4  12  26  49  80 115 149 210 262 325 391 481
#     4  11  27  44  79 109 156 202 261 320 399 464
#     4  11  28  50  79 112 163 205 264 332 401 472
#
# _framework density 25.956398
#
# number of rings (size 3 to 8) (size 9 to 14) (size 15 to 20)
#    0.000    0.923    1.538    2.769   12.923    3.692 
#    0.000    1.538    0.000    0.000    0.000    0.000 
#    0.000    0.000    0.000    0.000    0.000    0.000 
#
# Total GULP energy -72585.677466 kJ/mol
# GULP energy per Si atom -5583.513651 kJ/mol
# Density = 2.589732 g / cm^3
# Si number density = 25.956398 Si / 1000 Ang^3
#
#
#
# Elastic Constant Matrix: (Units=GPa)
#
#
# Indices 1 2 3 4 5 6 
#
# 1 150.6548 63.4526 36.8356 6.7922 -42.3207 20.2938
# 2 63.4526 200.0656 38.9564 26.9347 -9.5730 29.5565
# 3 36.8356 38.9564 104.3840 29.3409 -12.3859 -1.7720
# 4 6.7922 26.9347 29.3409 57.7386 -4.8725 0.4128
# 5 -42.3207 -9.5730 -12.3859 -4.8725 41.2566 7.5804
# 6 20.2938 29.5565 -1.7720 0.4128 7.5804 47.6967
#
#
#
# Elastic Compliance Matrix: (Units=1/GPa)
#
#
# Indices 1 2 3 4 5 6 
#
# 1 0.012646 -0.002213 -0.002790 0.002104 0.013009 -0.006199
# 2 -0.002213 0.006660 -0.001211 -0.002276 -0.000790 -0.003086
# 3 -0.002790 -0.001211 0.012561 -0.005550 -0.000492 0.002531
# 4 0.002104 -0.002276 -0.005550 0.021168 0.002515 -0.000274
# 5 0.013009 -0.000790 -0.000492 0.002515 0.039641 -0.011386
# 6 -0.006199 -0.003086 0.002531 -0.000274 -0.011386 0.027421
#
#
# Mechanical properties :
#
#
# Convention : Reuss Voigt Hill
#
# Bulk Modulus (GPa) = 51.44094 81.51041 66.47568
# Shear Modulus (GPa) = 35.96966 50.39570 43.18268
#
# Velocity S-wave (km/s) = 3.72663 4.41108 4.08323
# Velocity P-wave (km/s) = 6.19502 7.57724 6.92072
#
# Compressibility (1/GPa) = 0.01943977
#
# Stress axis : x y z
#
# Youngs Moduli (GPa) = 79.07434 150.14003 79.61107
#
# Poissons Ratio (x) = 0.33221 0.22212
# Poissons Ratio (y) = 0.17497 0.09643
# Poissons Ratio (z) = 0.22063 0.18186
#
# Static dielectric constant tensor:
#      x y z
#    x 0.092360 0.671030 -0.940250 
#    y 0.671030 1.986090 0.403210 
#    z -0.940250 0.403210 1.696980 
# 
# From -- ./inp_files/174658.got.cif
#   From: 2010.05.17/outbox.cif.g08.bks.cpg/sg2_88_cif.got.tgz:174658.got - 2010.06.03 11:33:40.
