data_PCOD9052836
_publ_section_title
;
Structure prediction by ZEFSAII (Michael W. Deem and Ramdas Pophale) SiO2 
 PCOD9052836
Probable space group: P -1
;
_chemical_formula_sum "Si O2"
_cell_formula_units_Z 12
_cell_length_a 4.688864
_cell_length_b 18.113208
_cell_length_c 8.060219
_cell_angle_alpha 141.855140
_cell_angle_beta 96.975407
_cell_angle_gamma 87.655319
_cell_volume 418.020993
_symmetry_space_group_name_H-M "P -1"
_symmetry_group_IT_number 2
_symmetry_cell_setting 'triclinic'
loop_
_space_group_symop_operation_xyz
x,y,z
-x,-y,-z
loop_
_atom_site_type_symbol
_atom_site_label
_atom_site_fract_x
_atom_site_fract_y
_atom_site_fract_z
Si Si1 0.414354 0.881045 0.078715
Si Si2 0.500000 0.500000 0.500000
Si Si3 0.706119 0.701776 0.978033
Si Si4 0.200774 0.250544 0.564222
Si Si5 0.000000 0.000000 0.500000
Si Si6 0.702582 0.088078 0.316307
Si Si7 0.971880 0.365315 0.444542
O O1 0.201177 0.965647 0.295089
O O2 0.554970 0.951226 0.056384
O O3 0.672363 0.835905 0.137453
O O4 0.225377 0.759378 0.810643
O O5 0.410580 0.616142 0.819556
O O6 0.751204 0.465100 0.598070
O O7 0.797116 0.627972 0.683689
O O8 0.847718 0.710605 0.180726
O O9 0.509216 0.199837 0.493211
O O10 0.980367 0.132811 0.310469
O O11 0.148284 0.348380 0.594913
O O12 0.201714 0.922289 0.501205
#
# Coordination Sequence:
#
# PCOD9052836 Si02
#       7
#     2   1   2   2   1   2   2
#     4  11  23  41  73 106 156 203 248 290 371 437
#     4  10  26  52  78 106 140 192 254 314 392 436
#     4  11  25  49  76 107 146 199 244 316 372 446
#     4  12  28  45  76 113 154 193 253 299 375 440
#     4  12  20  42  66 106 150 204 246 292 354 436
#     4  12  24  42  69 111 153 201 242 294 355 450
#     4  11  27  49  74 109 146 195 250 318 368 448
#
# _framework density 28.706690999999999
#
# number of rings (size 3 to 8) (size 9 to 14) (size 15 to 20)
#    0.000    0.667    3.333    4.000    7.000    2.000 
#    0.000    1.667    0.000    0.000    0.000    0.000 
#    0.000    0.000    0.000    0.000    0.000    0.000 
#
# Total GULP energy -66866.539555 kJ/mol
# GULP energy per Si atom -5572.211630 kJ/mol
# Density = 2.864135 g / cm^3
# Si number density = 28.706691 Si / 1000 Ang^3
#
#
#
# Elastic Constant Matrix: (Units=GPa)
#
#
# Indices 1 2 3 4 5 6 
#
# 1 138.6973 57.1225 13.3600 -7.4039 -17.8497 -13.2655
# 2 57.1225 295.7883 56.6895 -2.9848 -28.6017 -32.2005
# 3 13.3600 56.6895 112.2627 5.1938 -4.2561 8.5622
# 4 -7.4039 -2.9848 5.1938 19.8076 8.3303 0.3115
# 5 -17.8497 -28.6017 -4.2561 8.3303 39.5343 6.6081
# 6 -13.2655 -32.2005 8.5622 0.3115 6.6081 61.9717
#
#
#
# Elastic Compliance Matrix: (Units=1/GPa)
#
#
# Indices 1 2 3 4 5 6 
#
# 1 0.008222 -0.001152 -0.000483 0.002075 0.002225 0.000980
# 2 -0.001152 0.004463 -0.002194 -0.000116 0.002138 0.002148
# 3 -0.000483 -0.002194 0.010458 -0.003419 0.000496 -0.002724
# 4 0.002075 -0.000116 -0.003419 0.057096 -0.011852 0.001833
# 5 0.002225 0.002138 0.000496 -0.011852 0.030680 -0.001693
# 6 0.000980 0.002148 -0.002724 0.001833 -0.001693 0.018010
#
#
# Mechanical properties :
#
#
# Convention : Reuss Voigt Hill
#
# Bulk Modulus (GPa) = 64.58184 89.01024 76.79604
# Shear Modulus (GPa) = 35.27356 52.23448 43.75402
#
# Velocity S-wave (km/s) = 3.50917 4.27030 3.90830
# Velocity P-wave (km/s) = 6.24219 7.44231 6.86851
#
# Compressibility (1/GPa) = 0.01548423
#
# Stress axis : x y z
#
# Youngs Moduli (GPa) = 121.62476 224.05025 95.62174
#
# Poissons Ratio (x) = 0.25821 0.04618
# Poissons Ratio (y) = 0.14017 0.20981
# Poissons Ratio (z) = 0.05873 0.49159
#
# Static dielectric constant tensor:
#      x y z
#    x 2.490590 0.071530 0.273430 
#    y 0.071530 2.308850 0.011390 
#    z 0.273430 0.011390 2.403540 
# 
# From -- ./inp_files/57936.got.cif
#   From: 2010.05.17/outbox.cif.g08.bks.cpg/sg2_29_cif.got.tgz:57936.got - 2010.06.03 11:33:40.
