data_PCOD9052738
_publ_section_title
;
Structure prediction by ZEFSAII (Michael W. Deem and Ramdas Pophale) SiO2 
 PCOD9052738
Probable space group: P -1
;
_chemical_formula_sum "Si O2"
_cell_formula_units_Z 10
_cell_length_a 16.911398
_cell_length_b 4.731829
_cell_length_c 5.178686
_cell_angle_alpha 74.859068
_cell_angle_beta 57.057796
_cell_angle_gamma 90.920825
_cell_volume 329.250621
_symmetry_space_group_name_H-M "P -1"
_symmetry_group_IT_number 2
_symmetry_cell_setting 'triclinic'
loop_
_space_group_symop_operation_xyz
x,y,z
-x,-y,-z
loop_
_atom_site_type_symbol
_atom_site_label
_atom_site_fract_x
_atom_site_fract_y
_atom_site_fract_z
Si Si1 0.100385 0.672384 0.895557
Si Si2 0.265511 0.369955 0.688465
Si Si3 0.400485 0.115527 0.115191
Si Si4 0.899592 0.817826 0.606597
Si Si5 0.405914 0.745103 0.750889
O O1 0.190138 0.548154 0.650360
O O2 0.107646 0.011680 0.696659
O O3 0.100137 0.532527 0.224114
O O4 0.000000 0.500000 0.000000
O O5 0.340829 0.615425 0.655619
O O6 0.327281 0.188800 0.446618
O O7 0.351080 0.892727 0.033480
O O8 0.195063 0.161205 0.063697
O O9 0.436473 0.449237 0.868279
O O10 0.500000 0.000000 0.000000
O O11 0.000000 0.000000 0.500000
O O12 0.500000 0.000000 0.500000
#
# Coordination Sequence:
#
# PCOD9052738 Si02
#       5
#     2   2   2   2   2
#     4   8  16  39  80 134 179 242 311 383 469 563
#     4  10  26  48  86 134 184 248 310 394 474 572
#     4  12  31  56  88 128 183 245 322 391 480 566
#     4   8  16  39  80 134 179 242 311 383 469 563
#     4  12  31  56  88 128 183 245 322 391 480 566
#
# _framework density 30.372001999999998
#
# number of rings (size 3 to 8) (size 9 to 14) (size 15 to 20)
#    1.200    0.800    0.000    1.200    8.400    1.600 
#    7.200    0.000    0.000    4.800    0.000    0.000 
#    0.000    0.000    0.000    0.000    0.000    0.000 
#
# Total GULP energy -55882.820907 kJ/mol
# GULP energy per Si atom -5588.282091 kJ/mol
# Density = 3.030287 g / cm^3
# Si number density = 30.372002 Si / 1000 Ang^3
#
#
#
# Elastic Constant Matrix: (Units=GPa)
#
#
# Indices 1 2 3 4 5 6 
#
# 1 191.3475 128.9580 69.0366 10.0742 -6.4851 -28.4983
# 2 128.9580 298.4580 122.2918 -0.0260 -2.0739 -4.1551
# 3 69.0366 122.2918 243.8867 12.2604 -12.2980 -16.3715
# 4 10.0742 -0.0260 12.2604 88.9287 -22.3093 9.3789
# 5 -6.4851 -2.0739 -12.2980 -22.3093 79.1297 -8.7878
# 6 -28.4983 -4.1551 -16.3715 9.3789 -8.7878 71.6564
#
#
#
# Elastic Compliance Matrix: (Units=1/GPa)
#
#
# Indices 1 2 3 4 5 6 
#
# 1 0.008143 -0.003331 -0.000338 -0.001067 0.000580 0.003179
# 2 -0.003331 0.005596 -0.002028 0.000724 -0.000416 -0.001610
# 3 -0.000338 -0.002028 0.005357 -0.000647 0.000696 0.001142
# 4 -0.001067 0.000724 -0.000647 0.012429 0.003139 -0.001772
# 5 0.000580 -0.000416 0.000696 0.003139 0.013851 0.001653
# 6 0.003179 -0.001610 0.001142 -0.001772 0.001653 0.015822
#
#
# Mechanical properties :
#
#
# Convention : Reuss Voigt Hill
#
# Bulk Modulus (GPa) = 129.87405 152.69611 141.28508
# Shear Modulus (GPa) = 66.52437 75.50334 71.01386
#
# Velocity S-wave (km/s) = 4.68516 4.99134 4.84067
# Velocity P-wave (km/s) = 8.49244 9.14344 8.82394
#
# Compressibility (1/GPa) = 0.00769977
#
# Stress axis : x y z
#
# Youngs Moduli (GPa) = 122.81154 178.70236 186.66003
#
# Poissons Ratio (x) = 0.59535 0.06312
# Poissons Ratio (y) = 0.40915 0.37861
# Poissons Ratio (z) = 0.04153 0.36247
#
# Static dielectric constant tensor:
#      x y z
#    x 3.067940 0.350860 -0.096490 
#    y 0.350860 2.595190 -0.425310 
#    z -0.096490 -0.425310 3.348880 
# 
# From -- ./inp_files/119095.got.cif
#   From: 2010.05.17/outbox.cif.g08.bks.cpg/sg2_60_cif.got.tgz:119095.got - 2010.06.03 11:33:40.
