data_PCOD9052048
_publ_section_title
;
Structure prediction by ZEFSAII (Michael W. Deem and Ramdas Pophale) SiO2 
 PCOD9052048
Probable space group: P -1
;
_chemical_formula_sum "Si O2"
_cell_formula_units_Z 12
_cell_length_a 11.624293
_cell_length_b 8.744260
_cell_length_c 7.159059
_cell_angle_alpha 70.830520
_cell_angle_beta 38.801661
_cell_angle_gamma 72.471348
_cell_volume 429.442587
_symmetry_space_group_name_H-M "P -1"
_symmetry_group_IT_number 2
_symmetry_cell_setting 'triclinic'
loop_
_space_group_symop_operation_xyz
x,y,z
-x,-y,-z
loop_
_atom_site_type_symbol
_atom_site_label
_atom_site_fract_x
_atom_site_fract_y
_atom_site_fract_z
Si Si1 0.509351 0.675643 0.829619
Si Si2 0.613025 0.998380 0.665191
Si Si3 0.924257 0.556140 0.775563
Si Si4 0.105728 0.846061 0.318761
Si Si5 0.677153 0.758178 0.234967
Si Si6 0.949936 0.204363 0.033529
O O1 0.571891 0.644976 0.550863
O O2 0.652408 0.804602 0.664005
O O3 0.500000 0.500000 0.000000
O O4 0.320815 0.788368 0.043548
O O5 0.461767 0.088424 0.686008
O O6 0.784204 0.110585 0.373254
O O7 0.500000 0.000000 0.000000
O O8 0.058647 0.697780 0.574219
O O9 0.919566 0.400258 0.973977
O O10 0.000000 0.500000 0.500000
O O11 0.732733 0.660516 0.015484
O O12 0.043217 0.844789 0.178670
O O13 0.000000 0.000000 0.500000
O O14 0.858714 0.816901 0.084699
#
# Coordination Sequence:
#
# PCOD9052048 Si02
#       6
#     2   2   2   2   2   2
#     4  12  29  54  85 131 175 228 301 365 439 538
#     4  12  31  53  82 128 173 230 300 365 443 524
#     4  10  25  49  84 126 171 232 290 359 452 522
#     4  11  25  52  91 128 181 231 290 369 447 531
#     4  12  27  53  92 119 173 234 298 367 442 530
#     4  11  27  53  86 128 173 234 297 364 444 529
#
# _framework density 27.943201999999999
#
# number of rings (size 3 to 8) (size 9 to 14) (size 15 to 20)
#    0.000    0.667    1.667    3.000    7.000    8.667 
#    0.000    0.000    3.667    0.000    0.000    0.000 
#    0.000    0.000    0.000    0.000    0.000    0.000 
#
# Total GULP energy -66992.441020 kJ/mol
# GULP energy per Si atom -5582.703418 kJ/mol
# Density = 2.787960 g / cm^3
# Si number density = 27.943202 Si / 1000 Ang^3
#
#
#
# Elastic Constant Matrix: (Units=GPa)
#
#
# Indices 1 2 3 4 5 6 
#
# 1 148.8820 82.2778 79.5751 -2.1498 -13.1844 -9.7138
# 2 82.2778 244.8341 91.4940 -33.1040 -22.0573 -0.0757
# 3 79.5751 91.4940 239.0858 -24.3556 12.5295 7.3571
# 4 -2.1498 -33.1040 -24.3556 71.7739 2.2013 11.3796
# 5 -13.1844 -22.0573 12.5295 2.2013 56.5900 1.8222
# 6 -9.7138 -0.0757 7.3571 11.3796 1.8222 35.2234
#
#
#
# Elastic Compliance Matrix: (Units=1/GPa)
#
#
# Indices 1 2 3 4 5 6 
#
# 1 0.010015 -0.002449 -0.002881 -0.002513 0.001984 0.004068
# 2 -0.002449 0.005868 -0.001255 0.002348 0.001944 -0.001260
# 3 -0.002881 -0.001255 0.006018 0.001854 -0.002484 -0.002525
# 4 -0.002513 0.002348 0.001854 0.016602 -0.000520 -0.006412
# 5 0.001984 0.001944 -0.002484 -0.000520 0.019453 0.000232
# 6 0.004068 -0.001260 -0.002525 -0.006412 0.000232 0.032096
#
#
# Mechanical properties :
#
#
# Convention : Reuss Voigt Hill
#
# Bulk Modulus (GPa) = 114.51726 126.61064 120.56395
# Shear Modulus (GPa) = 47.11102 58.01445 52.56274
#
# Velocity S-wave (km/s) = 4.11049 4.56143 4.34182
# Velocity P-wave (km/s) = 7.97492 8.55281 8.26891
#
# Compressibility (1/GPa) = 0.00873231
#
# Stress axis : x y z
#
# Youngs Moduli (GPa) = 99.85383 170.40766 166.15692
#
# Poissons Ratio (x) = 0.41725 0.47874
# Poissons Ratio (y) = 0.24450 0.20848
# Poissons Ratio (z) = 0.28770 0.21381
#
# Static dielectric constant tensor:
#      x y z
#    x 2.407510 0.085340 0.085250 
#    y 0.085340 2.203640 -0.057800 
#    z 0.085250 -0.057800 2.277320 
# 
# From -- ./inp_files/298073.got.cif
#   From: 2010.05.17/outbox.cif.g08.bks.cpg/sg2_150_cif.got.tgz:298073.got - 2010.06.03 11:33:40.
