data_PCOD9053971
_publ_section_title
;
Structure prediction by ZEFSAII (Michael W. Deem and Ramdas Pophale) SiO2 
 PCOD9053971
Probable space group: P -1
;
_chemical_formula_sum "Si O2"
_cell_formula_units_Z 14
_cell_length_a 12.546908
_cell_length_b 21.112551
_cell_length_c 21.673920
_cell_angle_alpha 160.247019
_cell_angle_beta 160.867565
_cell_angle_gamma 31.153910
_cell_volume 606.381943
_symmetry_space_group_name_H-M "P -1"
_symmetry_group_IT_number 2
_symmetry_cell_setting 'triclinic'
loop_
_space_group_symop_operation_xyz
x,y,z
-x,-y,-z
loop_
_atom_site_type_symbol
_atom_site_label
_atom_site_fract_x
_atom_site_fract_y
_atom_site_fract_z
Si Si1 0.208469 0.084093 0.339502
Si Si2 0.528734 0.297363 0.588965
Si Si3 0.690824 0.704424 0.991194
Si Si4 0.722553 0.843998 0.418587
Si Si5 0.512945 0.088918 0.266558
Si Si6 0.689403 0.748071 0.893524
Si Si7 0.094177 0.617689 0.347579
O O1 0.335307 0.222287 0.477062
O O2 0.282179 0.191657 0.543862
O O3 0.406596 0.920266 0.298280
O O4 0.809541 0.979012 0.017072
O O5 0.529686 0.515219 0.771221
O O6 0.392802 0.158787 0.328702
O O7 0.916919 0.288625 0.798026
O O8 0.536979 0.686356 0.821510
O O9 0.655887 0.904688 0.183594
O O10 0.767943 0.668081 0.241396
O O11 0.061818 0.031104 0.764542
O O12 0.790037 0.269474 0.550255
O O13 0.392568 0.706818 0.643049
O O14 0.918420 0.606791 0.872528
#
# Coordination Sequence:
#
# PCOD9053971 Si02
#       7
#     2   2   2   2   2   2   2
#     4  11  24  41  63  88 133 163 196 246 316 363
#     4  11  24  43  59  92 126 161 205 254 295 369
#     4  11  23  40  69  88 119 163 212 251 300 350
#     4  11  22  43  64  91 124 164 198 254 304 365
#     4  12  22  40  64  94 121 165 201 253 303 363
#     4  11  20  39  66  95 119 150 210 263 291 355
#     4  11  22  37  69  96 117 155 213 252 304 352
#
# _framework density 23.087757
#
# number of rings (size 3 to 8) (size 9 to 14) (size 15 to 20)
#    0.000    0.857    5.714    2.143    0.000    0.571 
#    0.000    5.714    0.000    0.000    0.000    0.000 
#    0.000    0.000    0.000    0.000    0.000    0.000 
#
# Total GULP energy -78440.545771 kJ/mol
# GULP energy per Si atom -5602.896126 kJ/mol
# Density = 2.303521 g / cm^3
# Si number density = 23.087757 Si / 1000 Ang^3
#
#
#
# Elastic Constant Matrix: (Units=GPa)
#
#
# Indices 1 2 3 4 5 6 
#
# 1 111.0441 23.8753 2.9911 12.6032 16.8047 23.5266
# 2 23.8753 90.9745 22.7433 26.4639 -2.9559 -4.0997
# 3 2.9911 22.7433 36.5745 5.4900 -4.2739 6.5985
# 4 12.6032 26.4639 5.4900 32.4955 -0.1988 -3.9257
# 5 16.8047 -2.9559 -4.2739 -0.1988 20.5002 -1.0261
# 6 23.5266 -4.0997 6.5985 -3.9257 -1.0261 36.2362
#
#
#
# Elastic Compliance Matrix: (Units=1/GPa)
#
#
# Indices 1 2 3 4 5 6 
#
# 1 0.014594 -0.004195 0.002581 -0.004113 -0.012632 -0.011223
# 2 -0.004195 0.018038 -0.009768 -0.010722 0.004175 0.005500
# 3 0.002581 -0.009768 0.035255 -0.000083 0.003369 -0.009115
# 4 -0.004113 -0.010722 -0.000083 0.041865 0.002519 0.006079
# 5 -0.012632 0.004175 0.003369 0.002519 0.060967 0.010060
# 6 -0.011223 0.005500 -0.009115 0.006079 0.010060 0.038109
#
#
# Mechanical properties :
#
#
# Convention : Reuss Voigt Hill
#
# Bulk Modulus (GPa) = 22.16186 37.53471 29.84828
# Shear Modulus (GPa) = 20.27307 30.44526 25.35917
#
# Velocity S-wave (km/s) = 2.96647 3.63530 3.31778
# Velocity P-wave (km/s) = 4.62094 5.82351 5.25672
#
# Compressibility (1/GPa) = 0.04512257
#
# Stress axis : x y z
#
# Youngs Moduli (GPa) = 68.52030 55.43978 28.36477
#
# Poissons Ratio (x) = 0.23258 -0.07322
# Poissons Ratio (y) = 0.28745 0.27707
# Poissons Ratio (z) = -0.17687 0.54155
#
# Static dielectric constant tensor:
#      x y z
#    x 1.857230 0.009930 -0.004090 
#    y 0.009930 1.840650 -0.019560 
#    z -0.004090 -0.019560 1.862150 
# 
# From -- ./inp_files/187140.got.cif
#   From: 2010.05.17/outbox.cif.g08.bks.cpg/sg2_94_cif.got.tgz:187140.got - 2010.06.03 11:33:40.
