data_PCOD9053818
_publ_section_title
;
Structure prediction by ZEFSAII (Michael W. Deem and Ramdas Pophale) SiO2 
 PCOD9053818
Probable space group: P -1
;
_chemical_formula_sum "Si O2"
_cell_formula_units_Z 16
_cell_length_a 5.813866
_cell_length_b 19.595616
_cell_length_c 23.080947
_cell_angle_alpha 159.681894
_cell_angle_beta 117.086920
_cell_angle_gamma 53.436172
_cell_volume 681.190411
_symmetry_space_group_name_H-M "P -1"
_symmetry_group_IT_number 2
_symmetry_cell_setting 'triclinic'
loop_
_space_group_symop_operation_xyz
x,y,z
-x,-y,-z
loop_
_atom_site_type_symbol
_atom_site_label
_atom_site_fract_x
_atom_site_fract_y
_atom_site_fract_z
Si Si1 0.879481 0.284418 0.145828
Si Si2 0.170206 0.985056 0.354001
Si Si3 0.349591 0.335439 0.761773
Si Si4 0.847628 0.107808 0.222272
Si Si5 0.936011 0.679802 0.084878
Si Si6 0.876687 0.550668 0.591219
Si Si7 0.631241 0.267021 0.944232
Si Si8 0.157018 0.502860 0.263033
O O1 0.514509 0.379387 0.186902
O O2 0.963168 0.363352 0.277944
O O3 0.029545 0.379778 0.191885
O O4 0.030820 0.016842 0.926410
O O5 0.423321 0.904965 0.370147
O O6 0.346208 0.840509 0.202003
O O7 0.961609 0.890598 0.276377
O O8 0.952004 0.251783 0.523404
O O9 0.063785 0.393721 0.736381
O O10 0.506080 0.456044 0.842902
O O11 0.203725 0.524008 0.946732
O O12 0.907553 0.303164 0.409161
O O13 0.482081 0.241383 0.284950
O O14 0.036266 0.890452 0.114727
O O15 0.621730 0.770111 0.086480
O O16 0.000000 0.500000 0.000000
O O17 0.000000 0.500000 0.500000
#
# Coordination Sequence:
#
# PCOD9053818 Si02
#       8
#     2   2   2   2   2   2   2   2
#     4  12  29  54  80 113 164 196 255 319 387 461
#     4  11  24  38  66 102 150 197 251 324 356 440
#     4  11  22  42  64 102 143 199 257 307 372 443
#     4  11  26  49  80 113 153 202 249 318 387 468
#     4  11  20  37  66  99 137 194 257 313 373 434
#     4  11  29  49  82 120 149 197 253 315 397 473
#     4  11  21  41  69 100 144 191 257 301 382 443
#     4  12  29  47  72 112 150 207 253 310 385 449
#
# _framework density 23.488292000000001
#
# number of rings (size 3 to 8) (size 9 to 14) (size 15 to 20)
#    0.000    0.750    3.750    3.000   10.500    1.500 
#    0.000    1.875    0.000    0.000    0.000    0.000 
#    0.000    0.000    0.000    0.000    0.000    0.000 
#
# Total GULP energy -89079.302492 kJ/mol
# GULP energy per Si atom -5567.456406 kJ/mol
# Density = 2.343483 g / cm^3
# Si number density = 23.488292 Si / 1000 Ang^3
#
#
#
# Elastic Constant Matrix: (Units=GPa)
#
#
# Indices 1 2 3 4 5 6 
#
# 1 98.2890 36.3494 33.6579 5.2968 -13.6293 -19.3816
# 2 36.3494 114.0452 50.6016 -22.0906 -5.7585 -15.8211
# 3 33.6579 50.6016 98.7357 -2.0316 -27.5365 -15.9013
# 4 5.2968 -22.0906 -2.0316 44.7327 -2.3537 1.9060
# 5 -13.6293 -5.7585 -27.5365 -2.3537 29.3889 4.6667
# 6 -19.3816 -15.8211 -15.9013 1.9060 4.6667 31.1564
#
#
#
# Elastic Compliance Matrix: (Units=1/GPa)
#
#
# Indices 1 2 3 4 5 6 
#
# 1 0.013676 -0.003629 -0.000944 -0.003519 0.003533 0.005869
# 2 -0.003629 0.014440 -0.007232 0.006875 -0.005360 0.001766
# 3 -0.000944 -0.007232 0.018859 -0.001943 0.015149 0.003215
# 4 -0.003519 0.006875 -0.001943 0.026145 0.000198 -0.001319
# 5 0.003533 -0.005360 0.015149 0.000198 0.048844 -0.000120
# 6 0.005869 0.001766 0.003215 -0.001319 -0.000120 0.038384
#
#
# Mechanical properties :
#
#
# Convention : Reuss Voigt Hill
#
# Bulk Modulus (GPa) = 42.79946 61.36533 52.08239
# Shear Modulus (GPa) = 26.07586 33.75298 29.91442
#
# Velocity S-wave (km/s) = 3.33553 3.79491 3.57261
# Velocity P-wave (km/s) = 5.75287 6.73679 6.26418
#
# Compressibility (1/GPa) = 0.02336478
#
# Stress axis : x y z
#
# Youngs Moduli (GPa) = 73.11884 69.25095 53.02433
#
# Poissons Ratio (x) = 0.25132 0.05006
# Poissons Ratio (y) = 0.26536 0.38349
# Poissons Ratio (z) = 0.06903 0.50085
#
# Static dielectric constant tensor:
#      x y z
#    x 2.204140 0.130520 0.199450 
#    y 0.130520 2.024460 0.042440 
#    z 0.199450 0.042440 1.992780 
# 
# From -- ./inp_files/106655.got.cif
#   From: 2010.05.17/outbox.cif.g08.bks.cpg/sg2_54_cif.got.tgz:106655.got - 2010.06.03 11:33:40.
