data_PCOD9053414
_publ_section_title
;
Structure prediction by ZEFSAII (Michael W. Deem and Ramdas Pophale) SiO2 
 PCOD9053414
Probable space group: P -1
;
_chemical_formula_sum "Si O2"
_cell_formula_units_Z 12
_cell_length_a 17.006374
_cell_length_b 13.552058
_cell_length_c 19.380757
_cell_angle_alpha 21.667050
_cell_angle_beta 161.909747
_cell_angle_gamma 155.796779
_cell_volume 495.794919
_symmetry_space_group_name_H-M "P -1"
_symmetry_group_IT_number 2
_symmetry_cell_setting 'triclinic'
loop_
_space_group_symop_operation_xyz
x,y,z
-x,-y,-z
loop_
_atom_site_type_symbol
_atom_site_label
_atom_site_fract_x
_atom_site_fract_y
_atom_site_fract_z
Si Si1 0.318515 0.819939 0.406835
Si Si2 0.226891 0.267853 0.925700
Si Si3 0.227136 0.457251 0.340703
Si Si4 0.576452 0.611735 0.648524
Si Si5 0.769896 0.107018 0.116426
Si Si6 0.936309 0.987184 0.192197
O O1 0.493111 0.623597 0.650233
O O2 0.500000 0.000000 0.500000
O O3 0.269519 0.015996 0.174403
O O4 0.033877 0.669894 0.297661
O O5 0.500000 0.500000 0.000000
O O6 0.143832 0.198834 0.820946
O O7 0.500000 0.500000 0.500000
O O8 0.302597 0.486198 0.464582
O O9 0.029432 0.175017 0.335294
O O10 0.117321 0.724592 0.065341
O O11 0.758176 0.922635 0.588930
O O12 0.744930 0.419489 0.879766
O O13 0.785353 0.939926 0.169120
O O14 0.500000 0.000000 0.000000
#
# Coordination Sequence:
#
# PCOD9053414 Si02
#       6
#     2   2   2   2   2   2
#     4  11  24  45  69  95 132 180 225 270 333 397
#     4  11  26  44  68 100 134 173 226 283 329 390
#     4  11  19  39  66  87 119 172 212 243 323 394
#     4  11  21  41  67  91 125 174 213 258 324 400
#     4  11  25  38  61 102 133 159 210 277 322 387
#     4  11  21  41  65  91 128 169 215 266 324 391
#
# _framework density 24.203557
#
# number of rings (size 3 to 8) (size 9 to 14) (size 15 to 20)
#    0.000    1.000    6.667    1.000    0.000    4.000 
#    6.000    0.000    0.000    0.000    0.000    0.000 
#    0.000    0.000    0.000    0.000    0.000    0.000 
#
# Total GULP energy -66824.394989 kJ/mol
# GULP energy per Si atom -5568.699582 kJ/mol
# Density = 2.414847 g / cm^3
# Si number density = 24.203557 Si / 1000 Ang^3
#
#
#
# Elastic Constant Matrix: (Units=GPa)
#
#
# Indices 1 2 3 4 5 6 
#
# 1 180.3223 82.9417 23.8193 28.2161 31.1826 -21.8878
# 2 82.9417 124.3381 13.3016 42.9697 2.5326 4.1501
# 3 23.8193 13.3016 48.5162 16.3840 18.5297 3.2687
# 4 28.2161 42.9697 16.3840 43.6992 -0.8232 5.4916
# 5 31.1826 2.5326 18.5297 -0.8232 49.9718 15.0082
# 6 -21.8878 4.1501 3.2687 5.4916 15.0082 41.2549
#
#
#
# Elastic Compliance Matrix: (Units=1/GPa)
#
#
# Indices 1 2 3 4 5 6 
#
# 1 0.013122 -0.008162 0.000144 -0.002262 -0.011552 0.012275
# 2 -0.008162 0.017395 0.001455 -0.011439 0.005486 -0.006668
# 3 0.000144 0.001455 0.029005 -0.013114 -0.012291 0.003849
# 4 -0.002262 -0.011439 -0.013114 0.041728 0.010005 -0.008205
# 5 -0.011552 0.005486 -0.012291 0.010005 0.037921 -0.020834
# 6 0.012275 -0.006668 0.003849 -0.008205 -0.020834 0.039789
#
#
# Mechanical properties :
#
#
# Convention : Reuss Voigt Hill
#
# Bulk Modulus (GPa) = 21.55300 65.92244 43.73772
# Shear Modulus (GPa) = 24.09021 42.52611 33.30816
#
# Velocity S-wave (km/s) = 3.15829 4.19623 3.71370
# Velocity P-wave (km/s) = 4.71423 7.12556 6.04142
#
# Compressibility (1/GPa) = 0.04639725
#
# Stress axis : x y z
#
# Youngs Moduli (GPa) = 76.20724 57.48690 34.47626
#
# Poissons Ratio (x) = 0.46918 -0.00496
# Poissons Ratio (y) = 0.62197 -0.05015
# Poissons Ratio (z) = -0.01097 -0.08363
#
# Static dielectric constant tensor:
#      x y z
#    x 2.027490 0.036550 -0.095490 
#    y 0.036550 2.074060 0.107590 
#    z -0.095490 0.107590 2.608800 
# 
# From -- ./inp_files/28622.got.cif
#   From: 2010.05.17/outbox.cif.g08.bks.cpg/sg2_15_cif.got.tgz:28622.got - 2010.06.03 11:33:40.
