data_PCOD9053083
_publ_section_title
;
Structure prediction by ZEFSAII (Michael W. Deem and Ramdas Pophale) SiO2 
 PCOD9053083
Probable space group: P -1
;
_chemical_formula_sum "Si O2"
_cell_formula_units_Z 14
_cell_length_a 15.099021
_cell_length_b 10.882336
_cell_length_c 9.347128
_cell_angle_alpha 113.848069
_cell_angle_beta 107.050010
_cell_angle_gamma 129.338895
_cell_volume 684.150547
_symmetry_space_group_name_H-M "P -1"
_symmetry_group_IT_number 2
_symmetry_cell_setting 'triclinic'
loop_
_space_group_symop_operation_xyz
x,y,z
-x,-y,-z
loop_
_atom_site_type_symbol
_atom_site_label
_atom_site_fract_x
_atom_site_fract_y
_atom_site_fract_z
Si Si1 0.160686 0.563584 0.263429
Si Si2 0.662973 0.641440 0.950505
Si Si3 0.089890 0.972845 0.980701
Si Si4 0.180472 0.169591 0.591306
Si Si5 0.853669 0.176333 0.702528
Si Si6 0.634640 0.565520 0.462139
Si Si7 0.477981 0.765914 0.494110
O O1 0.149446 0.707451 0.359991
O O2 0.367624 0.768132 0.451053
O O3 0.043801 0.316369 0.189460
O O4 0.044602 0.410792 0.988453
O O5 0.326807 0.360087 0.877307
O O6 0.507107 0.536023 0.754683
O O7 0.638698 0.465812 0.784728
O O8 0.841517 0.930412 0.102085
O O9 0.266944 0.202564 0.278148
O O10 0.000000 0.000000 0.000000
O O11 0.224552 0.306313 0.531895
O O12 0.169478 0.000015 0.457219
O O13 0.000000 0.000000 0.500000
O O14 0.684972 0.010539 0.650061
O O15 0.553873 0.350074 0.424122
#
# Coordination Sequence:
#
# PCOD9053083 Si02
#       7
#     2   2   2   2   2   2   2
#     4  11  21  38  64  89 122 158 196 256 301 349
#     4  11  21  34  60  89 120 153 192 258 297 348
#     4  11  18  35  61  90 113 149 203 247 293 347
#     4  12  24  38  57  90 125 160 197 244 308 359
#     4  11  24  39  58  94 124 156 203 246 300 366
#     4  11  21  36  61  92 116 147 207 255 294 345
#     4  11  21  39  66  92 115 155 204 254 299 348
#
# _framework density 20.463331
#
# number of rings (size 3 to 8) (size 9 to 14) (size 15 to 20)
#    0.000    0.857    5.714    5.143    0.000    0.000 
#    0.000    0.714    0.000    0.857    0.000    0.000 
#    0.000    0.000    0.000    0.000    0.000    0.000 
#
# Total GULP energy -78059.891213 kJ/mol
# GULP energy per Si atom -5575.706515 kJ/mol
# Density = 2.041676 g / cm^3
# Si number density = 20.463331 Si / 1000 Ang^3
#
#
#
# Elastic Constant Matrix: (Units=GPa)
#
#
# Indices 1 2 3 4 5 6 
#
# 1 94.1296 26.1554 15.1912 4.5360 20.1405 -6.5779
# 2 26.1554 110.3455 19.3381 6.5930 -4.2690 10.5889
# 3 15.1912 19.3381 48.8518 -8.6963 15.6630 0.1045
# 4 4.5360 6.5930 -8.6963 41.0985 1.3829 -1.1206
# 5 20.1405 -4.2690 15.6630 1.3829 35.6346 2.5484
# 6 -6.5779 10.5889 0.1045 -1.1206 2.5484 35.2638
#
#
#
# Elastic Compliance Matrix: (Units=1/GPa)
#
#
# Indices 1 2 3 4 5 6 
#
# 1 0.013927 -0.004014 -0.000078 -0.000500 -0.008614 0.004410
# 2 -0.004014 0.012057 -0.006318 -0.003198 0.006968 -0.004956
# 3 -0.000078 -0.006318 0.028807 0.007668 -0.013890 0.003044
# 4 -0.000500 -0.003198 0.007668 0.026734 -0.004654 0.002030
# 5 -0.008614 0.006968 -0.013890 -0.004654 0.040533 -0.006735
# 6 0.004410 -0.004956 0.003044 0.002030 -0.006735 0.031211
#
#
# Mechanical properties :
#
#
# Convention : Reuss Voigt Hill
#
# Bulk Modulus (GPa) = 29.43650 41.63293 35.53471
# Shear Modulus (GPa) = 26.96677 35.24220 31.10448
#
# Velocity S-wave (km/s) = 3.63410 4.15446 3.90296
# Velocity P-wave (km/s) = 5.65908 6.58802 6.14114
#
# Compressibility (1/GPa) = 0.03397143
#
# Stress axis : x y z
#
# Youngs Moduli (GPa) = 71.80309 82.93774 34.71360
#
# Poissons Ratio (x) = 0.33291 0.00272
# Poissons Ratio (y) = 0.28822 0.21930
# Poissons Ratio (z) = 0.00563 0.52396
#
# Static dielectric constant tensor:
#      x y z
#    x 1.823010 0.003400 0.117990 
#    y 0.003400 1.796310 0.047030 
#    z 0.117990 0.047030 1.822360 
# 
# From -- ./inp_files/353110.got.cif
#   From: 2010.05.17/outbox.cif.g08.bks.cpg/sg2_177_cif.got.tgz:353110.got - 2010.06.03 11:33:40.
