data_PCOD9053132
_publ_section_title
;
Structure prediction by ZEFSAII (Michael W. Deem and Ramdas Pophale) SiO2 
 PCOD9053132
Probable space group: P -1
;
_chemical_formula_sum "Si O2"
_cell_formula_units_Z 16
_cell_length_a 13.724781
_cell_length_b 23.199053
_cell_length_c 6.516379
_cell_angle_alpha 52.276970
_cell_angle_beta 104.921262
_cell_angle_gamma 148.851379
_cell_volume 644.748150
_symmetry_space_group_name_H-M "P -1"
_symmetry_group_IT_number 2
_symmetry_cell_setting 'triclinic'
loop_
_space_group_symop_operation_xyz
x,y,z
-x,-y,-z
loop_
_atom_site_type_symbol
_atom_site_label
_atom_site_fract_x
_atom_site_fract_y
_atom_site_fract_z
Si Si1 0.764595 0.637877 0.382765
Si Si2 0.565609 0.195296 0.077017
Si Si3 0.218787 0.237693 0.536351
Si Si4 0.544039 0.374115 0.099058
Si Si5 0.667093 0.059078 0.821934
Si Si6 0.880801 0.166260 0.112635
Si Si7 0.286371 0.150734 0.080621
Si Si8 0.980332 0.364392 0.012683
O O1 0.500000 0.500000 0.500000
O O2 0.837775 0.727259 0.441801
O O3 0.694793 0.510058 0.698039
O O4 0.870175 0.714418 0.035473
O O5 0.510858 0.244277 0.937008
O O6 0.840010 0.348492 0.948075
O O7 0.490803 0.105096 0.024111
O O8 0.359686 0.025327 0.493485
O O9 0.438119 0.364100 0.220045
O O10 0.269275 0.211316 0.801216
O O11 0.966700 0.055793 0.670755
O O12 0.322030 0.187580 0.263159
O O13 0.738917 0.451385 0.156757
O O14 0.814900 0.207926 0.423515
O O15 0.848014 0.141314 0.902658
O O16 0.500000 0.000000 0.000000
O O17 0.941201 0.286707 0.962286
#
# Coordination Sequence:
#
# PCOD9053132 Si02
#       8
#     2   2   2   2   2   2   2   2
#     4  12  24  42  73 104 131 173 226 288 345 381
#     4  11  24  40  68 103 135 182 225 265 334 409
#     4  11  26  50  69  96 135 177 234 281 327 406
#     4  12  26  44  70  99 140 176 220 283 345 391
#     4  11  18  39  65  98 136 171 217 276 326 388
#     4  11  22  39  67 102 137 170 223 280 336 397
#     4  11  27  47  67  94 139 183 229 264 340 405
#     4  11  23  39  65 105 137 170 222 278 332 402
#
# _framework density 24.81589
#
# number of rings (size 3 to 8) (size 9 to 14) (size 15 to 20)
#    0.000    0.750    5.000    3.000    3.500    3.500 
#    0.000    0.625    0.000    0.000    0.000    0.000 
#    0.000    0.000    0.000    0.000    0.000    0.000 
#
# Total GULP energy -89358.045485 kJ/mol
# GULP energy per Si atom -5584.877843 kJ/mol
# Density = 2.475941 g / cm^3
# Si number density = 24.815890 Si / 1000 Ang^3
#
#
#
# Elastic Constant Matrix: (Units=GPa)
#
#
# Indices 1 2 3 4 5 6 
#
# 1 119.3798 27.6716 14.4506 4.1814 -28.7091 -3.3294
# 2 27.6716 126.0635 8.9471 6.0077 -12.2749 -9.7667
# 3 14.4506 8.9471 54.2855 6.4394 -25.3137 -11.5484
# 4 4.1814 6.0077 6.4394 22.6809 -2.9941 -4.9392
# 5 -28.7091 -12.2749 -25.3137 -2.9941 44.6937 9.6908
# 6 -3.3294 -9.7667 -11.5484 -4.9392 9.6908 43.8182
#
#
#
# Elastic Compliance Matrix: (Units=1/GPa)
#
#
# Indices 1 2 3 4 5 6 
#
# 1 0.010298 -0.001688 0.000508 -0.000948 0.006598 -0.001026
# 2 -0.001688 0.008570 -0.000111 -0.001516 0.000800 0.001405
# 3 0.000508 -0.000111 0.026136 -0.004923 0.014067 0.003236
# 4 -0.000948 -0.001516 -0.004923 0.046710 -0.001529 0.003896
# 5 0.006598 0.000800 0.014067 -0.001529 0.035485 -0.003633
# 6 -0.001026 0.001405 0.003236 0.003896 -0.003633 0.025152
#
#
# Mechanical properties :
#
#
# Convention : Reuss Voigt Hill
#
# Bulk Modulus (GPa) = 23.57372 44.65193 34.11283
# Shear Modulus (GPa) = 29.57255 38.81586 34.19421
#
# Velocity S-wave (km/s) = 3.45581 3.95923 3.71606
# Velocity P-wave (km/s) = 5.04417 6.23963 5.67347
#
# Compressibility (1/GPa) = 0.04242012
#
# Stress axis : x y z
#
# Youngs Moduli (GPa) = 97.10874 116.68646 38.26083
#
# Poissons Ratio (x) = 0.19701 -0.01943
# Poissons Ratio (y) = 0.16395 0.00426
# Poissons Ratio (z) = -0.04930 0.01300
#
# Static dielectric constant tensor:
#      x y z
#    x 1.657960 -0.204470 0.203580 
#    y -0.204470 1.895030 0.181820 
#    z 0.203580 0.181820 1.822250 
# 
# From -- ./inp_files/101010.got.cif
#   From: 2010.05.17/outbox.cif.g08.bks.cpg/sg2_51_cif.got.tgz:101010.got - 2010.06.03 11:33:40.
