data_PCOD9053716
_publ_section_title
;
Structure prediction by ZEFSAII (Michael W. Deem and Ramdas Pophale) SiO2 
 PCOD9053716
Probable space group: P -1
;
_chemical_formula_sum "Si O2"
_cell_formula_units_Z 16
_cell_length_a 14.969963
_cell_length_b 14.938796
_cell_length_c 11.732388
_cell_angle_alpha 29.962636
_cell_angle_beta 38.732510
_cell_angle_gamma 27.736926
_cell_volume 608.878599
_symmetry_space_group_name_H-M "P -1"
_symmetry_group_IT_number 2
_symmetry_cell_setting 'triclinic'
loop_
_space_group_symop_operation_xyz
x,y,z
-x,-y,-z
loop_
_atom_site_type_symbol
_atom_site_label
_atom_site_fract_x
_atom_site_fract_y
_atom_site_fract_z
Si Si1 0.049578 0.524700 0.097842
Si Si2 0.787793 0.842524 0.818396
Si Si3 0.270822 0.412718 0.554023
Si Si4 0.411639 0.441819 0.874227
Si Si5 0.383261 0.059448 0.664908
Si Si6 0.028298 0.223341 0.735051
Si Si7 0.699649 0.279926 0.107639
Si Si8 0.561753 0.658099 0.301663
O O1 0.132792 0.258518 0.275350
O O2 0.848682 0.662116 0.205277
O O3 0.216688 0.490580 0.025973
O O4 0.980524 0.683375 0.877299
O O5 0.651508 0.112691 0.697079
O O6 0.662771 0.765104 0.047693
O O7 0.429208 0.181870 0.572950
O O8 0.326560 0.474263 0.544026
O O9 0.122795 0.634691 0.374678
O O10 0.369391 0.644737 0.775192
O O11 0.440561 0.441050 0.709242
O O12 0.568813 0.172323 0.068269
O O13 0.159664 0.259099 0.629248
O O14 0.500000 0.000000 0.500000
O O15 0.203993 0.965613 0.784857
O O16 0.883521 0.259072 0.931965
O O17 0.500000 0.500000 0.000000
#
# Coordination Sequence:
#
# PCOD9053716 Si02
#       8
#     2   2   2   2   2   2   2   2
#     4   9  16  28  52  85 123 157 192 245 305 375
#     4   8  14  28  46  79 124 162 192 224 298 384
#     4  11  21  36  58  93 131 154 194 257 327 388
#     4  11  20  36  62  89 121 165 212 254 305 369
#     4  12  23  37  64  99 132 162 200 263 323 374
#     4  11  25  43  66  92 121 169 216 257 314 363
#     4  11  24  47  67  85 117 171 228 266 291 353
#     4   9  18  31  53  86 122 160 196 245 312 381
#
# _framework density 26.277816999999999
#
# number of rings (size 3 to 8) (size 9 to 14) (size 15 to 20)
#    0.000    1.750    1.250    6.375    0.000    0.000 
#    0.000    0.625    0.000    0.750    0.000    0.000 
#    0.000    0.000    0.000    0.000    0.000    0.000 
#
# Total GULP energy -89252.068807 kJ/mol
# GULP energy per Si atom -5578.254300 kJ/mol
# Density = 2.621801 g / cm^3
# Si number density = 26.277817 Si / 1000 Ang^3
#
#
#
# Elastic Constant Matrix: (Units=GPa)
#
#
# Indices 1 2 3 4 5 6 
#
# 1 165.4379 73.4178 34.3630 -2.3908 17.1677 34.1927
# 2 73.4178 163.0210 38.2016 -7.5149 20.0004 24.6828
# 3 34.3630 38.2016 50.9887 5.5461 26.7501 18.8890
# 4 -2.3908 -7.5149 5.5461 48.5694 2.1960 8.6949
# 5 17.1677 20.0004 26.7501 2.1960 34.1390 9.7264
# 6 34.1927 24.6828 18.8890 8.6949 9.7264 64.5717
#
#
#
# Elastic Compliance Matrix: (Units=1/GPa)
#
#
# Indices 1 2 3 4 5 6 
#
# 1 0.008376 -0.002688 -0.002896 0.000798 0.000356 -0.002722
# 2 -0.002688 0.008618 -0.004535 0.001862 -0.000038 -0.000789
# 3 -0.002896 -0.004535 0.040750 -0.003552 -0.026392 -0.004200
# 4 0.000798 0.001862 -0.003552 0.021852 0.000785 -0.003156
# 5 0.000356 -0.000038 -0.026392 0.000785 0.049781 -0.000058
# 6 -0.002722 -0.000789 -0.004200 -0.003156 -0.000058 0.018892
#
#
# Mechanical properties :
#
#
# Convention : Reuss Voigt Hill
#
# Bulk Modulus (GPa) = 26.66343 74.60139 50.63241
# Shear Modulus (GPa) = 27.62307 45.02036 36.32172
#
# Velocity S-wave (km/s) = 3.24573 4.14363 3.72185
# Velocity P-wave (km/s) = 4.92089 7.16547 6.14651
#
# Compressibility (1/GPa) = 0.03750455
#
# Stress axis : x y z
#
# Youngs Moduli (GPa) = 119.38411 116.04201 24.54010
#
# Poissons Ratio (x) = 0.31197 0.07108
# Poissons Ratio (y) = 0.32096 0.11128
# Poissons Ratio (z) = 0.34578 0.52621
#
# Static dielectric constant tensor:
#      x y z
#    x 2.130750 0.087480 -0.004730 
#    y 0.087480 2.103680 0.038840 
#    z -0.004730 0.038840 2.302450 
# 
# From -- ./inp_files/454525.got.cif
#   From: 2010.05.17/outbox.cif.g08.bks.cpg/sg2_228_cif.got.tgz:454525.got - 2010.06.03 11:33:40.
