data_PCOD9053895
_publ_section_title
;
Structure prediction by ZEFSAII (Michael W. Deem and Ramdas Pophale) SiO2 
 PCOD9053895
Probable space group: P -1
;
_chemical_formula_sum "Si O2"
_cell_formula_units_Z 16
_cell_length_a 29.999402
_cell_length_b 14.554740
_cell_length_c 18.283431
_cell_angle_alpha 20.875940
_cell_angle_beta 160.246315
_cell_angle_gamma 160.711161
_cell_volume 811.991489
_symmetry_space_group_name_H-M "P -1"
_symmetry_group_IT_number 2
_symmetry_cell_setting 'triclinic'
loop_
_space_group_symop_operation_xyz
x,y,z
-x,-y,-z
loop_
_atom_site_type_symbol
_atom_site_label
_atom_site_fract_x
_atom_site_fract_y
_atom_site_fract_z
Si Si1 0.670619 0.095348 0.220159
Si Si2 0.623675 0.972746 0.406780
Si Si3 0.309048 0.291304 0.776641
Si Si4 0.585361 0.221780 0.534157
Si Si5 0.606560 0.246674 0.310042
Si Si6 0.264296 0.437440 0.275613
Si Si7 0.840550 0.709304 0.939413
Si Si8 0.857951 0.321324 0.967901
O O1 0.666117 0.117043 0.284789
O O2 0.705340 0.829232 0.459428
O O3 0.793501 0.407785 0.136889
O O4 0.500000 0.000000 0.000000
O O5 0.435464 0.743384 0.295892
O O6 0.703071 0.778068 0.684541
O O7 0.688846 0.236030 0.372531
O O8 0.333905 0.441704 0.623622
O O9 0.305723 0.505847 0.675156
O O10 0.465090 0.284374 0.037142
O O11 0.159349 0.955078 0.805861
O O12 0.715864 0.167015 0.805750
O O13 0.500000 0.000000 0.500000
O O14 0.462704 0.087307 0.510832
O O15 0.164081 0.350988 0.110250
O O16 0.180062 0.491132 0.173137
O O17 0.000000 0.000000 0.000000
O O18 0.000000 0.500000 0.000000
#
# Coordination Sequence:
#
# PCOD9053895 Si02
#       8
#     2   2   2   2   2   2   2   2
#     4  11  21  39  71  94 119 163 211 257 323 378
#     4  11  20  38  67  96 122 156 214 259 307 385
#     4   9  18  35  58  82 123 160 202 247 304 349
#     4   9  18  35  60  82 112 155 206 249 292 354
#     4   9  18  34  57  92 119 151 199 262 295 351
#     4  11  22  42  65  92 126 165 215 260 305 384
#     4  11  25  45  62  95 131 157 206 272 322 377
#     4  11  24  42  57  88 133 167 205 257 304 364
#
# _framework density 19.704640000000001
#
# number of rings (size 3 to 8) (size 9 to 14) (size 15 to 20)
#    0.000    1.750    5.000    1.500    0.000    5.500 
#    9.000    0.000    0.000    0.000    0.000    0.000 
#    0.000    0.000    0.000    0.000    0.000    0.000 
#
# Total GULP energy -89165.635199 kJ/mol
# GULP energy per Si atom -5572.852200 kJ/mol
# Density = 1.965979 g / cm^3
# Si number density = 19.704640 Si / 1000 Ang^3
#
#
#
# Elastic Constant Matrix: (Units=GPa)
#
#
# Indices 1 2 3 4 5 6 
#
# 1 106.8291 27.8300 38.9607 -13.7912 8.4633 2.0732
# 2 27.8300 77.8177 24.4450 -14.2709 -5.0663 10.4915
# 3 38.9607 24.4450 62.8765 -25.7157 -19.1869 10.1059
# 4 -13.7912 -14.2709 -25.7157 36.2805 4.0582 -9.8116
# 5 8.4633 -5.0663 -19.1869 4.0582 27.1249 -3.8709
# 6 2.0732 10.4915 10.1059 -9.8116 -3.8709 29.1712
#
#
#
# Elastic Compliance Matrix: (Units=1/GPa)
#
#
# Indices 1 2 3 4 5 6 
#
# 1 0.016768 -0.002974 -0.016110 -0.003848 -0.016322 0.001999
# 2 -0.002974 0.015636 -0.002322 0.002228 0.001347 -0.003679
# 3 -0.016110 -0.002322 0.046160 0.021264 0.033722 -0.002384
# 4 -0.003848 0.002228 0.021264 0.042956 0.011382 0.008064
# 5 -0.016322 0.001347 0.033722 0.011382 0.064559 0.001388
# 6 0.001999 -0.003679 -0.002384 0.008064 0.001388 0.039184
#
#
# Mechanical properties :
#
#
# Convention : Reuss Voigt Hill
#
# Bulk Modulus (GPa) = 27.97074 47.77720 37.87397
# Shear Modulus (GPa) = 17.85757 28.93450 23.39604
#
# Velocity S-wave (km/s) = 3.01369 3.83614 3.44951
# Velocity P-wave (km/s) = 5.13182 6.62726 5.92690
#
# Compressibility (1/GPa) = 0.03575164
#
# Stress axis : x y z
#
# Youngs Moduli (GPa) = 59.63663 63.95471 21.66395
#
# Poissons Ratio (x) = 0.19021 0.34900
# Poissons Ratio (y) = 0.17736 0.05031
# Poissons Ratio (z) = 0.96073 0.14853
#
# Static dielectric constant tensor:
#      x y z
#    x 1.737500 0.046790 -0.008850 
#    y 0.046790 1.712580 -0.009150 
#    z -0.008850 -0.009150 1.704370 
# 
# From -- ./inp_files/580172.got.cif
#   From: 2010.05.17/outbox.cif.g08.bks.cpg/sg2_291_cif.got.tgz:580172.got - 2010.06.03 11:33:40.
