data_PCOD9053650
_publ_section_title
;
Structure prediction by ZEFSAII (Michael W. Deem and Ramdas Pophale) SiO2 
 PCOD9053650
Probable space group: P -1
;
_chemical_formula_sum "Si O2"
_cell_formula_units_Z 14
_cell_length_a 13.962084
_cell_length_b 9.387379
_cell_length_c 9.556883
_cell_angle_alpha 130.310791
_cell_angle_beta 80.935806
_cell_angle_gamma 62.587753
_cell_volume 627.367881
_symmetry_space_group_name_H-M "P -1"
_symmetry_group_IT_number 2
_symmetry_cell_setting 'triclinic'
loop_
_space_group_symop_operation_xyz
x,y,z
-x,-y,-z
loop_
_atom_site_type_symbol
_atom_site_label
_atom_site_fract_x
_atom_site_fract_y
_atom_site_fract_z
Si Si1 0.814969 0.379934 0.372167
Si Si2 0.668308 0.716646 0.115643
Si Si3 0.576753 0.488938 0.607352
Si Si4 0.828171 0.578952 0.244106
Si Si5 0.673413 0.879392 0.920934
Si Si6 0.442641 0.809415 0.367792
Si Si7 0.943312 0.723038 0.773713
O O1 0.741579 0.306843 0.410221
O O2 0.780447 0.465212 0.272051
O O3 0.736489 0.671803 0.646611
O O4 0.987359 0.175829 0.219886
O O5 0.814511 0.539413 0.060847
O O6 0.581778 0.655531 0.142292
O O7 0.562845 0.033712 0.401628
O O8 0.691145 0.724481 0.954685
O O9 0.500000 0.500000 0.500000
O O10 0.566350 0.375715 0.674058
O O11 0.487017 0.807837 0.857773
O O12 0.976434 0.425246 0.189287
O O13 0.706185 0.916374 0.502555
O O14 0.775011 0.917000 0.943469
O O15 0.000000 0.500000 0.500000
#
# Coordination Sequence:
#
# PCOD9053650 Si02
#       7
#     2   2   2   2   2   2   2
#     4   9  20  37  58  78 108 149 185 224 270 325
#     4   9  17  33  56  79 109 141 184 221 271 324
#     4  12  20  33  57  86 113 141 184 230 276 322
#     4   8  15  34  56  73 105 146 180 213 277 312
#     4  11  20  35  58  85 107 144 192 221 266 335
#     4   9  18  32  53  79 112 141 170 228 278 311
#     4   8  18  35  59  77 107 147 187 225 265 325
#
# _framework density 22.315455
#
# number of rings (size 3 to 8) (size 9 to 14) (size 15 to 20)
#    1.714    0.857    1.429    2.143    0.000    0.571 
#    0.000    3.571    3.143    1.714    0.000    0.000 
#    0.000    0.000    0.000    0.000    0.000    0.000 
#
# Total GULP energy -77947.219397 kJ/mol
# GULP energy per Si atom -5567.658528 kJ/mol
# Density = 2.226466 g / cm^3
# Si number density = 22.315455 Si / 1000 Ang^3
#
#
#
# Elastic Constant Matrix: (Units=GPa)
#
#
# Indices 1 2 3 4 5 6 
#
# 1 116.0521 24.4114 7.1257 3.2895 -21.7450 13.6648
# 2 24.4114 103.4923 25.9110 -0.1208 3.2335 17.6986
# 3 7.1257 25.9110 35.6427 7.7635 7.2687 -9.5565
# 4 3.2895 -0.1208 7.7635 15.4907 -1.4699 0.4932
# 5 -21.7450 3.2335 7.2687 -1.4699 34.3357 -1.3106
# 6 13.6648 17.6986 -9.5565 0.4932 -1.3106 39.3158
#
#
#
# Elastic Compliance Matrix: (Units=1/GPa)
#
#
# Indices 1 2 3 4 5 6 
#
# 1 0.011052 -0.001064 -0.004306 0.000683 0.007882 -0.004155
# 2 -0.001064 0.015859 -0.016462 0.009067 0.001292 -0.010842
# 3 -0.004306 -0.016462 0.056018 -0.029278 -0.013433 0.022443
# 4 0.000683 0.009067 -0.029278 0.080371 0.008753 -0.012152
# 5 0.007882 0.001292 -0.013433 0.008753 0.037004 -0.005462
# 6 -0.004155 -0.010842 0.022443 -0.012152 -0.005462 0.037185
#
#
# Mechanical properties :
#
#
# Convention : Reuss Voigt Hill
#
# Bulk Modulus (GPa) = 25.46776 41.12038 33.29407
# Shear Modulus (GPa) = 16.99285 31.01105 24.00195
#
# Velocity S-wave (km/s) = 2.76249 3.73187 3.28315
# Velocity P-wave (km/s) = 4.64893 6.08572 5.41519
#
# Compressibility (1/GPa) = 0.03926533
#
# Stress axis : x y z
#
# Youngs Moduli (GPa) = 90.48460 63.05490 17.85134
#
# Poissons Ratio (x) = 0.06706 0.07688
# Poissons Ratio (y) = 0.09623 0.29387
# Poissons Ratio (z) = 0.38967 1.03800
#
# Static dielectric constant tensor:
#      x y z
#    x 1.917870 0.022680 0.004610 
#    y 0.022680 1.784430 -0.007730 
#    z 0.004610 -0.007730 1.813860 
# 
# From -- ./inp_files/446409.got.cif
#   From: 2010.05.17/outbox.cif.g08.bks.cpg/sg2_224_cif.got.tgz:446409.got - 2010.06.03 11:33:40.
