data_PCOD9053484
_publ_section_title
;
Structure prediction by ZEFSAII (Michael W. Deem and Ramdas Pophale) SiO2 
 PCOD9053484
Probable space group: P -1
;
_chemical_formula_sum "Si O2"
_cell_formula_units_Z 16
_cell_length_a 5.699631
_cell_length_b 16.190749
_cell_length_c 19.433330
_cell_angle_alpha 24.450084
_cell_angle_beta 120.914108
_cell_angle_gamma 116.724185
_cell_volume 635.997059
_symmetry_space_group_name_H-M "P -1"
_symmetry_group_IT_number 2
_symmetry_cell_setting 'triclinic'
loop_
_space_group_symop_operation_xyz
x,y,z
-x,-y,-z
loop_
_atom_site_type_symbol
_atom_site_label
_atom_site_fract_x
_atom_site_fract_y
_atom_site_fract_z
Si Si1 0.530355 0.227056 0.358077
Si Si2 0.103413 0.632160 0.820941
Si Si3 0.892821 0.158129 0.597338
Si Si4 0.717008 0.161635 0.925365
Si Si5 0.831385 0.249071 0.110197
Si Si6 0.095277 0.564191 0.358841
Si Si7 0.553595 0.758140 0.053819
Si Si8 0.244872 0.873069 0.249023
O O1 0.705849 0.326809 0.246941
O O2 0.708765 0.238102 0.445851
O O3 0.219128 0.293921 0.283100
O O4 0.500000 0.000000 0.500000
O O5 0.215307 0.740366 0.823591
O O6 0.067591 0.400428 0.011101
O O7 0.086817 0.331184 0.521826
O O8 0.716762 0.121181 0.667959
O O9 0.054624 0.963668 0.739466
O O10 0.693733 0.277706 0.905297
O O11 0.988518 0.023745 0.077335
O O12 0.688584 0.331824 0.735492
O O13 0.500000 0.000000 0.000000
O O14 0.543290 0.312322 0.981127
O O15 0.167669 0.658610 0.371457
O O16 0.812643 0.662219 0.207379
O O17 0.548565 0.999555 0.860548
#
# Coordination Sequence:
#
# PCOD9053484 Si02
#       8
#     2   2   2   2   2   2   2   2
#     4  12  27  52  79 112 151 193 241 308 383 441
#     4  11  28  52  81 107 152 197 244 304 380 449
#     4  12  27  43  70 106 147 187 243 308 361 440
#     4  11  19  41  68  93 130 186 237 288 356 426
#     4  11  26  47  75 109 139 193 245 305 364 449
#     4  11  24  43  67 102 142 188 238 299 366 428
#     4  11  22  41  72  95 135 185 241 291 358 439
#     4  11  23  42  68  99 140 188 242 297 352 437
#
# _framework density 25.157347999999999
#
# number of rings (size 3 to 8) (size 9 to 14) (size 15 to 20)
#    0.000    0.750    5.000    2.250    3.500    3.000 
#    2.250    1.250    0.000    0.000    0.000    0.000 
#    0.000    0.000    0.000    0.000    0.000    0.000 
#
# Total GULP energy -89341.795468 kJ/mol
# GULP energy per Si atom -5583.862217 kJ/mol
# Density = 2.510009 g / cm^3
# Si number density = 25.157348 Si / 1000 Ang^3
#
#
#
# Elastic Constant Matrix: (Units=GPa)
#
#
# Indices 1 2 3 4 5 6 
#
# 1 80.0477 34.6838 35.5380 12.0108 -0.2439 -13.3530
# 2 34.6838 162.5033 32.3047 10.9512 6.9961 -26.2641
# 3 35.5380 32.3047 72.2323 -15.0510 0.4896 -20.6452
# 4 12.0108 10.9512 -15.0510 54.9383 -1.4969 1.2010
# 5 -0.2439 6.9961 0.4896 -1.4969 46.4086 11.1654
# 6 -13.3530 -26.2641 -20.6452 1.2010 11.1654 34.7955
#
#
#
# Elastic Compliance Matrix: (Units=1/GPa)
#
#
# Indices 1 2 3 4 5 6 
#
# 1 0.018441 -0.001541 -0.009596 -0.006359 0.000130 0.000398
# 2 -0.001541 0.007893 -0.001640 -0.001869 -0.002507 0.005262
# 3 -0.009596 -0.001640 0.023873 0.008698 -0.002087 0.009614
# 4 -0.006359 -0.001869 0.008698 0.022364 0.000811 0.000278
# 5 0.000130 -0.002507 -0.002087 0.000811 0.024623 -0.011010
# 6 0.000398 0.005262 0.009614 0.000278 -0.011010 0.042092
#
#
# Mechanical properties :
#
#
# Convention : Reuss Voigt Hill
#
# Bulk Modulus (GPa) = 40.56275 57.75958 49.16117
# Shear Modulus (GPa) = 28.89185 41.37895 35.13540
#
# Velocity S-wave (km/s) = 3.39255 4.06002 3.74120
# Velocity P-wave (km/s) = 5.61288 6.70727 6.18433
#
# Compressibility (1/GPa) = 0.02465316
#
# Stress axis : x y z
#
# Youngs Moduli (GPa) = 54.22590 126.69276 41.88781
#
# Poissons Ratio (x) = 0.19525 0.40195
# Poissons Ratio (y) = 0.08357 0.06871
# Poissons Ratio (z) = 0.52034 0.20781
#
# Static dielectric constant tensor:
#      x y z
#    x 2.086460 0.020960 0.004500 
#    y 0.020960 2.039590 -0.014750 
#    z 0.004500 -0.014750 1.998080 
# 
# From -- ./inp_files/550048.got.cif
#   From: 2010.05.17/outbox.cif.g08.bks.cpg/sg2_276_cif.got.tgz:550048.got - 2010.06.03 11:33:40.
