data_PCOD9053881
_publ_section_title
;
Structure prediction by ZEFSAII (Michael W. Deem and Ramdas Pophale) SiO2 
 PCOD9053881
Probable space group: P -1
;
_chemical_formula_sum "Si O2"
_cell_formula_units_Z 12
_cell_length_a 15.500567
_cell_length_b 9.815909
_cell_length_c 8.560712
_cell_angle_alpha 79.565584
_cell_angle_beta 117.582022
_cell_angle_gamma 47.894319
_cell_volume 568.940059
_symmetry_space_group_name_H-M "P -1"
_symmetry_group_IT_number 2
_symmetry_cell_setting 'triclinic'
loop_
_space_group_symop_operation_xyz
x,y,z
-x,-y,-z
loop_
_atom_site_type_symbol
_atom_site_label
_atom_site_fract_x
_atom_site_fract_y
_atom_site_fract_z
Si Si1 0.597465 0.250756 0.217952
Si Si2 0.467953 0.891279 0.077975
Si Si3 0.000297 0.833548 0.550576
Si Si4 0.723243 0.665398 0.579850
Si Si5 0.628850 0.677992 0.828585
Si Si6 0.936147 0.687422 0.274354
O O1 0.478926 0.337972 0.246921
O O2 0.823229 0.005617 0.479128
O O3 0.500000 0.500000 0.000000
O O4 0.572505 0.161162 0.086960
O O5 0.653796 0.642015 0.394082
O O6 0.281073 0.094968 0.989065
O O7 0.500000 0.000000 0.000000
O O8 0.951361 0.816144 0.350037
O O9 0.204347 0.530397 0.855375
O O10 0.000000 0.000000 0.500000
O O11 0.732444 0.584239 0.772127
O O12 0.918376 0.492737 0.711765
O O13 0.545817 0.995187 0.368079
O O14 0.000000 0.500000 0.500000
#
# Coordination Sequence:
#
# PCOD9053881 Si02
#       6
#     2   2   2   2   2   2
#     4  11  22  39  67  91 118 166 214 249 306 375
#     4  11  20  38  65  90 121 161 211 256 301 368
#     4  11  23  40  67  91 123 166 211 257 305 378
#     4  11  23  39  64  95 129 162 204 266 314 364
#     4  11  23  41  61  95 131 162 205 261 320 361
#     4  11  21  37  66  95 116 164 218 251 306 370
#
# _framework density 21.091851999999999
#
# number of rings (size 3 to 8) (size 9 to 14) (size 15 to 20)
#    0.000    1.000    5.000    3.000    0.000    1.333 
#    0.000    5.833    0.000    0.000    0.000    0.000 
#    0.000    0.000    0.000    0.000    0.000    0.000 
#
# Total GULP energy -66984.560073 kJ/mol
# GULP energy per Si atom -5582.046673 kJ/mol
# Density = 2.104385 g / cm^3
# Si number density = 21.091852 Si / 1000 Ang^3
#
#
#
# Elastic Constant Matrix: (Units=GPa)
#
#
# Indices 1 2 3 4 5 6 
#
# 1 188.3919 52.3817 48.7657 -8.7963 28.9099 -18.1310
# 2 52.3817 61.8720 6.8575 -1.2721 6.5755 15.7028
# 3 48.7657 6.8575 73.2683 -14.9132 27.1392 -1.7602
# 4 -8.7963 -1.2721 -14.9132 25.2786 -7.2253 8.3326
# 5 28.9099 6.5755 27.1392 -7.2253 44.5942 -4.8441
# 6 -18.1310 15.7028 -1.7602 8.3326 -4.8441 49.0118
#
#
#
# Elastic Compliance Matrix: (Units=1/GPa)
#
#
# Indices 1 2 3 4 5 6 
#
# 1 0.010318 -0.009812 -0.005904 -0.003137 -0.001381 0.007145
# 2 -0.009812 0.027518 0.005205 0.004982 -0.001497 -0.013254
# 3 -0.005904 0.005205 0.022719 0.010770 -0.009654 -0.005821
# 4 -0.003137 0.004982 0.010770 0.048988 0.001536 -0.010547
# 5 -0.001381 -0.001497 -0.009654 0.001536 0.029916 0.002318
# 6 0.007145 -0.013254 -0.005821 -0.010547 0.002318 0.029106
#
#
# Mechanical properties :
#
#
# Convention : Reuss Voigt Hill
#
# Bulk Modulus (GPa) = 25.29536 59.94912 42.62224
# Shear Modulus (GPa) = 24.65930 38.14539 31.40234
#
# Velocity S-wave (km/s) = 3.42298 4.25730 3.86273
# Velocity P-wave (km/s) = 5.25750 7.25608 6.33609
#
# Compressibility (1/GPa) = 0.03953294
#
# Stress axis : x y z
#
# Youngs Moduli (GPa) = 96.92140 36.34028 44.01585
#
# Poissons Ratio (x) = 0.35656 0.25987
# Poissons Ratio (y) = 0.95097 -0.22911
# Poissons Ratio (z) = 0.57223 -0.18916
#
# Static dielectric constant tensor:
#      x y z
#    x 1.837320 -0.051010 0.000760 
#    y -0.051010 1.873190 -0.010330 
#    z 0.000760 -0.010330 1.815030 
# 
# From -- ./inp_files/414534.got.cif
#   From: 2010.05.17/outbox.cif.g08.bks.cpg/sg2_208_cif.got.tgz:414534.got - 2010.06.03 11:33:40.
