data_PCOD9053233
_publ_section_title
;
Structure prediction by ZEFSAII (Michael W. Deem and Ramdas Pophale) SiO2 
 PCOD9053233
Probable space group: P -1
;
_chemical_formula_sum "Si O2"
_cell_formula_units_Z 16
_cell_length_a 22.032457
_cell_length_b 19.600402
_cell_length_c 8.760398
_cell_angle_alpha 133.436396
_cell_angle_beta 145.843956
_cell_angle_gamma 21.301584
_cell_volume 704.110424
_symmetry_space_group_name_H-M "P -1"
_symmetry_group_IT_number 2
_symmetry_cell_setting 'triclinic'
loop_
_space_group_symop_operation_xyz
x,y,z
-x,-y,-z
loop_
_atom_site_type_symbol
_atom_site_label
_atom_site_fract_x
_atom_site_fract_y
_atom_site_fract_z
Si Si1 0.280970 0.224589 0.961286
Si Si2 0.254418 0.739172 0.794032
Si Si3 0.449826 0.483701 0.216760
Si Si4 0.690701 0.897742 0.848359
Si Si5 0.177046 0.031983 0.612771
Si Si6 0.336059 0.759221 0.279297
Si Si7 0.861783 0.429241 0.405946
Si Si8 0.229208 0.476333 0.285770
O O1 0.021436 0.391278 0.619772
O O2 0.280045 0.195729 0.092374
O O3 0.312373 0.310917 0.146130
O O4 0.500000 0.000000 0.000000
O O5 0.321639 0.707515 0.710731
O O6 0.026480 0.851123 0.519593
O O7 0.500000 0.500000 0.000000
O O8 0.224817 0.851455 0.019583
O O9 0.500000 0.500000 0.500000
O O10 0.286247 0.690044 0.113638
O O11 0.317171 0.486899 0.947744
O O12 0.500000 0.000000 0.500000
O O13 0.641871 0.041282 0.029493
O O14 0.952967 0.700961 0.021131
O O15 0.056009 0.200975 0.507602
O O16 0.265751 0.880210 0.457041
O O17 0.611702 0.568036 0.529618
O O18 0.745047 0.540789 0.501025
#
# Coordination Sequence:
#
# PCOD9053233 Si02
#       8
#     2   2   2   2   2   2   2   2
#     4  10  21  40  61  89 119 157 215 248 290 367
#     4  10  17  35  60  82 108 153 195 233 287 358
#     4  11  22  38  55  89 122 150 194 245 309 360
#     4  10  21  39  60  88 126 157 201 258 308 355
#     4  10  19  35  61  89 115 150 207 244 291 359
#     4  11  20  36  65  87 113 154 207 246 290 366
#     4  10  18  36  60  83 115 157 195 245 291 360
#     4  10  19  39  67  87 112 170 209 240 300 365
#
# _framework density 22.723707999999998
#
# number of rings (size 3 to 8) (size 9 to 14) (size 15 to 20)
#    0.000    2.000    3.750    5.625    0.000    0.000 
#    9.000    1.875    0.000    0.000    0.000    0.000 
#    0.000    0.000    0.000    0.000    0.000    0.000 
#
# Total GULP energy -89245.012314 kJ/mol
# GULP energy per Si atom -5577.813270 kJ/mol
# Density = 2.267199 g / cm^3
# Si number density = 22.723708 Si / 1000 Ang^3
#
#
#
# Elastic Constant Matrix: (Units=GPa)
#
#
# Indices 1 2 3 4 5 6 
#
# 1 23.0874 5.0878 31.2808 -6.2422 6.3724 -12.0755
# 2 5.0878 87.4304 34.3701 28.8449 1.3579 -17.6789
# 3 31.2808 34.3701 185.7167 19.8156 5.1139 -20.0024
# 4 -6.2422 28.8449 19.8156 37.6714 -6.6973 9.1536
# 5 6.3724 1.3579 5.1139 -6.6973 31.9929 8.3288
# 6 -12.0755 -17.6789 -20.0024 9.1536 8.3288 32.1909
#
#
#
# Elastic Compliance Matrix: (Units=1/GPa)
#
#
# Indices 1 2 3 4 5 6 
#
# 1 0.079836 0.004523 -0.010978 0.004544 -0.021143 0.029789
# 2 0.004523 0.027708 0.001330 -0.031778 -0.017062 0.031190
# 3 -0.010978 0.001330 0.008575 -0.009040 -0.002474 0.005151
# 4 0.004544 -0.031778 -0.009040 0.074026 0.030480 -0.050300
# 5 -0.021143 -0.017062 -0.002474 0.030480 0.053749 -0.041412
# 6 0.029789 0.031190 0.005151 -0.050300 -0.041412 0.087587
#
#
# Mechanical properties :
#
#
# Convention : Reuss Voigt Hill
#
# Bulk Modulus (GPa) = 9.44577 48.63463 29.04020
# Shear Modulus (GPa) = 13.26189 35.40411 24.33300
#
# Velocity S-wave (km/s) = 2.41843 3.95146 3.27589
# Velocity P-wave (km/s) = 3.45894 6.50137 5.20731
#
# Compressibility (1/GPa) = 0.10586744
#
# Stress axis : x y z
#
# Youngs Moduli (GPa) = 12.52573 36.09130 116.62015
#
# Poissons Ratio (x) = -0.16323 1.28027
# Poissons Ratio (y) = -0.05665 -0.15514
# Poissons Ratio (z) = 0.13751 -0.04801
#
# Static dielectric constant tensor:
#      x y z
#    x 1.908840 0.010070 -0.056950 
#    y 0.010070 1.924310 -0.001790 
#    z -0.056950 -0.001790 1.935010 
# 
# From -- ./inp_files/355582.got.cif
#   From: 2010.05.17/outbox.cif.g08.bks.cpg/sg2_178_cif.got.tgz:355582.got - 2010.06.03 11:33:40.
