data_PCOD9053680
_publ_section_title
;
Structure prediction by ZEFSAII (Michael W. Deem and Ramdas Pophale) SiO2 
 PCOD9053680
Probable space group: P -1
;
_chemical_formula_sum "Si O2"
_cell_formula_units_Z 14
_cell_length_a 11.465326
_cell_length_b 6.999935
_cell_length_c 7.763448
_cell_angle_alpha 121.425745
_cell_angle_beta 99.982520
_cell_angle_gamma 96.153645
_cell_volume 508.948084
_symmetry_space_group_name_H-M "P -1"
_symmetry_group_IT_number 2
_symmetry_cell_setting 'triclinic'
loop_
_space_group_symop_operation_xyz
x,y,z
-x,-y,-z
loop_
_atom_site_type_symbol
_atom_site_label
_atom_site_fract_x
_atom_site_fract_y
_atom_site_fract_z
Si Si1 0.485009 0.186978 0.827805
Si Si2 0.657151 0.245281 0.588981
Si Si3 0.000744 0.242964 0.814492
Si Si4 0.752045 0.633773 0.198010
Si Si5 0.119315 0.655308 0.507629
Si Si6 0.777710 0.892602 0.668630
Si Si7 0.707664 0.146534 0.050603
O O1 0.564535 0.296833 0.732314
O O2 0.372271 0.304893 0.862676
O O3 0.430009 0.916267 0.646838
O O4 0.572275 0.193237 0.017311
O O5 0.773318 0.424538 0.619156
O O6 0.715896 0.059068 0.614178
O O7 0.944649 0.226635 0.600411
O O8 0.917250 0.031276 0.796647
O O9 0.137797 0.225946 0.819470
O O10 0.000000 0.500000 0.000000
O O11 0.768780 0.374840 0.061680
O O12 0.767925 0.686212 0.433120
O O13 0.209333 0.810932 0.740455
O O14 0.000000 0.500000 0.500000
O O15 0.712421 0.912286 0.842797
#
# Coordination Sequence:
#
# PCOD9053680 Si02
#       7
#     2   2   2   2   2   2   2
#     4   9  19  38  60  91 115 158 212 241 295 350
#     4   8  18  36  63  85 120 162 201 251 288 358
#     4  11  20  38  64  85 115 164 207 250 298 349
#     4  11  20  35  64  88 120 152 207 255 285 362
#     4  11  21  37  62  89 125 162 197 244 315 358
#     4   9  19  36  60  89 115 158 207 248 295 345
#     4  11  21  38  62  87 126 159 189 253 306 360
#
# _framework density 27.507717
#
# number of rings (size 3 to 8) (size 9 to 14) (size 15 to 20)
#    0.000    2.000    2.857    1.714    0.000    0.571 
#    0.000    1.429    9.429    0.000    0.000    0.000 
#    0.000    0.000    0.000    0.000    0.000    0.000 
#
# Total GULP energy -78087.837854 kJ/mol
# GULP energy per Si atom -5577.702704 kJ/mol
# Density = 2.744511 g / cm^3
# Si number density = 27.507717 Si / 1000 Ang^3
#
#
#
# Elastic Constant Matrix: (Units=GPa)
#
#
# Indices 1 2 3 4 5 6 
#
# 1 233.4951 47.8080 44.0672 -17.3781 -4.1722 17.7876
# 2 47.8080 50.0115 23.7770 -7.1082 -4.8147 6.3968
# 3 44.0672 23.7770 152.6711 7.0001 18.9153 -20.6449
# 4 -17.3781 -7.1082 7.0001 40.8474 -12.4495 -2.4322
# 5 -4.1722 -4.8147 18.9153 -12.4495 34.8402 -5.6915
# 6 17.7876 6.3968 -20.6449 -2.4322 -5.6915 45.0914
#
#
#
# Elastic Compliance Matrix: (Units=1/GPa)
#
#
# Indices 1 2 3 4 5 6 
#
# 1 0.005774 -0.003983 -0.001635 0.002383 0.001530 -0.002140
# 2 -0.003983 0.028229 -0.004955 0.006240 0.007792 -0.003382
# 3 -0.001635 -0.004955 0.009524 -0.005093 -0.007130 0.004533
# 4 0.002383 0.006240 -0.005093 0.032087 0.015297 -0.000496
# 5 0.001530 0.007792 -0.007130 0.015297 0.039435 0.000829
# 6 -0.002140 -0.003382 0.004533 -0.000496 0.000829 0.025654
#
#
# Mechanical properties :
#
#
# Convention : Reuss Voigt Hill
#
# Bulk Modulus (GPa) = 44.68224 74.16466 59.42345
# Shear Modulus (GPa) = 29.53164 45.52419 37.52792
#
# Velocity S-wave (km/s) = 3.28010 4.07253 3.69761
# Velocity P-wave (km/s) = 5.53392 7.00956 6.31499
#
# Compressibility (1/GPa) = 0.02238026
#
# Stress axis : x y z
#
# Youngs Moduli (GPa) = 173.17590 35.42483 105.00263
#
# Poissons Ratio (x) = 0.14111 0.17163
# Poissons Ratio (y) = 0.68981 0.52033
# Poissons Ratio (z) = 0.28307 0.17555
#
# Static dielectric constant tensor:
#      x y z
#    x 2.255220 0.165310 -0.019470 
#    y 0.165310 2.294230 0.038670 
#    z -0.019470 0.038670 2.259430 
# 
# From -- ./inp_files/214151.got.cif
#   From: 2010.05.17/outbox.cif.g08.bks.cpg/sg2_108_cif.got.tgz:214151.got - 2010.06.03 11:33:40.
