data_PCOD9053762
_publ_section_title
;
Structure prediction by ZEFSAII (Michael W. Deem and Ramdas Pophale) SiO2 
 PCOD9053762
Probable space group: P -1
;
_chemical_formula_sum "Si O2"
_cell_formula_units_Z 16
_cell_length_a 13.686129
_cell_length_b 6.822746
_cell_length_c 7.571132
_cell_angle_alpha 121.948799
_cell_angle_beta 99.060733
_cell_angle_gamma 93.869377
_cell_volume 582.719227
_symmetry_space_group_name_H-M "P -1"
_symmetry_group_IT_number 2
_symmetry_cell_setting 'triclinic'
loop_
_space_group_symop_operation_xyz
x,y,z
-x,-y,-z
loop_
_atom_site_type_symbol
_atom_site_label
_atom_site_fract_x
_atom_site_fract_y
_atom_site_fract_z
Si Si1 0.710414 0.267875 0.426093
Si Si2 0.603434 0.811141 0.139012
Si Si3 0.060740 0.400635 0.761079
Si Si4 0.316578 0.257760 0.501181
Si Si5 0.983574 0.098939 0.287390
Si Si6 0.151794 0.522479 0.167415
Si Si7 0.461759 0.654743 0.318567
Si Si8 0.173872 0.034085 0.077872
O O1 0.726839 0.507691 0.437461
O O2 0.803518 0.272410 0.586781
O O3 0.623877 0.271702 0.553195
O O4 0.659596 0.052813 0.187377
O O5 0.681723 0.780067 0.305166
O O6 0.423702 0.397272 0.105098
O O7 0.501640 0.805994 0.225396
O O8 0.041579 0.318405 0.518027
O O9 0.965124 0.520118 0.835889
O O10 0.050136 0.141177 0.725465
O O11 0.152430 0.553478 0.970525
O O12 0.435985 0.323960 0.530201
O O13 0.262210 0.054387 0.258847
O O14 0.074234 0.041103 0.167603
O O15 0.880446 0.135729 0.175829
O O16 0.198345 0.293333 0.115575
#
# Coordination Sequence:
#
# PCOD9053762 Si02
#       8
#     2   2   2   2   2   2   2   2
#     4  11  20  37  60  82 113 154 183 229 288 329
#     4   9  21  38  57  84 111 150 185 236 275 337
#     4   9  18  35  52  78 107 138 182 222 271 327
#     4   9  20  36  56  83 117 143 188 235 271 335
#     4   9  18  32  57  76 103 146 177 219 276 327
#     4   9  20  34  51  78 109 138 181 227 268 333
#     4   9  20  40  57  84 116 145 189 235 275 336
#     4   9  18  34  52  78 109 140 177 228 273 322
#
# _framework density 27.457477000000001
#
# number of rings (size 3 to 8) (size 9 to 14) (size 15 to 20)
#    0.750    2.000    0.000    0.750    1.750    2.000 
#    6.750    0.000    5.500    0.000    0.000    0.000 
#    0.000    0.000    0.000    0.000    0.000    0.000 
#
# Total GULP energy -89293.200217 kJ/mol
# GULP energy per Si atom -5580.825014 kJ/mol
# Density = 2.739498 g / cm^3
# Si number density = 27.457477 Si / 1000 Ang^3
#
#
#
# Elastic Constant Matrix: (Units=GPa)
#
#
# Indices 1 2 3 4 5 6 
#
# 1 68.7912 -6.4725 31.4185 -2.2323 31.8211 0.7881
# 2 -6.4725 59.0578 24.0518 -1.0896 12.5975 4.1503
# 3 31.4185 24.0518 218.0097 14.3212 54.3910 -1.2439
# 4 -2.2323 -1.0896 14.3212 44.3962 4.2604 12.1953
# 5 31.8211 12.5975 54.3910 4.2604 49.0180 4.7859
# 6 0.7881 4.1503 -1.2439 12.1953 4.7859 25.7863
#
#
#
# Elastic Compliance Matrix: (Units=1/GPa)
#
#
# Indices 1 2 3 4 5 6 
#
# 1 0.022945 0.006133 0.000000 0.002897 -0.016728 0.000046
# 2 0.006133 0.020086 -0.001457 0.002948 -0.007441 -0.003504
# 3 0.000000 -0.001457 0.006702 -0.002332 -0.007151 0.002988
# 4 0.002897 0.002948 -0.002332 0.027274 -0.001116 -0.013367
# 5 -0.016728 -0.007441 -0.007151 -0.001116 0.041777 -0.005862
# 6 0.000046 -0.003504 0.002988 -0.013367 -0.005862 0.046897
#
#
# Mechanical properties :
#
#
# Convention : Reuss Voigt Hill
#
# Bulk Modulus (GPa) = 16.92472 49.31715 33.12093
# Shear Modulus (GPa) = 28.40530 43.63082 36.01806
#
# Velocity S-wave (km/s) = 3.21988 3.99059 3.62577
# Velocity P-wave (km/s) = 4.47224 6.26365 5.44216
#
# Compressibility (1/GPa) = 0.05908517
#
# Stress axis : x y z
#
# Youngs Moduli (GPa) = 43.58221 49.78614 149.20602
#
# Poissons Ratio (x) = -0.30534 0.00000
# Poissons Ratio (y) = -0.26729 0.21740
# Poissons Ratio (z) = 0.00000 0.07254
#
# Static dielectric constant tensor:
#      x y z
#    x 2.128350 0.036850 -0.046800 
#    y 0.036850 2.243420 -0.018790 
#    z -0.046800 -0.018790 2.270300 
# 
# From -- ./inp_files/328119.got.cif
#   From: 2010.05.17/outbox.cif.g08.bks.cpg/sg2_165_cif.got.tgz:328119.got - 2010.06.03 11:33:40.
