data_PCOD9053147
_publ_section_title
;
Structure prediction by ZEFSAII (Michael W. Deem and Ramdas Pophale) SiO2 
 PCOD9053147
Probable space group: P -1
;
_chemical_formula_sum "Si O2"
_cell_formula_units_Z 16
_cell_length_a 12.559776
_cell_length_b 14.779889
_cell_length_c 9.594718
_cell_angle_alpha 140.432274
_cell_angle_beta 126.329560
_cell_angle_gamma 36.776665
_cell_volume 677.779588
_symmetry_space_group_name_H-M "P -1"
_symmetry_group_IT_number 2
_symmetry_cell_setting 'triclinic'
loop_
_space_group_symop_operation_xyz
x,y,z
-x,-y,-z
loop_
_atom_site_type_symbol
_atom_site_label
_atom_site_fract_x
_atom_site_fract_y
_atom_site_fract_z
Si Si1 0.934022 0.587975 0.298474
Si Si2 0.606297 0.110268 0.282794
Si Si3 0.050278 0.203977 0.998176
Si Si4 0.729058 0.478157 0.596643
Si Si5 0.964632 0.071754 0.243869
Si Si6 0.803739 0.249529 0.625684
Si Si7 0.715665 0.988282 0.696442
Si Si8 0.411601 0.104532 0.754304
O O1 0.091938 0.556143 0.304120
O O2 0.406669 0.975880 0.486839
O O3 0.775224 0.684031 0.175811
O O4 0.004981 0.400212 0.209140
O O5 0.426034 0.308681 0.321621
O O6 0.699103 0.183845 0.511249
O O7 0.578136 0.989939 0.208674
O O8 0.755162 0.956253 0.105550
O O9 0.901647 0.261016 0.837224
O O10 0.046502 0.088232 0.978348
O O11 0.681296 0.442618 0.666332
O O12 0.797724 0.293539 0.336094
O O13 0.152129 0.987975 0.230123
O O14 0.943727 0.109179 0.441419
O O15 0.844742 0.759290 0.542977
O O16 0.574351 0.092169 0.834018
#
# Coordination Sequence:
#
# PCOD9053147 Si02
#       8
#     2   2   2   2   2   2   2   2
#     4   9  19  34  47  77 100 130 156 204 252 283
#     4  11  19  30  51  80  95 132 167 195 243 293
#     4  11  19  29  54  75 103 125 161 203 250 289
#     4   9  19  32  48  70 107 128 165 195 239 298
#     4   8  16  31  49  70  95 133 161 200 235 283
#     4   9  18  30  49  73 101 127 160 206 233 293
#     4   8  15  34  54  68  95 125 172 206 233 276
#     4   9  17  31  55  69  97 126 168 208 232 286
#
# _framework density 23.606494999999999
#
# number of rings (size 3 to 8) (size 9 to 14) (size 15 to 20)
#    1.500    1.250    0.000    4.125    0.000    2.500 
#    0.000    3.125    0.000    0.000    0.000    1.750 
#    0.000    0.000    0.000    0.000    0.000    0.000 
#
# Total GULP energy -89135.054625 kJ/mol
# GULP energy per Si atom -5570.940914 kJ/mol
# Density = 2.355277 g / cm^3
# Si number density = 23.606495 Si / 1000 Ang^3
#
#
#
# Elastic Constant Matrix: (Units=GPa)
#
#
# Indices 1 2 3 4 5 6 
#
# 1 131.6003 32.2965 32.6983 20.5902 30.0438 -16.9962
# 2 32.2965 88.8649 26.9028 34.7680 4.0859 -8.5854
# 3 32.6983 26.9028 85.1313 29.9249 24.3164 0.0314
# 4 20.5902 34.7680 29.9249 43.8602 13.5802 -4.6578
# 5 30.0438 4.0859 24.3164 13.5802 27.7803 4.0906
# 6 -16.9962 -8.5854 0.0314 -4.6578 4.0906 30.2463
#
#
#
# Elastic Compliance Matrix: (Units=1/GPa)
#
#
# Indices 1 2 3 4 5 6 
#
# 1 0.013054 -0.004467 -0.000183 0.003528 -0.016324 0.008819
# 2 -0.004467 0.018762 -0.002254 -0.014901 0.011480 -0.001030
# 3 -0.000183 -0.002254 0.018462 -0.006967 -0.012198 -0.000185
# 4 0.003528 -0.014901 -0.006967 0.044052 -0.018090 0.006991
# 5 -0.016324 0.011480 -0.012198 -0.018090 0.074239 -0.018728
# 6 0.008819 -0.001030 -0.000185 0.006991 -0.018728 0.041335
#
#
# Mechanical properties :
#
#
# Convention : Reuss Voigt Hill
#
# Bulk Modulus (GPa) = 27.41999 54.37686 40.89843
# Shear Modulus (GPa) = 21.19821 34.62394 27.91108
#
# Velocity S-wave (km/s) = 2.99989 3.83392 3.44226
# Velocity P-wave (km/s) = 4.86207 6.53325 5.75861
#
# Compressibility (1/GPa) = 0.03646974
#
# Stress axis : x y z
#
# Youngs Moduli (GPa) = 76.60486 53.30053 54.16456
#
# Poissons Ratio (x) = 0.23807 0.00993
# Poissons Ratio (y) = 0.34217 0.12209
# Poissons Ratio (z) = 0.01405 0.12014
#
# Static dielectric constant tensor:
#      x y z
#    x 1.923610 0.039990 -0.001000 
#    y 0.039990 1.967280 -0.044340 
#    z -0.001000 -0.044340 1.986330 
# 
# From -- ./inp_files/521024.got.cif
#   From: 2010.05.17/outbox.cif.g08.bks.cpg/sg2_261_cif.got.tgz:521024.got - 2010.06.03 11:33:40.
