data_PCOD9053349
_publ_section_title
;
Structure prediction by ZEFSAII (Michael W. Deem and Ramdas Pophale) SiO2 
 PCOD9053349
Probable space group: P -1
;
_chemical_formula_sum "Si O2"
_cell_formula_units_Z 14
_cell_length_a 13.890131
_cell_length_b 12.341486
_cell_length_c 6.826238
_cell_angle_alpha 134.500492
_cell_angle_beta 95.268228
_cell_angle_gamma 53.006993
_cell_volume 543.441128
_symmetry_space_group_name_H-M "P -1"
_symmetry_group_IT_number 2
_symmetry_cell_setting 'triclinic'
loop_
_space_group_symop_operation_xyz
x,y,z
-x,-y,-z
loop_
_atom_site_type_symbol
_atom_site_label
_atom_site_fract_x
_atom_site_fract_y
_atom_site_fract_z
Si Si1 0.183124 0.150561 0.718176
Si Si2 0.531461 0.052752 0.877003
Si Si3 0.035978 0.631981 0.720857
Si Si4 0.181437 0.948957 0.079134
Si Si5 0.255528 0.578655 0.846816
Si Si6 0.719189 0.638731 0.074441
Si Si7 0.400618 0.775012 0.615697
O O1 0.178033 0.341198 0.944425
O O2 0.201268 0.048560 0.385453
O O3 0.318979 0.938451 0.616597
O O4 0.042354 0.256089 0.941278
O O5 0.387773 0.277041 0.016225
O O6 0.617145 0.845833 0.479246
O O7 0.618411 0.086382 0.031995
O O8 0.500000 0.000000 0.000000
O O9 0.000000 0.500000 0.500000
O O10 0.201536 0.491961 0.609872
O O11 0.954618 0.828010 0.791108
O O12 0.158366 0.825196 0.045118
O O13 0.306505 0.758119 0.690489
O O14 0.229907 0.568221 0.056715
O O15 0.425339 0.434700 0.666610
#
# Coordination Sequence:
#
# PCOD9053349 Si02
#       7
#     2   2   2   2   2   2   2
#     4  11  24  46  70 102 137 182 235 289 341 406
#     4  11  19  37  64 101 141 176 226 286 338 395
#     4  11  28  50  74 100 134 184 241 291 343 410
#     4  11  26  49  70  97 149 185 228 284 346 426
#     4  12  26  45  68 108 143 186 227 282 357 414
#     4  11  22  36  66 103 133 179 233 281 338 397
#     4  11  23  42  72 105 139 182 232 288 343 408
#
# _framework density 25.761763999999999
#
# number of rings (size 3 to 8) (size 9 to 14) (size 15 to 20)
#    0.000    0.857    4.286    2.571    4.000    3.429 
#    5.143    0.000    0.000    0.000    0.000    0.000 
#    0.000    0.000    0.000    0.000    0.000    0.000 
#
# Total GULP energy -78203.929339 kJ/mol
# GULP energy per Si atom -5585.994953 kJ/mol
# Density = 2.570313 g / cm^3
# Si number density = 25.761764 Si / 1000 Ang^3
#
#
#
# Elastic Constant Matrix: (Units=GPa)
#
#
# Indices 1 2 3 4 5 6 
#
# 1 44.0545 65.1291 16.9753 -0.8192 -11.6412 3.3815
# 2 65.1291 217.5854 33.4070 -26.5154 -25.4757 19.1004
# 3 16.9753 33.4070 68.4249 -24.8937 -17.2777 -6.1115
# 4 -0.8192 -26.5154 -24.8937 39.9758 6.0370 1.7035
# 5 -11.6412 -25.4757 -17.2777 6.0370 23.0565 -4.5184
# 6 3.3815 19.1004 -6.1115 1.7035 -4.5184 55.1429
#
#
#
# Elastic Compliance Matrix: (Units=1/GPa)
#
#
# Indices 1 2 3 4 5 6 
#
# 1 0.048821 -0.014552 -0.008707 -0.015131 0.006415 0.002075
# 2 -0.014552 0.010090 0.001790 0.007190 0.002791 -0.002398
# 3 -0.008707 0.001790 0.024656 0.014266 0.012963 0.003268
# 4 -0.015131 0.007190 0.014266 0.038291 0.000753 -0.001103
# 5 0.006415 0.002791 0.012963 0.000753 0.060188 0.004985
# 6 0.002075 -0.002398 0.003268 -0.001103 0.004985 0.019643
#
#
# Mechanical properties :
#
#
# Convention : Reuss Voigt Hill
#
# Bulk Modulus (GPa) = 24.61223 62.34308 43.47765
# Shear Modulus (GPa) = 19.36713 37.93862 28.65287
#
# Velocity S-wave (km/s) = 2.74483 3.84170 3.33862
# Velocity P-wave (km/s) = 4.42945 6.62802 5.63696
#
# Compressibility (1/GPa) = 0.04063021
#
# Stress axis : x y z
#
# Youngs Moduli (GPa) = 20.48282 99.10664 40.55831
#
# Poissons Ratio (x) = 1.44216 0.35314
# Poissons Ratio (y) = 0.29806 -0.07260
# Poissons Ratio (z) = 0.17835 -0.17740
#
# Static dielectric constant tensor:
#      x y z
#    x 5.432870 0.084870 -0.442150 
#    y 0.084870 2.003340 0.038580 
#    z -0.442150 0.038580 2.120290 
# 
# From -- ./inp_files/95485.got.cif
#   From: 2010.05.17/outbox.cif.g08.bks.cpg/sg2_48_cif.got.tgz:95485.got - 2010.06.03 11:33:40.
