data_PCOD9053394
_publ_section_title
;
Structure prediction by ZEFSAII (Michael W. Deem and Ramdas Pophale) SiO2 
 PCOD9053394
Probable space group: P -1
;
_chemical_formula_sum "Si O2"
_cell_formula_units_Z 16
_cell_length_a 23.292859
_cell_length_b 8.203282
_cell_length_c 16.861882
_cell_angle_alpha 39.632535
_cell_angle_beta 21.363495
_cell_angle_gamma 41.343949
_cell_volume 740.822861
_symmetry_space_group_name_H-M "P -1"
_symmetry_group_IT_number 2
_symmetry_cell_setting 'triclinic'
loop_
_space_group_symop_operation_xyz
x,y,z
-x,-y,-z
loop_
_atom_site_type_symbol
_atom_site_label
_atom_site_fract_x
_atom_site_fract_y
_atom_site_fract_z
Si Si1 0.389693 0.615936 0.673240
Si Si2 0.421033 0.253588 0.216583
Si Si3 0.501283 0.777365 0.179525
Si Si4 0.409505 0.980550 0.755655
Si Si5 0.853630 0.520465 0.071948
Si Si6 0.237060 0.503757 0.133403
Si Si7 0.843233 0.266625 0.353986
Si Si8 0.899039 0.668855 0.467164
O O1 0.500000 0.500000 0.500000
O O2 0.423269 0.412571 0.776245
O O3 0.457113 0.877416 0.512300
O O4 0.213663 0.631858 0.857040
O O5 0.229359 0.314244 0.444067
O O6 0.456641 0.051227 0.175188
O O7 0.503013 0.123340 0.237464
O O8 0.500000 0.500000 0.000000
O O9 0.335294 0.691136 0.398331
O O10 0.639531 0.751522 0.946962
O O11 0.260107 0.203486 0.879673
O O12 0.335912 0.740288 0.905166
O O13 0.833513 0.371983 0.236195
O O14 0.032695 0.584081 0.815614
O O15 0.173040 0.491063 0.309970
O O16 0.079185 0.540465 0.269075
O O17 0.903663 0.959739 0.384706
#
# Coordination Sequence:
#
# PCOD9053394 Si02
#       8
#     2   2   2   2   2   2   2   2
#     4  10  17  35  60  87 117 160 198 236 303 365
#     4  11  21  38  66  87 116 160 205 241 298 371
#     4  11  22  38  62  94 119 157 206 254 295 359
#     4  11  19  38  61  89 117 170 196 237 309 367
#     4  10  18  34  62  91 113 159 204 247 291 373
#     4  11  24  40  61  87 128 160 203 252 303 357
#     4  10  19  34  62  92 116 152 211 246 295 354
#     4  10  22  41  61  85 120 170 200 246 307 361
#
# _framework density 21.597604
#
# number of rings (size 3 to 8) (size 9 to 14) (size 15 to 20)
#    0.000    1.500    7.500    0.750    0.000    2.500 
#    0.000    1.875    0.000    2.250    0.000    0.000 
#    0.000    0.000    0.000    0.000    0.000    0.000 
#
# Total GULP energy -89351.619745 kJ/mol
# GULP energy per Si atom -5584.476234 kJ/mol
# Density = 2.154845 g / cm^3
# Si number density = 21.597604 Si / 1000 Ang^3
#
#
#
# Elastic Constant Matrix: (Units=GPa)
#
#
# Indices 1 2 3 4 5 6 
#
# 1 66.0513 17.6640 45.2882 -1.3886 -24.5200 -17.5919
# 2 17.6640 60.1865 36.0610 -7.1666 -12.3660 -16.8233
# 3 45.2882 36.0610 126.0717 5.0790 -45.1047 -0.0306
# 4 -1.3886 -7.1666 5.0790 44.2356 -7.3852 -2.0238
# 5 -24.5200 -12.3660 -45.1047 -7.3852 41.9255 -1.9611
# 6 -17.5919 -16.8233 -0.0306 -2.0238 -1.9611 27.6030
#
#
#
# Elastic Compliance Matrix: (Units=1/GPa)
#
#
# Indices 1 2 3 4 5 6 
#
# 1 0.030917 0.006475 -0.008514 0.006333 0.013119 0.025038
# 2 0.006475 0.028191 -0.008957 0.007624 0.004847 0.022202
# 3 -0.008514 -0.008957 0.017222 -0.002502 0.009982 -0.010341
# 4 0.006333 0.007624 -0.002502 0.026243 0.008407 0.011201
# 5 0.013119 0.004847 0.009982 0.008407 0.045885 0.015202
# 6 0.025038 0.022202 -0.010341 0.011201 0.015202 0.067606
#
#
# Mechanical properties :
#
#
# Convention : Reuss Voigt Hill
#
# Bulk Modulus (GPa) = 18.40323 50.03733 34.22028
# Shear Modulus (GPa) = 19.51827 32.97259 26.24543
#
# Velocity S-wave (km/s) = 3.00946 3.91151 3.48975
# Velocity P-wave (km/s) = 4.54040 6.60441 5.66716
#
# Compressibility (1/GPa) = 0.05433829
#
# Stress axis : x y z
#
# Youngs Moduli (GPa) = 32.34429 35.47246 58.06431
#
# Poissons Ratio (x) = -0.22970 0.49436
# Poissons Ratio (y) = -0.20944 0.52011
# Poissons Ratio (z) = 0.27538 0.31774
#
# Static dielectric constant tensor:
#      x y z
#    x 1.793890 -0.008000 -0.024360 
#    y -0.008000 1.790870 -0.001430 
#    z -0.024360 -0.001430 1.823580 
# 
# From -- ./inp_files/216564.got.cif
#   From: 2010.05.17/outbox.cif.g08.bks.cpg/sg2_109_cif.got.tgz:216564.got - 2010.06.03 11:33:40.
