data_PCOD9053856
_publ_section_title
;
Structure prediction by ZEFSAII (Michael W. Deem and Ramdas Pophale) SiO2 
 PCOD9053856
Probable space group: P -1
;
_chemical_formula_sum "Si O2"
_cell_formula_units_Z 16
_cell_length_a 10.136578
_cell_length_b 17.490969
_cell_length_c 7.288224
_cell_angle_alpha 101.101049
_cell_angle_beta 45.940575
_cell_angle_gamma 125.418276
_cell_volume 706.188003
_symmetry_space_group_name_H-M "P -1"
_symmetry_group_IT_number 2
_symmetry_cell_setting 'triclinic'
loop_
_space_group_symop_operation_xyz
x,y,z
-x,-y,-z
loop_
_atom_site_type_symbol
_atom_site_label
_atom_site_fract_x
_atom_site_fract_y
_atom_site_fract_z
Si Si1 0.351495 0.629293 0.102685
Si Si2 0.402351 0.635398 0.616989
Si Si3 0.836374 0.524722 0.508957
Si Si4 0.251472 0.135403 0.616977
Si Si5 0.195586 0.870709 0.897323
Si Si6 0.842636 0.677206 0.325586
Si Si7 0.295891 0.975282 0.491040
Si Si8 0.813808 0.822797 0.674419
O O1 0.342838 0.546474 0.186767
O O2 0.098215 0.599418 0.375776
O O3 0.345512 0.619857 0.881995
O O4 0.581920 0.742001 0.981869
O O5 0.198442 0.555141 0.640760
O O6 0.526424 0.749997 0.500004
O O7 0.616859 0.630018 0.391692
O O8 0.813014 0.593741 0.436960
O O9 0.271101 0.055149 0.640746
O O10 0.251501 0.130022 0.391679
O O11 0.012217 0.119857 0.881985
O O12 0.436653 0.953528 0.813238
O O13 0.275145 0.900583 0.624232
O O14 0.079782 0.758001 0.018136
O O15 0.842793 0.750002 0.500001
O O16 0.062494 0.906266 0.563040
#
# Coordination Sequence:
#
# PCOD9053856 Si02
#       8
#     2   2   2   2   2   2   2   2
#     4   9  22  37  54  91 117 143 215 232 278 389
#     4   9  20  38  58  86 119 154 197 239 297 361
#     4  11  20  38  62  83 119 161 182 255 305 329
#     4   9  20  38  58  86 119 154 197 239 297 361
#     4   9  22  37  54  91 117 143 215 232 278 389
#     4   9  21  38  56  84 115 151 195 240 292 358
#     4  11  20  38  62  83 119 161 182 255 305 329
#     4   9  21  38  56  84 115 151 195 240 292 358
#
# _framework density 22.656856999999999
#
# number of rings (size 3 to 8) (size 9 to 14) (size 15 to 20)
#    0.000    3.000    0.000    1.500    7.000    4.000 
#    4.500    2.500    0.000    0.000    0.000    0.000 
#    0.000    0.000    0.000    0.000    0.000    0.000 
#
# Total GULP energy -89128.234316 kJ/mol
# GULP energy per Si atom -5570.514645 kJ/mol
# Density = 2.260529 g / cm^3
# Si number density = 22.656857 Si / 1000 Ang^3
#
#
#
# Elastic Constant Matrix: (Units=GPa)
#
#
# Indices 1 2 3 4 5 6 
#
# 1 64.3491 23.2074 11.2079 -17.7910 1.4713 0.0420
# 2 23.2074 53.4886 8.9191 -22.4301 0.5621 -0.2872
# 3 11.2079 8.9191 101.4194 -31.6062 1.5008 -0.3367
# 4 -17.7910 -22.4301 -31.6062 30.2271 0.3255 0.3351
# 5 1.4713 0.5621 1.5008 0.3255 41.7786 -2.2405
# 6 0.0420 -0.2872 -0.3367 0.3351 -2.2405 16.0158
#
#
#
# Elastic Compliance Matrix: (Units=1/GPa)
#
#
# Indices 1 2 3 4 5 6 
#
# 1 0.019644 -0.004882 0.001107 0.009110 -0.000759 -0.000413
# 2 -0.004882 0.030869 0.006052 0.026368 -0.000664 0.000049
# 3 0.001107 0.006052 0.016056 0.021942 -0.000876 -0.000138
# 4 0.009110 0.026368 0.021942 0.080990 -0.002153 -0.001085
# 5 -0.000759 -0.000664 -0.000876 -0.002153 0.024202 0.003402
# 6 -0.000413 0.000049 -0.000138 -0.001085 0.003402 0.062936
#
#
# Mechanical properties :
#
#
# Convention : Reuss Voigt Hill
#
# Bulk Modulus (GPa) = 14.05988 33.99178 24.02583
# Shear Modulus (GPa) = 19.69668 29.33247 24.51457
#
# Velocity S-wave (km/s) = 2.95167 3.60201 3.29294
# Velocity P-wave (km/s) = 4.22321 5.68637 5.00851
#
# Compressibility (1/GPa) = 0.07112435
#
# Stress axis : x y z
#
# Youngs Moduli (GPa) = 50.90513 32.39514 62.28231
#
# Poissons Ratio (x) = 0.15814 -0.06897
# Poissons Ratio (y) = 0.24851 -0.37693
# Poissons Ratio (z) = -0.05637 -0.19605
#
# Static dielectric constant tensor:
#      x y z
#    x 1.948420 0.004960 0.001230 
#    y 0.004960 1.836880 0.001550 
#    z 0.001230 0.001550 2.029790 
# 
# From -- ./inp_files/281959.got.cif
#   From: 2010.05.17/outbox.cif.g08.bks.cpg/sg2_141_cif.got.tgz:281959.got - 2010.06.03 11:33:40.
