data_PCOD9053482
_publ_section_title
;
Structure prediction by ZEFSAII (Michael W. Deem and Ramdas Pophale) SiO2 
 PCOD9053482
Probable space group: P -1
;
_chemical_formula_sum "Si O2"
_cell_formula_units_Z 15
_cell_length_a 14.296937
_cell_length_b 8.796477
_cell_length_c 20.198210
_cell_angle_alpha 140.869142
_cell_angle_beta 26.291299
_cell_angle_gamma 135.879089
_cell_volume 707.780253
_symmetry_space_group_name_H-M "P -1"
_symmetry_group_IT_number 2
_symmetry_cell_setting 'triclinic'
loop_
_space_group_symop_operation_xyz
x,y,z
-x,-y,-z
loop_
_atom_site_type_symbol
_atom_site_label
_atom_site_fract_x
_atom_site_fract_y
_atom_site_fract_z
Si Si1 0.817153 0.895941 0.499985
Si Si2 0.654253 0.520324 0.689917
Si Si3 0.500000 0.500000 0.500000
Si Si4 0.521226 0.929818 0.822839
Si Si5 0.799926 0.225823 0.136196
Si Si6 0.898432 0.469282 0.644723
Si Si7 0.772895 0.396859 0.847184
Si Si8 0.256489 0.228183 0.888578
O O1 0.641789 0.745420 0.517500
O O2 0.717228 0.885463 0.633652
O O3 0.028411 0.757970 0.314960
O O4 0.861226 0.180347 0.554789
O O5 0.538937 0.740894 0.806523
O O6 0.764531 0.587945 0.713041
O O7 0.477084 0.300584 0.737488
O O8 0.852544 0.458961 0.498081
O O9 0.679403 0.452952 0.312640
O O10 0.312328 0.883471 0.895256
O O11 0.571058 0.204251 0.906114
O O12 0.764850 0.039118 0.157529
O O13 0.053137 0.267104 0.985597
O O14 0.822102 0.503624 0.779167
O O15 0.750467 0.596191 0.984061
#
# Coordination Sequence:
#
# PCOD9053482 Si02
#       8
#     2   2   1   2   2   2   2   2
#     4  10  17  35  60  91 110 161 204 252 273 371
#     4  11  21  36  58  92 124 160 191 264 300 351
#     4  10  18  34  66  86 110 156 218 234 286 348
#     4  10  20  36  63  86 120 155 210 240 298 350
#     4  10  23  41  61  89 122 166 198 249 294 378
#     4  10  21  37  62  89 125 156 209 246 299 353
#     4  11  19  38  62  88 115 163 199 246 291 373
#     4  11  24  40  62  92 128 152 201 252 316 343
#
# _framework density 21.193017000000001
#
# number of rings (size 3 to 8) (size 9 to 14) (size 15 to 20)
#    0.000    1.600    4.000    3.200    0.000    3.200 
#    0.000    0.000    0.000   28.800    0.000    0.000 
#    0.000    0.000    0.000    0.000    0.000    0.000 
#
# Total GULP energy -83553.721571 kJ/mol
# GULP energy per Si atom -5570.248105 kJ/mol
# Density = 2.114478 g / cm^3
# Si number density = 21.193017 Si / 1000 Ang^3
#
#
#
# Elastic Constant Matrix: (Units=GPa)
#
#
# Indices 1 2 3 4 5 6 
#
# 1 82.6699 13.5110 6.3379 -14.0636 -26.4399 -3.4382
# 2 13.5110 57.5908 17.2916 -33.2377 1.6355 6.6738
# 3 6.3379 17.2916 23.2305 -0.3166 -23.7675 1.5518
# 4 -14.0636 -33.2377 -0.3166 20.0937 19.3221 0.7056
# 5 -26.4399 1.6355 -23.7675 19.3221 24.2084 -7.2097
# 6 -3.4382 6.6738 1.5518 0.7056 -7.2097 34.2084
#
#
#
# Elastic Compliance Matrix: (Units=1/GPa)
#
#
# Indices 1 2 3 4 5 6 
#
# 1 0.015369 0.003983 -0.002142 0.012600 0.004841 0.001625
# 2 0.003983 0.008814 0.014822 -0.003837 0.022193 0.002765
# 3 -0.002142 0.014822 0.022138 0.034340 -0.011149 -0.007169
# 4 0.012600 -0.003837 0.034340 0.019493 0.034349 0.007294
# 5 0.004841 0.022193 -0.011149 0.034349 0.005899 -0.002803
# 6 0.001625 0.002765 -0.007169 0.007294 -0.002803 0.028441
#
#
# Mechanical properties :
#
#
# Convention : Reuss Voigt Hill
#
# Bulk Modulus (GPa) = 12.55531 26.41914 19.48722
# Shear Modulus (GPa) = 53.54692 24.12547 38.83620
#
# Velocity S-wave (km/s) = 5.03201 3.37763 4.28541
# Velocity P-wave (km/s) = 6.30069 5.26348 5.80529
#
# Compressibility (1/GPa) = 0.07964757
#
# Stress axis : x y z
#
# Youngs Moduli (GPa) = 65.06690 113.45761 45.17047
#
# Poissons Ratio (x) = -0.45194 0.09675
# Poissons Ratio (y) = -0.25918 -0.66951
# Poissons Ratio (z) = 0.13936 -1.68164
#
# Static dielectric constant tensor:
#      x y z
#    x 1.783240 -0.014130 -0.036060 
#    y -0.014130 1.772950 -0.023900 
#    z -0.036060 -0.023900 1.765010 
# 
# From -- ./inp_files/513332.got.cif
#   From: 2010.05.17/outbox.cif.g08.bks.cpg/sg2_257_cif.got.tgz:513332.got - 2010.06.03 11:33:40.
