data_PCOD9053476
_publ_section_title
;
Structure prediction by ZEFSAII (Michael W. Deem and Ramdas Pophale) SiO2 
 PCOD9053476
Probable space group: P -1
;
_chemical_formula_sum "Si O2"
_cell_formula_units_Z 16
_cell_length_a 11.397392
_cell_length_b 16.380494
_cell_length_c 9.558296
_cell_angle_alpha 78.140605
_cell_angle_beta 54.382223
_cell_angle_gamma 123.722829
_cell_volume 751.801156
_symmetry_space_group_name_H-M "P -1"
_symmetry_group_IT_number 2
_symmetry_cell_setting 'triclinic'
loop_
_space_group_symop_operation_xyz
x,y,z
-x,-y,-z
loop_
_atom_site_type_symbol
_atom_site_label
_atom_site_fract_x
_atom_site_fract_y
_atom_site_fract_z
Si Si1 0.736965 0.674172 0.335898
Si Si2 0.700793 0.124525 0.501499
Si Si3 0.993655 0.932100 0.852490
Si Si4 0.016428 0.504531 0.153518
Si Si5 0.456601 0.575798 0.843037
Si Si6 0.808620 0.226692 0.078892
Si Si7 0.169718 0.264289 0.217446
Si Si8 0.417703 0.154046 0.711886
O O1 0.500000 0.500000 0.500000
O O2 0.845373 0.795113 0.109487
O O3 0.611031 0.659942 0.559899
O O4 0.990384 0.735811 0.157909
O O5 0.853593 0.231208 0.214410
O O6 0.511038 0.105929 0.687749
O O7 0.905122 0.191868 0.452507
O O8 0.502434 0.952570 0.658299
O O9 0.817481 0.929213 0.993664
O O10 0.941619 0.861268 0.766349
O O11 0.287765 0.091697 0.665980
O O12 0.699705 0.341768 0.473961
O O13 0.208314 0.519864 0.053120
O O14 0.140060 0.654957 0.050060
O O15 0.000000 0.500000 0.000000
O O16 0.670863 0.693750 0.777479
O O17 0.366929 0.433725 0.958102
#
# Coordination Sequence:
#
# PCOD9053476 Si02
#       8
#     2   2   2   2   2   2   2   2
#     4  12  20  37  60  96 122 160 216 267 308 358
#     4  11  19  41  62  93 122 177 203 262 315 388
#     4  11  22  38  65  95 126 165 210 270 314 374
#     4  12  22  38  61  96 127 161 211 269 309 367
#     4  11  25  40  64  94 132 169 211 259 318 385
#     4  11  22  35  65  94 126 160 221 261 317 363
#     4  11  22  44  63  89 132 178 206 248 330 391
#     4  11  22  36  64  97 125 157 217 268 314 360
#
# _framework density 21.282222999999998
#
# number of rings (size 3 to 8) (size 9 to 14) (size 15 to 20)
#    0.000    0.750    6.250    3.000    0.000    0.000 
#    0.000    3.125    0.000    0.000    0.000    0.000 
#    0.000    0.000    0.000    0.000    0.000    0.000 
#
# Total GULP energy -89293.447854 kJ/mol
# GULP energy per Si atom -5580.840491 kJ/mol
# Density = 2.123378 g / cm^3
# Si number density = 21.282223 Si / 1000 Ang^3
#
#
#
# Elastic Constant Matrix: (Units=GPa)
#
#
# Indices 1 2 3 4 5 6 
#
# 1 97.6376 42.5994 32.1462 -2.5171 -39.2130 14.5342
# 2 42.5994 97.8426 27.9498 -15.8883 -11.9434 -1.9605
# 3 32.1462 27.9498 54.9781 -11.6622 -16.8720 -4.0145
# 4 -2.5171 -15.8883 -11.6622 30.1623 -11.2010 -4.8687
# 5 -39.2130 -11.9434 -16.8720 -11.2010 35.9706 -1.7155
# 6 14.5342 -1.9605 -4.0145 -4.8687 -1.7155 36.6771
#
#
#
# Elastic Compliance Matrix: (Units=1/GPa)
#
#
# Indices 1 2 3 4 5 6 
#
# 1 0.026218 -0.006501 -0.003487 0.005632 0.026104 -0.009150
# 2 -0.006501 0.014732 -0.002338 0.006552 -0.001065 0.003928
# 3 -0.003487 -0.002338 0.030297 0.017101 0.015319 0.007560
# 4 0.005632 0.006552 0.017101 0.058152 0.034890 0.009341
# 5 0.026104 -0.001065 0.015319 0.034890 0.073924 -0.000636
# 6 -0.009150 0.003928 0.007560 0.009341 -0.000636 0.033138
#
#
# Mechanical properties :
#
#
# Convention : Reuss Voigt Hill
#
# Bulk Modulus (GPa) = 21.46203 50.64991 36.05597
# Shear Modulus (GPa) = 18.07378 30.41286 24.24332
#
# Velocity S-wave (km/s) = 2.91734 3.78435 3.37877
# Velocity P-wave (km/s) = 4.63187 6.55331 5.67451
#
# Compressibility (1/GPa) = 0.04659391
#
# Stress axis : x y z
#
# Youngs Moduli (GPa) = 38.14242 67.88162 33.00625
#
# Poissons Ratio (x) = 0.44129 0.11510
# Poissons Ratio (y) = 0.24796 0.07718
# Poissons Ratio (z) = 0.13301 0.15872
#
# Static dielectric constant tensor:
#      x y z
#    x 1.795440 -0.043670 -0.012240 
#    y -0.043670 1.860910 -0.039200 
#    z -0.012240 -0.039200 1.822410 
# 
# From -- ./inp_files/277784.got.cif
#   From: 2010.05.17/outbox.cif.g08.bks.cpg/sg2_139_cif.got.tgz:277784.got - 2010.06.03 11:33:40.
