data_PCOD9053883
_publ_section_title
;
Structure prediction by ZEFSAII (Michael W. Deem and Ramdas Pophale) SiO2 
 PCOD9053883
Probable space group: P -1
;
_chemical_formula_sum "Si O2"
_cell_formula_units_Z 14
_cell_length_a 5.469513
_cell_length_b 13.068276
_cell_length_c 13.815624
_cell_angle_alpha 47.460332
_cell_angle_beta 69.195433
_cell_angle_gamma 62.209886
_cell_volume 642.468854
_symmetry_space_group_name_H-M "P -1"
_symmetry_group_IT_number 2
_symmetry_cell_setting 'triclinic'
loop_
_space_group_symop_operation_xyz
x,y,z
-x,-y,-z
loop_
_atom_site_type_symbol
_atom_site_label
_atom_site_fract_x
_atom_site_fract_y
_atom_site_fract_z
Si Si1 0.889547 0.579900 0.639854
Si Si2 0.116585 0.024695 0.311835
Si Si3 0.826223 0.890734 0.105463
Si Si4 0.476926 0.400946 0.756734
Si Si5 0.675167 0.830247 0.969547
Si Si6 0.100499 0.764147 0.340902
Si Si7 0.589246 0.129261 0.448311
O O1 0.697805 0.484301 0.693940
O O2 0.658832 0.721078 0.628397
O O3 0.161209 0.503655 0.715888
O O4 0.017913 0.646389 0.490954
O O5 0.195961 0.150485 0.162382
O O6 0.869396 0.112751 0.361704
O O7 0.050179 0.913782 0.314238
O O8 0.342140 0.911967 0.422260
O O9 0.916850 0.800858 0.247057
O O10 0.520926 0.002414 0.093443
O O11 0.863773 0.802473 0.056940
O O12 0.000000 0.000000 0.000000
O O13 0.592027 0.305142 0.704142
O O14 0.476429 0.289284 0.915987
O O15 0.500000 0.000000 0.500000
#
# Coordination Sequence:
#
# PCOD9053883 Si02
#       7
#     2   2   2   2   2   2   2
#     4  12  27  46  70 100 145 193 234 280 352 420
#     4  11  24  43  77 102 131 178 242 304 347 392
#     4  11  20  38  66 100 146 176 231 282 343 419
#     4  12  27  44  68 105 156 185 221 277 354 461
#     4  11  23  40  64 104 143 186 225 284 354 416
#     4  12  22  44  73 108 140 184 229 289 358 410
#     4  11  25  49  72 100 127 177 250 309 334 393
#
# _framework density 21.790939999999999
#
# number of rings (size 3 to 8) (size 9 to 14) (size 15 to 20)
#    0.000    0.571    4.286    4.286    2.000    2.286 
#    0.000    1.429    0.000    0.000    0.000    0.000 
#    0.000    0.000    0.000    0.000    0.000    0.000 
#
# Total GULP energy -78177.016537 kJ/mol
# GULP energy per Si atom -5584.072610 kJ/mol
# Density = 2.174134 g / cm^3
# Si number density = 21.790940 Si / 1000 Ang^3
#
#
#
# Elastic Constant Matrix: (Units=GPa)
#
#
# Indices 1 2 3 4 5 6 
#
# 1 94.1484 33.3321 41.5964 -8.3317 4.5360 -11.8339
# 2 33.3321 96.2580 35.8272 -11.7252 5.8950 -15.0247
# 3 41.5964 35.8272 154.9627 -5.1915 -26.0756 -6.1995
# 4 -8.3317 -11.7252 -5.1915 33.9485 0.9210 -0.4352
# 5 4.5360 5.8950 -26.0756 0.9210 43.5010 -12.1706
# 6 -11.8339 -15.0247 -6.1995 -0.4352 -12.1706 39.0069
#
#
#
# Elastic Compliance Matrix: (Units=1/GPa)
#
#
# Indices 1 2 3 4 5 6 
#
# 1 0.013587 -0.002813 -0.003294 0.001951 -0.002565 0.001736
# 2 -0.002813 0.013358 -0.002440 0.003650 -0.002140 0.003277
# 3 -0.003294 -0.002440 0.009048 -0.000425 0.006536 0.001534
# 4 0.001951 0.003650 -0.000425 0.031185 -0.001069 0.001945
# 5 -0.002565 -0.002140 0.006536 -0.001069 0.029938 0.008765
# 6 0.001736 0.003277 0.001534 0.001945 0.008765 0.030426
#
#
# Mechanical properties :
#
#
# Convention : Reuss Voigt Hill
#
# Bulk Modulus (GPa) = 52.90969 62.98672 57.94820
# Shear Modulus (GPa) = 33.12649 38.93216 36.02933
#
# Velocity S-wave (km/s) = 3.90320 4.23143 4.07062
# Velocity P-wave (km/s) = 6.68181 7.26919 6.98168
#
# Compressibility (1/GPa) = 0.01890013
#
# Stress axis : x y z
#
# Youngs Moduli (GPa) = 73.59853 74.86000 110.51809
#
# Poissons Ratio (x) = 0.21060 0.36400
# Poissons Ratio (y) = 0.20705 0.26966
# Poissons Ratio (z) = 0.24240 0.18265
#
# Static dielectric constant tensor:
#      x y z
#    x 1.892130 -0.021350 -0.009220 
#    y -0.021350 1.835660 -0.020360 
#    z -0.009220 -0.020360 1.812010 
# 
# From -- ./inp_files/77025.got.cif
#   From: 2010.05.17/outbox.cif.g08.bks.cpg/sg2_39_cif.got.tgz:77025.got - 2010.06.03 11:33:40.
