data_PCOD9053461
_publ_section_title
;
Structure prediction by ZEFSAII (Michael W. Deem and Ramdas Pophale) SiO2 
 PCOD9053461
Probable space group: P -1
;
_chemical_formula_sum "Si O2"
_cell_formula_units_Z 16
_cell_length_a 12.248176
_cell_length_b 8.558023
_cell_length_c 14.687329
_cell_angle_alpha 37.522268
_cell_angle_beta 124.276152
_cell_angle_gamma 131.946898
_cell_volume 695.557011
_symmetry_space_group_name_H-M "P -1"
_symmetry_group_IT_number 2
_symmetry_cell_setting 'triclinic'
loop_
_space_group_symop_operation_xyz
x,y,z
-x,-y,-z
loop_
_atom_site_type_symbol
_atom_site_label
_atom_site_fract_x
_atom_site_fract_y
_atom_site_fract_z
Si Si1 0.735879 0.659392 0.699703
Si Si2 0.047053 0.590127 0.682809
Si Si3 0.073225 0.975918 0.227182
Si Si4 0.325042 0.110672 0.147425
Si Si5 0.241504 0.453252 0.434282
Si Si6 0.666831 0.445419 0.198396
Si Si7 0.072319 0.646342 0.061262
Si Si8 0.438022 0.656116 0.611457
O O1 0.866630 0.932696 0.684475
O O2 0.722864 0.686432 0.572386
O O3 0.780376 0.399259 0.852757
O O4 0.582028 0.604583 0.696348
O O5 0.221078 0.687669 0.711853
O O6 0.932990 0.723557 0.547924
O O7 0.009391 0.493461 0.816879
O O8 0.988174 0.343790 0.690289
O O9 0.223326 0.148784 0.159839
O O10 0.950988 0.071596 0.092140
O O11 0.496725 0.237264 0.191885
O O12 0.267764 0.772889 0.269383
O O13 0.303163 0.274185 0.975479
O O14 0.343372 0.524194 0.537434
O O15 0.665176 0.491256 0.283704
O O16 0.000000 0.500000 0.000000
O O17 0.500000 0.000000 0.500000
#
# Coordination Sequence:
#
# PCOD9053461 Si02
#       8
#     2   2   2   2   2   2   2   2
#     4  10  21  36  61  88 117 159 210 250 288 366
#     4  10  20  34  61  93 119 159 203 247 298 359
#     4  10  17  35  60  89 122 159 203 238 296 372
#     4  10  20  37  62  96 119 157 198 249 301 362
#     4  10  22  39  64  87 121 163 203 244 306 366
#     4  11  22  35  65  92 128 147 207 260 295 346
#     4   9  18  30  56  88 122 156 189 242 301 355
#     4  12  22  42  63  87 114 169 210 245 299 369
#
# _framework density 23.003146999999998
#
# number of rings (size 3 to 8) (size 9 to 14) (size 15 to 20)
#    0.000    1.750    3.750    1.500    3.500    0.500 
#    0.000    0.625    8.250    3.750    0.000    0.000 
#    0.000    0.000    0.000    0.000    0.000    0.000 
#
# Total GULP energy -89168.484467 kJ/mol
# GULP energy per Si atom -5573.030279 kJ/mol
# Density = 2.295079 g / cm^3
# Si number density = 23.003147 Si / 1000 Ang^3
#
#
#
# Elastic Constant Matrix: (Units=GPa)
#
#
# Indices 1 2 3 4 5 6 
#
# 1 139.6791 36.4701 36.3936 6.7254 1.8260 15.4600
# 2 36.4701 116.9227 43.2586 34.9480 -2.1457 0.4447
# 3 36.3936 43.2586 76.7146 21.6168 -10.4068 1.7802
# 4 6.7254 34.9480 21.6168 41.0051 -6.1530 1.1852
# 5 1.8260 -2.1457 -10.4068 -6.1530 40.9761 15.8595
# 6 15.4600 0.4447 1.7802 1.1852 15.8595 40.1097
#
#
#
# Elastic Compliance Matrix: (Units=1/GPa)
#
#
# Indices 1 2 3 4 5 6 
#
# 1 0.008914 -0.002158 -0.003572 0.002400 0.000271 -0.003432
# 2 -0.002158 0.013597 -0.004402 -0.009359 -0.002552 0.002162
# 3 -0.003572 -0.004402 0.019287 -0.005130 0.004460 -0.001042
# 4 0.002400 -0.009359 -0.005130 0.035498 0.004801 -0.003541
# 5 0.000271 -0.002552 0.004460 0.004801 0.031021 -0.012682
# 6 -0.003432 0.002162 -0.001042 -0.003541 -0.012682 0.031396
#
#
# Mechanical properties :
#
#
# Convention : Reuss Voigt Hill
#
# Bulk Modulus (GPa) = 46.44002 62.84010 54.64006
# Shear Modulus (GPa) = 29.91230 38.89777 34.40504
#
# Velocity S-wave (km/s) = 3.60996 4.11661 3.87158
# Velocity P-wave (km/s) = 6.13255 7.06913 6.61743
#
# Compressibility (1/GPa) = 0.02153315
#
# Stress axis : x y z
#
# Youngs Moduli (GPa) = 112.18113 73.54500 51.84808
#
# Poissons Ratio (x) = 0.15874 0.18519
# Poissons Ratio (y) = 0.24214 0.22826
# Poissons Ratio (z) = 0.40068 0.32378
#
# Static dielectric constant tensor:
#      x y z
#    x 1.878920 0.015200 -0.011230 
#    y 0.015200 1.934710 -0.026770 
#    z -0.011230 -0.026770 1.951120 
# 
# From -- ./inp_files/507937.got.cif
#   From: 2010.05.17/outbox.cif.g08.bks.cpg/sg2_254_cif.got.tgz:507937.got - 2010.06.03 11:33:40.
