data_PCOD9053016
_publ_section_title
;
Structure prediction by ZEFSAII (Michael W. Deem and Ramdas Pophale) SiO2 
 PCOD9053016
Probable space group: P -1
;
_chemical_formula_sum "Si O2"
_cell_formula_units_Z 16
_cell_length_a 17.841047
_cell_length_b 24.429070
_cell_length_c 11.294996
_cell_angle_alpha 158.598844
_cell_angle_beta 146.692836
_cell_angle_gamma 21.652522
_cell_volume 646.566305
_symmetry_space_group_name_H-M "P -1"
_symmetry_group_IT_number 2
_symmetry_cell_setting 'triclinic'
loop_
_space_group_symop_operation_xyz
x,y,z
-x,-y,-z
loop_
_atom_site_type_symbol
_atom_site_label
_atom_site_fract_x
_atom_site_fract_y
_atom_site_fract_z
Si Si1 0.915517 0.959498 0.481290
Si Si2 0.872415 0.945660 0.667850
Si Si3 0.698494 0.271728 0.619919
Si Si4 0.794609 0.730494 0.461862
Si Si5 0.306682 0.063914 0.017367
Si Si6 0.320072 0.533371 0.520904
Si Si7 0.449208 0.797917 0.044753
Si Si8 0.770250 0.701429 0.947372
O O1 0.903340 0.981780 0.649129
O O2 0.144265 0.775888 0.355625
O O3 0.786847 0.197861 0.721862
O O4 0.814942 0.883302 0.154946
O O5 0.090791 0.780658 0.690480
O O6 0.685616 0.148835 0.916298
O O7 0.822370 0.809975 0.304423
O O8 0.457580 0.499449 0.735662
O O9 0.717067 0.077360 0.231149
O O10 0.778079 0.752542 0.627041
O O11 0.692085 0.961208 0.726322
O O12 0.031159 0.514638 0.300090
O O13 0.652626 0.712306 0.191784
O O14 0.549060 0.896501 0.981010
O O15 0.277501 0.394777 0.219968
O O16 0.470111 0.393373 0.324284
#
# Coordination Sequence:
#
# PCOD9053016 Si02
#       8
#     2   2   2   2   2   2   2   2
#     4   9  20  39  60  78 106 153 188 228 275 317
#     4  12  22  32  56  87 119 141 177 230 279 325
#     4   8  18  40  64  75  99 154 197 220 273 326
#     4  11  18  30  55  83 112 149 183 211 270 340
#     4   9  18  37  59  78 106 148 184 227 264 331
#     4  11  20  36  58  83 114 147 182 226 270 329
#     4  11  19  30  51  82 119 147 173 217 276 333
#     4  11  19  32  54  87 113 145 179 214 276 338
#
# _framework density 24.746108
#
# number of rings (size 3 to 8) (size 9 to 14) (size 15 to 20)
#    0.750    1.000    6.250    1.125    0.000    1.000 
#    0.000    2.500    0.000    8.250    0.000    0.000 
#    0.000    0.000    0.000    0.000    0.000    0.000 
#
# Total GULP energy -89467.229434 kJ/mol
# GULP energy per Si atom -5591.701840 kJ/mol
# Density = 2.468978 g / cm^3
# Si number density = 24.746108 Si / 1000 Ang^3
#
#
#
# Elastic Constant Matrix: (Units=GPa)
#
#
# Indices 1 2 3 4 5 6 
#
# 1 137.0801 59.5243 19.7493 7.1251 -16.6309 -7.6600
# 2 59.5243 169.6770 40.9281 -3.3699 -23.3048 -21.9273
# 3 19.7493 40.9281 69.2317 14.9446 -22.4608 0.0788
# 4 7.1251 -3.3699 14.9446 33.4254 -4.9801 -7.4952
# 5 -16.6309 -23.3048 -22.4608 -4.9801 41.4616 -3.1245
# 6 -7.6600 -21.9273 0.0788 -7.4952 -3.1245 43.1864
#
#
#
# Elastic Compliance Matrix: (Units=1/GPa)
#
#
# Indices 1 2 3 4 5 6 
#
# 1 0.008871 -0.003001 0.000263 -0.002092 0.001748 -0.000187
# 2 -0.003001 0.009267 -0.005031 0.005353 0.002320 0.005279
# 3 0.000263 -0.005031 0.022033 -0.010104 0.007717 -0.003743
# 4 -0.002092 0.005353 -0.010104 0.037735 0.001911 0.009053
# 5 0.001748 0.002320 0.007717 0.001911 0.030839 0.004037
# 6 -0.000187 0.005279 -0.003743 0.009053 0.004037 0.027673
#
#
# Mechanical properties :
#
#
# Convention : Reuss Voigt Hill
#
# Bulk Modulus (GPa) = 40.59824 68.48800 54.54312
# Shear Modulus (GPa) = 31.21764 40.66716 35.94240
#
# Velocity S-wave (km/s) = 3.55564 4.05826 3.81523
# Velocity P-wave (km/s) = 5.77047 7.04951 6.44181
#
# Compressibility (1/GPa) = 0.02463161
#
# Stress axis : x y z
#
# Youngs Moduli (GPa) = 112.73138 107.90862 45.38730
#
# Poissons Ratio (x) = 0.32383 -0.01192
# Poissons Ratio (y) = 0.33830 0.22835
# Poissons Ratio (z) = -0.02961 0.54290
#
# Static dielectric constant tensor:
#      x y z
#    x 2.035480 0.090630 0.060850 
#    y 0.090630 1.963980 -0.005450 
#    z 0.060850 -0.005450 1.966450 
# 
# From -- ./inp_files/454370.got.cif
#   From: 2010.05.17/outbox.cif.g08.bks.cpg/sg2_228_cif.got.tgz:454370.got - 2010.06.03 11:33:40.
