data_PCOD9053677
_publ_section_title
;
Structure prediction by ZEFSAII (Michael W. Deem and Ramdas Pophale) SiO2 
 PCOD9053677
Probable space group: P -1
;
_chemical_formula_sum "Si O2"
_cell_formula_units_Z 16
_cell_length_a 8.668515
_cell_length_b 12.090368
_cell_length_c 20.717123
_cell_angle_alpha 29.638035
_cell_angle_beta 71.604508
_cell_angle_gamma 90.921064
_cell_volume 800.386315
_symmetry_space_group_name_H-M "P -1"
_symmetry_group_IT_number 2
_symmetry_cell_setting 'triclinic'
loop_
_space_group_symop_operation_xyz
x,y,z
-x,-y,-z
loop_
_atom_site_type_symbol
_atom_site_label
_atom_site_fract_x
_atom_site_fract_y
_atom_site_fract_z
Si Si1 0.867144 0.208627 0.996291
Si Si2 0.900642 0.025783 0.881153
Si Si3 0.800392 0.621585 0.857756
Si Si4 0.361106 0.391945 0.974384
Si Si5 0.448636 0.172102 0.874480
Si Si6 0.558088 0.894778 0.605743
Si Si7 0.173353 0.228245 0.445064
Si Si8 0.082834 0.566289 0.661694
O O1 0.851285 0.408869 0.942476
O O2 0.030289 0.400792 0.819826
O O3 0.941777 0.046065 0.102293
O O4 0.652851 0.989399 0.097005
O O5 0.770931 0.911099 0.890492
O O6 0.730024 0.854273 0.047769
O O7 0.020185 0.352411 0.719865
O O8 0.594851 0.515275 0.898121
O O9 0.743657 0.616907 0.941724
O O10 0.995742 0.940252 0.650905
O O11 0.377964 0.609103 0.810643
O O12 0.645502 0.499687 0.675500
O O13 0.500000 0.000000 0.000000
O O14 0.712848 0.839842 0.584670
O O15 0.500000 0.000000 0.500000
O O16 0.683557 0.150602 0.510766
O O17 0.063704 0.341915 0.366778
#
# Coordination Sequence:
#
# PCOD9053677 Si02
#       8
#     2   2   2   2   2   2   2   2
#     4  11  22  38  61  95 130 165 209 261 324 373
#     4  11  23  38  61  93 130 167 206 264 323 370
#     4  11  25  43  65  92 127 173 211 258 311 390
#     4  11  24  45  64  90 128 171 216 252 321 381
#     4  11  20  35  63  94 127 163 208 263 315 366
#     4  12  24  38  64  99 128 162 210 269 313 368
#     4  12  22  38  64  96 123 163 210 263 309 365
#     4  11  21  37  62  92 128 159 210 268 307 365
#
# _framework density 19.990348000000001
#
# number of rings (size 3 to 8) (size 9 to 14) (size 15 to 20)
#    0.000    0.750    6.250    4.125    1.750    0.500 
#    0.000    1.875    0.000    1.500    0.000    0.000 
#    0.000    0.000    0.000    0.000    0.000    0.000 
#
# Total GULP energy -89428.605894 kJ/mol
# GULP energy per Si atom -5589.287868 kJ/mol
# Density = 1.994485 g / cm^3
# Si number density = 19.990348 Si / 1000 Ang^3
#
#
#
# Elastic Constant Matrix: (Units=GPa)
#
#
# Indices 1 2 3 4 5 6 
#
# 1 85.1268 39.0846 36.6345 -12.1854 10.0752 -8.9571
# 2 39.0846 113.8643 57.0424 -21.8710 -0.3518 -6.3196
# 3 36.6345 57.0424 85.8271 -24.6764 -9.7902 1.7771
# 4 -12.1854 -21.8710 -24.6764 39.3920 7.6625 -3.2950
# 5 10.0752 -0.3518 -9.7902 7.6625 28.0455 -7.5116
# 6 -8.9571 -6.3196 1.7771 -3.2950 -7.5116 23.1637
#
#
#
# Elastic Compliance Matrix: (Units=1/GPa)
#
#
# Indices 1 2 3 4 5 6 
#
# 1 0.017079 -0.002114 -0.006270 0.002050 -0.007764 0.004282
# 2 -0.002114 0.014271 -0.008024 0.002870 -0.001696 0.003550
# 3 -0.006270 -0.008024 0.022257 0.005832 0.007509 -0.003056
# 4 0.002050 0.002870 0.005832 0.032868 -0.006670 0.003641
# 5 -0.007764 -0.001696 0.007509 -0.006670 0.045482 0.009759
# 6 0.004282 0.003550 -0.003056 0.003641 0.009759 0.049713
#
#
# Mechanical properties :
#
#
# Convention : Reuss Voigt Hill
#
# Bulk Modulus (GPa) = 48.09802 61.14900 54.62351
# Shear Modulus (GPa) = 22.58190 28.25736 25.41963
#
# Velocity S-wave (km/s) = 3.36466 3.76380 3.56981
# Velocity P-wave (km/s) = 6.26158 7.03874 6.66151
#
# Compressibility (1/GPa) = 0.02079088
#
# Stress axis : x y z
#
# Youngs Moduli (GPa) = 58.55153 70.07267 44.92938
#
# Poissons Ratio (x) = 0.14813 0.28170
# Poissons Ratio (y) = 0.12378 0.36053
# Poissons Ratio (z) = 0.36711 0.56228
#
# Static dielectric constant tensor:
#      x y z
#    x 1.744810 0.021880 -0.011890 
#    y 0.021880 1.697030 -0.042880 
#    z -0.011890 -0.042880 1.708090 
# 
# From -- ./inp_files/303560.got.cif
#   From: 2010.05.17/outbox.cif.g08.bks.cpg/sg2_152_cif.got.tgz:303560.got - 2010.06.03 11:33:40.
