data_PCOD9053687
_publ_section_title
;
Structure prediction by ZEFSAII (Michael W. Deem and Ramdas Pophale) SiO2 
 PCOD9053687
Probable space group: P -1
;
_chemical_formula_sum "Si O2"
_cell_formula_units_Z 16
_cell_length_a 8.127121
_cell_length_b 10.001063
_cell_length_c 15.085754
_cell_angle_alpha 75.458835
_cell_angle_beta 50.903371
_cell_angle_gamma 44.518706
_cell_volume 621.197237
_symmetry_space_group_name_H-M "P -1"
_symmetry_group_IT_number 2
_symmetry_cell_setting 'triclinic'
loop_
_space_group_symop_operation_xyz
x,y,z
-x,-y,-z
loop_
_atom_site_type_symbol
_atom_site_label
_atom_site_fract_x
_atom_site_fract_y
_atom_site_fract_z
Si Si1 0.629540 0.691737 0.113599
Si Si2 0.062256 0.066957 0.174306
Si Si3 0.276430 0.284284 0.246572
Si Si4 0.756865 0.050606 0.429788
Si Si5 0.077857 0.125206 0.872962
Si Si6 0.299531 0.306513 0.706897
Si Si7 0.156889 0.273432 0.478085
Si Si8 0.606179 0.405373 0.144131
O O1 0.434617 0.897889 0.090349
O O2 0.585178 0.732038 0.226181
O O3 0.476852 0.620490 0.148025
O O4 0.000000 0.500000 0.000000
O O5 0.988531 0.975618 0.147154
O O6 0.936799 0.084695 0.311523
O O7 0.847322 0.285312 0.165217
O O8 0.179345 0.240261 0.371083
O O9 0.363808 0.396460 0.234174
O O10 0.984746 0.449630 0.254821
O O11 0.611489 0.060420 0.142819
O O12 0.562231 0.188860 0.560752
O O13 0.492566 0.133993 0.433808
O O14 0.954958 0.817465 0.426575
O O15 0.151031 0.223748 0.772767
O O16 0.799119 0.289762 0.007451
O O17 0.000000 0.500000 0.500000
#
# Coordination Sequence:
#
# PCOD9053687 Si02
#       8
#     2   2   2   2   2   2   2   2
#     4  12  29  46  63  95 137 182 223 268 330 397
#     4  11  25  44  70  98 132 173 220 277 334 389
#     4  11  22  38  70 103 130 163 223 275 331 383
#     4  11  22  41  66  99 139 168 218 269 330 395
#     4  11  22  42  69 102 129 168 223 280 333 384
#     4  12  25  42  66 100 135 179 219 265 328 398
#     4  11  20  35  66 105 132 164 207 278 333 381
#     4  11  25  43  69  98 133 171 225 278 332 388
#
# _framework density 25.756716999999998
#
# number of rings (size 3 to 8) (size 9 to 14) (size 15 to 20)
#    0.000    0.750    6.250    3.000    5.250    3.000 
#    0.000    0.625    0.000    0.000    0.000    0.000 
#    0.000    0.000    0.000    0.000    0.000    0.000 
#
# Total GULP energy -89559.909516 kJ/mol
# GULP energy per Si atom -5597.494345 kJ/mol
# Density = 2.569809 g / cm^3
# Si number density = 25.756717 Si / 1000 Ang^3
#
#
#
# Elastic Constant Matrix: (Units=GPa)
#
#
# Indices 1 2 3 4 5 6 
#
# 1 55.1770 13.8172 11.7664 2.8288 19.3636 -3.6860
# 2 13.8172 145.2639 16.2405 -22.4567 -0.1073 -26.7189
# 3 11.7664 16.2405 133.2324 -7.0368 13.2531 2.6799
# 4 2.8288 -22.4567 -7.0368 24.3588 0.0194 -6.3847
# 5 19.3636 -0.1073 13.2531 0.0194 34.0747 -1.8143
# 6 -3.6860 -26.7189 2.6799 -6.3847 -1.8143 35.9617
#
#
#
# Elastic Compliance Matrix: (Units=1/GPa)
#
#
# Indices 1 2 3 4 5 6 
#
# 1 0.024182 -0.003711 -0.000654 -0.006973 -0.013610 -0.002155
# 2 -0.003711 0.011386 -0.000866 0.013477 0.003043 0.010690
# 3 -0.000654 -0.000866 0.008042 0.001282 -0.002825 -0.001225
# 4 -0.006973 0.013477 0.001282 0.059914 0.004541 0.020069
# 5 -0.013610 0.003043 -0.002825 0.004541 0.038390 0.003820
# 6 -0.002155 0.010690 -0.001225 0.020069 0.003820 0.039376
#
#
# Mechanical properties :
#
#
# Convention : Reuss Voigt Hill
#
# Bulk Modulus (GPa) = 30.16874 46.36905 38.26889
# Shear Modulus (GPa) = 24.65441 38.33565 31.49503
#
# Velocity S-wave (km/s) = 3.09723 3.86213 3.50063
# Velocity P-wave (km/s) = 4.95266 6.15872 5.58832
#
# Compressibility (1/GPa) = 0.03314690
#
# Stress axis : x y z
#
# Youngs Moduli (GPa) = 41.35281 87.82909 124.34121
#
# Poissons Ratio (x) = 0.32596 0.08136
# Poissons Ratio (y) = 0.15347 0.10769
# Poissons Ratio (z) = 0.02706 0.07606
#
# Static dielectric constant tensor:
#      x y z
#    x 2.032980 0.003020 -0.047880 
#    y 0.003020 2.028940 0.037470 
#    z -0.047880 0.037470 2.042890 
# 
# From -- ./inp_files/271742.got.cif
#   From: 2010.05.17/outbox.cif.g08.bks.cpg/sg2_136_cif.got.tgz:271742.got - 2010.06.03 11:33:40.
