data_PCOD9053703
_publ_section_title
;
Structure prediction by ZEFSAII (Michael W. Deem and Ramdas Pophale) SiO2 
 PCOD9053703
Probable space group: P -1
;
_chemical_formula_sum "Si O2"
_cell_formula_units_Z 16
_cell_length_a 11.111999
_cell_length_b 10.719712
_cell_length_c 16.031865
_cell_angle_alpha 34.851161
_cell_angle_beta 141.632559
_cell_angle_gamma 123.854642
_cell_volume 656.988349
_symmetry_space_group_name_H-M "P -1"
_symmetry_group_IT_number 2
_symmetry_cell_setting 'triclinic'
loop_
_space_group_symop_operation_xyz
x,y,z
-x,-y,-z
loop_
_atom_site_type_symbol
_atom_site_label
_atom_site_fract_x
_atom_site_fract_y
_atom_site_fract_z
Si Si1 0.411302 0.747889 0.854648
Si Si2 0.813699 0.680304 0.906851
Si Si3 0.665489 0.063815 0.831667
Si Si4 0.584523 0.465399 0.250253
Si Si5 0.977693 0.306687 0.808199
Si Si6 0.946431 0.244893 0.448653
Si Si7 0.936965 0.205925 0.154162
Si Si8 0.524023 0.224899 0.842369
O O1 0.184097 0.802064 0.674765
O O2 0.516397 0.936397 0.775289
O O3 0.500000 0.500000 0.000000
O O4 0.476055 0.693176 0.014865
O O5 0.929911 0.423151 0.087776
O O6 0.900921 0.724099 0.020066
O O7 0.580833 0.680150 0.770388
O O8 0.875738 0.832509 0.785340
O O9 0.774489 0.227694 0.751766
O O10 0.537178 0.185028 0.772973
O O11 0.861144 0.859742 0.072876
O O12 0.785870 0.350034 0.375705
O O13 0.616069 0.556398 0.309069
O O14 0.946743 0.562899 0.624217
O O15 0.071497 0.012866 0.678812
O O16 0.742602 0.263871 0.959430
O O17 0.500000 0.000000 0.000000
#
# Coordination Sequence:
#
# PCOD9053703 Si02
#       8
#     2   2   2   2   2   2   2   2
#     4  10  17  35  61  92 119 161 212 254 303 375
#     4  10  20  41  63  92 124 172 210 256 312 392
#     4  11  21  35  64  94 118 175 214 250 311 387
#     4  10  19  35  65  91 122 169 214 251 310 380
#     4  11  20  36  64  92 128 161 216 260 311 372
#     4  11  21  40  66 100 125 161 215 273 304 365
#     4  10  24  39  64  96 130 161 214 261 321 366
#     4  11  20  38  63  89 122 171 212 249 312 390
#
# _framework density 24.353552000000001
#
# number of rings (size 3 to 8) (size 9 to 14) (size 15 to 20)
#    0.000    1.500    6.250    0.750    0.000    1.000 
#    0.000    2.500    8.250    1.500    0.000    0.000 
#    0.000    0.000    0.000    0.000    0.000    0.000 
#
# Total GULP energy -89425.563774 kJ/mol
# GULP energy per Si atom -5589.097736 kJ/mol
# Density = 2.429812 g / cm^3
# Si number density = 24.353552 Si / 1000 Ang^3
#
#
#
# Elastic Constant Matrix: (Units=GPa)
#
#
# Indices 1 2 3 4 5 6 
#
# 1 114.0717 52.3045 7.9083 -10.6094 4.0211 1.6778
# 2 52.3045 146.2599 17.2611 -16.8319 -8.1140 16.4165
# 3 7.9083 17.2611 60.7441 -16.2451 -5.6445 -0.1534
# 4 -10.6094 -16.8319 -16.2451 27.0547 10.0111 -9.3265
# 5 4.0211 -8.1140 -5.6445 10.0111 24.4855 -12.3956
# 6 1.6778 16.4165 -0.1534 -9.3265 -12.3956 57.3939
#
#
#
# Elastic Compliance Matrix: (Units=1/GPa)
#
#
# Indices 1 2 3 4 5 6 
#
# 1 0.011004 -0.003816 0.000287 0.003886 -0.004362 0.000460
# 2 -0.003816 0.008879 -0.001341 0.002047 0.001527 -0.001769
# 3 0.000287 -0.001341 0.020068 0.012005 0.000484 0.002484
# 4 0.003886 0.002047 0.012005 0.054953 -0.017377 0.004510
# 5 -0.004362 0.001527 0.000484 -0.017377 0.053548 0.008433
# 6 0.000460 -0.001769 0.002484 0.004510 0.008433 0.020477
#
#
# Mechanical properties :
#
#
# Convention : Reuss Voigt Hill
#
# Bulk Modulus (GPa) = 33.10027 52.89150 42.99589
# Shear Modulus (GPa) = 26.49133 38.02693 32.25913
#
# Velocity S-wave (km/s) = 3.30173 3.95581 3.64348
# Velocity P-wave (km/s) = 5.30625 6.52916 5.94921
#
# Compressibility (1/GPa) = 0.03021123
#
# Stress axis : x y z
#
# Youngs Moduli (GPa) = 90.87206 112.62738 49.83010
#
# Poissons Ratio (x) = 0.42974 -0.01429
# Poissons Ratio (y) = 0.34673 0.06684
# Poissons Ratio (z) = -0.02606 0.15107
#
# Static dielectric constant tensor:
#      x y z
#    x 2.067440 -0.043830 -0.008700 
#    y -0.043830 1.969840 0.005150 
#    z -0.008700 0.005150 1.934140 
# 
# From -- ./inp_files/568522.got.cif
#   From: 2010.05.17/outbox.cif.g08.bks.cpg/sg2_285_cif.got.tgz:568522.got - 2010.06.03 11:33:40.
