data_PCOD9053051
_publ_section_title
;
Structure prediction by ZEFSAII (Michael W. Deem and Ramdas Pophale) SiO2 
 PCOD9053051
Probable space group: P -1
;
_chemical_formula_sum "Si O2"
_cell_formula_units_Z 16
_cell_length_a 11.743836
_cell_length_b 20.551503
_cell_length_c 17.733801
_cell_angle_alpha 20.050632
_cell_angle_beta 41.562167
_cell_angle_gamma 52.493444
_cell_volume 886.457641
_symmetry_space_group_name_H-M "P -1"
_symmetry_group_IT_number 2
_symmetry_cell_setting 'triclinic'
loop_
_space_group_symop_operation_xyz
x,y,z
-x,-y,-z
loop_
_atom_site_type_symbol
_atom_site_label
_atom_site_fract_x
_atom_site_fract_y
_atom_site_fract_z
Si Si1 0.655169 0.136771 0.395353
Si Si2 0.710748 0.376492 0.249480
Si Si3 0.096063 0.025647 0.631359
Si Si4 0.928131 0.023423 0.124007
Si Si5 0.721474 0.717102 0.428778
Si Si6 0.505105 0.692355 0.833414
Si Si7 0.978621 0.161876 0.395318
Si Si8 0.673164 0.273223 0.968582
O O1 0.714094 0.332902 0.206299
O O2 0.507557 0.146382 0.396751
O O3 0.838359 0.143633 0.253918
O O4 0.530068 0.920887 0.736137
O O5 0.491573 0.309015 0.448976
O O6 0.805417 0.227967 0.397044
O O7 0.838849 0.616455 0.943847
O O8 0.051432 0.998721 0.771793
O O9 0.298423 0.220558 0.316117
O O10 0.967881 0.068871 0.586003
O O11 0.798777 0.815519 0.366728
O O12 0.828911 0.181700 0.985885
O O13 0.131758 0.121811 0.876832
O O14 0.717075 0.487193 0.670639
O O15 0.500000 0.500000 0.000000
O O16 0.347334 0.661696 0.006225
O O17 0.000000 0.000000 0.500000
#
# Coordination Sequence:
#
# PCOD9053051 Si02
#       8
#     2   2   2   2   2   2   2   2
#     4  11  18  33  59  87 119 145 183 246 304 352
#     4  11  22  40  59  87 117 148 196 245 290 342
#     4  11  19  36  55  82 120 149 188 240 291 344
#     4  11  22  40  57  89 124 155 197 232 285 365
#     4  11  24  37  61  87 120 160 195 238 286 349
#     4  11  19  29  55  89 119 147 181 240 307 358
#     4  11  24  39  62  88 112 153 195 246 296 338
#     4  11  19  34  54  85 120 154 188 227 292 353
#
# _framework density 18.049368000000001
#
# number of rings (size 3 to 8) (size 9 to 14) (size 15 to 20)
#    0.000    1.000    5.000    4.875    0.000    0.000 
#    0.000    0.625    0.000    0.750    0.000    0.000 
#    0.000    0.000    0.000    0.000    0.000    0.000 
#
# Total GULP energy -89146.936654 kJ/mol
# GULP energy per Si atom -5571.683541 kJ/mol
# Density = 1.800829 g / cm^3
# Si number density = 18.049368 Si / 1000 Ang^3
#
#
#
# Elastic Constant Matrix: (Units=GPa)
#
#
# Indices 1 2 3 4 5 6 
#
# 1 104.2937 36.7463 37.3563 -0.9685 7.1328 -4.4259
# 2 36.7463 98.0498 41.9274 -7.4928 -6.4097 4.3409
# 3 37.3563 41.9274 74.8840 -8.1220 -6.9842 -7.4780
# 4 -0.9685 -7.4928 -8.1220 35.7621 0.6631 -1.1165
# 5 7.1328 -6.4097 -6.9842 0.6631 25.4471 -4.4776
# 6 -4.4259 4.3409 -7.4780 -1.1165 -4.4776 22.4921
#
#
#
# Elastic Compliance Matrix: (Units=1/GPa)
#
#
# Indices 1 2 3 4 5 6 
#
# 1 0.013012 -0.003024 -0.005490 -0.001417 -0.005865 0.000081
# 2 -0.003024 0.014771 -0.007012 0.001221 0.001664 -0.005385
# 3 -0.005490 -0.007012 0.022009 0.003532 0.007345 0.009228
# 4 -0.001417 0.001221 0.003532 0.029032 0.001334 0.002367
# 5 -0.005865 0.001664 0.007345 0.001334 0.045103 0.010012
# 6 0.000081 -0.005385 0.009228 0.002367 0.010012 0.050694
#
#
# Mechanical properties :
#
#
# Convention : Reuss Voigt Hill
#
# Bulk Modulus (GPa) = 53.36504 56.58749 54.97626
# Shear Modulus (GPa) = 23.59399 27.48677 25.54038
#
# Velocity S-wave (km/s) = 3.61943 3.90663 3.76577
# Velocity P-wave (km/s) = 6.86276 7.19504 7.03086
#
# Compressibility (1/GPa) = 0.01873886
#
# Stress axis : x y z
#
# Youngs Moduli (GPa) = 76.85410 67.69990 45.43687
#
# Poissons Ratio (x) = 0.20471 0.24947
# Poissons Ratio (y) = 0.23239 0.31860
# Poissons Ratio (z) = 0.42197 0.47471
#
# Static dielectric constant tensor:
#      x y z
#    x 1.659060 -0.000480 0.017520 
#    y -0.000480 1.680810 -0.029960 
#    z 0.017520 -0.029960 1.669700 
# 
# From -- ./inp_files/433106.got.cif
#   From: 2010.05.17/outbox.cif.g08.bks.cpg/sg2_217_cif.got.tgz:433106.got - 2010.06.03 11:33:40.
