data_PCOD9053239
_publ_section_title
;
Structure prediction by ZEFSAII (Michael W. Deem and Ramdas Pophale) SiO2 
 PCOD9053239
Probable space group: P -1
;
_chemical_formula_sum "Si O2"
_cell_formula_units_Z 16
_cell_length_a 12.687179
_cell_length_b 10.782193
_cell_length_c 13.065555
_cell_angle_alpha 144.919438
_cell_angle_beta 135.819051
_cell_angle_gamma 54.339259
_cell_volume 715.861149
_symmetry_space_group_name_H-M "P -1"
_symmetry_group_IT_number 2
_symmetry_cell_setting 'triclinic'
loop_
_space_group_symop_operation_xyz
x,y,z
-x,-y,-z
loop_
_atom_site_type_symbol
_atom_site_label
_atom_site_fract_x
_atom_site_fract_y
_atom_site_fract_z
Si Si1 0.615632 0.117426 0.582053
Si Si2 0.408536 0.632833 0.939307
Si Si3 0.197341 0.265837 0.055642
Si Si4 0.003763 0.533235 0.793902
Si Si5 0.167897 0.390853 0.464479
Si Si6 0.635297 0.901073 0.747699
Si Si7 0.055432 0.000469 0.225563
Si Si8 0.693620 0.609143 0.006775
O O1 0.537284 0.127647 0.424697
O O2 0.642176 0.359552 0.799990
O O3 0.500000 0.000000 0.500000
O O4 0.776585 0.005770 0.616513
O O5 0.329422 0.846177 0.069944
O O6 0.283201 0.501977 0.699160
O O7 0.544869 0.720965 0.021515
O O8 0.500000 0.500000 0.000000
O O9 0.319650 0.186992 0.170045
O O10 0.262973 0.321656 0.030052
O O11 0.106428 0.463566 0.180542
O O12 0.073731 0.071592 0.834338
O O13 0.917187 0.472810 0.589570
O O14 0.153420 0.396096 0.823416
O O15 0.269926 0.232532 0.359065
O O16 0.044847 0.234838 0.327416
O O17 0.957022 0.205614 0.001295
#
# Coordination Sequence:
#
# PCOD9053239 Si02
#       8
#     2   2   2   2   2   2   2   2
#     4  11  19  34  64  91 124 163 200 262 313 359
#     4  12  27  39  66  96 124 168 213 264 324 375
#     4   9  22  37  63  93 125 173 209 256 319 376
#     4   8  20  34  66  93 119 167 208 253 318 372
#     4  11  20  41  65  96 125 161 207 267 319 365
#     4  11  23  41  62  97 129 164 215 261 317 376
#     4   9  18  32  64  91 124 162 205 249 319 372
#     4  11  21  41  63  92 131 162 216 263 309 392
#
# _framework density 22.350704
#
# number of rings (size 3 to 8) (size 9 to 14) (size 15 to 20)
#    0.750    1.000    2.500    2.250    1.750    1.000 
#    0.000    3.750    0.000    3.750    0.000    0.000 
#    0.000    0.000    0.000    0.000    0.000    0.000 
#
# Total GULP energy -89336.796970 kJ/mol
# GULP energy per Si atom -5583.549811 kJ/mol
# Density = 2.229983 g / cm^3
# Si number density = 22.350704 Si / 1000 Ang^3
#
#
#
# Elastic Constant Matrix: (Units=GPa)
#
#
# Indices 1 2 3 4 5 6 
#
# 1 69.1911 25.2547 39.3628 -11.9032 7.0585 23.1635
# 2 25.2547 68.2415 50.1049 -25.6941 4.9783 10.0249
# 3 39.3628 50.1049 106.2713 -39.9115 2.8384 -2.4770
# 4 -11.9032 -25.6941 -39.9115 30.6247 -13.4130 3.1856
# 5 7.0585 4.9783 2.8384 -13.4130 31.5184 6.9592
# 6 23.1635 10.0249 -2.4770 3.1856 6.9592 32.3998
#
#
#
# Elastic Compliance Matrix: (Units=1/GPa)
#
#
# Indices 1 2 3 4 5 6 
#
# 1 0.027461 0.000441 -0.012244 -0.003909 -0.002408 -0.019803
# 2 0.000441 0.028109 -0.006387 0.020058 0.007459 -0.013075
# 3 -0.012244 -0.006387 0.029305 0.033449 0.013867 0.006703
# 4 -0.003909 0.020058 0.033449 0.115263 0.048749 -0.022658
# 5 -0.002408 0.007459 0.013867 0.048749 0.054105 -0.015941
# 6 -0.019803 -0.013075 0.006703 -0.022658 -0.015941 0.055232
#
#
# Mechanical properties :
#
#
# Convention : Reuss Voigt Hill
#
# Bulk Modulus (GPa) = 20.62166 52.57206 36.59686
# Shear Modulus (GPa) = 13.81136 27.50735 20.65936
#
# Velocity S-wave (km/s) = 2.48853 3.51196 3.04357
# Velocity P-wave (km/s) = 4.18372 6.32595 5.36289
#
# Compressibility (1/GPa) = 0.04849270
#
# Stress axis : x y z
#
# Youngs Moduli (GPa) = 36.41584 35.57562 34.12412
#
# Poissons Ratio (x) = -0.01568 0.41783
# Poissons Ratio (y) = -0.01605 0.21796
# Poissons Ratio (z) = 0.44589 0.22723
#
# Static dielectric constant tensor:
#      x y z
#    x 1.943300 -0.049360 -0.015140 
#    y -0.049360 1.846010 -0.002100 
#    z -0.015140 -0.002100 1.850360 
# 
# From -- ./inp_files/419824.got.cif
#   From: 2010.05.17/outbox.cif.g08.bks.cpg/sg2_210_cif.got.tgz:419824.got - 2010.06.03 11:33:40.
