data_PCOD9053956
_publ_section_title
;
Structure prediction by ZEFSAII (Michael W. Deem and Ramdas Pophale) SiO2 
 PCOD9053956
Probable space group: P -1
;
_chemical_formula_sum "Si O2"
_cell_formula_units_Z 16
_cell_length_a 9.111827
_cell_length_b 12.052912
_cell_length_c 10.804622
_cell_angle_alpha 47.500332
_cell_angle_beta 72.296105
_cell_angle_gamma 52.524186
_cell_volume 682.604339
_symmetry_space_group_name_H-M "P -1"
_symmetry_group_IT_number 2
_symmetry_cell_setting 'triclinic'
loop_
_space_group_symop_operation_xyz
x,y,z
-x,-y,-z
loop_
_atom_site_type_symbol
_atom_site_label
_atom_site_fract_x
_atom_site_fract_y
_atom_site_fract_z
Si Si1 0.622645 0.895778 0.171104
Si Si2 0.161701 0.771388 0.876239
Si Si3 0.158647 0.522422 0.882917
Si Si4 0.499399 0.814828 0.810744
Si Si5 0.726830 0.572615 0.714269
Si Si6 0.645362 0.418691 0.635271
Si Si7 0.148780 0.977307 0.074031
Si Si8 0.890140 0.480263 0.392986
O O1 0.706282 0.683734 0.319586
O O2 0.547562 0.005853 0.237155
O O3 0.500000 0.000000 0.000000
O O4 0.803786 0.889098 0.093012
O O5 0.155714 0.693884 0.804721
O O6 0.317537 0.811405 0.832910
O O7 0.203446 0.605093 0.082116
O O8 0.954585 0.947293 0.826758
O O9 0.129451 0.537695 0.733776
O O10 0.357996 0.346314 0.009374
O O11 0.000000 0.500000 0.000000
O O12 0.612979 0.749527 0.700399
O O13 0.604661 0.553554 0.657328
O O14 0.906615 0.555175 0.620241
O O15 0.500000 0.500000 0.500000
O O16 0.674998 0.231575 0.812716
O O17 0.850432 0.354419 0.577960
O O18 0.000000 0.000000 0.000000
#
# Coordination Sequence:
#
# PCOD9053956 Si02
#       8
#     2   2   2   2   2   2   2   2
#     4  12  22  38  68 103 134 171 237 290 332 398
#     4  11  22  38  72  99 135 170 242 285 335 398
#     4  11  20  39  65 105 136 175 228 289 343 405
#     4  11  23  36  67 104 136 174 235 291 334 398
#     4  11  22  43  65  97 131 184 225 278 341 410
#     4  12  28  44  67 100 145 182 227 282 356 412
#     4  12  22  44  69  99 133 183 234 282 331 414
#     4  12  24  42  68  99 138 180 224 283 353 410
#
# _framework density 23.439640000000001
#
# number of rings (size 3 to 8) (size 9 to 14) (size 15 to 20)
#    0.000    0.500    7.500    2.625    3.500    0.000 
#    0.000    1.250    0.000    0.000    0.000    0.000 
#    0.000    0.000    0.000    0.000    0.000    0.000 
#
# Total GULP energy -89423.359335 kJ/mol
# GULP energy per Si atom -5588.959958 kJ/mol
# Density = 2.338629 g / cm^3
# Si number density = 23.439640 Si / 1000 Ang^3
#
#
#
# Elastic Constant Matrix: (Units=GPa)
#
#
# Indices 1 2 3 4 5 6 
#
# 1 89.1514 32.6042 4.4771 8.2823 7.2755 15.1919
# 2 32.6042 171.0991 17.3473 11.5138 9.6814 18.7438
# 3 4.4771 17.3473 39.1393 5.7011 5.5270 7.5898
# 4 8.2823 11.5138 5.7011 22.7238 2.2725 1.1568
# 5 7.2755 9.6814 5.5270 2.2725 42.5297 16.2565
# 6 15.1919 18.7438 7.5898 1.1568 16.2565 42.6239
#
#
#
# Elastic Compliance Matrix: (Units=1/GPa)
#
#
# Indices 1 2 3 4 5 6 
#
# 1 0.012852 -0.001847 0.000637 -0.003695 -0.000255 -0.003684
# 2 -0.001847 0.006760 -0.002102 -0.002118 -0.000137 -0.001831
# 3 0.000637 -0.002102 0.028183 -0.005895 -0.001624 -0.003542
# 4 -0.003695 -0.002118 -0.005895 0.047940 -0.001691 0.002642
# 5 -0.000255 -0.000137 -0.001624 -0.001691 0.027749 -0.010097
# 6 -0.003684 -0.001831 -0.003542 0.002642 -0.010097 0.029989
#
#
# Mechanical properties :
#
#
# Convention : Reuss Voigt Hill
#
# Bulk Modulus (GPa) = 24.28823 45.36079 34.82451
# Shear Modulus (GPa) = 28.76497 37.90623 33.33560
#
# Velocity S-wave (km/s) = 3.50693 4.02579 3.77528
# Velocity P-wave (km/s) = 5.17519 6.40339 5.82177
#
# Compressibility (1/GPa) = 0.04117221
#
# Stress axis : x y z
#
# Youngs Moduli (GPa) = 77.80698 147.91863 35.48177
#
# Poissons Ratio (x) = 0.27320 -0.02261
# Poissons Ratio (y) = 0.14371 0.07459
# Poissons Ratio (z) = -0.04958 0.31097
#
# Static dielectric constant tensor:
#      x y z
#    x 1.873430 0.046140 -0.026510 
#    y 0.046140 2.491950 -0.081870 
#    z -0.026510 -0.081870 1.842990 
# 
# From -- ./inp_files/389057.got.cif
#   From: 2010.05.17/outbox.cif.g08.bks.cpg/sg2_195_cif.got.tgz:389057.got - 2010.06.03 11:33:40.
