data_PCOD9053814
_publ_section_title
;
Structure prediction by ZEFSAII (Michael W. Deem and Ramdas Pophale) SiO2 
 PCOD9053814
Probable space group: P -1
;
_chemical_formula_sum "Si O2"
_cell_formula_units_Z 16
_cell_length_a 13.686180
_cell_length_b 20.412331
_cell_length_c 11.219976
_cell_angle_alpha 32.035252
_cell_angle_beta 30.084957
_cell_angle_gamma 27.809788
_cell_volume 686.073638
_symmetry_space_group_name_H-M "P -1"
_symmetry_group_IT_number 2
_symmetry_cell_setting 'triclinic'
loop_
_space_group_symop_operation_xyz
x,y,z
-x,-y,-z
loop_
_atom_site_type_symbol
_atom_site_label
_atom_site_fract_x
_atom_site_fract_y
_atom_site_fract_z
Si Si1 0.906956 0.393508 0.749734
Si Si2 0.723853 0.808535 0.803748
Si Si3 0.894118 0.993963 0.000379
Si Si4 0.472747 0.489116 0.234596
Si Si5 0.444286 0.300921 0.036410
Si Si6 0.602172 0.174873 0.667722
Si Si7 0.637619 0.861237 0.422833
Si Si8 0.927113 0.945516 0.493984
O O1 0.768329 0.412918 0.741380
O O2 0.000000 0.500000 0.500000
O O3 0.158976 0.233776 0.743568
O O4 0.705342 0.434195 0.994178
O O5 0.752314 0.687866 0.862912
O O6 0.942014 0.806242 0.630550
O O7 0.575688 0.978346 0.644041
O O8 0.576396 0.814819 0.063016
O O9 0.064903 0.948956 0.777527
O O10 0.675795 0.162171 0.943023
O O11 0.782870 0.902740 0.288236
O O12 0.000000 0.000000 0.000000
O O13 0.490334 0.340654 0.480812
O O14 0.505238 0.575779 0.174217
O O15 0.421709 0.237842 0.285300
O O16 0.845814 0.120768 0.560851
O O17 0.691138 0.052796 0.656206
#
# Coordination Sequence:
#
# PCOD9053814 Si02
#       8
#     2   2   2   2   2   2   2   2
#     4  11  24  43  65  99 130 174 225 269 332 387
#     4  11  24  42  67 100 130 170 220 279 329 392
#     4  11  20  37  66  97 129 168 218 278 329 383
#     4  11  26  43  67  95 138 177 217 269 330 407
#     4  11  22  41  61 100 132 171 218 268 338 393
#     4  11  25  45  65  97 134 176 223 272 328 400
#     4  11  21  39  66  96 133 161 221 280 322 386
#     4  11  23  43  68  97 128 174 229 271 335 380
#
# _framework density 23.321111999999999
#
# number of rings (size 3 to 8) (size 9 to 14) (size 15 to 20)
#    0.000    1.000    3.750    4.875    3.500    2.500 
#    0.000    0.625    0.000    0.000    0.000    0.000 
#    0.000    0.000    0.000    0.000    0.000    0.000 
#
# Total GULP energy -89275.272492 kJ/mol
# GULP energy per Si atom -5579.704531 kJ/mol
# Density = 2.326803 g / cm^3
# Si number density = 23.321112 Si / 1000 Ang^3
#
#
#
# Elastic Constant Matrix: (Units=GPa)
#
#
# Indices 1 2 3 4 5 6 
#
# 1 77.4684 -1.4486 2.4590 -4.9895 -16.6688 14.7546
# 2 -1.4486 48.8250 4.5675 3.6096 4.2383 12.1175
# 3 2.4590 4.5675 69.4697 12.4301 0.7960 -1.6384
# 4 -4.9895 3.6096 12.4301 31.9268 11.2833 -5.9018
# 5 -16.6688 4.2383 0.7960 11.2833 43.6103 -4.4461
# 6 14.7546 12.1175 -1.6384 -5.9018 -4.4461 24.8585
#
#
#
# Elastic Compliance Matrix: (Units=1/GPa)
#
#
# Indices 1 2 3 4 5 6 
#
# 1 0.015957 0.002733 -0.000832 -0.001189 0.005114 -0.010226
# 2 0.002733 0.024902 -0.001354 -0.004002 -0.001858 -0.015133
# 3 -0.000832 -0.001354 0.015657 -0.006352 0.001264 0.000903
# 4 -0.001189 -0.004002 -0.006352 0.039091 -0.009054 0.009899
# 5 0.005114 -0.001858 0.001264 -0.009054 0.027458 0.000715
# 6 -0.010226 -0.015133 0.000903 0.009899 0.000715 0.056212
#
#
# Mechanical properties :
#
#
# Convention : Reuss Voigt Hill
#
# Bulk Modulus (GPa) = 17.35749 22.99101 20.17425
# Shear Modulus (GPa) = 25.33126 32.75813 29.04470
#
# Velocity S-wave (km/s) = 3.29932 3.75194 3.53289
# Velocity P-wave (km/s) = 4.68754 5.35250 5.03102
#
# Compressibility (1/GPa) = 0.05761203
#
# Stress axis : x y z
#
# Youngs Moduli (GPa) = 62.66662 40.15775 63.87082
#
# Poissons Ratio (x) = -0.10976 0.05311
# Poissons Ratio (y) = -0.17128 0.08645
# Poissons Ratio (z) = 0.05211 0.05436
#
# Static dielectric constant tensor:
#      x y z
#    x 2.075270 -0.003340 -0.112020 
#    y -0.003340 1.952840 0.007210 
#    z -0.112020 0.007210 1.943180 
# 
# From -- ./inp_files/457408.got.cif
#   From: 2010.05.17/outbox.cif.g08.bks.cpg/sg2_229_cif.got.tgz:457408.got - 2010.06.03 11:33:40.
