data_PCOD9053552
_publ_section_title
;
Structure prediction by ZEFSAII (Michael W. Deem and Ramdas Pophale) SiO2 
 PCOD9053552
Probable space group: P -1
;
_chemical_formula_sum "Si O2"
_cell_formula_units_Z 14
_cell_length_a 7.585091
_cell_length_b 9.228263
_cell_length_c 11.947054
_cell_angle_alpha 64.377163
_cell_angle_beta 91.931793
_cell_angle_gamma 50.960298
_cell_volume 526.757231
_symmetry_space_group_name_H-M "P -1"
_symmetry_group_IT_number 2
_symmetry_cell_setting 'triclinic'
loop_
_space_group_symop_operation_xyz
x,y,z
-x,-y,-z
loop_
_atom_site_type_symbol
_atom_site_label
_atom_site_fract_x
_atom_site_fract_y
_atom_site_fract_z
Si Si1 0.961157 0.469010 0.747894
Si Si2 0.749444 0.195008 0.007265
Si Si3 0.300916 0.530361 0.710310
Si Si4 0.358106 0.843463 0.335123
Si Si5 0.942756 0.717008 0.963683
Si Si6 0.089315 0.129456 0.692820
Si Si7 0.619658 0.153708 0.407547
O O1 0.007542 0.349017 0.672550
O O2 0.059197 0.584937 0.716901
O O3 0.666674 0.650354 0.706728
O O4 0.114671 0.268648 0.911248
O O5 0.517704 0.354161 0.865051
O O6 0.728668 0.079450 0.144278
O O7 0.000000 0.000000 0.000000
O O8 0.405560 0.394745 0.640233
O O9 0.186269 0.675554 0.977546
O O10 0.262790 0.744459 0.634555
O O11 0.395441 0.872864 0.452930
O O12 0.267555 0.051693 0.187876
O O13 0.143975 0.843586 0.327316
O O14 0.000000 0.500000 0.000000
O O15 0.220186 0.061192 0.599251
#
# Coordination Sequence:
#
# PCOD9053552 Si02
#       7
#     2   2   2   2   2   2   2
#     4  12  27  49  77 118 154 200 260 318 385 452
#     4  11  19  47  78 108 153 203 253 322 386 446
#     4  12  25  46  83 111 156 205 256 318 385 458
#     4  11  24  51  81 108 159 204 254 322 387 451
#     4  11  24  46  80 114 151 193 262 320 375 455
#     4  11  24  48  79 110 155 202 258 316 385 452
#     4  12  27  51  79 111 160 207 253 311 387 469
#
# _framework density 26.577705999999999
#
# number of rings (size 3 to 8) (size 9 to 14) (size 15 to 20)
#    0.000    0.571    7.143    0.857    4.000    5.714 
#    0.000    1.429    0.000    0.000    0.000    0.000 
#    0.000    0.000    0.000    0.000    0.000    0.000 
#
# Total GULP energy -78661.318293 kJ/mol
# GULP energy per Si atom -5618.665592 kJ/mol
# Density = 2.651721 g / cm^3
# Si number density = 26.577706 Si / 1000 Ang^3
#
#
#
# Elastic Constant Matrix: (Units=GPa)
#
#
# Indices 1 2 3 4 5 6 
#
# 1 128.4004 33.4190 13.7187 -7.2105 -10.6077 23.9675
# 2 33.4190 97.4204 -5.8456 10.7853 7.9779 7.8409
# 3 13.7187 -5.8456 134.3634 1.7220 -4.7054 -3.2281
# 4 -7.2105 10.7853 1.7220 40.1158 4.8854 -8.7547
# 5 -10.6077 7.9779 -4.7054 4.8854 15.9351 3.9654
# 6 23.9675 7.8409 -3.2281 -8.7547 3.9654 27.0238
#
#
#
# Elastic Compliance Matrix: (Units=1/GPa)
#
#
# Indices 1 2 3 4 5 6 
#
# 1 0.012355 -0.004341 -0.001265 -0.000805 0.013272 -0.012058
# 2 -0.004341 0.012789 0.000763 -0.003164 -0.008199 0.000409
# 3 -0.001265 0.000763 0.007677 -0.000530 0.000826 0.001525
# 4 -0.000805 -0.003164 -0.000530 0.029878 -0.011487 0.012934
# 5 0.013272 -0.008199 0.000826 -0.011487 0.085833 -0.025610
# 6 -0.012058 0.000409 0.001525 0.012934 -0.025610 0.055710
#
#
# Mechanical properties :
#
#
# Convention : Reuss Voigt Hill
#
# Bulk Modulus (GPa) = 43.22645 49.19648 46.21147
# Shear Modulus (GPa) = 22.55911 37.87443 30.21677
#
# Velocity S-wave (km/s) = 2.91657 3.77907 3.37548
# Velocity P-wave (km/s) = 5.25751 6.13127 5.71112
#
# Compressibility (1/GPa) = 0.02313398
#
# Stress axis : x y z
#
# Youngs Moduli (GPa) = 80.93756 78.19471 130.25589
#
# Poissons Ratio (x) = 0.33948 0.16477
# Poissons Ratio (y) = 0.35139 -0.09937
# Poissons Ratio (z) = 0.10238 -0.05965
#
# Static dielectric constant tensor:
#      x y z
#    x 2.030270 0.008790 0.011870 
#    y 0.008790 2.059690 0.025760 
#    z 0.011870 0.025760 2.098810 
# 
# From -- ./inp_files/423603.got.cif
#   From: 2010.05.17/outbox.cif.g08.bks.cpg/sg2_212_cif.got.tgz:423603.got - 2010.06.03 11:33:40.
