data_PCOD9054922
_publ_section_title
;
Structure prediction by ZEFSAII (Michael W. Deem and Ramdas Pophale) SiO2 
 PCOD9054922
Probable space group: P -1
;
_chemical_formula_sum "Si O2"
_cell_formula_units_Z 14
_cell_length_a 8.914787
_cell_length_b 9.411106
_cell_length_c 11.108179
_cell_angle_alpha 68.661244
_cell_angle_beta 126.879678
_cell_angle_gamma 122.083221
_cell_volume 630.216899
_symmetry_space_group_name_H-M "P -1"
_symmetry_group_IT_number 2
_symmetry_cell_setting 'triclinic'
loop_
_space_group_symop_operation_xyz
x,y,z
-x,-y,-z
loop_
_atom_site_type_symbol
_atom_site_label
_atom_site_fract_x
_atom_site_fract_y
_atom_site_fract_z
Si Si1 0.162205 0.684819 0.736881
Si Si2 0.957917 0.954231 0.176669
Si Si3 0.106625 0.327473 0.150964
Si Si4 0.435226 0.007978 0.103037
Si Si5 0.122584 0.184703 0.558422
Si Si6 0.968884 0.338868 0.806938
Si Si7 0.416742 0.661679 0.307370
O O1 0.386954 0.834092 0.796988
O O2 0.150921 0.498950 0.784236
O O3 0.057542 0.692217 0.814698
O O4 0.023137 0.720293 0.559755
O O5 0.854703 0.858911 0.279677
O O6 0.049591 0.836484 0.196481
O O7 0.775151 0.968484 0.007548
O O8 0.118580 0.147566 0.214327
O O9 0.312770 0.494065 0.227638
O O10 0.021806 0.349003 0.972482
O O11 0.420651 0.833679 0.201805
O O12 0.500000 0.000000 0.000000
O O13 0.343741 0.290409 0.569435
O O14 0.000000 0.000000 0.500000
O O15 0.762327 0.367715 0.671989
#
# Coordination Sequence:
#
# PCOD9054922 Si02
#       7
#     2   2   2   2   2   2   2
#     4  11  23  42  69  89 129 170 217 257 308 380
#     4  12  25  40  67  97 133 161 211 265 322 370
#     4  11  21  39  65  96 126 162 212 260 311 375
#     4  12  18  37  67  96 117 169 213 261 307 368
#     4  12  23  44  68  93 122 174 221 253 302 392
#     4  11  25  41  62 101 134 160 203 275 323 364
#     4  11  22  38  70  92 125 168 216 255 316 376
#
# _framework density 22.214576000000001
#
# number of rings (size 3 to 8) (size 9 to 14) (size 15 to 20)
#    0.000    0.571    7.143    3.000    0.000    3.429 
#    0.000    0.714    3.143    0.000    0.000    0.000 
#    0.000    0.000    0.000    0.000    0.000    0.000 
#
# Total GULP energy -78192.109390 kJ/mol
# GULP energy per Si atom -5585.150671 kJ/mol
# Density = 2.216401 g / cm^3
# Si number density = 22.214576 Si / 1000 Ang^3
#
#
#
# Elastic Constant Matrix: (Units=GPa)
#
#
# Indices 1 2 3 4 5 6 
#
# 1 38.9441 30.1566 14.5317 16.3506 15.2199 -3.7000
# 2 30.1566 188.7971 34.7848 3.8573 17.0027 4.9295
# 3 14.5317 34.7848 66.8424 -4.6472 19.9293 5.5075
# 4 16.3506 3.8573 -4.6472 40.6849 13.7620 7.0591
# 5 15.2199 17.0027 19.9293 13.7620 27.0126 0.0014
# 6 -3.7000 4.9295 5.5075 7.0591 0.0014 39.8513
#
#
#
# Elastic Compliance Matrix: (Units=1/GPa)
#
#
# Indices 1 2 3 4 5 6 
#
# 1 0.042299 -0.004792 -0.005988 -0.015822 -0.008338 0.008151
# 2 -0.004792 0.006481 -0.001876 0.001590 -0.000805 -0.001269
# 3 -0.005988 -0.001876 0.024828 0.013461 -0.020621 -0.006139
# 4 -0.015822 0.001590 0.013461 0.042185 -0.023508 -0.010998
# 5 -0.008338 -0.000805 -0.020621 -0.023508 0.069415 0.006337
# 6 0.008151 -0.001269 -0.006139 -0.010998 0.006337 0.028803
#
#
# Mechanical properties :
#
#
# Convention : Reuss Voigt Hill
#
# Bulk Modulus (GPa) = 20.70502 50.39221 35.54861
# Shear Modulus (GPa) = 19.57561 35.85046 27.71304
#
# Velocity S-wave (km/s) = 2.97173 4.02160 3.53585
# Velocity P-wave (km/s) = 4.59517 6.65567 5.71898
#
# Compressibility (1/GPa) = 0.04829748
#
# Stress axis : x y z
#
# Youngs Moduli (GPa) = 23.64133 154.30066 40.27664
#
# Poissons Ratio (x) = 0.73938 0.24117
# Poissons Ratio (y) = 0.11328 0.07555
# Poissons Ratio (z) = 0.14156 0.28942
#
# Static dielectric constant tensor:
#      x y z
#    x 1.894160 0.054100 0.006500 
#    y 0.054100 1.874680 0.016840 
#    z 0.006500 0.016840 1.842360 
# 
# From -- ./inp_files/154975.got.cif
#   From: 2010.05.17/outbox.cif.g08.bks.cpg/sg2_78_cif.got.tgz:154975.got - 2010.06.03 11:33:40.
