data_PCOD9054345
_publ_section_title
;
Structure prediction by ZEFSAII (Michael W. Deem and Ramdas Pophale) SiO2 
 PCOD9054345
Probable space group: P -1
;
_chemical_formula_sum "Si O2"
_cell_formula_units_Z 16
_cell_length_a 10.978096
_cell_length_b 11.464733
_cell_length_c 8.261565
_cell_angle_alpha 54.208856
_cell_angle_beta 110.651281
_cell_angle_gamma 77.829391
_cell_volume 659.417114
_symmetry_space_group_name_H-M "P -1"
_symmetry_group_IT_number 2
_symmetry_cell_setting 'triclinic'
loop_
_space_group_symop_operation_xyz
x,y,z
-x,-y,-z
loop_
_atom_site_type_symbol
_atom_site_label
_atom_site_fract_x
_atom_site_fract_y
_atom_site_fract_z
Si Si1 0.734820 0.885413 0.401115
Si Si2 0.998908 0.514309 0.795781
Si Si3 0.339894 0.317288 0.968075
Si Si4 0.505190 0.809324 0.528726
Si Si5 0.259241 0.081001 0.960823
Si Si6 0.058151 0.761422 0.149401
Si Si7 0.114952 0.969695 0.432195
Si Si8 0.658192 0.365392 0.390752
O O1 0.628346 0.821954 0.469331
O O2 0.783364 0.960507 0.506247
O O3 0.888605 0.713834 0.544971
O O4 0.678274 0.002308 0.118549
O O5 0.171537 0.435622 0.876794
O O6 0.937381 0.403279 0.783063
O O7 0.000000 0.500000 0.000000
O O8 0.388394 0.444142 0.827975
O O9 0.452869 0.188696 0.265796
O O10 0.310323 0.216257 0.899767
O O11 0.491239 0.645251 0.643485
O O12 0.342123 0.956215 0.254888
O O13 0.077498 0.162242 0.840537
O O14 0.223987 0.702376 0.347257
O O15 0.993116 0.906481 0.863934
O O16 0.233948 0.774582 0.584873
O O17 0.000000 0.000000 0.500000
#
# Coordination Sequence:
#
# PCOD9054345 Si02
#       8
#     2   2   2   2   2   2   2   2
#     4  12  25  44  70 105 133 180 237 278 344 405
#     4  11  20  42  74  97 129 174 230 291 326 401
#     4  11  24  46  71 100 130 185 232 277 351 396
#     4  12  26  45  69  97 142 188 224 278 345 412
#     4  11  24  45  74  98 134 179 233 285 332 414
#     4  11  23  45  70 102 133 180 229 283 347 391
#     4  12  25  40  71 103 136 178 224 288 340 402
#     4  12  27  44  68 102 144 178 227 286 340 411
#
# _framework density 24.263850999999999
#
# number of rings (size 3 to 8) (size 9 to 14) (size 15 to 20)
#    0.000    0.500    3.750    5.250    3.500    2.000 
#    0.000    2.500    0.000    0.000    0.000    0.000 
#    0.000    0.000    0.000    0.000    0.000    0.000 
#
# Total GULP energy -89634.423623 kJ/mol
# GULP energy per Si atom -5602.151476 kJ/mol
# Density = 2.420863 g / cm^3
# Si number density = 24.263851 Si / 1000 Ang^3
#
#
#
# Elastic Constant Matrix: (Units=GPa)
#
#
# Indices 1 2 3 4 5 6 
#
# 1 100.8716 18.0250 16.8365 18.0248 -8.4085 13.4629
# 2 18.0250 87.7205 18.8186 9.2090 -8.3488 23.7864
# 3 16.8365 18.8186 99.2170 20.5022 -13.7099 -3.7248
# 4 18.0248 9.2090 20.5022 48.1538 -1.3307 3.5740
# 5 -8.4085 -8.3488 -13.7099 -1.3307 43.1603 -0.2649
# 6 13.4629 23.7864 -3.7248 3.5740 -0.2649 36.8152
#
#
#
# Elastic Compliance Matrix: (Units=1/GPa)
#
#
# Indices 1 2 3 4 5 6 
#
# 1 0.011415 -0.000664 -0.001010 -0.003410 0.001648 -0.003505
# 2 -0.000664 0.014970 -0.002689 -0.000705 0.001831 -0.009620
# 3 -0.001010 -0.002689 0.012262 -0.004526 0.003062 0.003809
# 4 -0.003410 -0.000705 -0.004526 0.024146 -0.001501 -0.001110
# 5 0.001648 0.001831 0.003062 -0.001501 0.024764 -0.001152
# 6 -0.003505 -0.009620 0.003809 -0.001110 -0.001152 0.035145
#
#
# Mechanical properties :
#
#
# Convention : Reuss Voigt Hill
#
# Bulk Modulus (GPa) = 33.42169 43.90771 38.66470
# Shear Modulus (GPa) = 35.36013 41.23443 38.29728
#
# Velocity S-wave (km/s) = 3.82162 4.12687 3.97718
# Velocity P-wave (km/s) = 5.76864 6.39088 6.08772
#
# Compressibility (1/GPa) = 0.02992069
#
# Stress axis : x y z
#
# Youngs Moduli (GPa) = 87.60124 66.80035 81.55390
#
# Poissons Ratio (x) = 0.04433 0.08241
# Poissons Ratio (y) = 0.05813 0.21931
# Poissons Ratio (z) = 0.08852 0.17964
#
# Static dielectric constant tensor:
#      x y z
#    x 1.908010 0.018290 0.006500 
#    y 0.018290 1.911120 -0.013110 
#    z 0.006500 -0.013110 2.040530 
# 
# From -- ./inp_files/261704.got.cif
#   From: 2010.05.17/outbox.cif.g08.bks.cpg/sg2_131_cif.got.tgz:261704.got - 2010.06.03 11:33:40.
