data_PCOD9054237
_publ_section_title
;
Structure prediction by ZEFSAII (Michael W. Deem and Ramdas Pophale) SiO2 
 PCOD9054237
Probable space group: P -1
;
_chemical_formula_sum "Si O2"
_cell_formula_units_Z 16
_cell_length_a 15.016855
_cell_length_b 15.109672
_cell_length_c 9.162325
_cell_angle_alpha 90.884278
_cell_angle_beta 108.141875
_cell_angle_gamma 26.841629
_cell_volume 705.798308
_symmetry_space_group_name_H-M "P -1"
_symmetry_group_IT_number 2
_symmetry_cell_setting 'triclinic'
loop_
_space_group_symop_operation_xyz
x,y,z
-x,-y,-z
loop_
_atom_site_type_symbol
_atom_site_label
_atom_site_fract_x
_atom_site_fract_y
_atom_site_fract_z
Si Si1 0.223645 0.374230 0.569913
Si Si2 0.362877 0.631476 0.092686
Si Si3 0.775462 0.066154 0.074470
Si Si4 0.249401 0.374864 0.239355
Si Si5 0.097186 0.814293 0.521136
Si Si6 0.627962 0.893057 0.902154
Si Si7 0.153445 0.602199 0.741914
Si Si8 0.109331 0.665459 0.031171
O O1 0.275436 0.343512 0.424857
O O2 0.140559 0.537186 0.613950
O O3 0.000000 0.500000 0.500000
O O4 0.483625 0.101465 0.759243
O O5 0.585421 0.459650 0.321191
O O6 0.243050 0.642455 0.068101
O O7 0.500000 0.500000 0.000000
O O8 0.181013 0.877053 0.979665
O O9 0.462421 0.335970 0.935780
O O10 0.946325 0.914476 0.304040
O O11 0.873841 0.899918 0.021512
O O12 0.404473 0.166046 0.216610
O O13 0.297880 0.430092 0.202916
O O14 0.938161 0.633797 0.063659
O O15 0.049626 0.785252 0.624929
O O16 0.000000 0.000000 0.500000
O O17 0.500000 0.000000 0.000000
O O18 0.021269 0.701972 0.832739
#
# Coordination Sequence:
#
# PCOD9054237 Si02
#       8
#     2   2   2   2   2   2   2   2
#     4  12  25  48  73 101 139 185 233 291 355 418
#     4  11  21  43  66  98 139 181 226 277 341 408
#     4  11  23  43  69  96 137 182 230 278 342 405
#     4  11  26  44  70 107 134 177 237 283 352 421
#     4  11  20  41  71  97 133 182 227 274 338 408
#     4  11  23  48  74  97 140 181 223 293 354 414
#     4  11  25  45  66  99 142 177 231 287 341 411
#     4  12  23  43  69  99 140 179 226 286 341 408
#
# _framework density 22.669367000000001
#
# number of rings (size 3 to 8) (size 9 to 14) (size 15 to 20)
#    0.000    0.750    5.000    3.000    1.750    0.500 
#    6.750    6.250    0.000    0.000    0.000    0.000 
#    0.000    0.000    0.000    0.000    0.000    0.000 
#
# Total GULP energy -89467.690255 kJ/mol
# GULP energy per Si atom -5591.730641 kJ/mol
# Density = 2.261777 g / cm^3
# Si number density = 22.669367 Si / 1000 Ang^3
#
#
#
# Elastic Constant Matrix: (Units=GPa)
#
#
# Indices 1 2 3 4 5 6 
#
# 1 98.8436 34.5557 46.6655 17.3290 -23.4723 17.6606
# 2 34.5557 123.9265 50.4039 39.3059 -15.9328 19.4451
# 3 46.6655 50.4039 152.7918 19.3569 -30.8671 1.2651
# 4 17.3290 39.3059 19.3569 38.0347 -0.1719 3.8979
# 5 -23.4723 -15.9328 -30.8671 -0.1719 43.3294 -6.6565
# 6 17.6606 19.4451 1.2651 3.8979 -6.6565 34.1712
#
#
#
# Elastic Compliance Matrix: (Units=1/GPa)
#
#
# Indices 1 2 3 4 5 6 
#
# 1 0.014455 0.000185 -0.002832 -0.004702 0.004945 -0.005971
# 2 0.000185 0.014576 -0.002627 -0.013154 0.002570 -0.006292
# 3 -0.002832 -0.002627 0.009337 -0.001100 0.004708 0.003656
# 4 -0.004702 -0.013154 -0.001100 0.042175 -0.007432 0.003697
# 5 0.004945 0.002570 0.004708 -0.007432 0.030424 0.002582
# 6 -0.005971 -0.006292 0.003656 0.003697 0.002582 0.035877
#
#
# Mechanical properties :
#
#
# Convention : Reuss Voigt Hill
#
# Bulk Modulus (GPa) = 35.94597 70.97913 53.46255
# Shear Modulus (GPa) = 30.00054 39.36951 34.68502
#
# Velocity S-wave (km/s) = 3.64180 4.17187 3.91582
# Velocity P-wave (km/s) = 5.79436 7.38814 6.63925
#
# Compressibility (1/GPa) = 0.02781953
#
# Stress axis : x y z
#
# Youngs Moduli (GPa) = 69.18174 68.60652 107.10446
#
# Poissons Ratio (x) = -0.01270 0.30329
# Poissons Ratio (y) = -0.01281 0.28139
# Poissons Ratio (z) = 0.19590 0.18025
#
# Static dielectric constant tensor:
#      x y z
#    x 1.895500 -0.045220 0.049850 
#    y -0.045220 1.884740 -0.012910 
#    z 0.049850 -0.012910 1.848850 
# 
# From -- ./inp_files/315285.got.cif
#   From: 2010.05.17/outbox.cif.g08.bks.cpg/sg2_158_cif.got.tgz:315285.got - 2010.06.03 11:33:40.
