data_PCOD9054726
_publ_section_title
;
Structure prediction by ZEFSAII (Michael W. Deem and Ramdas Pophale) SiO2 
 PCOD9054726
Probable space group: P -1
;
_chemical_formula_sum "Si O2"
_cell_formula_units_Z 16
_cell_length_a 13.867448
_cell_length_b 14.400515
_cell_length_c 14.053755
_cell_angle_alpha 148.237077
_cell_angle_beta 42.155573
_cell_angle_gamma 148.699386
_cell_volume 766.401516
_symmetry_space_group_name_H-M "P -1"
_symmetry_group_IT_number 2
_symmetry_cell_setting 'triclinic'
loop_
_space_group_symop_operation_xyz
x,y,z
-x,-y,-z
loop_
_atom_site_type_symbol
_atom_site_label
_atom_site_fract_x
_atom_site_fract_y
_atom_site_fract_z
Si Si1 0.007776 0.704531 0.984223
Si Si2 0.032591 0.001425 0.588589
Si Si3 0.011637 0.392538 0.490456
Si Si4 0.331556 0.764038 0.275243
Si Si5 0.452839 0.209662 0.499042
Si Si6 0.441301 0.290411 0.794511
Si Si7 0.993269 0.997466 0.114836
Si Si8 0.212247 0.534114 0.644453
O O1 0.805466 0.470939 0.891388
O O2 0.140056 0.639437 0.854888
O O3 0.000645 0.840723 0.193603
O O4 0.071067 0.884478 0.008768
O O5 0.245913 0.118824 0.553821
O O6 0.000000 0.000000 0.500000
O O7 0.904917 0.734922 0.483226
O O8 0.150391 0.574631 0.624838
O O9 0.000000 0.500000 0.500000
O O10 0.814058 0.245162 0.559131
O O11 0.082668 0.251490 0.298712
O O12 0.477012 0.797296 0.272955
O O13 0.432913 0.982876 0.325486
O O14 0.509568 0.322045 0.662568
O O15 0.578656 0.351267 0.438027
O O16 0.220534 0.142743 0.821255
O O17 0.500000 0.500000 0.000000
O O18 0.000000 0.000000 0.000000
#
# Coordination Sequence:
#
# PCOD9054726 Si02
#       8
#     2   2   2   2   2   2   2   2
#     4  11  22  48  67 102 140 180 233 282 348 416
#     4  12  26  52  78  98 135 183 232 299 354 402
#     4  11  21  38  58  91 134 185 218 272 336 403
#     4  11  21  39  63  91 140 181 218 273 342 405
#     4  12  24  46  67 101 142 180 235 288 343 420
#     4  12  23  35  57  97 135 185 230 270 332 408
#     4  12  23  35  57  92 142 179 235 267 334 409
#     4  11  25  44  72 101 139 176 232 291 350 407
#
# _framework density 20.876785999999999
#
# number of rings (size 3 to 8) (size 9 to 14) (size 15 to 20)
#    0.000    0.500    7.500    2.625    5.250    1.000 
#    2.250    0.625    0.000    0.000    0.000    0.000 
#    0.000    0.000    0.000    0.000    0.000    0.000 
#
# Total GULP energy -89152.410256 kJ/mol
# GULP energy per Si atom -5572.025641 kJ/mol
# Density = 2.082927 g / cm^3
# Si number density = 20.876786 Si / 1000 Ang^3
#
#
#
# Elastic Constant Matrix: (Units=GPa)
#
#
# Indices 1 2 3 4 5 6 
#
# 1 65.1886 25.2080 41.5556 -1.5086 18.3882 -18.8381
# 2 25.2080 121.2691 50.4705 -1.9016 -7.2256 0.3132
# 3 41.5556 50.4705 171.5487 7.5339 -6.1680 -12.6486
# 4 -1.5086 -1.9016 7.5339 24.6077 -0.9732 -2.6880
# 5 18.3882 -7.2256 -6.1680 -0.9732 21.2701 -7.5191
# 6 -18.8381 0.3132 -12.6486 -2.6880 -7.5191 22.6449
#
#
#
# Elastic Compliance Matrix: (Units=1/GPa)
#
#
# Indices 1 2 3 4 5 6 
#
# 1 0.034605 -0.006094 -0.006569 0.004358 -0.027872 0.016466
# 2 -0.006094 0.010676 -0.001720 0.000854 0.007124 -0.003711
# 3 -0.006569 -0.001720 0.008449 -0.002629 0.007998 0.001622
# 4 0.004358 0.000854 -0.002629 0.042584 0.000288 0.007296
# 5 -0.027872 0.007124 0.007998 0.000288 0.078428 0.007258
# 6 0.016466 -0.003711 0.001622 0.007296 0.007258 0.062091
#
#
# Mechanical properties :
#
#
# Convention : Reuss Voigt Hill
#
# Bulk Modulus (GPa) = 40.05732 65.83053 52.94393
# Shear Modulus (GPa) = 18.25339 29.75602 24.00470
#
# Velocity S-wave (km/s) = 2.96013 3.77943 3.39459
# Velocity P-wave (km/s) = 5.55988 7.11666 6.38589
#
# Compressibility (1/GPa) = 0.02496423
#
# Stress axis : x y z
#
# Youngs Moduli (GPa) = 28.89715 93.66741 118.35506
#
# Poissons Ratio (x) = 0.57083 0.77751
# Poissons Ratio (y) = 0.17611 0.20354
# Poissons Ratio (z) = 0.18983 0.16108
#
# Static dielectric constant tensor:
#      x y z
#    x 1.841390 0.076580 0.093620 
#    y 0.076580 1.875300 0.094950 
#    z 0.093620 0.094950 1.810910 
# 
# From -- ./inp_files/534232.got.cif
#   From: 2010.05.17/outbox.cif.g08.bks.cpg/sg2_268_cif.got.tgz:534232.got - 2010.06.03 11:33:40.
