data_PCOD9054085
_publ_section_title
;
Structure prediction by ZEFSAII (Michael W. Deem and Ramdas Pophale) SiO2 
 PCOD9054085
Probable space group: P -1
;
_chemical_formula_sum "Si O2"
_cell_formula_units_Z 15
_cell_length_a 16.770411
_cell_length_b 8.658944
_cell_length_c 9.477703
_cell_angle_alpha 57.141041
_cell_angle_beta 41.599413
_cell_angle_gamma 49.747321
_cell_volume 692.570923
_symmetry_space_group_name_H-M "P -1"
_symmetry_group_IT_number 2
_symmetry_cell_setting 'triclinic'
loop_
_space_group_symop_operation_xyz
x,y,z
-x,-y,-z
loop_
_atom_site_type_symbol
_atom_site_label
_atom_site_fract_x
_atom_site_fract_y
_atom_site_fract_z
Si Si1 0.010874 0.551765 0.623543
Si Si2 0.200555 0.750178 0.327182
Si Si3 0.849222 0.039904 0.982093
Si Si4 0.226107 0.530759 0.976996
Si Si5 0.159093 0.812407 0.680164
Si Si6 0.238064 0.126298 0.580668
Si Si7 0.500000 0.500000 0.000000
Si Si8 0.567999 0.794544 0.923634
O O1 0.068086 0.716640 0.482760
O O2 0.123964 0.350962 0.641471
O O3 0.000000 0.500000 0.500000
O O4 0.872265 0.576973 0.857494
O O5 0.187091 0.928033 0.149251
O O6 0.194441 0.785175 0.483648
O O7 0.337770 0.558678 0.196075
O O8 0.836797 0.255217 0.957268
O O9 0.001837 0.876552 0.879225
O O10 0.746190 0.984585 0.235083
O O11 0.344689 0.376732 0.992065
O O12 0.245159 0.612038 0.758859
O O13 0.185096 0.997606 0.614842
O O14 0.353748 0.149988 0.331565
O O15 0.526804 0.292837 0.979216
O O16 0.500000 0.000000 0.000000
#
# Coordination Sequence:
#
# PCOD9054085 Si02
#       8
#     2   2   2   2   2   2   1   2
#     4  12  18  38  69  92 128 180 218 274 351 415
#     4  12  25  41  64  99 142 182 229 287 345 406
#     4  11  20  40  68 101 136 176 223 284 355 420
#     4  11  21  43  71  99 138 181 223 287 364 411
#     4  11  23  39  68 108 138 169 228 297 352 413
#     4  11  20  40  68  95 129 176 228 271 346 420
#     4  12  24  50  70  92 146 188 238 280 342 404
#     4  12  26  47  74 102 137 192 241 283 340 425
#
# _framework density 21.658429999999999
#
# number of rings (size 3 to 8) (size 9 to 14) (size 15 to 20)
#    0.000    0.533    8.000    2.000    0.000    0.533 
#    4.800    2.667    0.000    0.000    0.000    0.000 
#    0.000    0.000    0.000    0.000    0.000    0.000 
#
# Total GULP energy -83519.012682 kJ/mol
# GULP energy per Si atom -5567.934179 kJ/mol
# Density = 2.160913 g / cm^3
# Si number density = 21.658430 Si / 1000 Ang^3
#
#
#
# Elastic Constant Matrix: (Units=GPa)
#
#
# Indices 1 2 3 4 5 6 
#
# 1 73.4955 18.6853 60.6625 -12.5708 13.9779 4.1503
# 2 18.6853 70.6799 34.5411 -10.1236 10.2576 -3.3034
# 3 60.6625 34.5411 122.2262 -26.2531 27.7662 -7.2568
# 4 -12.5708 -10.1236 -26.2531 28.0243 -5.0480 3.0276
# 5 13.9779 10.2576 27.7662 -5.0480 42.0409 -0.0664
# 6 4.1503 -3.3034 -7.2568 3.0276 -0.0664 18.1274
#
#
#
# Elastic Compliance Matrix: (Units=1/GPa)
#
#
# Indices 1 2 3 4 5 6 
#
# 1 0.025056 -0.000874 -0.012920 0.000091 0.000409 -0.011082
# 2 -0.000874 0.016605 -0.003465 0.001976 -0.001233 0.001505
# 3 -0.012920 -0.003465 0.019564 0.009150 -0.006668 0.008606
# 4 0.000091 0.001976 0.009150 0.045188 -0.001135 -0.003550
# 5 0.000409 -0.001233 -0.006668 -0.001135 0.028214 -0.002695
# 6 -0.011082 0.001505 0.008606 -0.003550 -0.002695 0.062005
#
#
# Mechanical properties :
#
#
# Convention : Reuss Voigt Hill
#
# Bulk Modulus (GPa) = 37.44357 54.90882 46.17619
# Shear Modulus (GPa) = 20.82874 27.80604 24.31739
#
# Velocity S-wave (km/s) = 3.10448 3.58696 3.35441
# Velocity P-wave (km/s) = 5.49328 6.52398 6.03069
#
# Compressibility (1/GPa) = 0.02670686
#
# Stress axis : x y z
#
# Youngs Moduli (GPa) = 39.91040 60.22315 51.11422
#
# Poissons Ratio (x) = 0.05265 0.66039
# Poissons Ratio (y) = 0.03489 0.17711
# Poissons Ratio (z) = 0.51564 0.20867
#
# Static dielectric constant tensor:
#      x y z
#    x 1.793410 -0.003930 0.015880 
#    y -0.003930 1.803460 -0.031550 
#    z 0.015880 -0.031550 1.808910 
# 
# From -- ./inp_files/233615.got.cif
#   From: 2010.05.17/outbox.cif.g08.bks.cpg/sg2_117_cif.got.tgz:233615.got - 2010.06.03 11:33:40.
