data_PCOD9054204
_publ_section_title
;
Structure prediction by ZEFSAII (Michael W. Deem and Ramdas Pophale) SiO2 
 PCOD9054204
Probable space group: P -1
;
_chemical_formula_sum "Si O2"
_cell_formula_units_Z 14
_cell_length_a 9.075001
_cell_length_b 11.821913
_cell_length_c 9.680250
_cell_angle_alpha 96.105383
_cell_angle_beta 49.828738
_cell_angle_gamma 120.992789
_cell_volume 638.568839
_symmetry_space_group_name_H-M "P -1"
_symmetry_group_IT_number 2
_symmetry_cell_setting 'triclinic'
loop_
_space_group_symop_operation_xyz
x,y,z
-x,-y,-z
loop_
_atom_site_type_symbol
_atom_site_label
_atom_site_fract_x
_atom_site_fract_y
_atom_site_fract_z
Si Si1 0.190116 0.518677 0.493464
Si Si2 0.639236 0.824972 0.218554
Si Si3 0.587542 0.057841 0.797831
Si Si4 0.361251 0.141150 0.461598
Si Si5 0.878276 0.743185 0.548774
Si Si6 0.094667 0.588523 0.818468
Si Si7 0.257969 0.343584 0.078041
O O1 0.387299 0.683119 0.391920
O O2 0.282141 0.424806 0.398718
O O3 0.083879 0.482593 0.703278
O O4 0.000000 0.500000 0.500000
O O5 0.596301 0.918981 0.160027
O O6 0.729606 0.893635 0.326903
O O7 0.732398 0.753045 0.056531
O O8 0.856334 0.200831 0.651096
O O9 0.628983 0.967817 0.653740
O O10 0.500000 0.000000 0.000000
O O11 0.205278 0.180174 0.480244
O O12 0.635968 0.276431 0.309703
O O13 0.848132 0.751062 0.731350
O O14 0.927408 0.628624 0.863844
O O15 0.000000 0.500000 0.000000
O O16 0.500000 0.500000 0.000000
#
# Coordination Sequence:
#
# PCOD9054204 Si02
#       7
#     2   2   2   2   2   2   2
#     4  11  20  41  68  99 132 180 220 286 339 396
#     4  11  24  43  69 101 136 175 223 287 343 394
#     4  12  27  48  72  95 137 190 234 274 335 414
#     4  11  27  45  66 104 139 181 227 283 342 406
#     4  12  24  44  73  98 141 176 237 277 339 409
#     4  11  25  39  65 100 144 173 224 284 346 391
#     4  12  23  42  70 106 136 179 226 276 344 413
#
# _framework density 21.924028
#
# number of rings (size 3 to 8) (size 9 to 14) (size 15 to 20)
#    0.000    0.571    4.286    3.429    4.000    1.143 
#    0.000    2.143    0.000    0.000    0.000    0.000 
#    0.000    0.000    0.000    0.000    0.000    0.000 
#
# Total GULP energy -78053.623917 kJ/mol
# GULP energy per Si atom -5575.258851 kJ/mol
# Density = 2.187413 g / cm^3
# Si number density = 21.924028 Si / 1000 Ang^3
#
#
#
# Elastic Constant Matrix: (Units=GPa)
#
#
# Indices 1 2 3 4 5 6 
#
# 1 90.5590 13.1215 44.0471 7.6432 22.4697 -7.5158
# 2 13.1215 83.0595 22.0863 30.9468 16.7489 -4.9216
# 3 44.0471 22.0863 148.5225 21.3500 47.2590 1.6789
# 4 7.6432 30.9468 21.3500 46.4308 3.5105 -6.3150
# 5 22.4697 16.7489 47.2590 3.5105 46.0718 0.6752
# 6 -7.5158 -4.9216 1.6789 -6.3150 0.6752 27.1793
#
#
#
# Elastic Compliance Matrix: (Units=1/GPa)
#
#
# Indices 1 2 3 4 5 6 
#
# 1 0.013751 -0.000527 -0.002947 0.000262 -0.003572 0.004039
# 2 -0.000527 0.017436 0.001307 -0.011586 -0.006545 0.000401
# 3 -0.002947 0.001307 0.011492 -0.005188 -0.010398 -0.002235
# 4 0.000262 -0.011586 -0.005188 0.031831 0.006900 0.005519
# 5 -0.003572 -0.006545 -0.010398 0.006900 0.035979 -0.000821
# 6 0.004039 0.000401 -0.002235 0.005519 -0.000821 0.039423
#
#
# Mechanical properties :
#
#
# Convention : Reuss Voigt Hill
#
# Bulk Modulus (GPa) = 26.07798 53.40565 39.74182
# Shear Modulus (GPa) = 29.93504 40.12878 35.03191
#
# Velocity S-wave (km/s) = 3.69914 4.28291 4.00168
# Velocity P-wave (km/s) = 5.49230 6.99071 6.28631
#
# Compressibility (1/GPa) = 0.03834653
#
# Stress axis : x y z
#
# Youngs Moduli (GPa) = 72.71979 57.35369 87.01457
#
# Poissons Ratio (x) = 0.03022 0.25640
# Poissons Ratio (y) = 0.03831 -0.11374
# Poissons Ratio (z) = 0.21428 -0.07497
#
# Static dielectric constant tensor:
#      x y z
#    x 1.753120 0.052510 0.003800 
#    y 0.052510 1.855090 0.031300 
#    z 0.003800 0.031300 1.868130 
# 
# From -- ./inp_files/188261.got.cif
#   From: 2010.05.17/outbox.cif.g08.bks.cpg/sg2_95_cif.got.tgz:188261.got - 2010.06.03 11:33:40.
