data_PCOD9054351
_publ_section_title
;
Structure prediction by ZEFSAII (Michael W. Deem and Ramdas Pophale) SiO2 
 PCOD9054351
Probable space group: P -1
;
_chemical_formula_sum "Si O2"
_cell_formula_units_Z 16
_cell_length_a 9.799454
_cell_length_b 12.814662
_cell_length_c 6.950529
_cell_angle_alpha 130.741743
_cell_angle_beta 95.037148
_cell_angle_gamma 76.647968
_cell_volume 641.080233
_symmetry_space_group_name_H-M "P -1"
_symmetry_group_IT_number 2
_symmetry_cell_setting 'triclinic'
loop_
_space_group_symop_operation_xyz
x,y,z
-x,-y,-z
loop_
_atom_site_type_symbol
_atom_site_label
_atom_site_fract_x
_atom_site_fract_y
_atom_site_fract_z
Si Si1 0.782299 0.259931 0.100370
Si Si2 0.451334 0.705472 0.347220
Si Si3 0.759403 0.571235 0.330294
Si Si4 0.603441 0.975856 0.298807
Si Si5 0.237188 0.512782 0.184423
Si Si6 0.523815 0.704555 0.893432
Si Si7 0.136538 0.027041 0.447540
Si Si8 0.022521 0.266343 0.412387
O O1 0.801315 0.405884 0.186379
O O2 0.921045 0.209530 0.185250
O O3 0.625918 0.301402 0.223744
O O4 0.780900 0.126126 0.804468
O O5 0.591476 0.630632 0.390161
O O6 0.330034 0.621464 0.255487
O O7 0.491579 0.697602 0.114238
O O8 0.407555 0.868869 0.599014
O O9 0.852350 0.663953 0.559865
O O10 0.788369 0.578513 0.112309
O O11 0.557751 0.854231 0.027805
O O12 0.760901 0.920815 0.328926
O O13 0.500000 0.000000 0.500000
O O14 0.090330 0.604494 0.349495
O O15 0.333991 0.417746 0.243695
O O16 0.091714 0.140718 0.412147
O O17 0.000000 0.000000 0.500000
#
# Coordination Sequence:
#
# PCOD9054351 Si02
#       8
#     2   2   2   2   2   2   2   2
#     4  12  23  42  61  89 132 164 197 245 320 368
#     4  10  17  35  64  89 114 151 215 254 297 344
#     4  11  21  40  63  92 120 166 207 253 298 361
#     4  10  18  34  63  94 112 149 208 261 291 344
#     4  11  20  39  63  90 119 154 216 254 294 351
#     4  10  19  35  64  92 115 158 207 257 295 355
#     4  12  24  43  67  91 123 160 207 256 303 361
#     4  12  27  38  60  94 129 165 196 250 314 373
#
# _framework density 24.957875000000001
#
# number of rings (size 3 to 8) (size 9 to 14) (size 15 to 20)
#    0.000    1.000    5.000    5.625    0.000    1.500 
#    0.000    0.000    0.000    1.500    0.000    0.000 
#    0.000    0.000    0.000    0.000    0.000    0.000 
#
# Total GULP energy -89614.061934 kJ/mol
# GULP energy per Si atom -5600.878871 kJ/mol
# Density = 2.490107 g / cm^3
# Si number density = 24.957875 Si / 1000 Ang^3
#
#
#
# Elastic Constant Matrix: (Units=GPa)
#
#
# Indices 1 2 3 4 5 6 
#
# 1 136.8866 28.6029 12.9888 4.2501 24.0726 -11.5794
# 2 28.6029 134.5421 21.9189 27.5567 12.9769 -15.1553
# 3 12.9888 21.9189 72.9376 11.5024 24.4810 -0.3533
# 4 4.2501 27.5567 11.5024 43.5057 -5.2921 6.7417
# 5 24.0726 12.9769 24.4810 -5.2921 49.0660 5.0112
# 6 -11.5794 -15.1553 -0.3533 6.7417 5.0112 36.1731
#
#
#
# Elastic Compliance Matrix: (Units=1/GPa)
#
#
# Indices 1 2 3 4 5 6 
#
# 1 0.008596 -0.000731 0.000594 -0.001656 -0.004850 0.003432
# 2 -0.000731 0.010249 -0.000538 -0.007630 -0.003516 0.005964
# 3 0.000594 -0.000538 0.018160 -0.006172 -0.010151 0.002699
# 4 -0.001656 -0.007630 -0.006172 0.032658 0.010590 -0.011341
# 5 -0.004850 -0.003516 -0.010151 0.010590 0.030854 -0.009373
# 6 0.003432 0.005964 0.002699 -0.011341 -0.009373 0.034681
#
#
# Mechanical properties :
#
#
# Convention : Reuss Voigt Hill
#
# Bulk Modulus (GPa) = 28.04503 52.37640 40.21071
# Shear Modulus (GPa) = 33.68546 44.47266 39.07906
#
# Velocity S-wave (km/s) = 3.67780 4.22585 3.96131
# Velocity P-wave (km/s) = 5.41261 6.69641 6.08844
#
# Compressibility (1/GPa) = 0.03565694
#
# Stress axis : x y z
#
# Youngs Moduli (GPa) = 116.33037 97.56686 55.06706
#
# Poissons Ratio (x) = 0.07131 -0.03273
# Poissons Ratio (y) = 0.08502 0.02960
# Poissons Ratio (z) = -0.06914 0.05245
#
# Static dielectric constant tensor:
#      x y z
#    x 1.920560 -0.000780 -0.058290 
#    y -0.000780 1.987620 -0.089620 
#    z -0.058290 -0.089620 2.055840 
# 
# From -- ./inp_files/209514.got.cif
#   From: 2010.05.17/outbox.cif.g08.bks.cpg/sg2_105_cif.got.tgz:209514.got - 2010.06.03 11:33:40.
