data_PCOD9054113
_publ_section_title
;
Structure prediction by ZEFSAII (Michael W. Deem and Ramdas Pophale) SiO2 
 PCOD9054113
Probable space group: P -1
;
_chemical_formula_sum "Si O2"
_cell_formula_units_Z 12
_cell_length_a 8.040468
_cell_length_b 11.930342
_cell_length_c 7.049573
_cell_angle_alpha 125.251712
_cell_angle_beta 124.075477
_cell_angle_gamma 70.735398
_cell_volume 457.390075
_symmetry_space_group_name_H-M "P -1"
_symmetry_group_IT_number 2
_symmetry_cell_setting 'triclinic'
loop_
_space_group_symop_operation_xyz
x,y,z
-x,-y,-z
loop_
_atom_site_type_symbol
_atom_site_label
_atom_site_fract_x
_atom_site_fract_y
_atom_site_fract_z
Si Si1 0.786403 0.336964 0.232644
Si Si2 0.763318 0.011844 0.322787
Si Si3 0.536772 0.781497 0.485023
Si Si4 0.771454 0.038396 0.909529
Si Si5 0.626131 0.705421 0.888771
Si Si6 0.191739 0.403685 0.759204
O O1 0.593009 0.355356 0.261787
O O2 0.816249 0.447630 0.195853
O O3 0.990529 0.331175 0.481994
O O4 0.745653 0.190644 0.968408
O O5 0.724693 0.038793 0.102764
O O6 0.665004 0.143702 0.492314
O O7 0.669188 0.860353 0.146911
O O8 0.000000 0.000000 0.500000
O O9 0.640329 0.721244 0.687211
O O10 0.604882 0.666777 0.265852
O O11 0.653128 0.916577 0.621831
O O12 0.000000 0.000000 0.000000
O O13 0.782494 0.610121 0.012061
#
# Coordination Sequence:
#
# PCOD9054113 Si02
#       6
#     2   2   2   2   2   2
#     4  11  22  45  67  97 139 173 222 277 324 400
#     4  11  23  40  66 100 131 171 223 276 331 390
#     4  11  23  43  68  99 132 174 220 279 332 388
#     4  11  20  40  69  90 131 171 211 279 332 378
#     4  11  23  44  67  94 139 171 221 278 326 393
#     4  11  26  42  70  98 133 181 220 268 337 396
#
# _framework density 26.235810000000001
#
# number of rings (size 3 to 8) (size 9 to 14) (size 15 to 20)
#    0.000    1.000    5.000    2.500    0.000    2.667 
#    0.000    3.333    0.000    0.000    0.000    0.000 
#    0.000    0.000    0.000    0.000    0.000    0.000 
#
# Total GULP energy -67190.772243 kJ/mol
# GULP energy per Si atom -5599.231020 kJ/mol
# Density = 2.617610 g / cm^3
# Si number density = 26.235810 Si / 1000 Ang^3
#
#
#
# Elastic Constant Matrix: (Units=GPa)
#
#
# Indices 1 2 3 4 5 6 
#
# 1 78.5084 21.1613 26.5483 -9.9809 17.3551 -0.3564
# 2 21.1613 128.1228 0.8659 -6.8349 10.7430 8.6898
# 3 26.5483 0.8659 54.0600 -10.5391 5.5571 11.6432
# 4 -9.9809 -6.8349 -10.5391 43.3598 -0.5217 7.7136
# 5 17.3551 10.7430 5.5571 -0.5217 43.1165 -12.2916
# 6 -0.3564 8.6898 11.6432 7.7136 -12.2916 48.6790
#
#
#
# Elastic Compliance Matrix: (Units=1/GPa)
#
#
# Indices 1 2 3 4 5 6 
#
# 1 0.017358 -0.002368 -0.007867 0.001488 -0.005107 0.000906
# 2 -0.002368 0.008680 0.002277 0.001882 -0.002336 -0.002999
# 3 -0.007867 0.002277 0.025646 0.006230 -0.003010 -0.008345
# 4 0.001488 0.001882 0.006230 0.026399 -0.003514 -0.006886
# 5 -0.005107 -0.002336 -0.003010 -0.003514 0.028715 0.008907
# 6 0.000906 -0.002999 -0.008345 -0.006886 0.008907 0.026421
#
#
# Mechanical properties :
#
#
# Convention : Reuss Voigt Hill
#
# Bulk Modulus (GPa) = 27.95686 39.76024 33.85855
# Shear Modulus (GPa) = 31.04477 41.17209 36.10843
#
# Velocity S-wave (km/s) = 3.44364 3.96575 3.71388
# Velocity P-wave (km/s) = 5.14691 6.01310 5.59679
#
# Compressibility (1/GPa) = 0.03576939
#
# Stress axis : x y z
#
# Youngs Moduli (GPa) = 57.61037 115.20282 38.99230
#
# Poissons Ratio (x) = 0.27276 0.30674
# Poissons Ratio (y) = 0.13640 -0.08877
# Poissons Ratio (z) = 0.45320 -0.26228
#
# Static dielectric constant tensor:
#      x y z
#    x 2.126260 0.050580 -0.178290 
#    y 0.050580 2.139370 -0.191950 
#    z -0.178290 -0.191950 2.525530 
# 
# From -- ./inp_files/181109.got.cif
#   From: 2010.05.17/outbox.cif.g08.bks.cpg/sg2_91_cif.got.tgz:181109.got - 2010.06.03 11:33:40.
