data_PCOD9054731
_publ_section_title
;
Structure prediction by ZEFSAII (Michael W. Deem and Ramdas Pophale) SiO2 
 PCOD9054731
Probable space group: P -1
;
_chemical_formula_sum "Si O2"
_cell_formula_units_Z 16
_cell_length_a 12.370225
_cell_length_b 20.093375
_cell_length_c 10.565402
_cell_angle_alpha 127.511535
_cell_angle_beta 144.065774
_cell_angle_gamma 28.529769
_cell_volume 685.151720
_symmetry_space_group_name_H-M "P -1"
_symmetry_group_IT_number 2
_symmetry_cell_setting 'triclinic'
loop_
_space_group_symop_operation_xyz
x,y,z
-x,-y,-z
loop_
_atom_site_type_symbol
_atom_site_label
_atom_site_fract_x
_atom_site_fract_y
_atom_site_fract_z
Si Si1 0.403252 0.029124 0.649138
Si Si2 0.551476 0.686932 0.183938
Si Si3 0.783507 0.805622 0.960421
Si Si4 0.751115 0.656391 0.595940
Si Si5 0.110227 0.553260 0.139082
Si Si6 0.292282 0.652790 0.728211
Si Si7 0.321881 0.938026 0.224313
Si Si8 0.513631 0.587593 0.415983
O O1 0.650699 0.004109 0.793832
O O2 0.037835 0.205486 0.498097
O O3 0.498198 0.970714 0.817498
O O4 0.394405 0.958466 0.449943
O O5 0.503219 0.732588 0.334940
O O6 0.582197 0.765557 0.236922
O O7 0.889477 0.509767 0.293136
O O8 0.290730 0.721611 0.918542
O O9 0.788637 0.735368 0.770753
O O10 0.819708 0.727553 0.024285
O O11 0.121689 0.729146 0.203969
O O12 0.624813 0.639810 0.561354
O O13 0.380157 0.450850 0.163297
O O14 0.313591 0.505475 0.398498
O O15 0.000000 0.500000 0.000000
O O16 0.345955 0.536812 0.690152
O O17 0.000000 0.000000 0.000000
#
# Coordination Sequence:
#
# PCOD9054731 Si02
#       8
#     2   2   2   2   2   2   2   2
#     4  11  25  39  62  94 132 175 213 255 320 382
#     4  11  21  38  60  96 131 165 212 259 315 382
#     4  11  22  40  62  96 123 164 215 263 315 380
#     4  11  22  37  64  95 129 163 213 273 311 377
#     4  11  22  45  72  92 122 169 219 271 330 373
#     4  11  22  41  65  96 130 171 216 260 320 392
#     4  11  23  40  61  84 137 184 208 247 312 394
#     4  11  23  42  68  89 122 167 217 268 325 372
#
# _framework density 23.352491000000001
#
# number of rings (size 3 to 8) (size 9 to 14) (size 15 to 20)
#    0.000    1.000    6.250    2.250    1.750    0.500 
#    0.000    3.125    0.000    0.000    0.000    0.000 
#    0.000    0.000    0.000    0.000    0.000    0.000 
#
# Total GULP energy -89190.207013 kJ/mol
# GULP energy per Si atom -5574.387938 kJ/mol
# Density = 2.329934 g / cm^3
# Si number density = 23.352491 Si / 1000 Ang^3
#
#
#
# Elastic Constant Matrix: (Units=GPa)
#
#
# Indices 1 2 3 4 5 6 
#
# 1 50.5223 -13.1236 23.2107 -8.8571 6.8477 17.5516
# 2 -13.1236 45.9536 4.5567 -15.1354 5.2219 9.4952
# 3 23.2107 4.5567 136.5778 -17.3667 -11.2948 13.0187
# 4 -8.8571 -15.1354 -17.3667 42.5157 2.0340 -9.1220
# 5 6.8477 5.2219 -11.2948 2.0340 29.5920 -1.0808
# 6 17.5516 9.4952 13.0187 -9.1220 -1.0808 21.2611
#
#
#
# Elastic Compliance Matrix: (Units=1/GPa)
#
#
# Indices 1 2 3 4 5 6 
#
# 1 0.054553 0.033232 -0.005932 0.010539 -0.023409 -0.052912
# 2 0.033232 0.047121 -0.003058 0.014512 -0.019681 -0.041379
# 3 -0.005932 -0.003058 0.008886 0.001418 0.005268 0.001697
# 4 0.010539 0.014512 0.001418 0.031132 -0.006709 -0.003034
# 5 -0.023409 -0.019681 0.005268 -0.006709 0.046044 0.024350
# 6 -0.052912 -0.041379 0.001697 -0.003034 0.024350 0.108091
#
#
# Mechanical properties :
#
#
# Convention : Reuss Voigt Hill
#
# Bulk Modulus (GPa) = 6.28755 29.14905 17.71830
# Shear Modulus (GPa) = 16.64687 33.23443 24.94065
#
# Velocity S-wave (km/s) = 2.67283 3.77658 3.27158
# Velocity P-wave (km/s) = 3.49623 5.61480 4.67705
#
# Compressibility (1/GPa) = 0.15904456
#
# Stress axis : x y z
#
# Youngs Moduli (GPa) = 18.33086 21.22197 112.53537
#
# Poissons Ratio (x) = -0.70524 0.66754
# Poissons Ratio (y) = -0.60917 0.34409
# Poissons Ratio (z) = 0.10874 0.06489
#
# Static dielectric constant tensor:
#      x y z
#    x 1.925030 -0.003730 -0.063730 
#    y -0.003730 2.018280 -0.027350 
#    z -0.063730 -0.027350 1.936960 
# 
# From -- ./inp_files/457700.got.cif
#   From: 2010.05.17/outbox.cif.g08.bks.cpg/sg2_229_cif.got.tgz:457700.got - 2010.06.03 11:33:40.
