data_PCOD9054411
_publ_section_title
;
Structure prediction by ZEFSAII (Michael W. Deem and Ramdas Pophale) SiO2 
 PCOD9054411
Probable space group: P -1
;
_chemical_formula_sum "Si O2"
_cell_formula_units_Z 16
_cell_length_a 9.099438
_cell_length_b 17.307215
_cell_length_c 11.931049
_cell_angle_alpha 54.470081
_cell_angle_beta 127.231140
_cell_angle_gamma 149.353636
_cell_volume 754.038993
_symmetry_space_group_name_H-M "P -1"
_symmetry_group_IT_number 2
_symmetry_cell_setting 'triclinic'
loop_
_space_group_symop_operation_xyz
x,y,z
-x,-y,-z
loop_
_atom_site_type_symbol
_atom_site_label
_atom_site_fract_x
_atom_site_fract_y
_atom_site_fract_z
Si Si1 0.245112 0.501158 0.810482
Si Si2 0.434333 0.383951 0.646922
Si Si3 0.238149 0.971716 0.392544
Si Si4 0.617458 0.296690 0.645349
Si Si5 0.720763 0.815185 0.644319
Si Si6 0.181059 0.111573 0.091329
Si Si7 0.563425 0.442690 0.916177
Si Si8 0.275546 0.985428 0.856714
O O1 0.493429 0.681080 0.745504
O O2 0.369364 0.452703 0.861746
O O3 0.959510 0.414416 0.681293
O O4 0.183054 0.461192 0.949288
O O5 0.500000 0.500000 0.500000
O O6 0.600534 0.365460 0.678306
O O7 0.569235 0.454058 0.774775
O O8 0.081705 0.209018 0.626921
O O9 0.212643 0.045258 0.415745
O O10 0.322347 0.075287 0.242118
O O11 0.500000 0.000000 0.500000
O O12 0.436483 0.255524 0.487856
O O13 0.476749 0.144738 0.756767
O O14 0.010918 0.863830 0.745464
O O15 0.933574 0.055706 0.107895
O O16 0.395744 0.277250 0.002375
O O17 0.000000 0.000000 0.000000
O O18 0.500000 0.000000 0.000000
#
# Coordination Sequence:
#
# PCOD9054411 Si02
#       8
#     2   2   2   2   2   2   2   2
#     4  11  25  42  75 100 135 190 234 283 347 416
#     4  12  27  46  67 101 146 178 226 293 352 412
#     4  11  25  42  69 101 135 185 231 278 350 410
#     4  12  25  44  68 104 143 182 225 292 355 401
#     4  11  24  47  69 103 143 183 239 284 338 434
#     4  11  20  44  70  97 134 179 231 290 330 417
#     4  11  23  45  71 102 138 179 241 283 341 425
#     4  11  23  41  68 102 135 173 230 289 347 398
#
# _framework density 21.219062000000001
#
# number of rings (size 3 to 8) (size 9 to 14) (size 15 to 20)
#    0.000    0.750    6.250    2.250    5.250    1.500 
#    0.000    0.000    0.000    0.000    0.000    0.000 
#    0.000    0.000    0.000    0.000    0.000    0.000 
#
# Total GULP energy -89172.597727 kJ/mol
# GULP energy per Si atom -5573.287358 kJ/mol
# Density = 2.117077 g / cm^3
# Si number density = 21.219062 Si / 1000 Ang^3
#
#
#
# Elastic Constant Matrix: (Units=GPa)
#
#
# Indices 1 2 3 4 5 6 
#
# 1 82.3441 88.0291 58.9060 19.1361 16.6855 -6.1013
# 2 88.0291 277.1192 50.8743 -8.3197 42.8566 4.3155
# 3 58.9060 50.8743 192.2454 11.6654 7.3287 -4.2758
# 4 19.1361 -8.3197 11.6654 45.7800 0.0888 -5.3416
# 5 16.6855 42.8566 7.3287 0.0888 55.5267 16.7756
# 6 -6.1013 4.3155 -4.2758 -5.3416 16.7756 27.4577
#
#
#
# Elastic Compliance Matrix: (Units=1/GPa)
#
#
# Indices 1 2 3 4 5 6 
#
# 1 0.028424 -0.007842 -0.005667 -0.011058 -0.003786 0.006828
# 2 -0.007842 0.006561 0.000504 0.004325 -0.002724 -0.000190
# 3 -0.005667 0.000504 0.006730 0.000685 0.000579 -0.000511
# 4 -0.011058 0.004325 0.000685 0.027422 -0.001037 0.002938
# 5 -0.003786 -0.002724 0.000579 -0.001037 0.026162 -0.016509
# 6 0.006828 -0.000190 -0.000511 0.002938 -0.016509 0.048545
#
#
# Mechanical properties :
#
#
# Convention : Reuss Voigt Hill
#
# Bulk Modulus (GPa) = 63.67405 105.25861 84.46633
# Shear Modulus (GPa) = 28.55691 49.34617 38.95154
#
# Velocity S-wave (km/s) = 3.67251 4.82764 4.28914
# Velocity P-wave (km/s) = 6.93226 8.98822 8.02634
#
# Compressibility (1/GPa) = 0.01570498
#
# Stress axis : x y z
#
# Youngs Moduli (GPa) = 35.18144 152.41502 148.59150
#
# Poissons Ratio (x) = 1.19517 0.84208
# Poissons Ratio (y) = 0.27588 -0.07484
# Poissons Ratio (z) = 0.19938 -0.07676
#
# Static dielectric constant tensor:
#      x y z
#    x 1.767230 -0.016000 -0.048270 
#    y -0.016000 1.791060 0.066210 
#    z -0.048270 0.066210 1.770670 
# 
# From -- ./inp_files/403049.got.cif
#   From: 2010.05.17/outbox.cif.g08.bks.cpg/sg2_202_cif.got.tgz:403049.got - 2010.06.03 11:33:40.
