data_PCOD9054282
_publ_section_title
;
Structure prediction by ZEFSAII (Michael W. Deem and Ramdas Pophale) SiO2 
 PCOD9054282
Probable space group: P -1
;
_chemical_formula_sum "Si O2"
_cell_formula_units_Z 16
_cell_length_a 20.594032
_cell_length_b 14.246762
_cell_length_c 8.824039
_cell_angle_alpha 53.429787
_cell_angle_beta 124.282540
_cell_angle_gamma 160.817481
_cell_volume 683.199572
_symmetry_space_group_name_H-M "P -1"
_symmetry_group_IT_number 2
_symmetry_cell_setting 'triclinic'
loop_
_space_group_symop_operation_xyz
x,y,z
-x,-y,-z
loop_
_atom_site_type_symbol
_atom_site_label
_atom_site_fract_x
_atom_site_fract_y
_atom_site_fract_z
Si Si1 0.283975 0.635105 0.860888
Si Si2 0.881967 0.218694 0.795816
Si Si3 0.130482 0.074479 0.422922
Si Si4 0.656587 0.711770 0.807451
Si Si5 0.605594 0.995634 0.496278
Si Si6 0.746059 0.593972 0.205482
Si Si7 0.471747 0.721900 0.262888
Si Si8 0.737141 0.926177 0.192835
O O1 0.203188 0.418912 0.859603
O O2 0.103269 0.472574 0.826695
O O3 0.415335 0.896399 0.673856
O O4 0.399171 0.733946 0.056976
O O5 0.742342 0.939217 0.786895
O O6 0.814763 0.250593 0.606980
O O7 0.822393 0.122559 0.984347
O O8 0.237751 0.158891 0.339672
O O9 0.278550 0.379662 0.370532
O O10 0.105991 0.941277 0.644315
O O11 0.926460 0.845475 0.315495
O O12 0.423310 0.384569 0.786183
O O13 0.701112 0.658185 0.016397
O O14 0.439202 0.716256 0.655603
O O15 0.577164 0.897895 0.388063
O O16 0.616065 0.841750 0.231698
#
# Coordination Sequence:
#
# PCOD9054282 Si02
#       8
#     2   2   2   2   2   2   2   2
#     4  12  25  47  68  92 134 177 225 267 313 388
#     4  12  24  42  69 100 130 167 227 269 326 388
#     4  11  22  39  68 101 132 166 206 276 335 380
#     4  11  20  42  67  99 132 171 208 278 335 386
#     4  12  27  45  67  95 132 183 219 264 320 391
#     4  12  24  43  69  98 131 173 221 268 328 387
#     4  11  24  45  66  97 135 171 217 268 333 388
#     4  11  23  40  66 100 136 167 207 269 341 391
#
# _framework density 23.419217
#
# number of rings (size 3 to 8) (size 9 to 14) (size 15 to 20)
#    0.000    0.500    5.000    5.625    3.500    0.500 
#    0.000    0.625    0.000    0.000    0.000    0.000 
#    0.000    0.000    0.000    0.000    0.000    0.000 
#
# Total GULP energy -89654.212158 kJ/mol
# GULP energy per Si atom -5603.388260 kJ/mol
# Density = 2.336591 g / cm^3
# Si number density = 23.419217 Si / 1000 Ang^3
#
#
#
# Elastic Constant Matrix: (Units=GPa)
#
#
# Indices 1 2 3 4 5 6 
#
# 1 49.1336 5.5314 16.2995 0.7386 -5.0869 -5.1159
# 2 5.5314 40.7987 22.2272 12.2063 -1.2550 12.5864
# 3 16.2995 22.2272 196.9082 26.6826 17.1848 8.4318
# 4 0.7386 12.2063 26.6826 32.3685 1.1739 0.1875
# 5 -5.0869 -1.2550 17.1848 1.1739 31.0939 -0.3346
# 6 -5.1159 12.5864 8.4318 0.1875 -0.3346 26.2117
#
#
#
# Elastic Compliance Matrix: (Units=1/GPa)
#
#
# Indices 1 2 3 4 5 6 
#
# 1 0.023017 -0.004921 -0.002545 0.003205 0.004936 0.007714
# 2 -0.004921 0.034783 -0.001314 -0.011880 0.001589 -0.017134
# 3 -0.002545 -0.001314 0.006492 -0.004645 -0.003903 -0.001971
# 4 0.003205 -0.011880 -0.004645 0.039042 0.001219 0.007560
# 5 0.004936 0.001589 -0.003903 0.001219 0.035164 0.001896
# 6 0.007714 -0.017134 -0.001971 0.007560 0.001896 0.048488
#
#
# Mechanical properties :
#
#
# Convention : Reuss Voigt Hill
#
# Bulk Modulus (GPa) = 21.39891 41.66187 31.53039
# Shear Modulus (GPa) = 22.71456 34.12032 28.41744
#
# Velocity S-wave (km/s) = 3.11772 3.82113 3.48720
# Velocity P-wave (km/s) = 4.70291 6.10706 5.45040
#
# Compressibility (1/GPa) = 0.04673135
#
# Stress axis : x y z
#
# Youngs Moduli (GPa) = 43.44618 28.74992 154.03567
#
# Poissons Ratio (x) = 0.14147 0.39205
# Poissons Ratio (y) = 0.21379 0.20243
# Poissons Ratio (z) = 0.11058 0.03778
#
# Static dielectric constant tensor:
#      x y z
#    x 1.897410 0.016370 -0.007310 
#    y 0.016370 1.873680 -0.015640 
#    z -0.007310 -0.015640 1.855200 
# 
# From -- ./inp_files/185354.got.cif
#   From: 2010.05.17/outbox.cif.g08.bks.cpg/sg2_93_cif.got.tgz:185354.got - 2010.06.03 11:33:40.
