data_PCOD9054966
_publ_section_title
;
Structure prediction by ZEFSAII (Michael W. Deem and Ramdas Pophale) SiO2 
 PCOD9054966
Probable space group: P -1
;
_chemical_formula_sum "Si O2"
_cell_formula_units_Z 16
_cell_length_a 11.204572
_cell_length_b 13.586317
_cell_length_c 9.386885
_cell_angle_alpha 76.301202
_cell_angle_beta 66.856356
_cell_angle_gamma 31.511463
_cell_volume 672.257440
_symmetry_space_group_name_H-M "P -1"
_symmetry_group_IT_number 2
_symmetry_cell_setting 'triclinic'
loop_
_space_group_symop_operation_xyz
x,y,z
-x,-y,-z
loop_
_atom_site_type_symbol
_atom_site_label
_atom_site_fract_x
_atom_site_fract_y
_atom_site_fract_z
Si Si1 0.261511 0.881828 0.258133
Si Si2 0.014135 0.771457 0.571541
Si Si3 0.497731 0.322070 0.498168
Si Si4 0.225116 0.306402 0.552584
Si Si5 0.780857 0.585947 0.995560
Si Si6 0.078014 0.044284 0.738910
Si Si7 0.632292 0.842767 0.755240
Si Si8 0.105663 0.211219 0.864546
O O1 0.331327 0.779107 0.408628
O O2 0.152546 0.877979 0.194674
O O3 0.055838 0.100909 0.319059
O O4 0.518057 0.760209 0.133726
O O5 0.942312 0.869340 0.420621
O O6 0.830774 0.799729 0.678915
O O7 0.290720 0.545375 0.511588
O O8 0.348676 0.314109 0.581829
O O9 0.675204 0.185736 0.325943
O O10 0.412712 0.148835 0.393995
O O11 0.138081 0.271179 0.700644
O O12 0.000000 0.500000 0.500000
O O13 0.736474 0.674792 0.839440
O O14 0.879247 0.406375 0.991944
O O15 0.000000 0.500000 0.000000
O O16 0.074640 0.119054 0.850790
O O17 0.368496 0.044136 0.877415
#
# Coordination Sequence:
#
# PCOD9054966 Si02
#       8
#     2   2   2   2   2   2   2   2
#     4  11  27  44  59  92 134 176 217 256 307 391
#     4  11  21  39  68  96 127 163 207 272 327 366
#     4  11  21  39  68  96 130 162 211 273 326 378
#     4  12  19  37  66 107 130 154 211 276 335 377
#     4  12  27  47  65  94 133 171 218 263 318 396
#     4  11  24  41  63  97 129 166 218 263 318 381
#     4  12  23  38  69 100 127 163 213 271 330 377
#     4  12  23  40  69  97 131 172 208 272 327 373
#
# _framework density 23.800405000000001
#
# number of rings (size 3 to 8) (size 9 to 14) (size 15 to 20)
#    0.000    0.500    5.000    5.625    0.000    5.500 
#    0.000    0.625    0.000    0.000    0.000    0.000 
#    0.000    0.000    0.000    0.000    0.000    0.000 
#
# Total GULP energy -89576.207099 kJ/mol
# GULP energy per Si atom -5598.512944 kJ/mol
# Density = 2.374623 g / cm^3
# Si number density = 23.800405 Si / 1000 Ang^3
#
#
#
# Elastic Constant Matrix: (Units=GPa)
#
#
# Indices 1 2 3 4 5 6 
#
# 1 122.2582 33.3585 14.5846 17.6089 0.3374 -8.6929
# 2 33.3585 170.1401 21.2276 23.6670 5.0790 11.4045
# 3 14.5846 21.2276 46.1617 13.4229 -1.4209 5.4705
# 4 17.6089 23.6670 13.4229 22.6871 -2.4974 5.6892
# 5 0.3374 5.0790 -1.4209 -2.4974 20.3073 6.6042
# 6 -8.6929 11.4045 5.4705 5.6892 6.6042 26.8143
#
#
#
# Elastic Compliance Matrix: (Units=1/GPa)
#
#
# Indices 1 2 3 4 5 6 
#
# 1 0.010258 -0.001075 -0.001269 -0.008065 -0.003101 0.006517
# 2 -0.001075 0.007209 -0.001165 -0.005879 -0.002133 -0.001404
# 3 -0.001269 -0.001165 0.026690 -0.012639 0.001627 -0.003080
# 4 -0.008065 -0.005879 -0.012639 0.069506 0.014417 -0.015833
# 5 -0.003101 -0.002133 0.001627 0.014417 0.057452 -0.017639
# 6 0.006517 -0.001404 -0.003080 -0.015833 -0.017639 0.048336
#
#
# Mechanical properties :
#
#
# Convention : Reuss Voigt Hill
#
# Bulk Modulus (GPa) = 26.92651 52.98904 39.95777
# Shear Modulus (GPa) = 20.93374 31.92103 26.42738
#
# Velocity S-wave (km/s) = 2.96894 3.66621 3.33584
# Velocity P-wave (km/s) = 4.80530 6.34300 5.62693
#
# Compressibility (1/GPa) = 0.03713812
#
# Stress axis : x y z
#
# Youngs Moduli (GPa) = 97.48834 138.70877 37.46711
#
# Poissons Ratio (x) = 0.14914 0.04755
# Poissons Ratio (y) = 0.10482 0.04365
# Poissons Ratio (z) = 0.12372 0.16161
#
# Static dielectric constant tensor:
#      x y z
#    x 1.917690 0.029050 0.030830 
#    y 0.029050 1.949240 0.074930 
#    z 0.030830 0.074930 1.979380 
# 
# From -- ./inp_files/272863.got.cif
#   From: 2010.05.17/outbox.cif.g08.bks.cpg/sg2_137_cif.got.tgz:272863.got - 2010.06.03 11:33:40.
