data_PCOD9054094
_publ_section_title
;
Structure prediction by ZEFSAII (Michael W. Deem and Ramdas Pophale) SiO2 
 PCOD9054094
Probable space group: P -1
;
_chemical_formula_sum "Si O2"
_cell_formula_units_Z 16
_cell_length_a 9.811164
_cell_length_b 7.173679
_cell_length_c 10.978426
_cell_angle_alpha 70.494756
_cell_angle_beta 118.497270
_cell_angle_gamma 91.103771
_cell_volume 630.882755
_symmetry_space_group_name_H-M "P -1"
_symmetry_group_IT_number 2
_symmetry_cell_setting 'triclinic'
loop_
_space_group_symop_operation_xyz
x,y,z
-x,-y,-z
loop_
_atom_site_type_symbol
_atom_site_label
_atom_site_fract_x
_atom_site_fract_y
_atom_site_fract_z
Si Si1 0.417106 0.553411 0.687161
Si Si2 0.768117 0.490641 0.938635
Si Si3 0.856808 0.007694 0.335606
Si Si4 0.173048 0.465514 0.306084
Si Si5 0.042349 0.952720 0.884110
Si Si6 0.160595 0.528421 0.767293
Si Si7 0.280358 0.867099 0.364530
Si Si8 0.411785 0.179424 0.607520
O O1 0.580523 0.552324 0.826245
O O2 0.282881 0.470310 0.725795
O O3 0.341386 0.760937 0.541853
O O4 0.458162 0.377033 0.645709
O O5 0.859378 0.548492 0.846785
O O6 0.831212 0.250572 0.014960
O O7 0.805766 0.580314 0.064986
O O8 0.893322 0.922698 0.230590
O O9 0.809796 0.245148 0.248503
O O10 0.707819 0.923042 0.342801
O O11 0.000000 0.000000 0.500000
O O12 0.225074 0.677265 0.313245
O O13 0.309684 0.281285 0.430224
O O14 0.025323 0.455385 0.333005
O O15 0.871756 0.963554 0.745492
O O16 0.000000 0.000000 0.000000
O O17 0.424402 0.940691 0.342057
#
# Coordination Sequence:
#
# PCOD9054094 Si02
#       8
#     2   2   2   2   2   2   2   2
#     4  11  22  42  70 102 130 173 236 279 325 404
#     4  11  22  44  66  96 143 177 216 280 344 405
#     4  11  24  45  64 100 146 180 217 280 350 406
#     4  11  20  40  68  96 130 170 229 273 334 388
#     4  11  23  42  70  99 141 177 222 277 342 406
#     4  11  25  39  65 101 138 179 216 277 349 405
#     4  11  22  41  71 101 126 174 232 286 319 397
#     4  11  22  41  73  97 132 174 231 284 326 392
#
# _framework density 25.361291000000001
#
# number of rings (size 3 to 8) (size 9 to 14) (size 15 to 20)
#    0.000    1.000    5.000    2.250    1.750    1.000 
#    0.000   14.375    0.000    0.000    0.000    0.000 
#    0.000    0.000    0.000    0.000    0.000    0.000 
#
# Total GULP energy -89287.853614 kJ/mol
# GULP energy per Si atom -5580.490851 kJ/mol
# Density = 2.530357 g / cm^3
# Si number density = 25.361291 Si / 1000 Ang^3
#
#
#
# Elastic Constant Matrix: (Units=GPa)
#
#
# Indices 1 2 3 4 5 6 
#
# 1 168.3422 4.9876 43.7887 -6.2899 -5.7228 22.7369
# 2 4.9876 49.2216 0.6545 -1.1535 -11.0723 17.0087
# 3 43.7887 0.6545 104.6613 -5.4850 1.9295 -1.4381
# 4 -6.2899 -1.1535 -5.4850 32.2195 -4.3231 -3.9370
# 5 -5.7228 -11.0723 1.9295 -4.3231 51.4136 3.8074
# 6 22.7369 17.0087 -1.4381 -3.9370 3.8074 37.4635
#
#
#
# Elastic Compliance Matrix: (Units=1/GPa)
#
#
# Indices 1 2 3 4 5 6 
#
# 1 0.007574 0.001615 -0.003260 0.000537 0.001771 -0.005579
# 2 0.001615 0.026485 -0.001141 0.000328 0.006970 -0.013722
# 3 -0.003260 -0.001141 0.011066 0.001443 -0.001139 0.003189
# 4 0.000537 0.000328 0.001443 0.032073 0.002574 0.002689
# 5 0.001771 0.006970 -0.001139 0.002574 0.021869 -0.006235
# 6 -0.005579 -0.013722 0.003189 0.002689 -0.006235 0.037347
#
#
# Mechanical properties :
#
#
# Convention : Reuss Voigt Hill
#
# Bulk Modulus (GPa) = 25.28281 46.78741 36.03511
# Shear Modulus (GPa) = 32.22211 42.40559 37.31385
#
# Velocity S-wave (km/s) = 3.56831 4.09352 3.83990
# Velocity P-wave (km/s) = 5.19305 6.38991 5.82232
#
# Compressibility (1/GPa) = 0.03955256
#
# Stress axis : x y z
#
# Youngs Moduli (GPa) = 132.02615 37.75692 90.36494
#
# Poissons Ratio (x) = -0.06096 0.29461
# Poissons Ratio (y) = -0.21318 0.10311
# Poissons Ratio (z) = 0.43043 0.04308
#
# Static dielectric constant tensor:
#      x y z
#    x 2.077900 -0.078750 -0.076320 
#    y -0.078750 2.090480 0.022320 
#    z -0.076320 0.022320 2.080810 
# 
# From -- ./inp_files/381463.got.cif
#   From: 2010.05.17/outbox.cif.g08.bks.cpg/sg2_191_cif.got.tgz:381463.got - 2010.06.03 11:33:40.
