data_PCOD9054059
_publ_section_title
;
Structure prediction by ZEFSAII (Michael W. Deem and Ramdas Pophale) SiO2 
 PCOD9054059
Probable space group: P -1
;
_chemical_formula_sum "Si O2"
_cell_formula_units_Z 12
_cell_length_a 6.677812
_cell_length_b 16.861222
_cell_length_c 7.499535
_cell_angle_alpha 103.264437
_cell_angle_beta 97.636820
_cell_angle_gamma 40.088055
_cell_volume 528.041443
_symmetry_space_group_name_H-M "P -1"
_symmetry_group_IT_number 2
_symmetry_cell_setting 'triclinic'
loop_
_space_group_symop_operation_xyz
x,y,z
-x,-y,-z
loop_
_atom_site_type_symbol
_atom_site_label
_atom_site_fract_x
_atom_site_fract_y
_atom_site_fract_z
Si Si1 0.590827 0.269169 0.304461
Si Si2 0.614005 0.406208 0.628631
Si Si3 0.721432 0.750837 0.296541
Si Si4 0.081373 0.484577 0.792417
Si Si5 0.868985 0.117253 0.938313
Si Si6 0.705776 0.060916 0.381185
O O1 0.708261 0.294079 0.480924
O O2 0.241101 0.401125 0.284575
O O3 0.602965 0.171556 0.313606
O O4 0.793047 0.211417 0.116904
O O5 0.500000 0.500000 0.500000
O O6 0.328267 0.477495 0.764538
O O7 0.919192 0.338410 0.740486
O O8 0.459025 0.812994 0.149088
O O9 0.572310 0.862858 0.471503
O O10 0.766928 0.645961 0.327278
O O11 0.000000 0.500000 0.000000
O O12 0.135841 0.053596 0.789600
O O13 0.000000 0.000000 0.000000
O O14 0.000000 0.000000 0.500000
#
# Coordination Sequence:
#
# PCOD9054059 Si02
#       6
#     2   2   2   2   2   2
#     4  11  20  40  65  95 137 172 218 272 336 396
#     4  12  25  40  67 105 136 172 222 273 335 403
#     4  11  21  42  66  96 130 174 223 274 331 396
#     4  12  24  42  68  97 138 180 215 275 344 393
#     4   9  20  39  66  91 125 181 220 267 329 392
#     4   9  19  38  67  89 125 180 223 262 330 392
#
# _framework density 22.725489
#
# number of rings (size 3 to 8) (size 9 to 14) (size 15 to 20)
#    0.000    1.333    5.000    1.500    0.000    0.667 
#    0.000    8.333    0.000    0.000    0.000    0.000 
#    0.000    0.000    0.000    0.000    0.000    0.000 
#
# Total GULP energy -66914.029465 kJ/mol
# GULP energy per Si atom -5576.169122 kJ/mol
# Density = 2.267376 g / cm^3
# Si number density = 22.725489 Si / 1000 Ang^3
#
#
#
# Elastic Constant Matrix: (Units=GPa)
#
#
# Indices 1 2 3 4 5 6 
#
# 1 62.3412 18.0746 12.7521 1.2542 -11.6954 -15.7946
# 2 18.0746 128.9203 21.4488 -18.6756 0.6578 -23.0325
# 3 12.7521 21.4488 84.3129 16.3611 -14.1334 -3.9587
# 4 1.2542 -18.6756 16.3611 48.3664 -6.0945 -2.8931
# 5 -11.6954 0.6578 -14.1334 -6.0945 27.4621 4.9557
# 6 -15.7946 -23.0325 -3.9587 -2.8931 4.9557 17.1157
#
#
#
# Elastic Compliance Matrix: (Units=1/GPa)
#
#
# Indices 1 2 3 4 5 6 
#
# 1 0.022316 0.001350 -0.002405 0.002640 0.005060 0.020836
# 2 0.001350 0.013006 -0.004673 0.007246 -0.004160 0.020097
# 3 -0.002405 -0.004673 0.015493 -0.006576 0.007060 -0.008079
# 4 0.002640 0.007246 -0.006576 0.026621 0.000778 0.014940
# 5 0.005060 -0.004160 0.007060 0.000778 0.044657 -0.012094
# 6 0.020836 0.020097 -0.008079 0.014940 -0.012094 0.108856
#
#
# Mechanical properties :
#
#
# Convention : Reuss Voigt Hill
#
# Bulk Modulus (GPa) = 25.40528 42.23614 33.82071
# Shear Modulus (GPa) = 19.56767 33.47545 26.52156
#
# Velocity S-wave (km/s) = 2.93754 3.84218 3.41990
# Velocity P-wave (km/s) = 4.76540 6.18941 5.52349
#
# Compressibility (1/GPa) = 0.03936189
#
# Stress axis : x y z
#
# Youngs Moduli (GPa) = 44.81058 76.88728 64.54412
#
# Poissons Ratio (x) = -0.10383 0.15520
# Poissons Ratio (y) = -0.06051 0.30159
# Poissons Ratio (z) = 0.10775 0.35927
#
# Static dielectric constant tensor:
#      x y z
#    x 1.848090 0.030270 -0.074090 
#    y 0.030270 1.810610 0.046720 
#    z -0.074090 0.046720 1.963330 
# 
# From -- ./inp_files/72780.got.cif
#   From: 2010.05.17/outbox.cif.g08.bks.cpg/sg2_37_cif.got.tgz:72780.got - 2010.06.03 11:33:40.
