data_PCOD9054679
_publ_section_title
;
Structure prediction by ZEFSAII (Michael W. Deem and Ramdas Pophale) SiO2 
 PCOD9054679
Probable space group: P -1
;
_chemical_formula_sum "Si O2"
_cell_formula_units_Z 13
_cell_length_a 5.535955
_cell_length_b 12.274135
_cell_length_c 15.980457
_cell_angle_alpha 140.608273
_cell_angle_beta 88.320231
_cell_angle_gamma 71.168121
_cell_volume 577.714610
_symmetry_space_group_name_H-M "P -1"
_symmetry_group_IT_number 2
_symmetry_cell_setting 'triclinic'
loop_
_space_group_symop_operation_xyz
x,y,z
-x,-y,-z
loop_
_atom_site_type_symbol
_atom_site_label
_atom_site_fract_x
_atom_site_fract_y
_atom_site_fract_z
Si Si1 0.872592 0.198092 0.062842
Si Si2 0.669658 0.551174 0.881100
Si Si3 0.128675 0.083061 0.810673
Si Si4 0.674682 0.161735 0.627368
Si Si5 0.828945 0.601107 0.341422
Si Si6 0.250314 0.081561 0.354636
Si Si7 0.000000 0.500000 0.000000
O O1 0.559164 0.272747 0.072867
O O2 0.846556 0.389643 0.225457
O O3 0.058205 0.149696 0.947879
O O4 0.000000 0.000000 0.000000
O O5 0.581131 0.387917 0.790840
O O6 0.974901 0.432762 0.761039
O O7 0.722140 0.611652 0.005552
O O8 0.991393 0.290463 0.880195
O O9 0.472472 0.950548 0.715309
O O10 0.963129 0.970072 0.719821
O O11 0.485704 0.218208 0.579289
O O12 0.628164 0.065262 0.651780
O O13 0.000000 0.000000 0.500000
O O14 0.916450 0.688269 0.468711
#
# Coordination Sequence:
#
# PCOD9054679 Si02
#       7
#     2   2   2   2   2   2   1
#     4  11  28  52  73  99 141 204 263 304 355 440
#     4  11  23  41  71 106 146 190 248 296 368 440
#     4  12  27  44  73 108 151 192 238 308 380 434
#     4  11  21  37  65 106 151 194 226 288 368 460
#     4  11  24  42  71 104 142 197 248 296 370 444
#     4  12  25  42  68 112 153 185 238 304 380 451
#     4  12  22  42  66 114 148 186 228 304 370 450
#
# _framework density 22.502461
#
# number of rings (size 3 to 8) (size 9 to 14) (size 15 to 20)
#    0.000    0.615    4.615    3.231    4.308    1.846 
#    0.000    1.538    0.000    0.000    0.000    0.000 
#    0.000    0.000    0.000    0.000    0.000    0.000 
#
# Total GULP energy -72432.638203 kJ/mol
# GULP energy per Si atom -5571.741400 kJ/mol
# Density = 2.245124 g / cm^3
# Si number density = 22.502461 Si / 1000 Ang^3
#
#
#
# Elastic Constant Matrix: (Units=GPa)
#
#
# Indices 1 2 3 4 5 6 
#
# 1 119.2636 22.3993 57.5514 4.0610 18.2254 -7.2664
# 2 22.3993 82.7131 29.8032 21.7635 4.7783 -11.5873
# 3 57.5514 29.8032 109.6635 0.5754 21.2841 -4.5868
# 4 4.0610 21.7635 0.5754 18.8835 0.0381 -4.3812
# 5 18.2254 4.7783 21.2841 0.0381 50.5832 -14.7034
# 6 -7.2664 -11.5873 -4.5868 -4.3812 -14.7034 19.6032
#
#
#
# Elastic Compliance Matrix: (Units=1/GPa)
#
#
# Indices 1 2 3 4 5 6 
#
# 1 0.011506 -0.000448 -0.005589 -0.001474 -0.001360 0.001343
# 2 -0.000448 0.021004 -0.005583 -0.022040 0.002931 0.008215
# 3 -0.005589 -0.005583 0.014270 0.006250 -0.004671 -0.004139
# 4 -0.001474 -0.022040 0.006250 0.080187 0.002061 0.007355
# 5 -0.001360 0.002931 -0.004671 0.002061 0.028287 0.021813
# 6 0.001343 0.008215 -0.004139 0.007355 0.021813 0.073402
#
#
# Mechanical properties :
#
#
# Convention : Reuss Voigt Hill
#
# Bulk Modulus (GPa) = 42.47939 59.01645 50.74792
# Shear Modulus (GPa) = 19.25004 31.27307 25.26155
#
# Velocity S-wave (km/s) = 2.92800 3.73200 3.35418
# Velocity P-wave (km/s) = 5.50905 6.69731 6.13203
#
# Compressibility (1/GPa) = 0.02354083
#
# Stress axis : x y z
#
# Youngs Moduli (GPa) = 86.91490 47.61072 70.07902
#
# Poissons Ratio (x) = 0.02131 0.39164
# Poissons Ratio (y) = 0.03890 0.39124
# Poissons Ratio (z) = 0.48573 0.26580
#
# Static dielectric constant tensor:
#      x y z
#    x 1.930130 0.040340 0.007600 
#    y 0.040340 1.762210 -0.028270 
#    z 0.007600 -0.028270 1.950390 
# 
# From -- ./inp_files/34056.got.cif
#   From: 2010.05.17/outbox.cif.g08.bks.cpg/sg2_18_cif.got.tgz:34056.got - 2010.06.03 11:33:40.
