data_PCOD9054952
_publ_section_title
;
Structure prediction by ZEFSAII (Michael W. Deem and Ramdas Pophale) SiO2 
 PCOD9054952
Probable space group: P -1
;
_chemical_formula_sum "Si O2"
_cell_formula_units_Z 16
_cell_length_a 9.789690
_cell_length_b 11.630634
_cell_length_c 10.406788
_cell_angle_alpha 75.174750
_cell_angle_beta 42.375643
_cell_angle_gamma 72.854313
_cell_volume 761.794415
_symmetry_space_group_name_H-M "P -1"
_symmetry_group_IT_number 2
_symmetry_cell_setting 'triclinic'
loop_
_space_group_symop_operation_xyz
x,y,z
-x,-y,-z
loop_
_atom_site_type_symbol
_atom_site_label
_atom_site_fract_x
_atom_site_fract_y
_atom_site_fract_z
Si Si1 0.660451 0.536591 0.481730
Si Si2 0.956357 0.592381 0.884459
Si Si3 0.596666 0.480964 0.077969
Si Si4 0.599006 0.808970 0.475555
Si Si5 0.543914 0.026936 0.107622
Si Si6 0.266362 0.788665 0.929118
Si Si7 0.051964 0.139825 0.086668
Si Si8 0.753170 0.001243 0.463549
O O1 0.500000 0.500000 0.500000
O O2 0.567186 0.522245 0.692071
O O3 0.680948 0.676816 0.403546
O O4 0.874151 0.452260 0.328318
O O5 0.973725 0.724462 0.883535
O O6 0.732938 0.581634 0.989870
O O7 0.000000 0.500000 0.000000
O O8 0.746259 0.351140 0.004679
O O9 0.500000 0.500000 0.000000
O O10 0.460865 0.787120 0.700281
O O11 0.433177 0.895092 0.481797
O O12 0.761038 0.888309 0.393636
O O13 0.329764 0.037479 0.331685
O O14 0.661662 0.140841 0.019418
O O15 0.712400 0.917721 0.076064
O O16 0.500000 0.000000 0.000000
O O17 0.076720 0.855960 0.957773
O O18 0.953365 0.060313 0.283539
#
# Coordination Sequence:
#
# PCOD9054952 Si02
#       8
#     2   2   2   2   2   2   2   2
#     4  11  21  39  67  98 130 170 222 270 322 384
#     4  12  24  41  66 101 127 171 226 264 320 396
#     4  11  25  43  67  95 139 173 209 277 335 383
#     4   8  17  34  63  91 119 160 208 264 308 367
#     4  11  25  39  63  94 126 167 206 259 333 380
#     4   9  19  42  62  93 124 162 217 257 314 389
#     4  11  23  41  66  92 123 163 220 267 306 386
#     4   9  19  38  60  89 124 160 206 260 316 370
#
# _framework density 21.003043000000002
#
# number of rings (size 3 to 8) (size 9 to 14) (size 15 to 20)
#    0.000    1.750    2.500    2.625    3.500    3.000 
#    0.000    0.000    0.000    0.000    0.000    0.000 
#    0.000    0.000    0.000    0.000    0.000    0.000 
#
# Total GULP energy -89339.746567 kJ/mol
# GULP energy per Si atom -5583.734160 kJ/mol
# Density = 2.095524 g / cm^3
# Si number density = 21.003043 Si / 1000 Ang^3
#
#
#
# Elastic Constant Matrix: (Units=GPa)
#
#
# Indices 1 2 3 4 5 6 
#
# 1 80.7868 3.1038 29.1893 -4.4613 5.4735 19.2486
# 2 3.1038 91.9639 19.7019 0.3739 -16.3211 26.8740
# 3 29.1893 19.7019 107.2381 6.9056 -3.2351 13.2980
# 4 -4.4613 0.3739 6.9056 26.3658 2.3785 -4.9170
# 5 5.4735 -16.3211 -3.2351 2.3785 24.9313 1.4260
# 6 19.2486 26.8740 13.2980 -4.9170 1.4260 31.1542
#
#
#
# Elastic Compliance Matrix: (Units=1/GPa)
#
#
# Indices 1 2 3 4 5 6 
#
# 1 0.016462 0.003160 -0.003883 0.001875 -0.001606 -0.010870
# 2 0.003160 0.018905 -0.001331 -0.004087 0.012982 -0.018931
# 3 -0.003883 -0.001331 0.011194 -0.004112 0.001939 -0.001969
# 4 0.001875 -0.004087 -0.004112 0.042209 -0.008286 0.011163
# 5 -0.001606 0.012982 0.001939 -0.008286 0.050843 -0.014669
# 6 -0.010870 -0.018931 -0.001969 0.011163 -0.014669 0.058418
#
#
# Mechanical properties :
#
#
# Convention : Reuss Voigt Hill
#
# Bulk Modulus (GPa) = 23.55514 42.66431 33.10972
# Shear Modulus (GPa) = 23.11707 31.68982 27.40344
#
# Velocity S-wave (km/s) = 3.32121 3.88857 3.61603
# Velocity P-wave (km/s) = 5.09379 6.36544 5.76478
#
# Compressibility (1/GPa) = 0.04245358
#
# Stress axis : x y z
#
# Youngs Moduli (GPa) = 60.74569 52.89571 89.33513
#
# Poissons Ratio (x) = -0.16715 0.34686
# Poissons Ratio (y) = -0.19195 0.11891
# Poissons Ratio (z) = 0.23586 0.07041
#
# Static dielectric constant tensor:
#      x y z
#    x 1.790520 -0.011930 0.056230 
#    y -0.011930 1.792490 -0.040270 
#    z 0.056230 -0.040270 1.874890 
# 
# From -- ./inp_files/186385.got.cif
#   From: 2010.05.17/outbox.cif.g08.bks.cpg/sg2_94_cif.got.tgz:186385.got - 2010.06.03 11:33:40.
