data_PCOD9054581
_publ_section_title
;
Structure prediction by ZEFSAII (Michael W. Deem and Ramdas Pophale) SiO2 
 PCOD9054581
Probable space group: P -1
;
_chemical_formula_sum "Si O2"
_cell_formula_units_Z 16
_cell_length_a 28.477069
_cell_length_b 9.095426
_cell_length_c 28.700955
_cell_angle_alpha 141.806796
_cell_angle_beta 9.911630
_cell_angle_gamma 141.742835
_cell_volume 786.918458
_symmetry_space_group_name_H-M "P -1"
_symmetry_group_IT_number 2
_symmetry_cell_setting 'triclinic'
loop_
_space_group_symop_operation_xyz
x,y,z
-x,-y,-z
loop_
_atom_site_type_symbol
_atom_site_label
_atom_site_fract_x
_atom_site_fract_y
_atom_site_fract_z
Si Si1 0.098860 0.447419 0.443036
Si Si2 0.988299 0.637344 0.149405
Si Si3 0.595873 0.528991 0.361202
Si Si4 0.854280 0.645985 0.987530
Si Si5 0.433729 0.835913 0.883530
Si Si6 0.408987 0.949080 0.523058
Si Si7 0.579911 0.122401 0.902799
Si Si8 0.920980 0.019537 0.385170
O O1 0.135120 0.707221 0.496159
O O2 0.000000 0.500000 0.500000
O O3 0.879272 0.264808 0.639464
O O4 0.375195 0.321261 0.141140
O O5 0.681290 0.524110 0.411291
O O6 0.141221 0.474089 0.995411
O O7 0.964342 0.885544 0.260996
O O8 0.175837 0.635945 0.920109
O O9 0.500000 0.500000 0.500000
O O10 0.702634 0.806305 0.321719
O O11 0.170524 0.737453 0.694041
O O12 0.714867 0.432991 0.038969
O O13 0.676661 0.868680 0.216485
O O14 0.544348 0.924501 0.847439
O O15 0.676030 0.875639 0.618395
O O16 0.199232 0.999755 0.137279
O O17 0.500000 0.000000 0.500000
O O18 0.500000 0.000000 0.000000
#
# Coordination Sequence:
#
# PCOD9054581 Si02
#       8
#     2   2   2   2   2   2   2   2
#     4  12  22  42  68 100 126 171 234 267 308 385
#     4  11  21  40  60  91 121 156 203 257 318 359
#     4  12  25  40  60  86 125 162 197 249 318 382
#     4  11  21  36  63  91 117 154 206 264 303 357
#     4  11  21  39  61  95 128 161 207 264 326 370
#     4  12  21  38  61  91 115 152 210 255 300 363
#     4  12  25  42  65  98 140 175 210 267 339 391
#     4  11  22  37  68  94 122 159 216 277 302 364
#
# _framework density 20.332476
#
# number of rings (size 3 to 8) (size 9 to 14) (size 15 to 20)
#    0.000    0.500    5.000    6.000    0.000    0.000 
#    0.000    3.750    0.000    0.000    0.000    0.000 
#    0.000    0.000    0.000    0.000    0.000    0.000 
#
# Total GULP energy -89406.797240 kJ/mol
# GULP energy per Si atom -5587.924828 kJ/mol
# Density = 2.028620 g / cm^3
# Si number density = 20.332476 Si / 1000 Ang^3
#
#
#
# Elastic Constant Matrix: (Units=GPa)
#
#
# Indices 1 2 3 4 5 6 
#
# 1 47.1425 41.5835 5.5325 -3.6356 14.3731 9.6640
# 2 41.5835 105.7418 13.5982 -1.6842 12.5620 28.2150
# 3 5.5325 13.5982 101.4921 -4.0200 9.6055 14.5825
# 4 -3.6356 -1.6842 -4.0200 40.9621 0.6609 1.7190
# 5 14.3731 12.5620 9.6055 0.6609 24.2593 -1.8784
# 6 9.6640 28.2150 14.5825 1.7190 -1.8784 24.8817
#
#
#
# Elastic Compliance Matrix: (Units=1/GPa)
#
#
# Indices 1 2 3 4 5 6 
#
# 1 0.037951 -0.012055 0.001861 0.003491 -0.017363 -0.003713
# 2 -0.012055 0.019642 0.001217 0.000724 -0.004981 -0.018731
# 3 0.001861 0.001217 0.011729 0.001887 -0.007175 -0.009649
# 4 0.003491 0.000724 0.001887 0.025231 -0.004292 -0.005350
# 5 -0.017363 -0.004981 -0.007175 -0.004292 0.058697 0.021324
# 6 -0.003713 -0.018731 -0.009649 -0.005350 0.021324 0.070506
#
#
# Mechanical properties :
#
#
# Convention : Reuss Voigt Hill
#
# Bulk Modulus (GPa) = 19.46707 41.75610 30.61158
# Shear Modulus (GPa) = 19.31747 30.93144 25.12446
#
# Velocity S-wave (km/s) = 3.08568 3.90459 3.51904
# Velocity P-wave (km/s) = 4.72127 6.39602 5.62136
#
# Compressibility (1/GPa) = 0.05136880
#
# Stress axis : x y z
#
# Youngs Moduli (GPa) = 26.34956 50.91056 85.26131
#
# Poissons Ratio (x) = 0.61372 -0.15871
# Poissons Ratio (y) = 0.31764 -0.10374
# Poissons Ratio (z) = -0.04905 -0.06194
#
# Static dielectric constant tensor:
#      x y z
#    x 1.760390 -0.085810 0.073820 
#    y -0.085810 1.905210 -0.190640 
#    z 0.073820 -0.190640 1.875140 
# 
# From -- ./inp_files/223737.got.cif
#   From: 2010.05.17/outbox.cif.g08.bks.cpg/sg2_112_cif.got.tgz:223737.got - 2010.06.03 11:33:40.
