data_PCOD9054847
_publ_section_title
;
Structure prediction by ZEFSAII (Michael W. Deem and Ramdas Pophale) SiO2 
 PCOD9054847
Probable space group: P -1
;
_chemical_formula_sum "Si O2"
_cell_formula_units_Z 16
_cell_length_a 15.413714
_cell_length_b 13.615940
_cell_length_c 13.119390
_cell_angle_alpha 30.093731
_cell_angle_beta 127.683703
_cell_angle_gamma 144.796713
_cell_volume 751.030672
_symmetry_space_group_name_H-M "P -1"
_symmetry_group_IT_number 2
_symmetry_cell_setting 'triclinic'
loop_
_space_group_symop_operation_xyz
x,y,z
-x,-y,-z
loop_
_atom_site_type_symbol
_atom_site_label
_atom_site_fract_x
_atom_site_fract_y
_atom_site_fract_z
Si Si1 0.576118 0.784509 0.354604
Si Si2 0.269537 0.654195 0.739301
Si Si3 0.188162 0.753983 0.385839
Si Si4 0.975990 0.627002 0.008112
Si Si5 0.842833 0.859720 0.452690
Si Si6 0.221015 0.638512 0.103558
Si Si7 0.348551 0.370927 0.941011
Si Si8 0.421758 0.763016 0.462036
O O1 0.500000 0.500000 0.500000
O O2 0.745169 0.901117 0.404721
O O3 0.479206 0.747725 0.410922
O O4 0.630686 0.024343 0.101356
O O5 0.266541 0.792574 0.515442
O O6 0.262768 0.424947 0.898712
O O7 0.433159 0.912382 0.684364
O O8 0.119965 0.492030 0.850478
O O9 0.263600 0.693817 0.415247
O O10 0.000000 0.500000 0.500000
O O11 0.242626 0.043001 0.137423
O O12 0.848230 0.470528 0.963826
O O13 0.097372 0.963632 0.767680
O O14 0.081549 0.569618 0.125228
O O15 0.747846 0.533318 0.673589
O O16 0.000000 0.000000 0.500000
O O17 0.398498 0.552419 0.712424
O O18 0.500000 0.500000 0.000000
#
# Coordination Sequence:
#
# PCOD9054847 Si02
#       8
#     2   2   2   2   2   2   2   2
#     4  11  24  42  59  91 134 170 211 262 316 375
#     4  11  21  38  70  96 124 166 216 266 322 386
#     4  11  25  47  64  98 132 163 214 274 334 388
#     4   9  18  34  59  93 121 157 205 264 306 359
#     4   9  20  37  60  87 117 163 214 253 304 372
#     4   9  18  37  59  83 128 163 207 257 306 364
#     4  11  21  41  69  98 125 161 221 268 319 399
#     4  11  23  42  69  92 128 173 216 268 323 383
#
# _framework density 21.304055000000002
#
# number of rings (size 3 to 8) (size 9 to 14) (size 15 to 20)
#    0.000    1.750    3.750    1.500    0.000    6.500 
#   11.250    0.000    0.000    0.000    0.000    0.000 
#    0.000    0.000    0.000    0.000    0.000    0.000 
#
# Total GULP energy -89365.024299 kJ/mol
# GULP energy per Si atom -5585.314019 kJ/mol
# Density = 2.125557 g / cm^3
# Si number density = 21.304055 Si / 1000 Ang^3
#
#
#
# Elastic Constant Matrix: (Units=GPa)
#
#
# Indices 1 2 3 4 5 6 
#
# 1 155.6996 24.1412 65.7841 0.3668 -18.7288 10.0853
# 2 24.1412 44.2757 3.3666 -12.5470 5.1186 10.8158
# 3 65.7841 3.3666 151.5259 -21.2960 19.3679 2.3723
# 4 0.3668 -12.5470 -21.2960 29.9103 2.9814 1.6330
# 5 -18.7288 5.1186 19.3679 2.9814 41.2384 3.0191
# 6 10.0853 10.8158 2.3723 1.6330 3.0191 22.3035
#
#
#
# Elastic Compliance Matrix: (Units=1/GPa)
#
#
# Indices 1 2 3 4 5 6 
#
# 1 0.013779 -0.011941 -0.009207 -0.013017 0.013025 -0.000271
# 2 -0.011941 0.041916 0.010490 0.027698 -0.016394 -0.015851
# 3 -0.009207 0.010490 0.014358 0.016158 -0.013260 -0.001839
# 4 -0.013017 0.027698 0.016158 0.059345 -0.020435 -0.010843
# 5 0.013025 -0.016394 -0.013260 -0.020435 0.039937 -0.000439
# 6 -0.000271 -0.015851 -0.001839 -0.010843 -0.000439 0.053694
#
#
# Mechanical properties :
#
#
# Convention : Reuss Voigt Hill
#
# Bulk Modulus (GPa) = 20.51894 59.78722 40.15308
# Shear Modulus (GPa) = 19.18703 35.90439 27.54571
#
# Velocity S-wave (km/s) = 3.00430 4.10973 3.59970
# Velocity P-wave (km/s) = 4.65691 7.11650 6.01379
#
# Compressibility (1/GPa) = 0.04873546
#
# Stress axis : x y z
#
# Youngs Moduli (GPa) = 72.57378 23.85731 69.64624
#
# Poissons Ratio (x) = 0.28489 0.64123
# Poissons Ratio (y) = 0.86664 -0.73055
# Poissons Ratio (z) = 0.66818 -0.25025
#
# Static dielectric constant tensor:
#      x y z
#    x 1.752820 0.023640 0.010090 
#    y 0.023640 1.863440 -0.067410 
#    z 0.010090 -0.067410 1.793310 
# 
# From -- ./inp_files/533160.got.cif
#   From: 2010.05.17/outbox.cif.g08.bks.cpg/sg2_267_cif.got.tgz:533160.got - 2010.06.03 11:33:40.
