data_PCOD9054803
_publ_section_title
;
Structure prediction by ZEFSAII (Michael W. Deem and Ramdas Pophale) SiO2 
 PCOD9054803
Probable space group: P -1
;
_chemical_formula_sum "Si O2"
_cell_formula_units_Z 16
_cell_length_a 20.951302
_cell_length_b 8.096949
_cell_length_c 7.710659
_cell_angle_alpha 45.355856
_cell_angle_beta 137.092039
_cell_angle_gamma 118.592221
_cell_volume 631.848292
_symmetry_space_group_name_H-M "P -1"
_symmetry_group_IT_number 2
_symmetry_cell_setting 'triclinic'
loop_
_space_group_symop_operation_xyz
x,y,z
-x,-y,-z
loop_
_atom_site_type_symbol
_atom_site_label
_atom_site_fract_x
_atom_site_fract_y
_atom_site_fract_z
Si Si1 0.853821 0.229788 0.363474
Si Si2 0.096917 0.545017 0.026374
Si Si3 0.391992 0.959733 0.291556
Si Si4 0.017770 0.868350 0.893859
Si Si5 0.436025 0.470718 0.567071
Si Si6 0.686241 0.906662 0.309698
Si Si7 0.190475 0.588054 0.521630
Si Si8 0.382872 0.773299 0.767983
O O1 0.785419 0.023391 0.416298
O O2 0.839376 0.438365 0.319949
O O3 0.958656 0.102944 0.650682
O O4 0.835521 0.345462 0.054877
O O5 0.038018 0.344194 0.979634
O O6 0.152783 0.457829 0.376079
O O7 0.026914 0.761023 0.796512
O O8 0.395182 0.708369 0.393873
O O9 0.356087 0.945089 0.427233
O O10 0.500000 0.000000 0.500000
O O11 0.341261 0.120477 0.926333
O O12 0.127641 0.839644 0.185084
O O13 0.500000 0.500000 0.500000
O O14 0.346517 0.317451 0.488947
O O15 0.512697 0.345678 0.944377
O O16 0.623815 0.099690 0.154145
O O17 0.301143 0.597653 0.730931
#
# Coordination Sequence:
#
# PCOD9054803 Si02
#       8
#     2   2   2   2   2   2   2   2
#     4  11  21  38  66  87 123 165 203 249 311 362
#     4   9  20  40  60  86 128 161 198 261 302 350
#     4  12  24  42  67  90 123 167 206 261 314 369
#     4   9  20  41  59  91 125 160 206 251 302 372
#     4  12  24  44  68  89 128 170 203 258 318 371
#     4  11  25  42  62  97 126 164 210 260 310 368
#     4   9  21  38  61  91 121 158 205 254 298 363
#     4  11  22  42  64  91 129 160 210 260 308 372
#
# _framework density 25.322534999999998
#
# number of rings (size 3 to 8) (size 9 to 14) (size 15 to 20)
#    0.750    0.750    2.500    3.000    0.000    2.500 
#    0.000    0.000    2.750    0.000    0.000    0.000 
#    0.000    0.000    0.000    0.000    0.000    0.000 
#
# Total GULP energy -89153.851663 kJ/mol
# GULP energy per Si atom -5572.115729 kJ/mol
# Density = 2.526490 g / cm^3
# Si number density = 25.322535 Si / 1000 Ang^3
#
#
#
# Elastic Constant Matrix: (Units=GPa)
#
#
# Indices 1 2 3 4 5 6 
#
# 1 115.5677 21.3939 36.5977 3.6472 -15.1160 4.3449
# 2 21.3939 84.0051 17.7766 15.1720 -4.8818 7.1908
# 3 36.5977 17.7766 52.2661 14.8619 3.5756 -7.6431
# 4 3.6472 15.1720 14.8619 25.3617 -8.6495 2.0734
# 5 -15.1160 -4.8818 3.5756 -8.6495 44.6980 4.2333
# 6 4.3449 7.1908 -7.6431 2.0734 4.2333 30.0522
#
#
#
# Elastic Compliance Matrix: (Units=1/GPa)
#
#
# Indices 1 2 3 4 5 6 
#
# 1 0.014592 -0.001468 -0.014489 0.010857 0.008738 -0.007423
# 2 -0.001468 0.014295 -0.002525 -0.006461 0.000344 -0.003453
# 3 -0.014489 -0.002525 0.041526 -0.027424 -0.015446 0.017328
# 4 0.010857 -0.006461 -0.027424 0.065509 0.019183 -0.014220
# 5 0.008738 0.000344 -0.015446 0.019183 0.031356 -0.011014
# 6 -0.007423 -0.003453 0.017328 -0.014220 -0.011014 0.042115
#
#
# Mechanical properties :
#
#
# Convention : Reuss Voigt Hill
#
# Bulk Modulus (GPa) = 29.89668 44.81946 37.35807
# Shear Modulus (GPa) = 19.41701 31.76043 25.58872
#
# Velocity S-wave (km/s) = 2.77210 3.54536 3.18230
# Velocity P-wave (km/s) = 4.69872 5.87344 5.31861
#
# Compressibility (1/GPa) = 0.03344853
#
# Stress axis : x y z
#
# Youngs Moduli (GPa) = 68.52902 69.95582 24.08131
#
# Poissons Ratio (x) = 0.10269 0.34892
# Poissons Ratio (y) = 0.10059 0.06081
# Poissons Ratio (z) = 0.99292 0.17666
#
# Static dielectric constant tensor:
#      x y z
#    x 1.977200 0.111730 -0.080390 
#    y 0.111730 1.859580 -0.045090 
#    z -0.080390 -0.045090 2.140030 
# 
# From -- ./inp_files/351634.got.cif
#   From: 2010.05.17/outbox.cif.g08.bks.cpg/sg2_176_cif.got.tgz:351634.got - 2010.06.03 11:33:40.
