data_PCOD9054700
_publ_section_title
;
Structure prediction by ZEFSAII (Michael W. Deem and Ramdas Pophale) SiO2 
 PCOD9054700
Probable space group: P -1
;
_chemical_formula_sum "Si O2"
_cell_formula_units_Z 14
_cell_length_a 5.272302
_cell_length_b 12.952268
_cell_length_c 11.635352
_cell_angle_alpha 51.977002
_cell_angle_beta 76.957986
_cell_angle_gamma 73.776284
_cell_volume 599.489343
_symmetry_space_group_name_H-M "P -1"
_symmetry_group_IT_number 2
_symmetry_cell_setting 'triclinic'
loop_
_space_group_symop_operation_xyz
x,y,z
-x,-y,-z
loop_
_atom_site_type_symbol
_atom_site_label
_atom_site_fract_x
_atom_site_fract_y
_atom_site_fract_z
Si Si1 0.692827 0.973712 0.388700
Si Si2 0.447213 0.730800 0.835810
Si Si3 0.729225 0.087047 0.920156
Si Si4 0.723076 0.165474 0.604551
Si Si5 0.472983 0.587527 0.690224
Si Si6 0.121672 0.387900 0.968999
Si Si7 0.801142 0.336549 0.875582
O O1 0.517613 0.905600 0.364467
O O2 0.985702 0.891565 0.440017
O O3 0.500000 0.000000 0.500000
O O4 0.718169 0.121381 0.244429
O O5 0.493522 0.679748 0.736884
O O6 0.717971 0.720420 0.884385
O O7 0.287883 0.638689 0.994385
O O8 0.764542 0.139629 0.752218
O O9 0.688263 0.219130 0.912586
O O10 0.500000 0.000000 0.000000
O O11 0.000000 0.000000 0.000000
O O12 0.631237 0.317317 0.468665
O O13 0.282903 0.488765 0.816081
O O14 0.741076 0.478316 0.722606
O O15 0.095221 0.298709 0.915354
O O16 0.000000 0.500000 0.000000
#
# Coordination Sequence:
#
# PCOD9054700 Si02
#       7
#     2   2   2   2   2   2   2
#     4  12  27  44  73 109 147 191 236 298 379 433
#     4  11  22  39  65 105 143 185 238 297 359 430
#     4  12  29  54  77 102 143 194 255 304 353 436
#     4  12  28  49  70 109 148 190 244 308 356 433
#     4  11  24  40  67 106 146 184 238 303 368 432
#     4  11  21  37  67 101 143 184 231 296 355 430
#     4  11  24  43  71 102 140 197 242 291 365 426
#
# _framework density 23.353206
#
# number of rings (size 3 to 8) (size 9 to 14) (size 15 to 20)
#    0.000    0.571    4.286    3.857   12.000    0.571 
#    0.000    0.714    0.000    0.000    0.000    0.000 
#    0.000    0.000    0.000    0.000    0.000    0.000 
#
# Total GULP energy -77963.214807 kJ/mol
# GULP energy per Si atom -5568.801058 kJ/mol
# Density = 2.330005 g / cm^3
# Si number density = 23.353206 Si / 1000 Ang^3
#
#
#
# Elastic Constant Matrix: (Units=GPa)
#
#
# Indices 1 2 3 4 5 6 
#
# 1 418.3439 -131.2886 48.5407 38.2013 34.7508 32.8125
# 2 -131.2886 183.3588 11.5946 -40.1434 4.3273 15.1403
# 3 48.5407 11.5946 147.3576 1.0790 27.8031 2.9359
# 4 38.2013 -40.1434 1.0790 44.2459 -4.5658 5.0065
# 5 34.7508 4.3273 27.8031 -4.5658 40.0562 -4.4839
# 6 32.8125 15.1403 2.9359 5.0065 -4.4839 39.4848
#
#
#
# Elastic Compliance Matrix: (Units=1/GPa)
#
#
# Indices 1 2 3 4 5 6 
#
# 1 0.004504 0.003789 -0.000840 -0.000249 -0.004388 -0.005600
# 2 0.003789 0.010534 -0.001261 0.006883 -0.003704 -0.008387
# 3 -0.000840 -0.001261 0.008083 -0.001137 -0.004856 0.000174
# 4 -0.000249 0.006883 -0.001137 0.030060 0.003037 -0.005814
# 5 -0.004388 -0.003704 -0.004856 0.003037 0.033884 0.008891
# 6 -0.005600 -0.008387 0.000174 -0.005814 0.008891 0.034930
#
#
# Mechanical properties :
#
#
# Convention : Reuss Voigt Hill
#
# Bulk Modulus (GPa) = 37.74271 67.41707 52.57989
# Shear Modulus (GPa) = 39.23084 79.43826 59.33455
#
# Velocity S-wave (km/s) = 4.10309 5.83865 5.04605
# Velocity P-wave (km/s) = 6.21643 8.62463 7.51759
#
# Compressibility (1/GPa) = 0.02649518
#
# Stress axis : x y z
#
# Youngs Moduli (GPa) = 222.04939 94.93484 123.71283
#
# Poissons Ratio (x) = -0.35972 0.10395
# Poissons Ratio (y) = -0.84137 0.15605
# Poissons Ratio (z) = 0.18658 0.11975
#
# Static dielectric constant tensor:
#      x y z
#    x 2.442250 -0.325390 0.157610 
#    y -0.325390 1.849850 -0.001770 
#    z 0.157610 -0.001770 1.900460 
# 
# From -- ./inp_files/363677.got.cif
#   From: 2010.05.17/outbox.cif.g08.bks.cpg/sg2_182_cif.got.tgz:363677.got - 2010.06.03 11:33:40.
