data_PCOD9054683
_publ_section_title
;
Structure prediction by ZEFSAII (Michael W. Deem and Ramdas Pophale) SiO2 
 PCOD9054683
Probable space group: P -1
;
_chemical_formula_sum "Si O2"
_cell_formula_units_Z 16
_cell_length_a 15.447467
_cell_length_b 9.944318
_cell_length_c 12.342459
_cell_angle_alpha 132.414018
_cell_angle_beta 140.996388
_cell_angle_gamma 45.781405
_cell_volume 817.451339
_symmetry_space_group_name_H-M "P -1"
_symmetry_group_IT_number 2
_symmetry_cell_setting 'triclinic'
loop_
_space_group_symop_operation_xyz
x,y,z
-x,-y,-z
loop_
_atom_site_type_symbol
_atom_site_label
_atom_site_fract_x
_atom_site_fract_y
_atom_site_fract_z
Si Si1 0.426946 0.824011 0.572805
Si Si2 0.376958 0.957761 0.226622
Si Si3 0.410007 0.457990 0.228087
Si Si4 0.401870 0.476993 0.732116
Si Si5 0.184981 0.769245 0.846818
Si Si6 0.806143 0.713175 0.624410
Si Si7 0.135067 0.196213 0.513429
Si Si8 0.866462 0.472940 0.138233
O O1 0.401975 0.666925 0.381850
O O2 0.512782 0.703112 0.694342
O O3 0.528422 0.929831 0.675179
O O4 0.269647 0.989074 0.541804
O O5 0.485740 0.735830 0.235989
O O6 0.300470 0.074262 0.323336
O O7 0.243156 0.944072 0.016905
O O8 0.510582 0.421195 0.198322
O O9 0.250649 0.467545 0.039495
O O10 0.312756 0.607388 0.814715
O O11 0.279509 0.431799 0.517150
O O12 0.172382 0.676005 0.900308
O O13 0.026001 0.818328 0.662075
O O14 0.837948 0.716361 0.528675
O O15 0.964729 0.638695 0.794693
O O16 0.138231 0.344283 0.691807
#
# Coordination Sequence:
#
# PCOD9054683 Si02
#       8
#     2   2   2   2   2   2   2   2
#     4  11  25  45  60  90 126 162 203 257 302 362
#     4  12  23  37  66  95 120 161 211 250 300 360
#     4  11  26  42  65  87 124 166 204 249 311 360
#     4  12  20  41  62  94 124 160 204 252 303 359
#     4  11  23  37  63  98 126 157 199 259 306 358
#     4  11  21  37  65  93 126 158 199 257 305 356
#     4  11  22  40  62  92 131 158 199 253 310 358
#     4  11  22  40  62  94 127 162 198 251 313 361
#
# _framework density 19.573029999999999
#
# number of rings (size 3 to 8) (size 9 to 14) (size 15 to 20)
#    0.000    0.750    6.250    2.250    3.500    1.500 
#    0.000    2.500    0.000    0.000    0.000    0.000 
#    0.000    0.000    0.000    0.000    0.000    0.000 
#
# Total GULP energy -89447.594714 kJ/mol
# GULP energy per Si atom -5590.474670 kJ/mol
# Density = 1.952848 g / cm^3
# Si number density = 19.573030 Si / 1000 Ang^3
#
#
#
# Elastic Constant Matrix: (Units=GPa)
#
#
# Indices 1 2 3 4 5 6 
#
# 1 58.9409 29.7643 23.2204 -3.0620 14.9889 -13.7557
# 2 29.7643 74.7457 39.3039 -14.3218 3.7642 -9.4411
# 3 23.2204 39.3039 128.8272 -13.1525 18.7628 -2.5957
# 4 -3.0620 -14.3218 -13.1525 30.2640 -7.0614 -1.1403
# 5 14.9889 3.7642 18.7628 -7.0614 22.2629 -2.4472
# 6 -13.7557 -9.4411 -2.5957 -1.1403 -2.4472 26.5734
#
#
#
# Elastic Compliance Matrix: (Units=1/GPa)
#
#
# Indices 1 2 3 4 5 6 
#
# 1 0.028859 -0.010750 0.000391 -0.006052 -0.018854 0.009162
# 2 -0.010750 0.022264 -0.005464 0.009900 0.011582 0.003303
# 3 0.000391 -0.005464 0.010554 0.000027 -0.008388 -0.001479
# 4 -0.006052 0.009900 0.000027 0.040939 0.015758 0.003595
# 5 -0.018854 0.011582 -0.008388 0.015758 0.067770 0.000453
# 6 0.009162 0.003303 -0.001479 0.003595 0.000453 0.043599
#
#
# Mechanical properties :
#
#
# Convention : Reuss Voigt Hill
#
# Bulk Modulus (GPa) = 33.30102 49.67677 41.48890
# Shear Modulus (GPa) = 19.55853 27.16842 23.36347
#
# Velocity S-wave (km/s) = 3.16454 3.72970 3.45868
# Velocity P-wave (km/s) = 5.51390 6.63196 6.09860
#
# Compressibility (1/GPa) = 0.03002911
#
# Stress axis : x y z
#
# Youngs Moduli (GPa) = 34.65068 44.91617 94.75468
#
# Poissons Ratio (x) = 0.48286 -0.03703
# Poissons Ratio (y) = 0.37251 0.51776
# Poissons Ratio (z) = -0.01354 0.24543
#
# Static dielectric constant tensor:
#      x y z
#    x 1.674150 -0.015800 0.003500 
#    y -0.015800 1.667350 -0.000640 
#    z 0.003500 -0.000640 1.739090 
# 
# From -- ./inp_files/205730.got.cif
#   From: 2010.05.17/outbox.cif.g08.bks.cpg/sg2_103_cif.got.tgz:205730.got - 2010.06.03 11:33:40.
