data_PCOD9054425
_publ_section_title
;
Structure prediction by ZEFSAII (Michael W. Deem and Ramdas Pophale) SiO2 
 PCOD9054425
Probable space group: P -1
;
_chemical_formula_sum "Si O2"
_cell_formula_units_Z 16
_cell_length_a 9.227519
_cell_length_b 9.739572
_cell_length_c 18.930903
_cell_angle_alpha 72.274073
_cell_angle_beta 144.474297
_cell_angle_gamma 127.863335
_cell_volume 706.407362
_symmetry_space_group_name_H-M "P -1"
_symmetry_group_IT_number 2
_symmetry_cell_setting 'triclinic'
loop_
_space_group_symop_operation_xyz
x,y,z
-x,-y,-z
loop_
_atom_site_type_symbol
_atom_site_label
_atom_site_fract_x
_atom_site_fract_y
_atom_site_fract_z
Si Si1 0.905944 0.627439 0.930412
Si Si2 0.939899 0.064748 0.537367
Si Si3 0.352608 0.728483 0.454929
Si Si4 0.750670 0.718363 0.236196
Si Si5 0.323995 0.037975 0.097731
Si Si6 0.660273 0.739654 0.717979
Si Si7 0.634316 0.897568 0.041202
Si Si8 0.844221 0.311406 0.375184
O O1 0.549168 0.510408 0.844128
O O2 0.808707 0.637156 0.809595
O O3 0.000000 0.500000 0.000000
O O4 0.183448 0.833626 0.043618
O O5 0.958678 0.235034 0.488353
O O6 0.196535 0.169049 0.688672
O O7 0.597620 0.869805 0.466486
O O8 0.000000 0.000000 0.500000
O O9 0.591925 0.777857 0.608126
O O10 0.098544 0.766138 0.357214
O O11 0.111924 0.495341 0.403030
O O12 0.620136 0.773739 0.114737
O O13 0.581224 0.131846 0.248455
O O14 0.504028 0.181238 0.079231
O O15 0.000000 0.000000 0.000000
O O16 0.339741 0.646888 0.652424
O O17 0.967900 0.946523 0.838327
O O18 0.500000 0.000000 0.000000
#
# Coordination Sequence:
#
# PCOD9054425 Si02
#       8
#     2   2   2   2   2   2   2   2
#     4  11  24  41  71 109 143 191 242 302 361 432
#     4  12  29  44  72 110 148 184 233 314 379 427
#     4  12  24  47  77 107 137 195 248 300 360 446
#     4  12  22  46  72 105 136 184 258 292 352 446
#     4  11  23  45  67  99 143 190 237 293 367 430
#     4  11  20  44  73 103 142 186 249 297 361 434
#     4  11  24  40  68 101 143 195 236 296 361 435
#     4  12  24  46  74 108 146 186 240 311 368 429
#
# _framework density 22.649823999999999
#
# number of rings (size 3 to 8) (size 9 to 14) (size 15 to 20)
#    0.000    0.500    6.250    3.750    3.500    0.500 
#    2.250    3.750    0.000    0.000    0.000    0.000 
#    0.000    0.000    0.000    0.000    0.000    0.000 
#
# Total GULP energy -89140.339604 kJ/mol
# GULP energy per Si atom -5571.271225 kJ/mol
# Density = 2.259827 g / cm^3
# Si number density = 22.649824 Si / 1000 Ang^3
#
#
#
# Elastic Constant Matrix: (Units=GPa)
#
#
# Indices 1 2 3 4 5 6 
#
# 1 107.8007 38.6666 37.3839 -6.6596 -12.6997 15.6372
# 2 38.6666 128.0620 34.2534 -24.2419 -1.1653 12.1095
# 3 37.3839 34.2534 94.7076 -13.3463 -10.7697 4.5942
# 4 -6.6596 -24.2419 -13.3463 59.7713 6.7434 8.8202
# 5 -12.6997 -1.1653 -10.7697 6.7434 28.8984 -2.4054
# 6 15.6372 12.1095 4.5942 8.8202 -2.4054 32.7225
#
#
#
# Elastic Compliance Matrix: (Units=1/GPa)
#
#
# Indices 1 2 3 4 5 6 
#
# 1 0.012368 -0.002424 -0.003397 -0.000166 0.003760 -0.004215
# 2 -0.002424 0.010282 -0.002305 0.004244 -0.002806 -0.003673
# 3 -0.003397 -0.002305 0.013232 0.001214 0.003106 0.000519
# 4 -0.000166 0.004244 0.001214 0.020356 -0.004824 -0.007503
# 5 0.003760 -0.002806 0.003106 -0.004824 0.038671 0.002949
# 6 -0.004215 -0.003673 0.000519 -0.007503 0.002949 0.036100
#
#
# Mechanical properties :
#
#
# Convention : Reuss Voigt Hill
#
# Bulk Modulus (GPa) = 50.93916 61.24202 56.09059
# Shear Modulus (GPa) = 32.50870 38.96286 35.73578
#
# Velocity S-wave (km/s) = 3.79261 4.15206 3.97640
# Velocity P-wave (km/s) = 6.45889 7.07697 6.77498
#
# Compressibility (1/GPa) = 0.01963126
#
# Stress axis : x y z
#
# Youngs Moduli (GPa) = 80.85410 97.25331 75.57339
#
# Poissons Ratio (x) = 0.23579 0.25669
# Poissons Ratio (y) = 0.19603 0.17417
# Poissons Ratio (z) = 0.27462 0.22414
#
# Static dielectric constant tensor:
#      x y z
#    x 1.915390 0.069370 0.023120 
#    y 0.069370 1.960440 -0.022860 
#    z 0.023120 -0.022860 1.859790 
# 
# From -- ./inp_files/557213.got.cif
#   From: 2010.05.17/outbox.cif.g08.bks.cpg/sg2_279_cif.got.tgz:557213.got - 2010.06.03 11:33:40.
