data_PCOD9054270
_publ_section_title
;
Structure prediction by ZEFSAII (Michael W. Deem and Ramdas Pophale) SiO2 
 PCOD9054270
Probable space group: P -1
;
_chemical_formula_sum "Si O2"
_cell_formula_units_Z 16
_cell_length_a 8.625506
_cell_length_b 12.479057
_cell_length_c 11.278372
_cell_angle_alpha 97.806226
_cell_angle_beta 131.587002
_cell_angle_gamma 61.135428
_cell_volume 762.959465
_symmetry_space_group_name_H-M "P -1"
_symmetry_group_IT_number 2
_symmetry_cell_setting 'triclinic'
loop_
_space_group_symop_operation_xyz
x,y,z
-x,-y,-z
loop_
_atom_site_type_symbol
_atom_site_label
_atom_site_fract_x
_atom_site_fract_y
_atom_site_fract_z
Si Si1 0.869727 0.929640 0.325646
Si Si2 0.033890 0.442770 0.640606
Si Si3 0.013751 0.971757 0.165712
Si Si4 0.466922 0.212013 0.211242
Si Si5 0.063710 0.164540 0.100414
Si Si6 0.759161 0.325392 0.410711
Si Si7 0.224743 0.602413 0.841519
Si Si8 0.558572 0.813153 0.080439
O O1 0.684931 0.895541 0.165298
O O2 0.014642 0.817726 0.474849
O O3 0.041711 0.927581 0.308031
O O4 0.709579 0.070111 0.317444
O O5 0.819046 0.412465 0.536519
O O6 0.000000 0.500000 0.500000
O O7 0.056082 0.541527 0.749591
O O8 0.288365 0.307390 0.772680
O O9 0.163797 0.034352 0.207524
O O10 0.728177 0.088721 0.026584
O O11 0.045870 0.862962 0.076274
O O12 0.260970 0.197592 0.165527
O O13 0.524320 0.314203 0.308510
O O14 0.413865 0.237653 0.047386
O O15 0.874724 0.279709 0.103705
O O16 0.767673 0.358792 0.283902
O O17 0.500000 0.500000 0.000000
#
# Coordination Sequence:
#
# PCOD9054270 Si02
#       8
#     2   2   2   2   2   2   2   2
#     4  10  18  36  61  87 124 155 189 232 295 367
#     4   9  20  37  61  83 111 152 208 243 276 337
#     4  10  19  36  59  93 119 151 187 243 303 348
#     4  11  19  35  57  96 118 155 191 238 293 352
#     4  11  22  34  60  92 122 144 199 247 293 343
#     4  10  22  37  63  83 116 158 201 234 290 354
#     4  11  22  43  64  86 110 158 207 244 286 345
#     4  10  17  35  64  87 113 157 201 236 285 355
#
# _framework density 20.970969
#
# number of rings (size 3 to 8) (size 9 to 14) (size 15 to 20)
#    0.000    1.750    2.500    4.125    0.000    0.000 
#    0.000    5.625    8.250    0.000    0.000    0.000 
#    0.000    0.000    0.000    0.000    0.000    0.000 
#
# Total GULP energy -89270.533248 kJ/mol
# GULP energy per Si atom -5579.408328 kJ/mol
# Density = 2.092324 g / cm^3
# Si number density = 20.970969 Si / 1000 Ang^3
#
#
#
# Elastic Constant Matrix: (Units=GPa)
#
#
# Indices 1 2 3 4 5 6 
#
# 1 71.5619 30.3015 29.0186 13.3339 4.4985 22.9483
# 2 30.3015 107.3880 46.1057 30.4235 3.5307 24.2685
# 3 29.0186 46.1057 104.8565 -2.1748 -6.1214 18.0070
# 4 13.3339 30.4235 -2.1748 46.8552 26.3718 2.3486
# 5 4.4985 3.5307 -6.1214 26.3718 27.5173 9.8513
# 6 22.9483 24.2685 18.0070 2.3486 9.8513 31.8088
#
#
#
# Elastic Compliance Matrix: (Units=1/GPa)
#
#
# Indices 1 2 3 4 5 6 
#
# 1 0.026338 0.011109 -0.004684 -0.035452 0.039537 -0.034452
# 2 0.011109 0.037071 -0.008040 -0.065928 0.072482 -0.049327
# 3 -0.004684 -0.008040 0.013706 0.010659 -0.006428 0.002958
# 4 -0.035452 -0.065928 0.010659 0.180748 -0.198874 0.118089
# 5 0.039537 0.072482 -0.006428 -0.198874 0.262272 -0.146728
# 6 -0.034452 -0.049327 0.002958 0.118089 -0.146728 0.128976
#
#
# Mechanical properties :
#
#
# Convention : Reuss Voigt Hill
#
# Bulk Modulus (GPa) = 13.53453 54.96199 34.24826
# Shear Modulus (GPa) = 7.38586 33.12828 20.25707
#
# Velocity S-wave (km/s) = 1.87872 3.97888 3.11136
# Velocity P-wave (km/s) = 3.34276 6.88289 5.41056
#
# Compressibility (1/GPa) = 0.07388510
#
# Stress axis : x y z
#
# Youngs Moduli (GPa) = 37.96813 26.97518 72.96020
#
# Poissons Ratio (x) = -0.29967 0.34176
# Poissons Ratio (y) = -0.42179 0.58658
# Poissons Ratio (z) = 0.17785 0.21687
#
# Static dielectric constant tensor:
#      x y z
#    x 1.783910 0.052970 0.026850 
#    y 0.052970 1.757090 0.033410 
#    z 0.026850 0.033410 1.797240 
# 
# From -- ./inp_files/390525.got.cif
#   From: 2010.05.17/outbox.cif.g08.bks.cpg/sg2_196_cif.got.tgz:390525.got - 2010.06.03 11:33:40.
