data_PCOD9054632
_publ_section_title
;
Structure prediction by ZEFSAII (Michael W. Deem and Ramdas Pophale) SiO2 
 PCOD9054632
Probable space group: P -1
;
_chemical_formula_sum "Si O2"
_cell_formula_units_Z 14
_cell_length_a 5.948260
_cell_length_b 11.059301
_cell_length_c 10.902774
_cell_angle_alpha 130.513440
_cell_angle_beta 68.404801
_cell_angle_gamma 106.892559
_cell_volume 505.651287
_symmetry_space_group_name_H-M "P -1"
_symmetry_group_IT_number 2
_symmetry_cell_setting 'triclinic'
loop_
_space_group_symop_operation_xyz
x,y,z
-x,-y,-z
loop_
_atom_site_type_symbol
_atom_site_label
_atom_site_fract_x
_atom_site_fract_y
_atom_site_fract_z
Si Si1 0.581779 0.176629 0.245484
Si Si2 0.910578 0.218812 0.536650
Si Si3 0.444617 0.936554 0.331089
Si Si4 0.171689 0.480031 0.781585
Si Si5 0.331359 0.526109 0.401633
Si Si6 0.725164 0.631341 0.049009
Si Si7 0.093834 0.180236 0.225470
O O1 0.613889 0.358806 0.415101
O O2 0.376393 0.142339 0.158298
O O3 0.868254 0.139942 0.150188
O O4 0.472297 0.068092 0.308721
O O5 0.820677 0.143282 0.633197
O O6 0.722010 0.340952 0.603176
O O7 0.138844 0.338238 0.598446
O O8 0.974267 0.118840 0.339439
O O9 0.615958 0.799531 0.167668
O O10 0.500000 0.000000 0.500000
O O11 0.437715 0.555573 0.756270
O O12 0.167177 0.391905 0.853838
O O13 0.949847 0.591610 0.892375
O O14 0.133657 0.375698 0.353895
O O15 0.500000 0.500000 0.000000
#
# Coordination Sequence:
#
# PCOD9054632 Si02
#       7
#     2   2   2   2   2   2   2
#     4  11  23  39  58  97 131 174 209 273 335 379
#     4  11  21  37  61  99 129 168 212 272 331 387
#     4  12  22  40  65  95 140 163 214 278 337 396
#     4  11  21  37  67  88 127 171 224 261 325 389
#     4  11  21  38  61  96 130 170 221 272 321 387
#     4  11  23  42  59  96 131 172 218 264 327 404
#     4  11  24  38  63  96 138 169 224 271 325 388
#
# _framework density 27.687063999999999
#
# number of rings (size 3 to 8) (size 9 to 14) (size 15 to 20)
#    0.000    0.857    7.143    2.143    2.000    1.714 
#    0.000    0.000    0.000    1.714    0.000    0.000 
#    0.000    0.000    0.000    0.000    0.000    0.000 
#
# Total GULP energy -78177.354652 kJ/mol
# GULP energy per Si atom -5584.096761 kJ/mol
# Density = 2.762405 g / cm^3
# Si number density = 27.687064 Si / 1000 Ang^3
#
#
#
# Elastic Constant Matrix: (Units=GPa)
#
#
# Indices 1 2 3 4 5 6 
#
# 1 196.0688 12.3403 47.4428 10.8321 -14.7812 23.6786
# 2 12.3403 130.3397 -4.8001 24.9629 -2.4882 5.5013
# 3 47.4428 -4.8001 66.5255 20.3749 -30.6143 -4.8418
# 4 10.8321 24.9629 20.3749 28.7066 -7.0563 -0.2742
# 5 -14.7812 -2.4882 -30.6143 -7.0563 55.8922 -3.0600
# 6 23.6786 5.5013 -4.8418 -0.2742 -3.0600 44.1750
#
#
#
# Elastic Compliance Matrix: (Units=1/GPa)
#
#
# Indices 1 2 3 4 5 6 
#
# 1 0.007260 -0.001463 -0.007661 0.003392 -0.002169 -0.004678
# 2 -0.001463 0.010563 0.006786 -0.012910 0.002186 0.000284
# 3 -0.007661 0.006786 0.036332 -0.024915 0.015478 0.008161
# 4 0.003392 -0.012910 -0.024915 0.061015 -0.005784 -0.002963
# 5 -0.002169 0.002186 0.015478 -0.005784 0.025399 0.004310
# 6 -0.004678 0.000284 0.008161 -0.002963 0.004310 0.026284
#
#
# Mechanical properties :
#
#
# Convention : Reuss Voigt Hill
#
# Bulk Modulus (GPa) = 20.21015 55.87778 38.04396
# Shear Modulus (GPa) = 26.59257 48.28483 37.43870
#
# Velocity S-wave (km/s) = 3.10251 4.18059 3.68123
# Velocity P-wave (km/s) = 4.48881 6.59764 5.64262
#
# Compressibility (1/GPa) = 0.04948009
#
# Stress axis : x y z
#
# Youngs Moduli (GPa) = 137.74066 94.67039 27.52367
#
# Poissons Ratio (x) = 0.13851 0.21085
# Poissons Ratio (y) = 0.20153 -0.18678
# Poissons Ratio (z) = 1.05519 -0.64245
#
# Static dielectric constant tensor:
#      x y z
#    x 2.307030 0.013720 -0.010090 
#    y 0.013720 2.275900 0.037520 
#    z -0.010090 0.037520 2.183300 
# 
# From -- ./inp_files/76116.got.cif
#   From: 2010.05.17/outbox.cif.g08.bks.cpg/sg2_39_cif.got.tgz:76116.got - 2010.06.03 11:33:40.
