data_PCOD9054153
_publ_section_title
;
Structure prediction by ZEFSAII (Michael W. Deem and Ramdas Pophale) SiO2 
 PCOD9054153
Probable space group: P -1
;
_chemical_formula_sum "Si O2"
_cell_formula_units_Z 16
_cell_length_a 12.375043
_cell_length_b 10.435078
_cell_length_c 11.803565
_cell_angle_alpha 62.201381
_cell_angle_beta 135.296204
_cell_angle_gamma 83.770202
_cell_volume 670.700252
_symmetry_space_group_name_H-M "P -1"
_symmetry_group_IT_number 2
_symmetry_cell_setting 'triclinic'
loop_
_space_group_symop_operation_xyz
x,y,z
-x,-y,-z
loop_
_atom_site_type_symbol
_atom_site_label
_atom_site_fract_x
_atom_site_fract_y
_atom_site_fract_z
Si Si1 0.883090 0.519734 0.695633
Si Si2 0.480582 0.594256 0.742130
Si Si3 0.898915 0.346717 0.465011
Si Si4 0.604317 0.770305 0.158984
Si Si5 0.407801 0.872390 0.758279
Si Si6 0.057198 0.722972 0.739122
Si Si7 0.495739 0.666619 0.474696
Si Si8 0.245486 0.100227 0.013901
O O1 0.708734 0.660563 0.403561
O O2 0.736735 0.567803 0.671234
O O3 0.007667 0.586354 0.781042
O O4 0.061663 0.284773 0.885537
O O5 0.286928 0.618515 0.622321
O O6 0.505112 0.687309 0.826424
O O7 0.432954 0.703723 0.543841
O O8 0.722151 0.369776 0.002198
O O9 0.801075 0.575378 0.305499
O O10 0.927258 0.278502 0.385509
O O11 0.120652 0.179305 0.768295
O O12 0.417691 0.825416 0.917893
O O13 0.500000 0.000000 0.000000
O O14 0.549899 0.924377 0.825532
O O15 0.156865 0.056685 0.466221
O O16 0.500000 0.500000 0.500000
O O17 0.331609 0.885439 0.200188
#
# Coordination Sequence:
#
# PCOD9054153 Si02
#       8
#     2   2   2   2   2   2   2   2
#     4  11  23  43  74 115 141 196 245 306 363 437
#     4  12  29  51  67 109 161 193 243 309 377 445
#     4  11  26  46  77 109 156 198 241 316 371 435
#     4  11  20  40  74 108 151 183 246 299 361 441
#     4  12  25  43  75 114 147 194 244 309 380 432
#     4  12  24  45  74 111 151 190 244 301 378 445
#     4  12  28  50  78 104 148 200 253 306 365 451
#     4  11  24  47  77 111 144 190 258 305 365 440
#
# _framework density 23.855664000000001
#
# number of rings (size 3 to 8) (size 9 to 14) (size 15 to 20)
#    0.000    0.500    5.000    2.625    1.750    7.500 
#    0.000    0.000    0.000    0.000    0.000    0.000 
#    0.000    0.000    0.000    0.000    0.000    0.000 
#
# Total GULP energy -89418.783463 kJ/mol
# GULP energy per Si atom -5588.673966 kJ/mol
# Density = 2.380137 g / cm^3
# Si number density = 23.855664 Si / 1000 Ang^3
#
#
#
# Elastic Constant Matrix: (Units=GPa)
#
#
# Indices 1 2 3 4 5 6 
#
# 1 119.6181 13.4708 41.9284 -2.0881 14.9574 14.2234
# 2 13.4708 51.3193 20.9277 -8.2764 -9.4747 3.0731
# 3 41.9284 20.9277 138.8978 -23.5408 11.3028 19.2535
# 4 -2.0881 -8.2764 -23.5408 42.7529 0.7618 5.8733
# 5 14.9574 -9.4747 11.3028 0.7618 33.6095 -3.1726
# 6 14.2234 3.0731 19.2535 5.8733 -3.1726 35.3645
#
#
#
# Elastic Compliance Matrix: (Units=1/GPa)
#
#
# Indices 1 2 3 4 5 6 
#
# 1 0.010354 -0.002746 -0.001954 -0.000571 -0.005015 -0.003217
# 2 -0.002746 0.023477 -0.003221 0.002307 0.008989 0.001241
# 3 -0.001954 -0.003221 0.010459 0.005940 -0.004256 -0.005997
# 4 -0.000571 0.002307 0.005940 0.028239 -0.002500 -0.008119
# 5 -0.005015 0.008989 -0.004256 -0.002500 0.036693 0.007260
# 6 -0.003217 0.001241 -0.005997 -0.008119 0.007260 0.034727
#
#
# Mechanical properties :
#
#
# Convention : Reuss Voigt Hill
#
# Bulk Modulus (GPa) = 35.15282 51.38766 43.27024
# Shear Modulus (GPa) = 29.53770 37.91259 33.72514
#
# Velocity S-wave (km/s) = 3.52260 3.99086 3.76402
# Velocity P-wave (km/s) = 5.59576 6.54399 6.08837
#
# Compressibility (1/GPa) = 0.02844722
#
# Stress axis : x y z
#
# Youngs Moduli (GPa) = 96.58145 42.59429 95.61099
#
# Poissons Ratio (x) = 0.11697 0.18687
# Poissons Ratio (y) = 0.26523 0.30795
# Poissons Ratio (z) = 0.18876 0.13719
#
# Static dielectric constant tensor:
#      x y z
#    x 1.966400 0.032510 0.003050 
#    y 0.032510 1.912560 -0.012000 
#    z 0.003050 -0.012000 1.941730 
# 
# From -- ./inp_files/427892.got.cif
#   From: 2010.05.17/outbox.cif.g08.bks.cpg/sg2_214_cif.got.tgz:427892.got - 2010.06.03 11:33:40.
