data_PCOD9054867
_publ_section_title
;
Structure prediction by ZEFSAII (Michael W. Deem and Ramdas Pophale) SiO2 
 PCOD9054867
Probable space group: P -1
;
_chemical_formula_sum "Si O2"
_cell_formula_units_Z 14
_cell_length_a 7.203857
_cell_length_b 13.083196
_cell_length_c 10.045776
_cell_angle_alpha 101.924020
_cell_angle_beta 109.109188
_cell_angle_gamma 46.769278
_cell_volume 651.620130
_symmetry_space_group_name_H-M "P -1"
_symmetry_group_IT_number 2
_symmetry_cell_setting 'triclinic'
loop_
_space_group_symop_operation_xyz
x,y,z
-x,-y,-z
loop_
_atom_site_type_symbol
_atom_site_label
_atom_site_fract_x
_atom_site_fract_y
_atom_site_fract_z
Si Si1 0.697083 0.652288 0.863824
Si Si2 0.539721 0.934458 0.633697
Si Si3 0.097493 0.642140 0.075127
Si Si4 0.179556 0.533155 0.508714
Si Si5 0.960833 0.789232 0.341593
Si Si6 0.936308 0.337982 0.214420
Si Si7 0.364341 0.764583 0.585106
O O1 0.906820 0.611489 0.784642
O O2 0.416116 0.754866 0.753058
O O3 0.753722 0.517828 0.895801
O O4 0.792269 0.707447 0.004031
O O5 0.835231 0.822364 0.728754
O O6 0.456010 0.843588 0.575240
O O7 0.500000 0.000000 0.500000
O O8 0.338052 0.069785 0.714832
O O9 0.105479 0.720735 0.217019
O O10 0.185241 0.651557 0.952964
O O11 0.443780 0.395917 0.466463
O O12 0.000000 0.500000 0.500000
O O13 0.013617 0.665540 0.405788
O O14 0.231094 0.575918 0.671568
O O15 0.085949 0.833438 0.477408
#
# Coordination Sequence:
#
# PCOD9054867 Si02
#       7
#     2   2   2   2   2   2   2
#     4   8  16  33  56  80 116 142 186 231 275 337
#     4  11  21  39  58  84 113 154 193 230 275 345
#     4   9  17  34  55  85 112 146 187 229 278 343
#     4  12  18  35  60  83 110 151 191 231 271 339
#     4  12  23  34  61  87 117 146 190 237 285 330
#     4   9  18  33  56  80 109 142 192 228 265 324
#     4  11  22  37  57  90 114 146 189 243 282 328
#
# _framework density 21.484909999999999
#
# number of rings (size 3 to 8) (size 9 to 14) (size 15 to 20)
#    0.857    0.857    5.714    0.857    0.000    0.571 
#    0.000    0.714    0.000    0.857    0.000    0.000 
#    0.000    0.000    0.000    0.000    0.000    0.000 
#
# Total GULP energy -78011.908952 kJ/mol
# GULP energy per Si atom -5572.279211 kJ/mol
# Density = 2.143601 g / cm^3
# Si number density = 21.484910 Si / 1000 Ang^3
#
#
#
# Elastic Constant Matrix: (Units=GPa)
#
#
# Indices 1 2 3 4 5 6 
#
# 1 33.6827 15.4459 12.7851 -7.7105 1.3139 7.9401
# 2 15.4459 95.2630 23.8708 -10.4972 -16.0460 5.3495
# 3 12.7851 23.8708 116.1068 -15.2374 -9.0067 6.5189
# 4 -7.7105 -10.4972 -15.2374 27.1128 5.3932 -6.4236
# 5 1.3139 -16.0460 -9.0067 5.3932 32.2027 -3.3776
# 6 7.9401 5.3495 6.5189 -6.4236 -3.3776 28.4311
#
#
#
# Elastic Compliance Matrix: (Units=1/GPa)
#
#
# Indices 1 2 3 4 5 6 
#
# 1 0.036616 -0.005355 -0.002138 0.006567 -0.006703 -0.008041
# 2 -0.005355 0.012882 -0.001410 0.001585 0.006027 0.000469
# 3 -0.002138 -0.001410 0.009790 0.003991 0.001422 -0.000312
# 4 0.006567 0.001585 0.003991 0.044115 -0.005088 0.006316
# 5 -0.006703 0.006027 0.001422 -0.005088 0.035950 0.003533
# 6 -0.008041 0.000469 -0.000312 0.006316 0.003533 0.039248
#
#
# Mechanical properties :
#
#
# Convention : Reuss Voigt Hill
#
# Bulk Modulus (GPa) = 24.10639 38.80622 31.45630
# Shear Modulus (GPa) = 23.78293 30.41271 27.09782
#
# Velocity S-wave (km/s) = 3.33071 3.76645 3.55526
# Velocity P-wave (km/s) = 5.10255 6.08409 5.61481
#
# Compressibility (1/GPa) = 0.04148278
#
# Stress axis : x y z
#
# Youngs Moduli (GPa) = 27.31032 77.62630 102.14951
#
# Poissons Ratio (x) = 0.41571 0.21837
# Poissons Ratio (y) = 0.14625 0.14399
# Poissons Ratio (z) = 0.05838 0.10943
#
# Static dielectric constant tensor:
#      x y z
#    x 1.840280 -0.032920 0.039120 
#    y -0.032920 1.767170 -0.006770 
#    z 0.039120 -0.006770 1.878260 
# 
# From -- ./inp_files/396012.got.cif
#   From: 2010.05.17/outbox.cif.g08.bks.cpg/sg2_199_cif.got.tgz:396012.got - 2010.06.03 11:33:40.
