data_PCOD9054823
_publ_section_title
;
Structure prediction by ZEFSAII (Michael W. Deem and Ramdas Pophale) SiO2 
 PCOD9054823
Probable space group: P -1
;
_chemical_formula_sum "Si O2"
_cell_formula_units_Z 16
_cell_length_a 12.667774
_cell_length_b 8.683060
_cell_length_c 18.447027
_cell_angle_alpha 70.373526
_cell_angle_beta 22.557279
_cell_angle_gamma 79.887041
_cell_volume 680.377621
_symmetry_space_group_name_H-M "P -1"
_symmetry_group_IT_number 2
_symmetry_cell_setting 'triclinic'
loop_
_space_group_symop_operation_xyz
x,y,z
-x,-y,-z
loop_
_atom_site_type_symbol
_atom_site_label
_atom_site_fract_x
_atom_site_fract_y
_atom_site_fract_z
Si Si1 0.047175 0.216435 0.148895
Si Si2 0.166414 0.481286 0.731591
Si Si3 0.115481 0.453165 0.605167
Si Si4 0.752010 0.040675 0.769432
Si Si5 0.474234 0.326636 0.001471
Si Si6 0.312374 0.148328 0.496536
Si Si7 0.197811 0.883823 0.905327
Si Si8 0.462777 0.817323 0.252830
O O1 0.866518 0.345064 0.241922
O O2 0.269846 0.283506 0.066481
O O3 0.254378 0.223445 0.948429
O O4 0.842680 0.012392 0.324504
O O5 0.500000 0.500000 0.500000
O O6 0.021517 0.449528 0.748584
O O7 0.002489 0.308983 0.909751
O O8 0.319585 0.337055 0.488294
O O9 0.273421 0.652484 0.447717
O O10 0.817789 0.359459 0.762314
O O11 0.702514 0.155526 0.718310
O O12 0.077831 0.106857 0.585370
O O13 0.500000 0.000000 0.000000
O O14 0.671862 0.839515 0.826711
O O15 0.500000 0.500000 0.000000
O O16 0.613991 0.136883 0.278937
O O17 0.427843 0.001126 0.801090
O O18 0.000000 0.000000 0.000000
#
# Coordination Sequence:
#
# PCOD9054823 Si02
#       8
#     2   2   2   2   2   2   2   2
#     4  11  22  42  69 100 133 179 216 276 336 399
#     4  12  26  46  70  95 131 173 226 285 337 393
#     4  12  24  42  67 101 135 180 223 270 336 401
#     4  11  21  43  66 101 139 177 218 275 335 403
#     4  11  21  38  67  95 139 175 221 266 335 401
#     4  11  23  44  71  98 141 175 226 275 338 396
#     4  12  28  48  69  99 132 176 234 283 332 398
#     4  12  25  42  69 101 139 177 224 276 331 404
#
# _framework density 23.516352999999999
#
# number of rings (size 3 to 8) (size 9 to 14) (size 15 to 20)
#    0.000    0.500    5.000    4.500    1.750    4.500 
#    0.000    5.000    0.000    0.000    0.000    0.000 
#    0.000    0.000    0.000    0.000    0.000    0.000 
#
# Total GULP energy -89584.754971 kJ/mol
# GULP energy per Si atom -5599.047186 kJ/mol
# Density = 2.346283 g / cm^3
# Si number density = 23.516353 Si / 1000 Ang^3
#
#
#
# Elastic Constant Matrix: (Units=GPa)
#
#
# Indices 1 2 3 4 5 6 
#
# 1 51.9651 -2.1284 -1.3427 -0.2826 -2.8494 -11.4226
# 2 -2.1284 129.9180 9.2943 -0.2775 5.5690 -13.4600
# 3 -1.3427 9.2943 80.2373 -3.2916 0.7173 -16.1926
# 4 -0.2826 -0.2775 -3.2916 50.3883 -4.9589 -0.3382
# 5 -2.8494 5.5690 0.7173 -4.9589 29.9701 2.7295
# 6 -11.4226 -13.4600 -16.1926 -0.3382 2.7295 39.0190
#
#
#
# Elastic Compliance Matrix: (Units=1/GPa)
#
#
# Indices 1 2 3 4 5 6 
#
# 1 0.020944 0.000904 0.001676 0.000398 0.001206 0.007057
# 2 0.000904 0.008124 -0.000297 -0.000118 -0.001715 0.003062
# 3 0.001676 -0.000297 0.013811 0.000899 -0.000529 0.006164
# 4 0.000398 -0.000118 0.000899 0.020239 0.003351 0.000390
# 5 0.001206 -0.001715 -0.000529 0.003351 0.034627 -0.002851
# 6 0.007057 0.003062 0.006164 0.000390 -0.002851 0.031512
#
#
# Mechanical properties :
#
#
# Convention : Reuss Voigt Hill
#
# Bulk Modulus (GPa) = 21.07842 30.41852 25.74847
# Shear Modulus (GPa) = 35.58561 40.96196 38.27379
#
# Velocity S-wave (km/s) = 3.89424 4.17808 4.03865
# Velocity P-wave (km/s) = 5.40397 6.01982 5.72019
#
# Compressibility (1/GPa) = 0.04744189
#
# Stress axis : x y z
#
# Youngs Moduli (GPa) = 47.74737 123.09544 72.40540
#
# Poissons Ratio (x) = -0.11122 -0.12132
# Poissons Ratio (y) = -0.04314 0.02153
# Poissons Ratio (z) = -0.08000 0.03661
#
# Static dielectric constant tensor:
#      x y z
#    x 1.996390 0.020360 -0.042680 
#    y 0.020360 1.958350 0.060320 
#    z -0.042680 0.060320 1.846160 
# 
# From -- ./inp_files/319444.got.cif
#   From: 2010.05.17/outbox.cif.g08.bks.cpg/sg2_160_cif.got.tgz:319444.got - 2010.06.03 11:33:40.
