data_PCOD9055467
_publ_section_title
;
Structure prediction by ZEFSAII (Michael W. Deem and Ramdas Pophale) SiO2 
 PCOD9055467
Probable space group: P -1
;
_chemical_formula_sum "Si O2"
_cell_formula_units_Z 16
_cell_length_a 17.328555
_cell_length_b 13.317396
_cell_length_c 8.071519
_cell_angle_alpha 76.779021
_cell_angle_beta 86.450599
_cell_angle_gamma 23.141626
_cell_volume 656.848062
_symmetry_space_group_name_H-M "P -1"
_symmetry_group_IT_number 2
_symmetry_cell_setting 'triclinic'
loop_
_space_group_symop_operation_xyz
x,y,z
-x,-y,-z
loop_
_atom_site_type_symbol
_atom_site_label
_atom_site_fract_x
_atom_site_fract_y
_atom_site_fract_z
Si Si1 0.152497 0.453180 0.511654
Si Si2 0.512191 0.149382 0.744220
Si Si3 0.362045 0.033582 0.860090
Si Si4 0.171938 0.523651 0.148600
Si Si5 0.805960 0.071943 0.791331
Si Si6 0.281496 0.950342 0.486911
Si Si7 0.264060 0.631753 0.179845
Si Si8 0.468180 0.375953 0.910813
O O1 0.344485 0.287437 0.619107
O O2 0.200505 0.286523 0.661681
O O3 0.162575 0.445637 0.314627
O O4 0.926515 0.774333 0.481727
O O5 0.675297 0.006061 0.657954
O O6 0.390872 0.393134 0.770134
O O7 0.635535 0.937148 0.957567
O O8 0.597800 0.762315 0.859501
O O9 0.353675 0.920374 0.916329
O O10 0.161173 0.646759 0.201741
O O11 0.989048 0.766075 0.945695
O O12 0.856116 0.127411 0.802467
O O13 0.755660 0.104235 0.599657
O O14 0.593112 0.312888 0.834942
O O15 0.502179 0.666172 0.659984
O O16 0.305730 0.603748 0.990581
#
# Coordination Sequence:
#
# PCOD9055467 Si02
#       8
#     2   2   2   2   2   2   2   2
#     4  12  22  40  66  94 131 171 204 253 326 368
#     4   9  20  40  61  90 134 162 206 264 303 365
#     4   9  21  41  63  90 126 174 201 261 315 370
#     4  11  23  41  64  95 127 162 219 258 306 382
#     4  11  22  41  64  92 124 169 209 260 320 371
#     4  11  24  40  65  97 129 161 214 259 309 385
#     4  11  21  42  65  88 128 168 207 265 317 361
#     4   8  20  38  61  88 122 160 215 256 306 365
#
# _framework density 24.358754000000001
#
# number of rings (size 3 to 8) (size 9 to 14) (size 15 to 20)
#    0.750    1.000    1.250    3.375    0.000    0.500 
#    2.250    3.750    0.000    0.000    0.000    0.000 
#    0.000    0.000    0.000    0.000    0.000    0.000 
#
# Total GULP energy -89456.230114 kJ/mol
# GULP energy per Si atom -5591.014382 kJ/mol
# Density = 2.430331 g / cm^3
# Si number density = 24.358754 Si / 1000 Ang^3
#
#
#
# Elastic Constant Matrix: (Units=GPa)
#
#
# Indices 1 2 3 4 5 6 
#
# 1 58.8704 3.6080 -8.4554 -0.7108 4.7015 9.2244
# 2 3.6080 29.5169 2.6607 -1.0322 -10.2386 -15.4375
# 3 -8.4554 2.6607 63.0688 -8.5068 -0.0502 -11.5358
# 4 -0.7108 -1.0322 -8.5068 33.4439 -4.1490 -0.7525
# 5 4.7015 -10.2386 -0.0502 -4.1490 35.5467 6.1877
# 6 9.2244 -15.4375 -11.5358 -0.7525 6.1877 31.0393
#
#
#
# Elastic Compliance Matrix: (Units=1/GPa)
#
#
# Indices 1 2 3 4 5 6 
#
# 1 0.019304 -0.008186 0.001335 -0.000121 -0.003421 -0.008633
# 2 -0.008186 0.053441 0.002256 0.004179 0.012175 0.027524
# 3 0.001335 0.002256 0.017973 0.004808 -0.000259 0.007573
# 4 -0.000121 0.004179 0.004808 0.031867 0.004281 0.003820
# 5 -0.003421 0.012175 -0.000259 0.004281 0.032485 0.000604
# 6 -0.008633 0.027524 0.007573 0.003820 0.000604 0.051259
#
#
# Mechanical properties :
#
#
# Convention : Reuss Voigt Hill
#
# Bulk Modulus (GPa) = 12.26568 16.34255 14.30411
# Shear Modulus (GPa) = 20.60196 30.24883 25.42539
#
# Velocity S-wave (km/s) = 2.91137 3.52775 3.23428
# Velocity P-wave (km/s) = 4.04324 4.82877 4.45336
#
# Compressibility (1/GPa) = 0.08152830
#
# Stress axis : x y z
#
# Youngs Moduli (GPa) = 51.80181 18.71234 55.63904
#
# Poissons Ratio (x) = 0.15318 -0.07429
# Poissons Ratio (y) = 0.42404 -0.12551
# Poissons Ratio (z) = -0.06917 -0.04221
#
# Static dielectric constant tensor:
#      x y z
#    x 1.985150 0.059760 -0.007860 
#    y 0.059760 1.896570 0.001040 
#    z -0.007860 0.001040 1.967830 
# 
# From -- ./inp_files/347231.got.cif
#   From: 2010.05.17/outbox.cif.g08.bks.cpg/sg2_174_cif.got.tgz:347231.got - 2010.06.03 11:33:40.
