data_PCOD9055061
_publ_section_title
;
Structure prediction by ZEFSAII (Michael W. Deem and Ramdas Pophale) SiO2 
 PCOD9055061
Probable space group: P -1
;
_chemical_formula_sum "Si O2"
_cell_formula_units_Z 12
_cell_length_a 11.136048
_cell_length_b 5.644059
_cell_length_c 14.496632
_cell_angle_alpha 118.166749
_cell_angle_beta 31.030094
_cell_angle_gamma 117.407981
_cell_volume 410.928321
_symmetry_space_group_name_H-M "P -1"
_symmetry_group_IT_number 2
_symmetry_cell_setting 'triclinic'
loop_
_space_group_symop_operation_xyz
x,y,z
-x,-y,-z
loop_
_atom_site_type_symbol
_atom_site_label
_atom_site_fract_x
_atom_site_fract_y
_atom_site_fract_z
Si Si1 0.249454 0.842618 0.374424
Si Si2 0.310381 0.651221 0.601757
Si Si3 0.519915 0.566076 0.731602
Si Si4 0.874933 0.975728 0.806521
Si Si5 0.139833 0.150708 0.852033
Si Si6 0.178373 0.573187 0.184273
O O1 0.402206 0.602532 0.262376
O O2 0.116449 0.715240 0.347433
O O3 0.064585 0.910537 0.589461
O O4 0.406210 0.117343 0.283872
O O5 0.500000 0.500000 0.500000
O O6 0.344434 0.585457 0.462195
O O7 0.656540 0.045760 0.328661
O O8 0.037178 0.536618 0.762321
O O9 0.252270 0.451765 0.858762
O O10 0.733223 0.700428 0.888337
O O11 0.713269 0.183746 0.907570
O O12 0.014583 0.103038 0.827370
O O13 0.000000 0.000000 0.000000
#
# Coordination Sequence:
#
# PCOD9055061 Si02
#       6
#     2   2   2   2   2   2
#     4  12  22  39  66 108 134 175 226 293 349 404
#     4  11  22  42  70 103 133 176 234 289 338 398
#     4  12  24  39  69 100 139 170 236 288 342 407
#     4  11  21  40  64  98 133 180 225 280 340 410
#     4  11  26  46  68  99 142 189 230 285 354 415
#     4  11  22  37  67 105 140 169 223 297 350 399
#
# _framework density 29.202172999999998
#
# number of rings (size 3 to 8) (size 9 to 14) (size 15 to 20)
#    0.000    0.667    5.000    4.500    0.000    1.333 
#    0.000   13.333    0.000   14.000    0.000    0.000 
#    0.000    0.000    0.000    0.000    0.000    0.000 
#
# Total GULP energy -67109.688423 kJ/mol
# GULP energy per Si atom -5592.474035 kJ/mol
# Density = 2.913571 g / cm^3
# Si number density = 29.202173 Si / 1000 Ang^3
#
#
#
# Elastic Constant Matrix: (Units=GPa)
#
#
# Indices 1 2 3 4 5 6 
#
# 1 188.2465 100.2498 22.1207 -13.5027 20.1744 -18.4131
# 2 100.2498 275.3230 68.9739 -28.5858 -1.7004 -31.5164
# 3 22.1207 68.9739 96.5062 -17.4055 25.3221 0.8891
# 4 -13.5027 -28.5858 -17.4055 64.6905 -1.9767 -0.2081
# 5 20.1744 -1.7004 25.3221 -1.9767 39.4140 -7.6817
# 6 -18.4131 -31.5164 0.8891 -0.2081 -7.6817 75.8579
#
#
#
# Elastic Compliance Matrix: (Units=1/GPa)
#
#
# Indices 1 2 3 4 5 6 
#
# 1 0.007350 -0.003177 0.002046 0.000522 -0.005204 -0.000085
# 2 -0.003177 0.006573 -0.005370 0.000986 0.005921 0.002625
# 3 0.002046 -0.005370 0.017636 0.002388 -0.013126 -0.003264
# 4 0.000522 0.000986 0.002388 0.016621 -0.000833 0.000470
# 5 -0.005204 0.005921 -0.013126 -0.000833 0.037688 0.005165
# 6 -0.000085 0.002625 -0.003264 0.000470 0.005165 0.014815
#
#
# Mechanical properties :
#
#
# Convention : Reuss Voigt Hill
#
# Bulk Modulus (GPa) = 53.88380 104.75162 79.31771
# Shear Modulus (GPa) = 41.71138 60.57456 51.14297
#
# Velocity S-wave (km/s) = 3.78347 4.55941 4.18944
# Velocity P-wave (km/s) = 6.13011 7.97914 7.11495
#
# Compressibility (1/GPa) = 0.01855845
#
# Stress axis : x y z
#
# Youngs Moduli (GPa) = 136.04871 152.12612 56.70354
#
# Poissons Ratio (x) = 0.48325 -0.11602
# Poissons Ratio (y) = 0.43218 0.30449
# Poissons Ratio (z) = -0.27836 0.81689
#
# Static dielectric constant tensor:
#      x y z
#    x 2.468240 0.088400 -0.323520 
#    y 0.088400 2.535200 -0.284910 
#    z -0.323520 -0.284910 2.857800 
# 
# From -- ./inp_files/509903.got.cif
#   From: 2010.05.17/outbox.cif.g08.bks.cpg/sg2_255_cif.got.tgz:509903.got - 2010.06.03 11:33:40.
