data_PCOD9055520
_publ_section_title
;
Structure prediction by ZEFSAII (Michael W. Deem and Ramdas Pophale) SiO2 
 PCOD9055520
Probable space group: P -1
;
_chemical_formula_sum "Si O2"
_cell_formula_units_Z 16
_cell_length_a 8.559867
_cell_length_b 13.076567
_cell_length_c 12.625773
_cell_angle_alpha 81.427490
_cell_angle_beta 144.307002
_cell_angle_gamma 109.635830
_cell_volume 756.615899
_symmetry_space_group_name_H-M "P -1"
_symmetry_group_IT_number 2
_symmetry_cell_setting 'triclinic'
loop_
_space_group_symop_operation_xyz
x,y,z
-x,-y,-z
loop_
_atom_site_type_symbol
_atom_site_label
_atom_site_fract_x
_atom_site_fract_y
_atom_site_fract_z
Si Si1 0.935044 0.765300 0.013362
Si Si2 0.691251 0.660056 0.319578
Si Si3 0.950220 0.385520 0.056516
Si Si4 0.540680 0.936572 0.281795
Si Si5 0.933681 0.328816 0.290682
Si Si6 0.469057 0.557089 0.866908
Si Si7 0.374473 0.113039 0.042155
Si Si8 0.961386 0.885682 0.355805
O O1 0.909598 0.699835 0.898257
O O2 0.271431 0.838129 0.199479
O O3 0.779903 0.656111 0.014666
O O4 0.756744 0.841087 0.937706
O O5 0.393396 0.675858 0.132227
O O6 0.622078 0.535454 0.259646
O O7 0.932689 0.757512 0.371606
O O8 0.793822 0.672809 0.494654
O O9 0.013661 0.394775 0.214423
O O10 0.000000 0.500000 0.000000
O O11 0.759571 0.899809 0.338162
O O12 0.411373 0.001935 0.118498
O O13 0.726479 0.024453 0.458265
O O14 0.772740 0.390673 0.264207
O O15 0.686417 0.204722 0.164980
O O16 0.500000 0.500000 0.000000
O O17 0.163953 0.097338 0.828505
#
# Coordination Sequence:
#
# PCOD9055520 Si02
#       8
#     2   2   2   2   2   2   2   2
#     4  11  23  40  64  93 129 165 207 260 319 369
#     4  12  21  40  68  93 126 162 215 256 309 381
#     4  12  23  43  63  92 132 165 207 266 315 371
#     4  11  23  42  64  93 128 161 215 263 309 375
#     4  11  23  39  67  95 122 169 214 251 315 381
#     4  11  21  42  68  94 126 171 205 259 317 375
#     4  11  22  42  65  91 126 167 210 258 316 370
#     4  11  23  40  69  94 122 169 212 257 315 376
#
# _framework density 21.146794
#
# number of rings (size 3 to 8) (size 9 to 14) (size 15 to 20)
#    0.000    0.750    6.250    1.875    0.000    1.000 
#    0.000    1.250    2.750    0.000    0.000    0.000 
#    0.000    0.000    0.000    0.000    0.000    0.000 
#
# Total GULP energy -89236.659289 kJ/mol
# GULP energy per Si atom -5577.291206 kJ/mol
# Density = 2.109866 g / cm^3
# Si number density = 21.146794 Si / 1000 Ang^3
#
#
#
# Elastic Constant Matrix: (Units=GPa)
#
#
# Indices 1 2 3 4 5 6 
#
# 1 48.2219 12.5396 -3.4828 6.5191 -2.0935 8.1696
# 2 12.5396 86.2891 39.6224 21.3017 -0.3695 13.2699
# 3 -3.4828 39.6224 98.9050 -5.8138 -22.1223 21.1555
# 4 6.5191 21.3017 -5.8138 39.7649 7.8728 1.8436
# 5 -2.0935 -0.3695 -22.1223 7.8728 17.8182 0.4857
# 6 8.1696 13.2699 21.1555 1.8436 0.4857 21.6809
#
#
#
# Elastic Compliance Matrix: (Units=1/GPa)
#
#
# Indices 1 2 3 4 5 6 
#
# 1 0.027062 -0.005432 0.010784 -0.002727 0.018140 -0.017570
# 2 -0.005432 0.019470 -0.011277 -0.009269 -0.010199 0.002151
# 3 0.010784 -0.011277 0.029042 0.002480 0.036719 -0.026533
# 4 -0.002727 -0.009269 0.002480 0.033253 -0.012173 0.001726
# 5 0.018140 -0.010199 0.036719 -0.012173 0.110041 -0.037852
# 6 -0.017570 0.002151 -0.026533 0.001726 -0.037852 0.078020
#
#
# Mechanical properties :
#
#
# Convention : Reuss Voigt Hill
#
# Bulk Modulus (GPa) = 15.69248 36.75271 26.22260
# Shear Modulus (GPa) = 15.15247 28.16859 21.66053
#
# Velocity S-wave (km/s) = 2.67973 3.65369 3.20393
# Velocity P-wave (km/s) = 4.12449 5.93437 5.11019
#
# Compressibility (1/GPa) = 0.06372479
#
# Stress axis : x y z
#
# Youngs Moduli (GPa) = 36.95260 51.35981 34.43234
#
# Poissons Ratio (x) = 0.27897 -0.37133
# Poissons Ratio (y) = 0.20072 0.38831
# Poissons Ratio (z) = -0.39851 0.57921
#
# Static dielectric constant tensor:
#      x y z
#    x 1.836710 -0.010700 0.007650 
#    y -0.010700 1.803650 0.029930 
#    z 0.007650 0.029930 1.728370 
# 
# From -- ./inp_files/397404.got.cif
#   From: 2010.05.17/outbox.cif.g08.bks.cpg/sg2_199_cif.got.tgz:397404.got - 2010.06.03 11:33:40.
