data_PCOD9055351
_publ_section_title
;
Structure prediction by ZEFSAII (Michael W. Deem and Ramdas Pophale) SiO2 
 PCOD9055351
Probable space group: P -1
;
_chemical_formula_sum "Si O2"
_cell_formula_units_Z 16
_cell_length_a 9.775468
_cell_length_b 11.349919
_cell_length_c 9.914221
_cell_angle_alpha 90.737398
_cell_angle_beta 138.050083
_cell_angle_gamma 93.516706
_cell_volume 731.112380
_symmetry_space_group_name_H-M "P -1"
_symmetry_group_IT_number 2
_symmetry_cell_setting 'triclinic'
loop_
_space_group_symop_operation_xyz
x,y,z
-x,-y,-z
loop_
_atom_site_type_symbol
_atom_site_label
_atom_site_fract_x
_atom_site_fract_y
_atom_site_fract_z
Si Si1 0.773081 0.881673 0.725104
Si Si2 0.484400 0.770205 0.740817
Si Si3 0.515086 0.747936 0.321842
Si Si4 0.175896 0.456341 0.721885
Si Si5 0.425957 0.483475 0.157157
Si Si6 0.610654 0.883443 0.114427
Si Si7 0.860834 0.147434 0.818939
Si Si8 0.001420 0.798623 0.357674
O O1 0.611276 0.856055 0.728703
O O2 0.713471 0.794790 0.556495
O O3 0.779501 0.019573 0.695736
O O4 0.996544 0.867761 0.948635
O O5 0.546019 0.638822 0.746937
O O6 0.242967 0.792066 0.564757
O O7 0.555927 0.797394 0.946006
O O8 0.470781 0.607270 0.269270
O O9 0.530129 0.819989 0.192723
O O10 0.328078 0.787080 0.272788
O O11 0.382151 0.511260 0.803614
O O12 0.000000 0.500000 0.500000
O O13 0.127157 0.315516 0.673986
O O14 0.219495 0.482545 0.913607
O O15 0.861728 0.902294 0.297818
O O16 0.500000 0.000000 0.000000
O O17 0.997901 0.211945 0.803876
#
# Coordination Sequence:
#
# PCOD9055351 Si02
#       8
#     2   2   2   2   2   2   2   2
#     4  11  25  47  72  96 142 190 236 284 355 421
#     4  12  24  47  74 100 144 196 229 282 361 430
#     4  12  26  43  69 112 140 175 240 301 343 406
#     4  11  21  41  69 100 139 194 231 278 355 425
#     4  11  23  42  69 102 146 181 232 298 348 408
#     4  12  27  45  69 107 144 174 238 302 338 415
#     4  11  25  47  73  96 139 197 232 282 358 428
#     4  12  24  44  74 101 134 193 237 271 363 424
#
# _framework density 21.884459
#
# number of rings (size 3 to 8) (size 9 to 14) (size 15 to 20)
#    0.000    0.500    6.250    1.875    3.500    3.000 
#    0.000    1.250    0.000    0.000    0.000    0.000 
#    0.000    0.000    0.000    0.000    0.000    0.000 
#
# Total GULP energy -89295.132011 kJ/mol
# GULP energy per Si atom -5580.945751 kJ/mol
# Density = 2.183465 g / cm^3
# Si number density = 21.884459 Si / 1000 Ang^3
#
#
#
# Elastic Constant Matrix: (Units=GPa)
#
#
# Indices 1 2 3 4 5 6 
#
# 1 45.8109 -15.5217 -18.5234 -1.3714 0.3429 9.6289
# 2 -15.5217 418.4357 283.3008 -167.8549 -26.5377 -86.8865
# 3 -18.5234 283.3008 307.6500 -124.8723 -9.0631 -76.5660
# 4 -1.3714 -167.8549 -124.8723 118.8019 16.4889 38.4242
# 5 0.3429 -26.5377 -9.0631 16.4889 29.3213 3.0318
# 6 9.6289 -86.8865 -76.5660 38.4242 3.0318 51.2524
#
#
#
# Elastic Compliance Matrix: (Units=1/GPa)
#
#
# Indices 1 2 3 4 5 6 
#
# 1 0.023679 0.000608 0.001482 0.004257 -0.001216 -0.004324
# 2 0.000608 0.009089 -0.004950 0.006271 0.002849 0.003030
# 3 0.001482 -0.004950 0.009912 0.002440 -0.003271 0.004502
# 4 0.004257 0.006271 0.002440 0.021358 -0.005402 -0.002217
# 5 -0.001216 0.002849 -0.003271 -0.005402 0.038524 0.001943
# 6 -0.004324 0.003030 0.004502 -0.002217 0.001943 0.033733
#
#
# Mechanical properties :
#
#
# Convention : Reuss Voigt Hill
#
# Bulk Modulus (GPa) = 27.05592 141.15644 84.10618
# Shear Modulus (GPa) = 32.39693 74.71784 53.55739
#
# Velocity S-wave (km/s) = 3.85172 5.84945 4.95237
# Velocity P-wave (km/s) = 5.67194 10.50058 8.43899
#
# Compressibility (1/GPa) = 0.03696048
#
# Stress axis : x y z
#
# Youngs Moduli (GPa) = 42.23070 110.02333 100.88375
#
# Poissons Ratio (x) = -0.06686 -0.14952
# Poissons Ratio (y) = -0.02566 0.49936
# Poissons Ratio (z) = -0.06259 0.54460
#
# Static dielectric constant tensor:
#      x y z
#    x 1.781060 -0.030520 0.014250 
#    y -0.030520 1.822190 -0.025920 
#    z 0.014250 -0.025920 1.917750 
# 
# From -- ./inp_files/188003.got.cif
#   From: 2010.05.17/outbox.cif.g08.bks.cpg/sg2_95_cif.got.tgz:188003.got - 2010.06.03 11:33:40.
