data_PCOD9055031
_publ_section_title
;
Structure prediction by ZEFSAII (Michael W. Deem and Ramdas Pophale) SiO2 
 PCOD9055031
Probable space group: P -1
;
_chemical_formula_sum "Si O2"
_cell_formula_units_Z 14
_cell_length_a 8.222219
_cell_length_b 9.513592
_cell_length_c 12.204001
_cell_angle_alpha 128.377872
_cell_angle_beta 63.488672
_cell_angle_gamma 127.114656
_cell_volume 592.826641
_symmetry_space_group_name_H-M "P -1"
_symmetry_group_IT_number 2
_symmetry_cell_setting 'triclinic'
loop_
_space_group_symop_operation_xyz
x,y,z
-x,-y,-z
loop_
_atom_site_type_symbol
_atom_site_label
_atom_site_fract_x
_atom_site_fract_y
_atom_site_fract_z
Si Si1 0.677476 0.403733 0.784156
Si Si2 0.641402 0.015353 0.362420
Si Si3 0.145278 0.404330 0.943563
Si Si4 0.455449 0.339177 0.183998
Si Si5 0.335117 0.689700 0.689986
Si Si6 0.992390 0.343721 0.520500
Si Si7 0.140323 0.928982 0.993889
O O1 0.452202 0.210647 0.765173
O O2 0.739665 0.507531 0.932809
O O3 0.682753 0.558082 0.763207
O O4 0.838027 0.330801 0.658256
O O5 0.500000 0.000000 0.500000
O O6 0.605156 0.155575 0.353465
O O7 0.876125 0.129068 0.389518
O O8 0.321695 0.493198 0.842682
O O9 0.000000 0.500000 0.000000
O O10 0.988026 0.173026 0.907289
O O11 0.485093 0.294482 0.277884
O O12 0.356425 0.124298 0.047753
O O13 0.211572 0.462404 0.569805
O O14 0.189354 0.761866 0.838397
O O15 0.000000 0.500000 0.500000
O O16 0.000000 0.000000 0.000000
#
# Coordination Sequence:
#
# PCOD9055031 Si02
#       7
#     2   2   2   2   2   2   2
#     4  11  21  40  60  90 125 164 203 259 315 360
#     4   9  21  37  64  86 110 158 210 257 312 362
#     4  12  24  40  62  92 133 168 208 251 307 381
#     4  12  25  40  59  97 132 163 208 255 307 387
#     4  11  21  40  63  87 125 163 202 260 314 366
#     4   9  18  39  62  84 112 156 212 256 306 368
#     4  12  24  40  62  95 128 170 207 247 312 380
#
# _framework density 23.615673999999999
#
# number of rings (size 3 to 8) (size 9 to 14) (size 15 to 20)
#    0.000    1.143    4.286    1.714    4.000    0.000 
#    0.000    7.143    0.000    0.000    0.000    0.000 
#    0.000    0.000    0.000    0.000    0.000    0.000 
#
# Total GULP energy -78186.957077 kJ/mol
# GULP energy per Si atom -5584.782648 kJ/mol
# Density = 2.356192 g / cm^3
# Si number density = 23.615674 Si / 1000 Ang^3
#
#
#
# Elastic Constant Matrix: (Units=GPa)
#
#
# Indices 1 2 3 4 5 6 
#
# 1 88.7587 16.5234 30.5351 10.8577 25.4670 -22.9780
# 2 16.5234 120.1702 21.2860 1.3909 7.8568 -3.0918
# 3 30.5351 21.2860 63.3047 -4.0854 11.5851 -8.8922
# 4 10.8577 1.3909 -4.0854 36.9500 7.5846 4.7392
# 5 25.4670 7.8568 11.5851 7.5846 43.7576 -5.9374
# 6 -22.9780 -3.0918 -8.8922 4.7392 -5.9374 32.6277
#
#
#
# Elastic Compliance Matrix: (Units=1/GPa)
#
#
# Indices 1 2 3 4 5 6 
#
# 1 0.019395 -0.000669 -0.006709 -0.006514 -0.006703 0.011493
# 2 -0.000669 0.008910 -0.002653 -0.000275 -0.000515 -0.000404
# 3 -0.006709 -0.002653 0.020530 0.004796 -0.001944 -0.000432
# 4 -0.006514 -0.000275 0.004796 0.031454 -0.004050 -0.008612
# 5 -0.006703 -0.000515 -0.001944 -0.004050 0.028118 0.000406
# 6 0.011493 -0.000404 -0.000432 -0.008612 0.000406 0.039912
#
#
# Mechanical properties :
#
#
# Convention : Reuss Voigt Hill
#
# Bulk Modulus (GPa) = 34.75775 45.43584 40.09680
# Shear Modulus (GPa) = 28.09427 36.25967 32.17697
#
# Velocity S-wave (km/s) = 3.45286 3.92268 3.69525
# Velocity P-wave (km/s) = 5.53592 6.30857 5.93483
#
# Compressibility (1/GPa) = 0.02877056
#
# Stress axis : x y z
#
# Youngs Moduli (GPa) = 51.56089 112.23348 48.70989
#
# Poissons Ratio (x) = 0.07508 0.32682
# Poissons Ratio (y) = 0.03449 0.12925
# Poissons Ratio (z) = 0.34594 0.29780
#
# Static dielectric constant tensor:
#      x y z
#    x 1.935950 0.069370 -0.057730 
#    y 0.069370 1.912570 0.010060 
#    z -0.057730 0.010060 1.965680 
# 
# From -- ./inp_files/168887.got.cif
#   From: 2010.05.17/outbox.cif.g08.bks.cpg/sg2_85_cif.got.tgz:168887.got - 2010.06.03 11:33:40.
