data_PCOD9055172
_publ_section_title
;
Structure prediction by ZEFSAII (Michael W. Deem and Ramdas Pophale) SiO2 
 PCOD9055172
Probable space group: P -1
;
_chemical_formula_sum "Si O2"
_cell_formula_units_Z 14
_cell_length_a 5.375978
_cell_length_b 15.521544
_cell_length_c 11.848092
_cell_angle_alpha 58.285829
_cell_angle_beta 53.759960
_cell_angle_gamma 73.658824
_cell_volume 677.701009
_symmetry_space_group_name_H-M "P -1"
_symmetry_group_IT_number 2
_symmetry_cell_setting 'triclinic'
loop_
_space_group_symop_operation_xyz
x,y,z
-x,-y,-z
loop_
_atom_site_type_symbol
_atom_site_label
_atom_site_fract_x
_atom_site_fract_y
_atom_site_fract_z
Si Si1 0.351912 0.268303 0.896930
Si Si2 0.709024 0.082806 0.322528
Si Si3 0.825768 0.951051 0.973160
Si Si4 0.147517 0.582371 0.987265
Si Si5 0.241400 0.568394 0.463074
Si Si6 0.255617 0.208900 0.203979
Si Si7 0.799254 0.607536 0.752194
O O1 0.590168 0.345669 0.718521
O O2 0.059041 0.332041 0.967216
O O3 0.252312 0.170339 0.917266
O O4 0.447063 0.228398 0.022866
O O5 0.476278 0.153265 0.269256
O O6 0.935972 0.034353 0.204140
O O7 0.948404 0.143175 0.299074
O O8 0.500000 0.000000 0.500000
O O9 0.500000 0.000000 0.000000
O O10 0.000000 0.000000 0.000000
O O11 0.216912 0.510703 0.125405
O O12 0.443369 0.626257 0.810418
O O13 0.000000 0.500000 0.000000
O O14 0.500000 0.500000 0.500000
O O15 0.000000 0.500000 0.500000
O O16 0.042444 0.618871 0.579986
O O17 0.148085 0.313825 0.214011
#
# Coordination Sequence:
#
# PCOD9055172 Si02
#       7
#     2   2   2   2   2   2   2
#     4  11  24  46  71  98 146 185 230 288 345 410
#     4  11  25  46  73 101 136 169 231 299 345 400
#     4  11  25  45  70 101 134 185 232 277 350 418
#     4  11  21  40  69  98 135 183 227 282 337 411
#     4  12  28  43  63 101 143 184 230 283 341 401
#     4  11  24  42  72 104 131 182 228 278 354 413
#     4  11  24  38  66  99 136 176 235 272 337 415
#
# _framework density 20.658079000000001
#
# number of rings (size 3 to 8) (size 9 to 14) (size 15 to 20)
#    0.000    0.857    2.857    4.714    2.000    5.714 
#    0.000    0.000    0.000    0.000    0.000    0.000 
#    0.000    0.000    0.000    0.000    0.000    0.000 
#
# Total GULP energy -78196.543179 kJ/mol
# GULP energy per Si atom -5585.467370 kJ/mol
# Density = 2.061106 g / cm^3
# Si number density = 20.658079 Si / 1000 Ang^3
#
#
#
# Elastic Constant Matrix: (Units=GPa)
#
#
# Indices 1 2 3 4 5 6 
#
# 1 154.2236 76.2275 50.4785 -6.1923 -18.3350 7.1789
# 2 76.2275 151.2784 51.3167 4.7118 -16.1013 11.3838
# 3 50.4785 51.3167 161.4395 -13.0602 -32.1790 2.7526
# 4 -6.1923 4.7118 -13.0602 34.0802 -5.2895 0.0879
# 5 -18.3350 -16.1013 -32.1790 -5.2895 30.9000 -4.2121
# 6 7.1789 11.3838 2.7526 0.0879 -4.2121 50.1902
#
#
#
# Elastic Compliance Matrix: (Units=1/GPa)
#
#
# Indices 1 2 3 4 5 6 
#
# 1 0.009238 -0.004143 -0.000802 0.002392 0.002884 -0.000100
# 2 -0.004143 0.009549 -0.001999 -0.002875 -0.000258 -0.001480
# 3 -0.000802 -0.001999 0.009306 0.005117 0.009162 0.000818
# 4 0.002392 -0.002875 0.005117 0.033867 0.011171 0.000908
# 5 0.002884 -0.000258 0.009162 0.011171 0.045797 0.002967
# 6 -0.000100 -0.001480 0.000818 0.000908 0.002967 0.020477
#
#
# Mechanical properties :
#
#
# Convention : Reuss Voigt Hill
#
# Bulk Modulus (GPa) = 70.38746 91.44298 80.91522
# Shear Modulus (GPa) = 34.04676 42.29533 38.17105
#
# Velocity S-wave (km/s) = 4.06409 4.52973 4.30321
# Velocity P-wave (km/s) = 7.49460 8.46871 7.99650
#
# Compressibility (1/GPa) = 0.01420708
#
# Stress axis : x y z
#
# Youngs Moduli (GPa) = 108.25259 104.71805 107.45206
#
# Poissons Ratio (x) = 0.43384 0.08612
# Poissons Ratio (y) = 0.44848 0.21478
# Poissons Ratio (z) = 0.08677 0.20931
#
# Static dielectric constant tensor:
#      x y z
#    x 1.896810 -0.106830 0.104020 
#    y -0.106830 1.419530 0.089010 
#    z 0.104020 0.089010 1.722050 
# 
# From -- ./inp_files/109012.got.cif
#   From: 2010.05.17/outbox.cif.g08.bks.cpg/sg2_55_cif.got.tgz:109012.got - 2010.06.03 11:33:40.
