data_PCOD9055332
_publ_section_title
;
Structure prediction by ZEFSAII (Michael W. Deem and Ramdas Pophale) SiO2 
 PCOD9055332
Probable space group: P -1
;
_chemical_formula_sum "Si O2"
_cell_formula_units_Z 14
_cell_length_a 10.791664
_cell_length_b 14.101025
_cell_length_c 10.697447
_cell_angle_alpha 47.274901
_cell_angle_beta 49.450583
_cell_angle_gamma 86.250846
_cell_volume 672.047134
_symmetry_space_group_name_H-M "P -1"
_symmetry_group_IT_number 2
_symmetry_cell_setting 'triclinic'
loop_
_space_group_symop_operation_xyz
x,y,z
-x,-y,-z
loop_
_atom_site_type_symbol
_atom_site_label
_atom_site_fract_x
_atom_site_fract_y
_atom_site_fract_z
Si Si1 0.359674 0.802260 0.815039
Si Si2 0.964860 0.021105 0.848618
Si Si3 0.830568 0.530029 0.095543
Si Si4 0.601051 0.790863 0.450673
Si Si5 0.357907 0.558840 0.181016
Si Si6 0.167998 0.316675 0.289112
Si Si7 0.886965 0.670165 0.209593
O O1 0.429191 0.745220 0.707701
O O2 0.500000 0.000000 0.500000
O O3 0.394490 0.731693 0.977744
O O4 0.114884 0.723347 0.048304
O O5 0.198997 0.165851 0.638057
O O6 0.002040 0.113516 0.613917
O O7 0.757527 0.968238 0.108005
O O8 0.918507 0.842973 0.031288
O O9 0.569365 0.363515 0.394896
O O10 0.842912 0.601430 0.158988
O O11 0.898268 0.652692 0.823252
O O12 0.000000 0.500000 0.000000
O O13 0.190292 0.421781 0.302778
O O14 0.277421 0.469582 0.449950
O O15 0.589613 0.612847 0.955075
#
# Coordination Sequence:
#
# PCOD9055332 Si02
#       7
#     2   2   2   2   2   2   2
#     4  12  22  41  67 100 132 169 221 280 319 379
#     4  11  23  41  69 102 121 174 228 277 311 380
#     4  12  25  44  65  94 139 179 207 268 344 395
#     4  11  21  43  67  94 132 170 220 267 330 381
#     4  11  22  40  67  99 126 175 223 270 317 390
#     4  11  21  41  68  92 131 173 223 265 326 389
#     4  12  25  40  68 100 137 168 219 272 330 390
#
# _framework density 20.831873999999999
#
# number of rings (size 3 to 8) (size 9 to 14) (size 15 to 20)
#    0.000    0.571    5.714    3.857    0.000    2.857 
#    0.000    2.143    0.000    0.000    0.000    0.000 
#    0.000    0.000    0.000    0.000    0.000    0.000 
#
# Total GULP energy -78005.546744 kJ/mol
# GULP energy per Si atom -5571.824767 kJ/mol
# Density = 2.078446 g / cm^3
# Si number density = 20.831874 Si / 1000 Ang^3
#
#
#
# Elastic Constant Matrix: (Units=GPa)
#
#
# Indices 1 2 3 4 5 6 
#
# 1 93.9576 25.6834 62.5093 -8.3000 31.7425 1.3955
# 2 25.6834 83.5233 39.1647 3.7530 25.4475 14.9855
# 3 62.5093 39.1647 179.4941 15.8530 36.6708 -3.7664
# 4 -8.3000 3.7530 15.8530 29.6922 -0.3250 5.2518
# 5 31.7425 25.4475 36.6708 -0.3250 51.0902 6.1009
# 6 1.3955 14.9855 -3.7664 5.2518 6.1009 19.4529
#
#
#
# Elastic Compliance Matrix: (Units=1/GPa)
#
#
# Indices 1 2 3 4 5 6 
#
# 1 0.017237 -0.001004 -0.005263 0.007988 -0.006178 -0.001701
# 2 -0.001004 0.017182 -0.002896 0.001296 -0.004329 -0.012717
# 3 -0.005263 -0.002896 0.009471 -0.007507 -0.003019 0.007416
# 4 0.007988 0.001296 -0.007507 0.042440 0.001848 -0.015062
# 5 -0.006178 -0.004329 -0.003019 0.001848 0.028492 -0.006242
# 6 -0.001701 -0.012717 0.007416 -0.015062 -0.006242 0.068785
#
#
# Mechanical properties :
#
#
# Convention : Reuss Voigt Hill
#
# Bulk Modulus (GPa) = 39.11790 67.96552 53.54171
# Shear Modulus (GPa) = 23.75813 35.35491 29.55652
#
# Velocity S-wave (km/s) = 3.38075 4.12412 3.77080
# Velocity P-wave (km/s) = 5.83592 7.44140 6.68702
#
# Compressibility (1/GPa) = 0.02556374
#
# Stress axis : x y z
#
# Youngs Moduli (GPa) = 58.01504 58.20122 105.58123
#
# Poissons Ratio (x) = 0.05844 0.55565
# Poissons Ratio (y) = 0.05825 0.30579
# Poissons Ratio (z) = 0.30532 0.16857
#
# Static dielectric constant tensor:
#      x y z
#    x 1.769960 -0.041440 0.043550 
#    y -0.041440 1.951580 -0.032810 
#    z 0.043550 -0.032810 1.836550 
# 
# From -- ./inp_files/269558.got.cif
#   From: 2010.05.17/outbox.cif.g08.bks.cpg/sg2_135_cif.got.tgz:269558.got - 2010.06.03 11:33:40.
