data_PCOD9055266
_publ_section_title
;
Structure prediction by ZEFSAII (Michael W. Deem and Ramdas Pophale) SiO2 
 PCOD9055266
Probable space group: P -1
;
_chemical_formula_sum "Si O2"
_cell_formula_units_Z 16
_cell_length_a 12.186636
_cell_length_b 13.894354
_cell_length_c 9.018803
_cell_angle_alpha 70.517789
_cell_angle_beta 82.779176
_cell_angle_gamma 31.293539
_cell_volume 707.126150
_symmetry_space_group_name_H-M "P -1"
_symmetry_group_IT_number 2
_symmetry_cell_setting 'triclinic'
loop_
_space_group_symop_operation_xyz
x,y,z
-x,-y,-z
loop_
_atom_site_type_symbol
_atom_site_label
_atom_site_fract_x
_atom_site_fract_y
_atom_site_fract_z
Si Si1 0.959783 0.328718 0.808260
Si Si2 0.794533 0.123725 0.644987
Si Si3 0.877383 0.978500 0.264876
Si Si4 0.949782 0.294319 0.178288
Si Si5 0.478965 0.776405 0.562758
Si Si6 0.435300 0.973970 0.898991
Si Si7 0.569122 0.263820 0.921830
Si Si8 0.655324 0.910988 0.655650
O O1 0.726060 0.567250 0.688754
O O2 0.982431 0.298443 0.997384
O O3 0.981350 0.205673 0.775998
O O4 0.182931 0.205782 0.776287
O O5 0.603344 0.260628 0.484876
O O6 0.682166 0.211866 0.780330
O O7 0.954000 0.092810 0.627242
O O8 0.945450 0.901416 0.720912
O O9 0.701248 0.060848 0.358228
O O10 0.719735 0.173890 0.084689
O O11 0.687513 0.500227 0.146465
O O12 0.084819 0.264145 0.279616
O O13 0.458492 0.887045 0.395152
O O14 0.614461 0.852329 0.805690
O O15 0.428477 0.862226 0.006792
O O16 0.500000 0.000000 0.000000
O O17 0.500000 0.000000 0.500000
#
# Coordination Sequence:
#
# PCOD9055266 Si02
#       8
#     2   2   2   2   2   2   2   2
#     4  11  23  41  67  93 130 167 215 261 312 381
#     4  11  24  43  65  98 131 163 212 268 315 378
#     4  11  23  42  69  93 129 171 210 260 322 377
#     4  11  23  42  66  95 130 167 212 263 314 377
#     4  11  25  44  63  95 133 165 210 267 319 375
#     4  11  21  41  65  91 128 167 208 265 317 370
#     4  11  23  39  67  97 126 166 216 263 311 378
#     4  11  24  41  64  94 126 165 213 260 317 377
#
# _framework density 22.626795999999999
#
# number of rings (size 3 to 8) (size 9 to 14) (size 15 to 20)
#    0.000    1.000    5.000    3.000    0.000    7.000 
#    0.000    0.000    0.000    0.000    0.000    0.000 
#    0.000    0.000    0.000    0.000    0.000    0.000 
#
# Total GULP energy -89328.504448 kJ/mol
# GULP energy per Si atom -5583.031528 kJ/mol
# Density = 2.257530 g / cm^3
# Si number density = 22.626796 Si / 1000 Ang^3
#
#
#
# Elastic Constant Matrix: (Units=GPa)
#
#
# Indices 1 2 3 4 5 6 
#
# 1 88.3950 11.2501 -6.7864 -6.9186 27.6417 -10.9304
# 2 11.2501 94.1627 4.6938 -14.0514 -4.6030 -20.5793
# 3 -6.7864 4.6938 49.8282 -4.8394 15.0264 -1.3947
# 4 -6.9186 -14.0514 -4.8394 31.8683 -8.5332 4.3652
# 5 27.6417 -4.6030 15.0264 -8.5332 39.4571 4.2686
# 6 -10.9304 -20.5793 -1.3947 4.3652 4.2686 18.9078
#
#
#
# Elastic Compliance Matrix: (Units=1/GPa)
#
#
# Indices 1 2 3 4 5 6 
#
# 1 0.020233 -0.000479 0.009090 -0.002090 -0.019965 0.016836
# 2 -0.000479 0.014601 -0.001193 0.004779 0.002016 0.013969
# 3 0.009090 -0.001193 0.027089 -0.000674 -0.018071 0.010189
# 4 -0.002090 0.004779 -0.000674 0.036843 0.011009 -0.007048
# 5 -0.019965 0.002016 -0.018071 0.011009 0.051517 -0.024853
# 6 0.016836 0.013969 0.010189 -0.007048 -0.024853 0.085814
#
#
# Mechanical properties :
#
#
# Convention : Reuss Voigt Hill
#
# Bulk Modulus (GPa) = 13.02791 27.85568 20.44180
# Shear Modulus (GPa) = 20.25529 32.92852 26.59191
#
# Velocity S-wave (km/s) = 2.99522 3.81896 3.43190
# Velocity P-wave (km/s) = 4.21094 5.63770 4.97572
#
# Compressibility (1/GPa) = 0.07675827
#
# Stress axis : x y z
#
# Youngs Moduli (GPa) = 49.42379 68.48757 36.91561
#
# Poissons Ratio (x) = 0.03280 -0.33556
# Poissons Ratio (y) = 0.02367 0.04405
# Poissons Ratio (z) = -0.44925 0.08173
#
# Static dielectric constant tensor:
#      x y z
#    x 1.876650 -0.002120 0.031200 
#    y -0.002120 1.835380 0.030300 
#    z 0.031200 0.030300 1.890590 
# 
# From -- ./inp_files/188036.got.cif
#   From: 2010.05.17/outbox.cif.g08.bks.cpg/sg2_95_cif.got.tgz:188036.got - 2010.06.03 11:33:40.
