data_PCOD9055220
_publ_section_title
;
Structure prediction by ZEFSAII (Michael W. Deem and Ramdas Pophale) SiO2 
 PCOD9055220
Probable space group: P -1
;
_chemical_formula_sum "Si O2"
_cell_formula_units_Z 16
_cell_length_a 10.631210
_cell_length_b 19.114073
_cell_length_c 8.036807
_cell_angle_alpha 124.248782
_cell_angle_beta 136.139308
_cell_angle_gamma 35.667616
_cell_volume 658.749747
_symmetry_space_group_name_H-M "P -1"
_symmetry_group_IT_number 2
_symmetry_cell_setting 'triclinic'
loop_
_space_group_symop_operation_xyz
x,y,z
-x,-y,-z
loop_
_atom_site_type_symbol
_atom_site_label
_atom_site_fract_x
_atom_site_fract_y
_atom_site_fract_z
Si Si1 0.671259 0.569979 0.869356
Si Si2 0.046997 0.075008 0.559161
Si Si3 0.324778 0.458248 0.563507
Si Si4 0.616988 0.929288 0.343975
Si Si5 0.544585 0.192409 0.087735
Si Si6 0.828865 0.664731 0.776075
Si Si7 0.904191 0.256516 0.947971
Si Si8 0.868202 0.302668 0.325486
O O1 0.684149 0.551136 0.657865
O O2 0.407769 0.616326 0.743678
O O3 0.637410 0.682007 0.019212
O O4 0.919210 0.447707 0.028306
O O5 0.984567 0.163100 0.760898
O O6 0.308774 0.019685 0.644382
O O7 0.821524 0.145608 0.299430
O O8 0.000000 0.000000 0.500000
O O9 0.245309 0.393909 0.477424
O O10 0.614549 0.380545 0.792965
O O11 0.145388 0.596347 0.617876
O O12 0.443399 0.909040 0.087608
O O13 0.892743 0.792156 0.454070
O O14 0.500000 0.000000 0.500000
O O15 0.413936 0.238227 0.205768
O O16 0.900397 0.730270 0.856091
O O17 0.896516 0.231512 0.098985
#
# Coordination Sequence:
#
# PCOD9055220 Si02
#       8
#     2   2   2   2   2   2   2   2
#     4  11  21  40  73 102 140 186 227 280 349 427
#     4  12  28  50  77 100 141 191 239 300 357 417
#     4  11  22  42  68 104 142 186 228 278 356 422
#     4  12  28  50  75 103 138 186 248 299 351 419
#     4  11  23  46  74 104 134 183 238 287 347 427
#     4  11  22  39  72 104 139 184 227 274 348 433
#     4  12  25  44  67 105 144 182 231 288 357 420
#     4  12  25  43  69 105 146 183 228 295 350 416
#
# _framework density 24.288435
#
# number of rings (size 3 to 8) (size 9 to 14) (size 15 to 20)
#    0.000    0.500    6.250    3.750    1.750    3.500 
#    2.250    0.000    0.000    0.000    0.000    0.000 
#    0.000    0.000    0.000    0.000    0.000    0.000 
#
# Total GULP energy -89517.583018 kJ/mol
# GULP energy per Si atom -5594.848939 kJ/mol
# Density = 2.423315 g / cm^3
# Si number density = 24.288435 Si / 1000 Ang^3
#
#
#
# Elastic Constant Matrix: (Units=GPa)
#
#
# Indices 1 2 3 4 5 6 
#
# 1 73.3807 31.0511 35.5791 34.6311 17.4626 -1.4978
# 2 31.0511 74.5894 21.5715 16.9395 11.5827 6.9137
# 3 35.5791 21.5715 69.0067 18.6239 23.1213 -12.6339
# 4 34.6311 16.9395 18.6239 50.8890 6.8569 1.8127
# 5 17.4626 11.5827 23.1213 6.8569 38.7760 3.1202
# 6 -1.4978 6.9137 -12.6339 1.8127 3.1202 25.6911
#
#
#
# Elastic Compliance Matrix: (Units=1/GPa)
#
#
# Indices 1 2 3 4 5 6 
#
# 1 0.026461 -0.005534 -0.006841 -0.013169 -0.003942 0.001075
# 2 -0.005534 0.017534 -0.003832 -0.000445 0.000175 -0.006916
# 3 -0.006841 -0.003832 0.027117 -0.002840 -0.012705 0.015711
# 4 -0.013169 -0.000445 -0.002840 0.029570 0.002889 -0.004482
# 5 -0.003942 0.000175 -0.012705 0.002889 0.035465 -0.011036
# 6 0.001075 -0.006916 0.015711 -0.004482 -0.011036 0.050230
#
#
# Mechanical properties :
#
#
# Convention : Reuss Voigt Hill
#
# Bulk Modulus (GPa) = 25.84250 43.70891 34.77570
# Shear Modulus (GPa) = 21.58039 31.65623 26.61831
#
# Velocity S-wave (km/s) = 2.98401 3.61410 3.31407
# Velocity P-wave (km/s) = 4.74714 5.95403 5.38451
#
# Compressibility (1/GPa) = 0.03869595
#
# Stress axis : x y z
#
# Youngs Moduli (GPa) = 37.79108 57.03285 36.87775
#
# Poissons Ratio (x) = 0.31562 0.25230
# Poissons Ratio (y) = 0.20913 0.14133
# Poissons Ratio (z) = 0.25854 0.21858
#
# Static dielectric constant tensor:
#      x y z
#    x 1.986090 0.083760 0.002680 
#    y 0.083760 1.965270 -0.017870 
#    z 0.002680 -0.017870 1.938800 
# 
# From -- ./inp_files/283289.got.cif
#   From: 2010.05.17/outbox.cif.g08.bks.cpg/sg2_142_cif.got.tgz:283289.got - 2010.06.03 11:33:40.
