data_PCOD9055657
_publ_section_title
;
Structure prediction by ZEFSAII (Michael W. Deem and Ramdas Pophale) SiO2 
 PCOD9055657
Probable space group: P -1
;
_chemical_formula_sum "Si O2"
_cell_formula_units_Z 14
_cell_length_a 6.913087
_cell_length_b 15.815498
_cell_length_c 8.612200
_cell_angle_alpha 130.848179
_cell_angle_beta 51.584489
_cell_angle_gamma 124.050771
_cell_volume 539.036928
_symmetry_space_group_name_H-M "P -1"
_symmetry_group_IT_number 2
_symmetry_cell_setting 'triclinic'
loop_
_space_group_symop_operation_xyz
x,y,z
-x,-y,-z
loop_
_atom_site_type_symbol
_atom_site_label
_atom_site_fract_x
_atom_site_fract_y
_atom_site_fract_z
Si Si1 0.156438 0.734646 0.469330
Si Si2 0.037184 0.913756 0.974532
Si Si3 0.865360 0.470196 0.347798
Si Si4 0.363504 0.442953 0.159309
Si Si5 0.646690 0.923727 0.440165
Si Si6 0.695301 0.298722 0.963539
Si Si7 0.522258 0.060455 0.929517
O O1 0.452622 0.800786 0.429509
O O2 0.028872 0.809417 0.735718
O O3 0.038752 0.600782 0.400160
O O4 0.131237 0.740715 0.301377
O O5 0.399493 0.803490 0.991388
O O6 0.335431 0.931884 0.953462
O O7 0.871607 0.905679 0.201261
O O8 0.640595 0.473859 0.586634
O O9 0.802397 0.415221 0.146168
O O10 0.061470 0.401025 0.229915
O O11 0.477279 0.338234 0.024579
O O12 0.500000 0.500000 0.000000
O O13 0.695373 0.999864 0.660842
O O14 0.785764 0.961943 0.035702
O O15 0.500000 0.000000 0.500000
#
# Coordination Sequence:
#
# PCOD9055657 Si02
#       7
#     2   2   2   2   2   2   2
#     4  11  23  40  74 104 144 188 243 297 361 443
#     4  11  21  42  75 101 136 194 240 296 374 426
#     4  11  27  46  73 112 151 194 246 303 373 440
#     4  11  26  48  73 104 149 197 252 298 362 442
#     4  11  21  43  71 105 137 188 244 296 363 439
#     4  12  24  51  74 105 156 194 242 312 368 440
#     4  11  26  46  69 110 148 184 247 305 365 442
#
# _framework density 25.972248
#
# number of rings (size 3 to 8) (size 9 to 14) (size 15 to 20)
#    0.000    0.857    5.714    0.857    4.000    5.143 
#    0.000    0.000    0.000    0.000    0.000    0.000 
#    0.000    0.000    0.000    0.000    0.000    0.000 
#
# Total GULP energy -78095.076726 kJ/mol
# GULP energy per Si atom -5578.219766 kJ/mol
# Density = 2.591313 g / cm^3
# Si number density = 25.972248 Si / 1000 Ang^3
#
#
#
# Elastic Constant Matrix: (Units=GPa)
#
#
# Indices 1 2 3 4 5 6 
#
# 1 94.6087 59.4223 66.5487 5.5123 6.3600 -21.8437
# 2 59.4223 150.2912 68.9634 -4.6048 -8.9615 -15.6982
# 3 66.5487 68.9634 263.0172 0.7840 -3.9634 4.0841
# 4 5.5123 -4.6048 0.7840 58.7805 5.0520 9.8468
# 5 6.3600 -8.9615 -3.9634 5.0520 42.7946 -6.1638
# 6 -21.8437 -15.6982 4.0841 9.8468 -6.1638 41.3785
#
#
#
# Elastic Compliance Matrix: (Units=1/GPa)
#
#
# Indices 1 2 3 4 5 6 
#
# 1 0.018617 -0.005083 -0.003540 -0.003332 -0.002517 0.008667
# 2 -0.005083 0.009531 -0.001194 0.000792 0.002730 0.001268
# 3 -0.003540 -0.001194 0.005058 0.000642 0.000246 -0.002937
# 4 -0.003332 0.000792 0.000642 0.018642 -0.002390 -0.006314
# 5 -0.002517 0.002730 0.000246 -0.002390 0.025195 0.004004
# 6 0.008667 0.001268 -0.002937 -0.006314 0.004004 0.031613
#
#
# Mechanical properties :
#
#
# Convention : Reuss Voigt Hill
#
# Bulk Modulus (GPa) = 73.68277 99.75401 86.71839
# Shear Modulus (GPa) = 37.64656 49.45622 43.55139
#
# Velocity S-wave (km/s) = 3.81135 4.36844 4.09937
# Velocity P-wave (km/s) = 6.91375 7.99598 7.47448
#
# Compressibility (1/GPa) = 0.01357169
#
# Stress axis : x y z
#
# Youngs Moduli (GPa) = 53.71314 104.92175 197.69879
#
# Poissons Ratio (x) = 0.53336 0.69991
# Poissons Ratio (y) = 0.27304 0.23600
# Poissons Ratio (z) = 0.19016 0.12525
#
# Static dielectric constant tensor:
#      x y z
#    x 3.047840 0.049960 0.001770 
#    y 0.049960 2.007060 -0.033150 
#    z 0.001770 -0.033150 2.012480 
# 
# From -- ./inp_files/219800.got.cif
#   From: 2010.05.17/outbox.cif.g08.bks.cpg/sg2_110_cif.got.tgz:219800.got - 2010.06.03 11:33:40.
