data_PCOD9055102
_publ_section_title
;
Structure prediction by ZEFSAII (Michael W. Deem and Ramdas Pophale) SiO2 
 PCOD9055102
Probable space group: P -1
;
_chemical_formula_sum "Si O2"
_cell_formula_units_Z 16
_cell_length_a 19.724483
_cell_length_b 13.525704
_cell_length_c 16.450826
_cell_angle_alpha 156.500509
_cell_angle_beta 152.968377
_cell_angle_gamma 40.557248
_cell_volume 754.808409
_symmetry_space_group_name_H-M "P -1"
_symmetry_group_IT_number 2
_symmetry_cell_setting 'triclinic'
loop_
_space_group_symop_operation_xyz
x,y,z
-x,-y,-z
loop_
_atom_site_type_symbol
_atom_site_label
_atom_site_fract_x
_atom_site_fract_y
_atom_site_fract_z
Si Si1 0.963703 0.268052 0.479403
Si Si2 0.038196 0.818965 0.125559
Si Si3 0.335530 0.504651 0.072292
Si Si4 0.078990 0.770849 0.416728
Si Si5 0.400537 0.933669 0.597404
Si Si6 0.535469 0.511837 0.142213
Si Si7 0.376013 0.967603 0.772241
Si Si8 0.886442 0.747762 0.732218
O O1 0.866945 0.211315 0.417554
O O2 0.908998 0.472218 0.521438
O O3 0.968882 0.001053 0.243990
O O4 0.146903 0.426643 0.814547
O O5 0.224632 0.959974 0.419625
O O6 0.022976 0.533341 0.929888
O O7 0.941872 0.778087 0.907993
O O8 0.410797 0.736320 0.389864
O O9 0.406002 0.569881 0.106545
O O10 0.374648 0.251120 0.954935
O O11 0.210445 0.825103 0.529632
O O12 0.000000 0.000000 0.500000
O O13 0.407871 0.836805 0.624301
O O14 0.526181 0.216118 0.932784
O O15 0.704958 0.711793 0.495537
O O16 0.500000 0.500000 0.000000
O O17 0.500000 0.000000 0.000000
O O18 0.000000 0.000000 0.000000
#
# Coordination Sequence:
#
# PCOD9055102 Si02
#       8
#     2   2   2   2   2   2   2   2
#     4  11  23  43  70  99 136 179 231 287 338 410
#     4  11  22  42  71 100 138 181 225 295 336 403
#     4  11  23  46  70  97 137 184 231 278 349 410
#     4  11  21  40  67 100 133 180 238 269 338 404
#     4  11  22  45  70  95 139 184 223 284 347 400
#     4  11  26  46  71 101 137 175 223 284 351 421
#     4  11  25  41  64  98 143 181 231 283 331 412
#     4  11  26  46  70 103 134 170 237 290 346 417
#
# _framework density 21.197433
#
# number of rings (size 3 to 8) (size 9 to 14) (size 15 to 20)
#    0.000    1.000    6.250    0.750    7.000    5.500 
#    0.000    0.000    0.000    0.000    0.000    0.000 
#    0.000    0.000    0.000    0.000    0.000    0.000 
#
# Total GULP energy -89350.912165 kJ/mol
# GULP energy per Si atom -5584.432010 kJ/mol
# Density = 2.114919 g / cm^3
# Si number density = 21.197433 Si / 1000 Ang^3
#
#
#
# Elastic Constant Matrix: (Units=GPa)
#
#
# Indices 1 2 3 4 5 6 
#
# 1 143.4496 27.8731 47.8546 10.0184 -8.4535 23.2627
# 2 27.8731 57.6394 12.9776 5.7442 6.0012 15.1059
# 3 47.8546 12.9776 103.4692 4.8458 2.2513 14.5478
# 4 10.0184 5.7442 4.8458 44.6356 2.7410 -12.3628
# 5 -8.4535 6.0012 2.2513 2.7410 34.1447 8.5930
# 6 23.2627 15.1059 14.5478 -12.3628 8.5930 29.7929
#
#
#
# Elastic Compliance Matrix: (Units=1/GPa)
#
#
# Indices 1 2 3 4 5 6 
#
# 1 0.010667 -0.002128 -0.003263 -0.004717 0.005957 -0.009332
# 2 -0.002128 0.022037 0.000126 -0.005507 -0.001059 -0.011552
# 3 -0.003263 0.000126 0.011772 -0.001571 -0.000533 -0.003762
# 4 -0.004717 -0.005507 -0.001571 0.031087 -0.008260 0.022524
# 5 0.005957 -0.001059 -0.000533 -0.008260 0.036099 -0.017694
# 6 -0.009332 -0.011552 -0.003762 0.022524 -0.017694 0.062996
#
#
# Mechanical properties :
#
#
# Convention : Reuss Voigt Hill
#
# Bulk Modulus (GPa) = 29.45997 53.55209 41.50603
# Shear Modulus (GPa) = 25.44463 36.10483 30.77473
#
# Velocity S-wave (km/s) = 3.46838 4.13154 3.81440
# Velocity P-wave (km/s) = 5.47427 6.93382 6.24682
#
# Compressibility (1/GPa) = 0.03394436
#
# Stress axis : x y z
#
# Youngs Moduli (GPa) = 93.74724 45.37873 84.94476
#
# Poissons Ratio (x) = 0.09657 0.27719
# Poissons Ratio (y) = 0.19951 -0.01066
# Poissons Ratio (z) = 0.30592 -0.00570
#
# Static dielectric constant tensor:
#      x y z
#    x 1.789280 -0.012860 -0.004450 
#    y -0.012860 1.770550 0.024600 
#    z -0.004450 0.024600 1.748060 
# 
# From -- ./inp_files/538492.got.cif
#   From: 2010.05.17/outbox.cif.g08.bks.cpg/sg2_270_cif.got.tgz:538492.got - 2010.06.03 11:33:40.
