data_PCOD9055457
_publ_section_title
;
Structure prediction by ZEFSAII (Michael W. Deem and Ramdas Pophale) SiO2 
 PCOD9055457
Probable space group: P -1
;
_chemical_formula_sum "Si O2"
_cell_formula_units_Z 14
_cell_length_a 7.924733
_cell_length_b 19.154748
_cell_length_c 9.538543
_cell_angle_alpha 120.961664
_cell_angle_beta 149.030781
_cell_angle_gamma 60.695001
_cell_volume 635.057116
_symmetry_space_group_name_H-M "P -1"
_symmetry_group_IT_number 2
_symmetry_cell_setting 'triclinic'
loop_
_space_group_symop_operation_xyz
x,y,z
-x,-y,-z
loop_
_atom_site_type_symbol
_atom_site_label
_atom_site_fract_x
_atom_site_fract_y
_atom_site_fract_z
Si Si1 0.962423 0.244918 0.768925
Si Si2 0.198371 0.564507 0.127852
Si Si3 0.266886 0.058088 0.295076
Si Si4 0.037988 0.438558 0.336317
Si Si5 0.292947 0.177134 0.208044
Si Si6 0.047214 0.223736 0.480780
Si Si7 0.716760 0.281230 0.047734
O O1 0.980739 0.342334 0.896287
O O2 0.580936 0.231514 0.513559
O O3 0.005295 0.216998 0.609582
O O4 0.206424 0.192698 0.998229
O O5 0.578430 0.568569 0.445738
O O6 0.000000 0.500000 0.000000
O O7 0.186924 0.535402 0.929579
O O8 0.400735 0.092177 0.278257
O O9 0.145498 0.136366 0.387305
O O10 0.500000 0.000000 0.500000
O O11 0.000000 0.000000 0.000000
O O12 0.000000 0.500000 0.500000
O O13 0.901844 0.356378 0.208467
O O14 0.939774 0.205784 0.056624
O O15 0.743891 0.267415 0.220059
O O16 0.346444 0.279630 0.732518
#
# Coordination Sequence:
#
# PCOD9055457 Si02
#       7
#     2   2   2   2   2   2   2
#     4  12  23  43  64  98 133 172 221 267 323 394
#     4  12  26  44  64  95 138 178 217 278 337 373
#     4  11  23  44  69  99 131 167 213 268 328 397
#     4  12  26  42  65  94 131 171 232 273 327 381
#     4  11  22  42  69  92 128 176 213 262 326 391
#     4  11  25  39  69  96 130 168 221 264 326 385
#     4  11  21  42  63  92 124 177 224 266 311 389
#
# _framework density 22.045261
#
# number of rings (size 3 to 8) (size 9 to 14) (size 15 to 20)
#    0.000    0.571    2.857    6.857    4.000    0.000 
#    0.000    4.286    0.000    0.000    0.000    0.000 
#    0.000    0.000    0.000    0.000    0.000    0.000 
#
# Total GULP energy -78191.592209 kJ/mol
# GULP energy per Si atom -5585.113729 kJ/mol
# Density = 2.199509 g / cm^3
# Si number density = 22.045261 Si / 1000 Ang^3
#
#
#
# Elastic Constant Matrix: (Units=GPa)
#
#
# Indices 1 2 3 4 5 6 
#
# 1 71.0602 33.8226 27.2519 1.2124 -20.9817 22.2302
# 2 33.8226 74.7896 36.3121 9.3849 3.1896 38.9970
# 3 27.2519 36.3121 140.8226 -0.8570 -2.1678 15.7060
# 4 1.2124 9.3849 -0.8570 37.6524 7.2898 -4.0837
# 5 -20.9817 3.1896 -2.1678 7.2898 44.2689 -8.1030
# 6 22.2302 38.9970 15.7060 -4.0837 -8.1030 34.7192
#
#
#
# Elastic Compliance Matrix: (Units=1/GPa)
#
#
# Indices 1 2 3 4 5 6 
#
# 1 0.022883 -0.009825 -0.001696 -0.000583 0.011525 -0.000228
# 2 -0.009825 0.051974 -0.005697 -0.015611 -0.016200 -0.055128
# 3 -0.001696 -0.005697 0.008472 0.002019 0.000419 0.003987
# 4 -0.000583 -0.015611 0.002019 0.032891 -0.000679 0.020704
# 5 0.011525 -0.016200 0.000419 -0.000679 0.032678 0.018174
# 6 -0.000228 -0.055128 0.003987 0.020704 0.018174 0.095742
#
#
# Mechanical properties :
#
#
# Convention : Reuss Voigt Hill
#
# Bulk Modulus (GPa) = 20.45157 53.49397 36.97277
# Shear Modulus (GPa) = 16.92767 35.94717 26.43742
#
# Velocity S-wave (km/s) = 2.77403 4.04246 3.46675
# Velocity P-wave (km/s) = 4.42240 6.79020 5.72994
#
# Compressibility (1/GPa) = 0.04889600
#
# Stress axis : x y z
#
# Youngs Moduli (GPa) = 43.69973 19.24021 118.03201
#
# Poissons Ratio (x) = 0.18903 0.20014
# Poissons Ratio (y) = 0.42934 0.67239
# Poissons Ratio (z) = 0.07410 0.10961
#
# Static dielectric constant tensor:
#      x y z
#    x 1.944260 -0.014800 -0.025600 
#    y -0.014800 1.913690 0.006280 
#    z -0.025600 0.006280 1.794700 
# 
# From -- ./inp_files/216896.got.cif
#   From: 2010.05.17/outbox.cif.g08.bks.cpg/sg2_109_cif.got.tgz:216896.got - 2010.06.03 11:33:40.
