data_PCOD9055253
_publ_section_title
;
Structure prediction by ZEFSAII (Michael W. Deem and Ramdas Pophale) SiO2 
 PCOD9055253
Probable space group: P -1
;
_chemical_formula_sum "Si O2"
_cell_formula_units_Z 16
_cell_length_a 7.995416
_cell_length_b 8.035700
_cell_length_c 11.737942
_cell_angle_alpha 106.273155
_cell_angle_beta 80.594385
_cell_angle_gamma 121.600388
_cell_volume 616.465055
_symmetry_space_group_name_H-M "P -1"
_symmetry_group_IT_number 2
_symmetry_cell_setting 'triclinic'
loop_
_space_group_symop_operation_xyz
x,y,z
-x,-y,-z
loop_
_atom_site_type_symbol
_atom_site_label
_atom_site_fract_x
_atom_site_fract_y
_atom_site_fract_z
Si Si1 0.509476 0.339698 0.387237
Si Si2 0.174143 0.143494 0.799481
Si Si3 0.356528 0.901639 0.122514
Si Si4 0.196684 0.456341 0.042311
Si Si5 0.576928 0.448885 0.742780
Si Si6 0.133562 0.911239 0.359173
Si Si7 0.197981 0.851511 0.905538
Si Si8 0.698071 0.223185 0.513396
O O1 0.500000 0.500000 0.500000
O O2 0.515633 0.428334 0.280287
O O3 0.679443 0.297464 0.404180
O O4 0.297490 0.143769 0.392353
O O5 0.398749 0.232538 0.756624
O O6 0.055087 0.117420 0.691875
O O7 0.114750 0.948482 0.844697
O O8 0.179121 0.311715 0.914678
O O9 0.327388 0.690305 0.042041
O O10 0.238634 0.842586 0.241072
O O11 0.579844 0.075887 0.143962
O O12 0.247574 0.954595 0.046364
O O13 0.305025 0.437993 0.137474
O O14 0.973372 0.375849 0.095077
O O15 0.692590 0.389719 0.627919
O O16 0.129596 0.808614 0.460222
O O17 0.500000 0.000000 0.500000
#
# Coordination Sequence:
#
# PCOD9055253 Si02
#       8
#     2   2   2   2   2   2   2   2
#     4   9  21  40  66  93 117 165 218 275 334 383
#     4  12  25  39  61  98 136 175 217 263 321 393
#     4  11  24  40  61  91 130 179 217 263 315 376
#     4  12  23  41  64  94 139 180 217 262 314 390
#     4  11  22  40  65  94 130 174 217 266 328 386
#     4  11  21  41  64  92 130 170 213 272 332 383
#     4  11  24  40  60  90 132 177 219 260 308 379
#     4   9  19  41  67  88 121 165 220 276 335 379
#
# _framework density 25.954429000000001
#
# number of rings (size 3 to 8) (size 9 to 14) (size 15 to 20)
#    0.000    1.250    3.750    1.875    1.750    1.000 
#    0.000    6.250    0.000    6.000    0.000    0.000 
#    0.000    0.000    0.000    0.000    0.000    0.000 
#
# Total GULP energy -89415.889388 kJ/mol
# GULP energy per Si atom -5588.493087 kJ/mol
# Density = 2.589536 g / cm^3
# Si number density = 25.954429 Si / 1000 Ang^3
#
#
#
# Elastic Constant Matrix: (Units=GPa)
#
#
# Indices 1 2 3 4 5 6 
#
# 1 53.4032 19.1607 47.0847 -8.8603 32.6167 2.9012
# 2 19.1607 95.1499 21.6634 -1.9232 14.4173 -9.5226
# 3 47.0847 21.6634 119.4805 -1.1227 46.4727 -19.8681
# 4 -8.8603 -1.9232 -1.1227 43.1302 -15.8348 10.2130
# 5 32.6167 14.4173 46.4727 -15.8348 57.7358 -3.9193
# 6 2.9012 -9.5226 -19.8681 10.2130 -3.9193 42.9065
#
#
#
# Elastic Compliance Matrix: (Units=1/GPa)
#
#
# Indices 1 2 3 4 5 6 
#
# 1 0.039517 -0.004628 -0.012928 0.006908 -0.009697 -0.012216
# 2 -0.004628 0.011771 0.000685 -0.001644 -0.001087 0.003534
# 3 -0.012928 0.000685 0.018732 -0.008160 -0.009452 0.010779
# 4 0.006908 -0.001644 -0.008160 0.030884 0.010802 -0.010975
# 5 -0.009697 -0.001087 -0.009452 0.010802 0.033404 -0.003482
# 6 -0.012216 0.003534 0.010779 -0.010975 -0.003482 0.032203
#
#
# Mechanical properties :
#
#
# Convention : Reuss Voigt Hill
#
# Bulk Modulus (GPa) = 27.56571 49.31683 38.44127
# Shear Modulus (GPa) = 23.54647 40.76281 32.15464
#
# Velocity S-wave (km/s) = 3.01528 3.96732 3.52360
# Velocity P-wave (km/s) = 4.77142 6.32683 5.60336
#
# Compressibility (1/GPa) = 0.03627695
#
# Stress axis : x y z
#
# Youngs Moduli (GPa) = 25.30560 84.95465 53.38365
#
# Poissons Ratio (x) = 0.39315 0.69016
# Poissons Ratio (y) = 0.11711 -0.03654
# Poissons Ratio (z) = 0.32716 -0.05815
#
# Static dielectric constant tensor:
#      x y z
#    x 2.085150 -0.036690 0.056650 
#    y -0.036690 2.005250 -0.049700 
#    z 0.056650 -0.049700 1.986690 
# 
# From -- ./inp_files/219775.got.cif
#   From: 2010.05.17/outbox.cif.g08.bks.cpg/sg2_110_cif.got.tgz:219775.got - 2010.06.03 11:33:40.
