data_PCOD9055182
_publ_section_title
;
Structure prediction by ZEFSAII (Michael W. Deem and Ramdas Pophale) SiO2 
 PCOD9055182
Probable space group: P -1
;
_chemical_formula_sum "Si O2"
_cell_formula_units_Z 15
_cell_length_a 8.949904
_cell_length_b 6.137749
_cell_length_c 12.158639
_cell_angle_alpha 74.285333
_cell_angle_beta 101.760393
_cell_angle_gamma 110.477020
_cell_volume 597.890007
_symmetry_space_group_name_H-M "P -1"
_symmetry_group_IT_number 2
_symmetry_cell_setting 'triclinic'
loop_
_space_group_symop_operation_xyz
x,y,z
-x,-y,-z
loop_
_atom_site_type_symbol
_atom_site_label
_atom_site_fract_x
_atom_site_fract_y
_atom_site_fract_z
Si Si1 0.021742 0.880009 0.177541
Si Si2 0.031021 0.860092 0.417463
Si Si3 0.679160 0.755433 0.878957
Si Si4 0.256148 0.633261 0.592108
Si Si5 0.500000 0.500000 0.500000
Si Si6 0.454432 0.025435 0.714755
Si Si7 0.161454 0.616279 0.079144
Si Si8 0.678502 0.888548 0.085926
O O1 0.094953 0.673339 0.179726
O O2 0.056805 0.994471 0.288378
O O3 0.832952 0.805634 0.146515
O O4 0.133477 0.090016 0.091194
O O5 0.884908 0.620761 0.399121
O O6 0.186941 0.786938 0.477127
O O7 0.000000 0.000000 0.500000
O O8 0.711074 0.525726 0.866029
O O9 0.597537 0.909361 0.770883
O O10 0.596868 0.738493 0.988023
O O11 0.412051 0.585199 0.575847
O O12 0.303684 0.798163 0.683972
O O13 0.484757 0.239632 0.602509
O O14 0.413502 0.111745 0.815463
O O15 0.000000 0.500000 0.000000
O O16 0.256648 0.844982 0.989616
#
# Coordination Sequence:
#
# PCOD9055182 Si02
#       8
#     2   2   2   2   1   2   2   2
#     4  11  22  40  72 104 142 194 247 305 375 444
#     4  11  25  46  72 106 142 193 257 319 376 442
#     4  11  24  44  70 110 152 194 249 300 379 461
#     4  11  26  46  71 103 141 190 261 316 373 447
#     4  12  26  50  72  98 150 198 256 310 386 434
#     4  12  28  46  74 105 149 206 251 320 377 451
#     4  11  21  40  70 107 152 188 240 308 372 451
#     4  11  23  42  69 111 151 192 251 307 375 451
#
# _framework density 25.088225999999999
#
# number of rings (size 3 to 8) (size 9 to 14) (size 15 to 20)
#    0.000    0.800    2.667    4.800    1.867    8.000 
#    0.000    0.000    0.000    0.000    0.000    0.000 
#    0.000    0.000    0.000    0.000    0.000    0.000 
#
# Total GULP energy -83511.674758 kJ/mol
# GULP energy per Si atom -5567.444984 kJ/mol
# Density = 2.503112 g / cm^3
# Si number density = 25.088226 Si / 1000 Ang^3
#
#
#
# Elastic Constant Matrix: (Units=GPa)
#
#
# Indices 1 2 3 4 5 6 
#
# 1 88.8790 64.8503 41.2241 1.0921 -6.8205 -27.1067
# 2 64.8503 134.1612 54.4441 1.3718 5.8460 -18.3943
# 3 41.2241 54.4441 108.4576 4.2963 0.9212 -15.3598
# 4 1.0921 1.3718 4.2963 37.5640 -6.4358 7.2854
# 5 -6.8205 5.8460 0.9212 -6.4358 32.3736 10.0422
# 6 -27.1067 -18.3943 -15.3598 7.2854 10.0422 54.1523
#
#
#
# Elastic Compliance Matrix: (Units=1/GPa)
#
#
# Indices 1 2 3 4 5 6 
#
# 1 0.020740 -0.008163 -0.002934 -0.000480 0.003936 0.006111
# 2 -0.008163 0.012963 -0.003312 -0.000615 -0.004161 0.000232
# 3 -0.002934 -0.003312 0.012257 -0.001638 -0.001100 0.001307
# 4 -0.000480 -0.000615 -0.001638 0.029421 0.007869 -0.006331
# 5 0.003936 -0.004161 -0.001100 0.007869 0.036413 -0.007566
# 6 0.006111 0.000232 0.001307 -0.006331 -0.007566 0.024230
#
#
# Mechanical properties :
#
#
# Convention : Reuss Voigt Hill
#
# Bulk Modulus (GPa) = 58.33709 72.50386 65.42047
# Shear Modulus (GPa) = 29.31558 36.21660 32.76609
#
# Velocity S-wave (km/s) = 3.42204 3.80356 3.61783
# Velocity P-wave (km/s) = 6.23835 6.94634 6.60185
#
# Compressibility (1/GPa) = 0.01714175
#
# Stress axis : x y z
#
# Youngs Moduli (GPa) = 48.21494 77.14223 81.58348
#
# Poissons Ratio (x) = 0.62974 0.23940
# Poissons Ratio (y) = 0.39359 0.27019
# Poissons Ratio (z) = 0.14148 0.25549
#
# Static dielectric constant tensor:
#      x y z
#    x 1.988590 0.023380 0.031350 
#    y 0.023380 2.096640 0.001430 
#    z 0.031350 0.001430 2.031760 
# 
# From -- ./inp_files/372994.got.cif
#   From: 2010.05.17/outbox.cif.g08.bks.cpg/sg2_187_cif.got.tgz:372994.got - 2010.06.03 11:33:40.
