data_PCOD9055574
_publ_section_title
;
Structure prediction by ZEFSAII (Michael W. Deem and Ramdas Pophale) SiO2 
 PCOD9055574
Probable space group: P -1
;
_chemical_formula_sum "Si O2"
_cell_formula_units_Z 16
_cell_length_a 9.005765
_cell_length_b 15.875908
_cell_length_c 9.933678
_cell_angle_alpha 126.843418
_cell_angle_beta 79.813256
_cell_angle_gamma 62.401717
_cell_volume 773.083603
_symmetry_space_group_name_H-M "P -1"
_symmetry_group_IT_number 2
_symmetry_cell_setting 'triclinic'
loop_
_space_group_symop_operation_xyz
x,y,z
-x,-y,-z
loop_
_atom_site_type_symbol
_atom_site_label
_atom_site_fract_x
_atom_site_fract_y
_atom_site_fract_z
Si Si1 0.294738 0.057015 0.518155
Si Si2 0.094020 0.035832 0.124635
Si Si3 0.712300 0.393704 0.140913
Si Si4 0.518395 0.844048 0.020952
Si Si5 0.006153 0.303084 0.264851
Si Si6 0.916363 0.422818 0.908476
Si Si7 0.014126 0.043400 0.684877
Si Si8 0.706259 0.525671 0.746002
O O1 0.226562 0.005377 0.591561
O O2 0.111975 0.238866 0.706103
O O3 0.500000 0.000000 0.500000
O O4 0.370637 0.975183 0.283230
O O5 0.023220 0.184932 0.228688
O O6 0.356450 0.909090 0.982361
O O7 0.994764 0.042907 0.286808
O O8 0.000000 0.000000 0.000000
O O9 0.459873 0.485466 0.277170
O O10 0.841608 0.369061 0.228708
O O11 0.751084 0.462566 0.087055
O O12 0.832705 0.223355 0.917808
O O13 0.748992 0.785781 0.901664
O O14 0.577655 0.699685 0.927728
O O15 0.894773 0.436483 0.517893
O O16 0.806485 0.467508 0.822768
O O17 0.000000 0.500000 0.000000
O O18 0.000000 0.000000 0.500000
#
# Coordination Sequence:
#
# PCOD9055574 Si02
#       8
#     2   2   2   2   2   2   2   2
#     4  11  23  42  72  99 135 178 222 275 344 394
#     4  12  24  44  67 102 135 178 227 279 335 405
#     4  11  23  45  69  96 139 178 224 282 338 405
#     4  12  24  46  70  98 140 180 223 284 339 401
#     4  12  26  44  69 100 137 180 230 281 341 407
#     4  11  25  44  68 105 139 174 229 280 335 408
#     4  11  21  42  70  96 134 173 224 279 335 400
#     4  12  24  45  69  98 134 184 230 278 343 401
#
# _framework density 20.696338999999998
#
# number of rings (size 3 to 8) (size 9 to 14) (size 15 to 20)
#    0.000    0.500    3.750    5.250    1.750    0.000 
#    4.500    0.000    0.000    0.000    0.000    0.000 
#    0.000    0.000    0.000    0.000    0.000    0.000 
#
# Total GULP energy -89334.999071 kJ/mol
# GULP energy per Si atom -5583.437442 kJ/mol
# Density = 2.064923 g / cm^3
# Si number density = 20.696339 Si / 1000 Ang^3
#
#
#
# Elastic Constant Matrix: (Units=GPa)
#
#
# Indices 1 2 3 4 5 6 
#
# 1 164.3576 55.8461 38.8212 -14.4983 -22.2285 -1.1599
# 2 55.8461 109.1194 30.6815 -22.6275 5.7195 -10.2911
# 3 38.8212 30.6815 79.1664 -16.5964 -9.3256 1.1986
# 4 -14.4983 -22.6275 -16.5964 33.4019 2.2810 0.7699
# 5 -22.2285 5.7195 -9.3256 2.2810 34.4852 -6.9953
# 6 -1.1599 -10.2911 1.1986 0.7699 -6.9953 49.3440
#
#
#
# Elastic Compliance Matrix: (Units=1/GPa)
#
#
# Indices 1 2 3 4 5 6 
#
# 1 0.008791 -0.004324 -0.002057 -0.000543 0.005904 0.000200
# 2 -0.004324 0.013985 -0.002626 0.006648 -0.005862 0.001944
# 3 -0.002057 -0.002626 0.016097 0.005137 0.002993 -0.000643
# 4 -0.000543 0.006648 0.005137 0.036917 -0.002439 0.000327
# 5 0.005904 -0.005862 0.002993 -0.002439 0.035542 0.003920
# 6 0.000200 0.001944 -0.000643 0.000327 0.003920 0.021242
#
#
# Mechanical properties :
#
#
# Convention : Reuss Voigt Hill
#
# Bulk Modulus (GPa) = 47.93882 67.03789 57.48835
# Shear Modulus (GPa) = 31.73768 38.59919 35.16844
#
# Velocity S-wave (km/s) = 3.92023 4.32328 4.12668
# Velocity P-wave (km/s) = 6.61091 7.57512 7.10938
#
# Compressibility (1/GPa) = 0.02085992
#
# Stress axis : x y z
#
# Youngs Moduli (GPa) = 113.74712 71.50614 62.12358
#
# Poissons Ratio (x) = 0.30922 0.12776
# Poissons Ratio (y) = 0.49188 0.16312
# Poissons Ratio (z) = 0.23392 0.18776
#
# Static dielectric constant tensor:
#      x y z
#    x 1.707870 -0.030750 -0.009930 
#    y -0.030750 1.720500 0.035750 
#    z -0.009930 0.035750 1.769710 
# 
# From -- ./inp_files/208668.got.cif
#   From: 2010.05.17/outbox.cif.g08.bks.cpg/sg2_105_cif.got.tgz:208668.got - 2010.06.03 11:33:40.
