data_PCOD9055760
_publ_section_title
;
Structure prediction by ZEFSAII (Michael W. Deem and Ramdas Pophale) SiO2 
 PCOD9055760
Probable space group: P -1
;
_chemical_formula_sum "Si O2"
_cell_formula_units_Z 16
_cell_length_a 6.501218
_cell_length_b 9.277191
_cell_length_c 18.990068
_cell_angle_alpha 115.918021
_cell_angle_beta 52.843515
_cell_angle_gamma 96.397360
_cell_volume 802.205203
_symmetry_space_group_name_H-M "P -1"
_symmetry_group_IT_number 2
_symmetry_cell_setting 'triclinic'
loop_
_space_group_symop_operation_xyz
x,y,z
-x,-y,-z
loop_
_atom_site_type_symbol
_atom_site_label
_atom_site_fract_x
_atom_site_fract_y
_atom_site_fract_z
Si Si1 0.357807 0.849320 0.013326
Si Si2 0.723081 0.566162 0.376531
Si Si3 0.952959 0.663793 0.996135
Si Si4 0.391820 0.882259 0.443648
Si Si5 0.784257 0.962671 0.631641
Si Si6 0.672388 0.204885 0.835414
Si Si7 0.745345 0.618892 0.543580
Si Si8 0.150321 0.454445 0.154377
O O1 0.584454 0.683970 0.925930
O O2 0.250357 0.868928 0.119526
O O3 0.124176 0.799570 0.005806
O O4 0.500000 0.000000 0.000000
O O5 0.575844 0.706967 0.384092
O O6 0.787673 0.636353 0.454153
O O7 0.511524 0.456144 0.411048
O O8 0.982483 0.470345 0.263502
O O9 0.645512 0.746669 0.087702
O O10 0.001890 0.598778 0.892410
O O11 0.000000 0.500000 0.000000
O O12 0.086742 0.896748 0.530544
O O13 0.500000 0.000000 0.500000
O O14 0.382564 0.939702 0.377224
O O15 0.689042 0.795680 0.629248
O O16 0.772464 0.079565 0.725550
O O17 0.777479 0.371037 0.839172
O O18 0.000000 0.500000 0.500000
#
# Coordination Sequence:
#
# PCOD9055760 Si02
#       8
#     2   2   2   2   2   2   2   2
#     4  11  25  45  67 100 140 171 217 284 331 397
#     4  11  25  41  68  94 132 179 220 272 338 394
#     4  11  21  43  70  93 131 177 213 269 339 392
#     4  11  22  41  61  94 130 165 222 277 322 389
#     4  11  25  39  66  96 131 171 222 278 332 388
#     4  11  24  41  67 101 130 170 229 272 329 400
#     4  11  24  46  62  91 138 178 216 272 333 404
#     4  11  24  42  68 101 129 170 233 270 325 407
#
# _framework density 19.945022999999999
#
# number of rings (size 3 to 8) (size 9 to 14) (size 15 to 20)
#    0.000    1.000    5.000    1.500    3.500    7.000 
#    0.000    0.000    0.000    0.000    0.000    0.000 
#    0.000    0.000    0.000    0.000    0.000    0.000 
#
# Total GULP energy -89383.862026 kJ/mol
# GULP energy per Si atom -5586.491377 kJ/mol
# Density = 1.989963 g / cm^3
# Si number density = 19.945023 Si / 1000 Ang^3
#
#
#
# Elastic Constant Matrix: (Units=GPa)
#
#
# Indices 1 2 3 4 5 6 
#
# 1 89.3036 27.3932 17.4983 2.3120 20.9174 16.2279
# 2 27.3932 94.5490 23.9171 11.9602 18.6322 20.8236
# 3 17.4983 23.9171 90.1003 3.9015 22.5728 2.8719
# 4 2.3120 11.9602 3.9015 27.9455 7.6874 1.1302
# 5 20.9174 18.6322 22.5728 7.6874 25.2953 6.6130
# 6 16.2279 20.8236 2.8719 1.1302 6.6130 40.5860
#
#
#
# Elastic Compliance Matrix: (Units=1/GPa)
#
#
# Indices 1 2 3 4 5 6 
#
# 1 0.014837 -0.001803 0.000409 0.002721 -0.011277 -0.003275
# 2 -0.001803 0.014246 -0.001935 -0.004204 -0.004536 -0.005596
# 3 0.000409 -0.001935 0.014682 0.002301 -0.013204 0.001878
# 4 0.002721 -0.004204 0.002301 0.040849 -0.014164 0.002076
# 5 -0.011277 -0.004536 -0.013204 -0.014164 0.069096 -0.003093
# 6 -0.003275 -0.005596 0.001878 0.002076 -0.003093 0.029133
#
#
# Mechanical properties :
#
#
# Convention : Reuss Voigt Hill
#
# Bulk Modulus (GPa) = 26.94915 45.73003 36.33959
# Shear Modulus (GPa) = 24.76860 32.44163 28.60511
#
# Velocity S-wave (km/s) = 3.52780 4.03743 3.79119
# Velocity P-wave (km/s) = 5.48953 6.68672 6.11748
#
# Compressibility (1/GPa) = 0.03710692
#
# Stress axis : x y z
#
# Youngs Moduli (GPa) = 67.40109 70.19389 68.11265
#
# Poissons Ratio (x) = 0.12654 -0.02785
# Poissons Ratio (y) = 0.12151 0.13178
# Poissons Ratio (z) = -0.02756 0.13581
#
# Static dielectric constant tensor:
#      x y z
#    x 1.008710 -0.059650 -0.026440 
#    y -0.059650 1.719210 -0.019020 
#    z -0.026440 -0.019020 1.673540 
# 
# From -- ./inp_files/49261.got.cif
#   From: 2010.05.17/outbox.cif.g08.bks.cpg/sg2_25_cif.got.tgz:49261.got - 2010.06.03 11:33:40.
