data_PCOD9055836
_publ_section_title
;
Structure prediction by ZEFSAII (Michael W. Deem and Ramdas Pophale) SiO2 
 PCOD9055836
Probable space group: P -1
;
_chemical_formula_sum "Si O2"
_cell_formula_units_Z 14
_cell_length_a 11.879201
_cell_length_b 13.654599
_cell_length_c 9.551484
_cell_angle_alpha 148.577594
_cell_angle_beta 51.590183
_cell_angle_gamma 115.983629
_cell_volume 616.640645
_symmetry_space_group_name_H-M "P -1"
_symmetry_group_IT_number 2
_symmetry_cell_setting 'triclinic'
loop_
_space_group_symop_operation_xyz
x,y,z
-x,-y,-z
loop_
_atom_site_type_symbol
_atom_site_label
_atom_site_fract_x
_atom_site_fract_y
_atom_site_fract_z
Si Si1 0.891352 0.274367 0.196418
Si Si2 0.327727 0.313231 0.146421
Si Si3 0.567217 0.498994 0.102117
Si Si4 0.814107 0.869339 0.731227
Si Si5 0.386605 0.130446 0.352411
Si Si6 0.781772 0.889733 0.272971
Si Si7 0.122628 0.742805 0.478686
O O1 0.787307 0.480250 0.492762
O O2 0.906944 0.262245 0.339068
O O3 0.057553 0.240419 0.968887
O O4 0.825311 0.092024 0.980182
O O5 0.488071 0.358354 0.078359
O O6 0.297709 0.163923 0.101986
O O7 0.296879 0.229106 0.917438
O O8 0.536533 0.706302 0.448883
O O9 0.500000 0.500000 0.000000
O O10 0.742081 0.429423 0.873311
O O11 0.756206 0.793262 0.542006
O O12 0.974180 0.757353 0.524460
O O13 0.320788 0.045617 0.435353
O O14 0.500000 0.000000 0.000000
O O15 0.819829 0.066556 0.373515
#
# Coordination Sequence:
#
# PCOD9055836 Si02
#       7
#     2   2   2   2   2   2   2
#     4  11  21  43  74 113 140 179 250 300 343 438
#     4  12  23  42  78 104 140 196 238 296 356 423
#     4  12  26  45  72 108 142 191 248 286 354 437
#     4  11  26  46  71 105 150 184 235 304 361 414
#     4  12  29  49  68 105 153 190 234 305 363 420
#     4  11  23  43  74 105 140 195 241 285 373 418
#     4  11  23  44  75 111 140 180 250 301 343 439
#
# _framework density 22.703661
#
# number of rings (size 3 to 8) (size 9 to 14) (size 15 to 20)
#    0.000    0.571    5.714    2.143    4.000    4.000 
#    2.571    0.000    0.000    0.000    0.000    0.000 
#    0.000    0.000    0.000    0.000    0.000    0.000 
#
# Total GULP energy -78384.175319 kJ/mol
# GULP energy per Si atom -5598.869666 kJ/mol
# Density = 2.265199 g / cm^3
# Si number density = 22.703661 Si / 1000 Ang^3
#
#
#
# Elastic Constant Matrix: (Units=GPa)
#
#
# Indices 1 2 3 4 5 6 
#
# 1 81.9129 28.9555 35.5538 8.5897 14.4165 15.2839
# 2 28.9555 107.6468 31.9148 -16.3857 6.7962 26.6192
# 3 35.5538 31.9148 124.4000 -17.1295 2.3822 9.6893
# 4 8.5897 -16.3857 -17.1295 22.6974 11.7028 -3.9351
# 5 14.4165 6.7962 2.3822 11.7028 35.0141 0.8081
# 6 15.2839 26.6192 9.6893 -3.9351 0.8081 27.7644
#
#
#
# Elastic Compliance Matrix: (Units=1/GPa)
#
#
# Indices 1 2 3 4 5 6 
#
# 1 0.019358 -0.003904 -0.006038 -0.015069 -0.001606 -0.006895
# 2 -0.003904 0.015384 -0.000019 0.013697 -0.005713 -0.010486
# 3 -0.006038 -0.000019 0.011426 0.012360 -0.002446 0.001177
# 4 -0.015069 0.013697 0.012360 0.082382 -0.024905 0.003250
# 5 -0.001606 -0.005713 -0.002446 -0.024905 0.038762 0.002558
# 6 -0.006895 -0.010486 0.001177 0.003250 0.002558 0.049842
#
#
# Mechanical properties :
#
#
# Convention : Reuss Voigt Hill
#
# Bulk Modulus (GPa) = 38.10042 56.31199 47.20620
# Shear Modulus (GPa) = 20.33967 31.59755 25.96861
#
# Velocity S-wave (km/s) = 2.99637 3.73465 3.38569
# Velocity P-wave (km/s) = 5.36554 6.59194 6.01010
#
# Compressibility (1/GPa) = 0.02624643
#
# Stress axis : x y z
#
# Youngs Moduli (GPa) = 51.65694 65.00215 87.51816
#
# Poissons Ratio (x) = 0.25379 0.52845
# Poissons Ratio (y) = 0.20168 0.00164
# Poissons Ratio (z) = 0.31191 0.00122
#
# Static dielectric constant tensor:
#      x y z
#    x 1.855240 -0.008480 -0.067910 
#    y -0.008480 1.865140 0.023470 
#    z -0.067910 0.023470 1.867800 
# 
# From -- ./inp_files/274798.got.cif
#   From: 2010.05.17/outbox.cif.g08.bks.cpg/sg2_138_cif.got.tgz:274798.got - 2010.06.03 11:33:40.
