data_PCOD9055990
_publ_section_title
;
Structure prediction by ZEFSAII (Michael W. Deem and Ramdas Pophale) SiO2 
 PCOD9055990
Probable space group: P -1
;
_chemical_formula_sum "Si O2"
_cell_formula_units_Z 16
_cell_length_a 17.392348
_cell_length_b 9.297125
_cell_length_c 22.641971
_cell_angle_alpha 30.074454
_cell_angle_beta 159.700237
_cell_angle_gamma 142.291031
_cell_volume 632.078753
_symmetry_space_group_name_H-M "P -1"
_symmetry_group_IT_number 2
_symmetry_cell_setting 'triclinic'
loop_
_space_group_symop_operation_xyz
x,y,z
-x,-y,-z
loop_
_atom_site_type_symbol
_atom_site_label
_atom_site_fract_x
_atom_site_fract_y
_atom_site_fract_z
Si Si1 0.738002 0.548523 0.627062
Si Si2 0.180436 0.786760 0.558878
Si Si3 0.485720 0.409051 0.713667
Si Si4 0.207871 0.442218 0.213518
Si Si5 0.480222 0.838960 0.657386
Si Si6 0.282973 0.926012 0.902758
Si Si7 0.965647 0.337364 0.375120
Si Si8 0.145548 0.379534 0.922652
O O1 0.500000 0.500000 0.500000
O O2 0.879927 0.458207 0.821006
O O3 0.881159 0.371342 0.743095
O O4 0.742197 0.888099 0.493386
O O5 0.341964 0.661105 0.667413
O O6 0.157791 0.648381 0.655769
O O7 0.930360 0.839979 0.334952
O O8 0.582395 0.425329 0.711996
O O9 0.545590 0.677446 0.701144
O O10 0.222873 0.406337 0.536063
O O11 0.633547 0.146195 0.945636
O O12 0.312053 0.113783 0.418661
O O13 0.000000 0.500000 0.000000
O O14 0.694182 0.874128 0.840386
O O15 0.203471 0.658365 0.903265
O O16 0.500000 0.000000 0.000000
O O17 0.828337 0.539584 0.155613
O O18 0.000000 0.000000 0.500000
#
# Coordination Sequence:
#
# PCOD9055990 Si02
#       8
#     2   2   2   2   2   2   2   2
#     4  10  20  38  61  90 119 163 210 247 306 365
#     4  10  21  37  62  85 125 160 205 254 301 368
#     4  11  22  36  64  93 121 163 204 255 313 356
#     4  11  22  40  65  91 121 158 212 261 298 371
#     4  10  23  42  59  88 132 162 199 253 323 367
#     4  10  17  36  59  89 113 160 204 241 307 358
#     4  12  21  38  64  92 123 159 214 256 292 365
#     4  10  21  38  61  86 126 163 196 258 310 355
#
# _framework density 25.313303000000001
#
# number of rings (size 3 to 8) (size 9 to 14) (size 15 to 20)
#    0.000    1.500    3.750    4.125    0.000    1.000 
#    0.000    8.125    2.750    0.000    0.000    0.000 
#    0.000    0.000    0.000    0.000    0.000    0.000 
#
# Total GULP energy -89355.794556 kJ/mol
# GULP energy per Si atom -5584.737160 kJ/mol
# Density = 2.525569 g / cm^3
# Si number density = 25.313303 Si / 1000 Ang^3
#
#
#
# Elastic Constant Matrix: (Units=GPa)
#
#
# Indices 1 2 3 4 5 6 
#
# 1 150.4406 25.3098 18.9467 -8.4557 -19.5507 44.0235
# 2 25.3098 72.8835 24.9854 13.6201 -1.3247 30.2579
# 3 18.9467 24.9854 134.4025 6.0788 -8.7545 11.9270
# 4 -8.4557 13.6201 6.0788 30.1652 6.7194 8.9998
# 5 -19.5507 -1.3247 -8.7545 6.7194 51.9468 1.5553
# 6 44.0235 30.2579 11.9270 8.9998 1.5553 45.0044
#
#
#
# Elastic Compliance Matrix: (Units=1/GPa)
#
#
# Indices 1 2 3 4 5 6 
#
# 1 0.011029 0.000409 -0.000572 0.005846 0.003674 -0.012207
# 2 0.000409 0.020675 -0.002455 -0.005248 0.001325 -0.012646
# 3 -0.000572 -0.002455 0.008082 -0.001019 0.001209 0.000231
# 4 0.005846 -0.005248 -0.001019 0.041048 -0.003115 -0.010021
# 5 0.003674 0.001325 0.001209 -0.003115 0.021421 -0.004922
# 6 -0.012207 -0.012646 0.000231 -0.010021 -0.004922 0.044777
#
#
# Mechanical properties :
#
#
# Convention : Reuss Voigt Hill
#
# Bulk Modulus (GPa) = 28.94561 55.13448 42.04004
# Shear Modulus (GPa) = 30.52776 44.65561 37.59168
#
# Velocity S-wave (km/s) = 3.47651 4.20469 3.85782
# Velocity P-wave (km/s) = 5.25115 6.73801 6.04050
#
# Compressibility (1/GPa) = 0.03454755
#
# Stress axis : x y z
#
# Youngs Moduli (GPa) = 90.67146 48.36730 123.73499
#
# Poissons Ratio (x) = -0.01976 0.07084
# Poissons Ratio (y) = -0.03705 0.30380
# Poissons Ratio (z) = 0.05191 0.11875
#
# Static dielectric constant tensor:
#      x y z
#    x 2.014990 -0.074230 -0.035240 
#    y -0.074230 2.181620 0.038250 
#    z -0.035240 0.038250 2.073830 
# 
# From -- ./inp_files/226519.got.cif
#   From: 2010.05.17/outbox.cif.g08.bks.cpg/sg2_114_cif.got.tgz:226519.got - 2010.06.03 11:33:40.
