data_PCOD9055818
_publ_section_title
;
Structure prediction by ZEFSAII (Michael W. Deem and Ramdas Pophale) SiO2 
 PCOD9055818
Probable space group: P -1
;
_chemical_formula_sum "Si O2"
_cell_formula_units_Z 16
_cell_length_a 8.738905
_cell_length_b 13.961421
_cell_length_c 9.252716
_cell_angle_alpha 65.122660
_cell_angle_beta 112.427674
_cell_angle_gamma 141.127739
_cell_volume 639.845514
_symmetry_space_group_name_H-M "P -1"
_symmetry_group_IT_number 2
_symmetry_cell_setting 'triclinic'
loop_
_space_group_symop_operation_xyz
x,y,z
-x,-y,-z
loop_
_atom_site_type_symbol
_atom_site_label
_atom_site_fract_x
_atom_site_fract_y
_atom_site_fract_z
Si Si1 0.494939 0.192116 0.174008
Si Si2 0.223834 0.134034 0.826910
Si Si3 0.721530 0.521885 0.078577
Si Si4 0.997454 0.662916 0.789720
Si Si5 0.908322 0.060951 0.344258
Si Si6 0.336700 0.582983 0.408774
Si Si7 0.073922 0.298148 0.674343
Si Si8 0.577858 0.176924 0.522485
O O1 0.599661 0.352532 0.164988
O O2 0.717699 0.229279 0.164720
O O3 0.439730 0.115071 0.358355
O O4 0.317569 0.136978 0.012902
O O5 0.084758 0.973685 0.796988
O O6 0.439426 0.275245 0.704025
O O7 0.079901 0.175504 0.764779
O O8 0.896085 0.640272 0.194526
O O9 0.500000 0.500000 0.000000
O O10 0.865558 0.580782 0.944261
O O11 0.884890 0.533410 0.710579
O O12 0.950765 0.765637 0.677307
O O13 0.629338 0.954030 0.355791
O O14 0.000000 0.000000 0.500000
O O15 0.301266 0.455818 0.564803
O O16 0.326725 0.667225 0.475369
O O17 0.817820 0.218485 0.570035
#
# Coordination Sequence:
#
# PCOD9055818 Si02
#       8
#     2   2   2   2   2   2   2   2
#     4  12  24  46  73 109 145 183 240 295 364 416
#     4  11  26  45  73 102 147 190 240 294 359 433
#     4  12  25  42  73 115 147 182 236 306 363 422
#     4  12  26  45  74 104 147 191 237 296 361 429
#     4  11  29  52  71 101 147 199 242 292 361 439
#     4  11  21  43  73 106 139 190 238 295 355 427
#     4  12  22  42  69 112 137 187 240 303 356 418
#     4  11  26  45  77 104 147 182 245 301 357 430
#
# _framework density 25.006035000000001
#
# number of rings (size 3 to 8) (size 9 to 14) (size 15 to 20)
#    0.000    0.500    5.000    2.625    5.250    2.000 
#    0.000    1.250    0.000    0.000    0.000    0.000 
#    0.000    0.000    0.000    0.000    0.000    0.000 
#
# Total GULP energy -89594.536154 kJ/mol
# GULP energy per Si atom -5599.658510 kJ/mol
# Density = 2.494912 g / cm^3
# Si number density = 25.006035 Si / 1000 Ang^3
#
#
#
# Elastic Constant Matrix: (Units=GPa)
#
#
# Indices 1 2 3 4 5 6 
#
# 1 97.5156 33.8935 48.6066 15.0571 1.7962 -14.2935
# 2 33.8935 102.2986 38.0561 16.3818 2.8236 -21.1974
# 3 48.6066 38.0561 144.8236 33.6593 -12.7060 -10.4371
# 4 15.0571 16.3818 33.6593 33.3165 -6.8191 -4.9762
# 5 1.7962 2.8236 -12.7060 -6.8191 40.3297 -2.1510
# 6 -14.2935 -21.1974 -10.4371 -4.9762 -2.1510 23.1124
#
#
#
# Elastic Compliance Matrix: (Units=1/GPa)
#
#
# Indices 1 2 3 4 5 6 
#
# 1 0.013614 -0.002001 -0.003572 -0.001194 -0.001550 0.004570
# 2 -0.002001 0.013564 -0.001627 -0.002949 -0.001354 0.009708
# 3 -0.003572 -0.001627 0.010513 -0.007812 0.002242 -0.000427
# 4 -0.001194 -0.002949 -0.007812 0.041254 0.004900 0.002367
# 5 -0.001550 -0.001354 0.002242 0.004900 0.026619 0.002344
# 6 0.004570 0.009708 -0.000427 0.002367 0.002344 0.055531
#
#
# Mechanical properties :
#
#
# Convention : Reuss Voigt Hill
#
# Bulk Modulus (GPa) = 42.93408 65.08335 54.00872
# Shear Modulus (GPa) = 27.28393 34.29050 30.78721
#
# Velocity S-wave (km/s) = 3.30675 3.70711 3.51264
# Velocity P-wave (km/s) = 5.63793 6.66387 6.17225
#
# Compressibility (1/GPa) = 0.02329152
#
# Stress axis : x y z
#
# Youngs Moduli (GPa) = 73.45623 73.72196 95.12170
#
# Poissons Ratio (x) = 0.14748 0.33982
# Poissons Ratio (y) = 0.14695 0.15474
# Poissons Ratio (z) = 0.26242 0.11992
#
# Static dielectric constant tensor:
#      x y z
#    x 3.412840 0.483090 0.571740 
#    y 0.483090 2.130540 0.145370 
#    z 0.571740 0.145370 2.193020 
# 
# From -- ./inp_files/206505.got.cif
#   From: 2010.05.17/outbox.cif.g08.bks.cpg/sg2_104_cif.got.tgz:206505.got - 2010.06.03 11:33:40.
