data_PCOD9055373
_publ_section_title
;
Structure prediction by ZEFSAII (Michael W. Deem and Ramdas Pophale) SiO2 
 PCOD9055373
Probable space group: P -1
;
_chemical_formula_sum "Si O2"
_cell_formula_units_Z 14
_cell_length_a 10.958313
_cell_length_b 8.341017
_cell_length_c 23.031509
_cell_angle_alpha 145.489004
_cell_angle_beta 151.854892
_cell_angle_gamma 42.828601
_cell_volume 562.425495
_symmetry_space_group_name_H-M "P -1"
_symmetry_group_IT_number 2
_symmetry_cell_setting 'triclinic'
loop_
_space_group_symop_operation_xyz
x,y,z
-x,-y,-z
loop_
_atom_site_type_symbol
_atom_site_label
_atom_site_fract_x
_atom_site_fract_y
_atom_site_fract_z
Si Si1 0.031069 0.465547 0.907746
Si Si2 0.428832 0.621755 0.568299
Si Si3 0.019132 0.614690 0.820175
Si Si4 0.663202 0.992657 0.624704
Si Si5 0.585132 0.918226 0.883012
Si Si6 0.494734 0.439857 0.784782
Si Si7 0.764735 0.840241 0.299299
O O1 0.135509 0.529278 0.906471
O O2 0.929250 0.151320 0.775519
O O3 0.778064 0.667572 0.867106
O O4 0.223103 0.529116 0.058851
O O5 0.500000 0.500000 0.500000
O O6 0.722721 0.719693 0.737484
O O7 0.231933 0.869771 0.576901
O O8 0.304577 0.340677 0.456418
O O9 0.016977 0.336659 0.696435
O O10 0.212242 0.841341 0.941691
O O11 0.516708 0.171403 0.668801
O O12 0.500000 0.000000 0.500000
O O13 0.433515 0.737015 0.814129
O O14 0.414981 0.053976 0.800084
O O15 0.334706 0.367375 0.753602
#
# Coordination Sequence:
#
# PCOD9055373 Si02
#       7
#     2   2   2   2   2   2   2
#     4  11  22  42  73 103 138 183 234 287 347 414
#     4  12  25  44  70  94 138 189 231 280 351 408
#     4  12  25  43  70 103 140 181 231 289 346 413
#     4  11  21  41  69  99 133 181 232 286 338 410
#     4  11  22  42  71  99 139 182 222 286 357 402
#     4  11  24  41  71 106 138 180 239 284 343 422
#     4  12  25  46  69 103 141 180 230 290 346 413
#
# _framework density 24.892185999999999
#
# number of rings (size 3 to 8) (size 9 to 14) (size 15 to 20)
#    0.000    0.571    5.714    4.286    2.000    1.143 
#    0.000    0.714    0.000    0.000    0.000    0.000 
#    0.000    0.000    0.000    0.000    0.000    0.000 
#
# Total GULP energy -78115.050457 kJ/mol
# GULP energy per Si atom -5579.646461 kJ/mol
# Density = 2.483553 g / cm^3
# Si number density = 24.892186 Si / 1000 Ang^3
#
#
#
# Elastic Constant Matrix: (Units=GPa)
#
#
# Indices 1 2 3 4 5 6 
#
# 1 91.3079 76.2189 24.5745 4.3602 -11.8754 15.5136
# 2 76.2189 117.9628 44.4012 18.5927 5.6027 -6.9225
# 3 24.5745 44.4012 78.7181 13.7152 -5.2832 10.6175
# 4 4.3602 18.5927 13.7152 44.9485 13.1774 -1.5362
# 5 -11.8754 5.6027 -5.2832 13.1774 39.6709 7.0721
# 6 15.5136 -6.9225 10.6175 -1.5362 7.0721 47.1526
#
#
#
# Elastic Compliance Matrix: (Units=1/GPa)
#
#
# Indices 1 2 3 4 5 6 
#
# 1 0.048387 -0.038791 0.012725 -0.001500 0.027257 -0.028617
# 2 -0.038791 0.042820 -0.017158 -0.000633 -0.024470 0.026562
# 3 0.012725 -0.017158 0.022099 -0.005283 0.013402 -0.013864
# 4 -0.001500 -0.000633 -0.005283 0.027626 -0.010977 0.004137
# 5 0.027257 -0.024470 0.013402 -0.010977 0.046333 -0.022885
# 6 -0.028617 0.026562 -0.013864 0.004137 -0.022885 0.041211
#
#
# Mechanical properties :
#
#
# Convention : Reuss Voigt Hill
#
# Bulk Modulus (GPa) = 37.23225 64.26423 50.74824
# Shear Modulus (GPa) = 15.43797 35.87403 25.65600
#
# Velocity S-wave (km/s) = 2.49307 3.80040 3.21391
# Velocity P-wave (km/s) = 4.82463 6.71792 5.84840
#
# Compressibility (1/GPa) = 0.02685843
#
# Stress axis : x y z
#
# Youngs Moduli (GPa) = 20.66678 23.35347 45.25184
#
# Poissons Ratio (x) = 0.90591 -0.57585
# Poissons Ratio (y) = 0.80169 0.77641
# Poissons Ratio (z) = -0.26299 0.40069
#
# Static dielectric constant tensor:
#      x y z
#    x 1.966990 0.055290 -0.038510 
#    y 0.055290 1.944520 -0.040530 
#    z -0.038510 -0.040530 2.009390 
# 
# From -- ./inp_files/563439.got.cif
#   From: 2010.05.17/outbox.cif.g08.bks.cpg/sg2_282_cif.got.tgz:563439.got - 2010.06.03 11:33:40.
