data_PCOD9055511
_publ_section_title
;
Structure prediction by ZEFSAII (Michael W. Deem and Ramdas Pophale) SiO2 
 PCOD9055511
Probable space group: P -1
;
_chemical_formula_sum "Si O2"
_cell_formula_units_Z 16
_cell_length_a 19.549210
_cell_length_b 11.042892
_cell_length_c 16.450750
_cell_angle_alpha 30.745526
_cell_angle_beta 21.084999
_cell_angle_gamma 37.984484
_cell_volume 651.330540
_symmetry_space_group_name_H-M "P -1"
_symmetry_group_IT_number 2
_symmetry_cell_setting 'triclinic'
loop_
_space_group_symop_operation_xyz
x,y,z
-x,-y,-z
loop_
_atom_site_type_symbol
_atom_site_label
_atom_site_fract_x
_atom_site_fract_y
_atom_site_fract_z
Si Si1 0.036397 0.991719 0.611301
Si Si2 0.529752 0.686497 0.731876
Si Si3 0.843425 0.477318 0.846264
Si Si4 0.487021 0.190824 0.149959
Si Si5 0.884490 0.751813 0.198921
Si Si6 0.674293 0.318879 0.591202
Si Si7 0.969663 0.815585 0.322813
Si Si8 0.662737 0.912503 0.977657
O O1 0.951658 0.075348 0.741970
O O2 0.141124 0.240095 0.321525
O O3 0.190023 0.798558 0.556872
O O4 0.875229 0.891969 0.785209
O O5 0.453822 0.827389 0.811253
O O6 0.718465 0.809055 0.413060
O O7 0.370062 0.625629 0.876598
O O8 0.572808 0.435163 0.871277
O O9 0.953630 0.410207 0.679037
O O10 0.953720 0.368466 0.860553
O O11 0.258628 0.209415 0.395492
O O12 0.548972 0.987406 0.140528
O O13 0.774479 0.563720 0.369154
O O14 0.974098 0.977772 0.923148
O O15 0.461597 0.306633 0.798228
O O16 0.666422 0.134210 0.782731
#
# Coordination Sequence:
#
# PCOD9055511 Si02
#       8
#     2   2   2   2   2   2   2   2
#     4  12  24  43  72 103 126 176 233 275 321 393
#     4  11  23  40  71  97 132 177 224 273 325 396
#     4  12  24  43  72  99 132 178 225 272 327 401
#     4  11  21  42  68 101 131 173 225 277 330 382
#     4  12  27  46  65 100 144 177 212 273 344 396
#     4  11  24  42  70  97 133 175 226 276 327 387
#     4  12  26  45  67 101 143 173 213 279 343 393
#     4  11  22  41  69  99 128 173 227 285 315 385
#
# _framework density 24.565100000000001
#
# number of rings (size 3 to 8) (size 9 to 14) (size 15 to 20)
#    0.000    0.500    6.250    1.875    3.500    1.000 
#    2.250    0.625    0.000    0.000    0.000    0.000 
#    0.000    0.000    0.000    0.000    0.000    0.000 
#
# Total GULP energy -89643.652397 kJ/mol
# GULP energy per Si atom -5602.728275 kJ/mol
# Density = 2.450919 g / cm^3
# Si number density = 24.565100 Si / 1000 Ang^3
#
#
#
# Elastic Constant Matrix: (Units=GPa)
#
#
# Indices 1 2 3 4 5 6 
#
# 1 95.3151 10.8981 37.5876 -0.1269 -31.5334 16.9515
# 2 10.8981 58.3643 15.1535 4.5256 -2.8958 27.4551
# 3 37.5876 15.1535 86.0617 6.7585 -20.0534 -5.1449
# 4 -0.1269 4.5256 6.7585 31.4730 4.4743 -8.0724
# 5 -31.5334 -2.8958 -20.0534 4.4743 55.7187 3.8275
# 6 16.9515 27.4551 -5.1449 -8.0724 3.8275 33.8056
#
#
#
# Elastic Compliance Matrix: (Units=1/GPa)
#
#
# Indices 1 2 3 4 5 6 
#
# 1 0.020714 0.010569 -0.009152 -0.007033 0.011144 -0.023305
# 2 0.010569 0.041008 -0.011294 -0.016211 0.008452 -0.045152
# 3 -0.009152 -0.011294 0.018344 0.002110 -0.000510 0.017115
# 4 -0.007033 -0.016211 0.002110 0.042176 -0.009383 0.028147
# 5 0.011144 0.008452 -0.000510 -0.009383 0.026484 -0.017769
# 6 -0.023305 -0.045152 0.017115 0.028147 -0.017769 0.089274
#
#
# Mechanical properties :
#
#
# Convention : Reuss Voigt Hill
#
# Bulk Modulus (GPa) = 16.57989 40.77993 28.67991
# Shear Modulus (GPa) = 17.99472 35.93959 26.96716
#
# Velocity S-wave (km/s) = 2.70947 3.82911 3.31688
# Velocity P-wave (km/s) = 4.06845 6.01550 5.13510
#
# Compressibility (1/GPa) = 0.06031402
#
# Stress axis : x y z
#
# Youngs Moduli (GPa) = 48.27549 24.38519 54.51343
#
# Poissons Ratio (x) = -0.25774 0.49892
# Poissons Ratio (y) = -0.51025 0.61566
# Poissons Ratio (z) = 0.44183 0.27540
#
# Static dielectric constant tensor:
#      x y z
#    x 2.006610 0.034000 -0.012990 
#    y 0.034000 1.947300 0.027560 
#    z -0.012990 0.027560 1.917580 
# 
# From -- ./inp_files/307725.got.cif
#   From: 2010.05.17/outbox.cif.g08.bks.cpg/sg2_154_cif.got.tgz:307725.got - 2010.06.03 11:33:40.
