data_PCOD9055852
_publ_section_title
;
Structure prediction by ZEFSAII (Michael W. Deem and Ramdas Pophale) SiO2 
 PCOD9055852
Probable space group: P -1
;
_chemical_formula_sum "Si O2"
_cell_formula_units_Z 16
_cell_length_a 19.136776
_cell_length_b 6.023672
_cell_length_c 23.717348
_cell_angle_alpha 78.974056
_cell_angle_beta 17.022468
_cell_angle_gamma 71.209647
_cell_volume 687.206859
_symmetry_space_group_name_H-M "P -1"
_symmetry_group_IT_number 2
_symmetry_cell_setting 'triclinic'
loop_
_space_group_symop_operation_xyz
x,y,z
-x,-y,-z
loop_
_atom_site_type_symbol
_atom_site_label
_atom_site_fract_x
_atom_site_fract_y
_atom_site_fract_z
Si Si1 0.100310 0.459340 0.639435
Si Si2 0.322758 0.769118 0.324093
Si Si3 0.320348 0.987240 0.432074
Si Si4 0.250939 0.985346 0.105093
Si Si5 0.837807 0.741856 0.655834
Si Si6 0.487929 0.584447 0.410449
Si Si7 0.180789 0.779922 0.057871
Si Si8 0.718757 0.108300 0.328523
O O1 0.029483 0.282962 0.742850
O O2 0.278161 0.272621 0.460904
O O3 0.282533 0.542102 0.531416
O O4 0.825051 0.728153 0.829676
O O5 0.043899 0.751754 0.541760
O O6 0.412722 0.848420 0.308211
O O7 0.265281 0.995122 0.313338
O O8 0.550214 0.489798 0.142815
O O9 0.000756 0.050816 0.677367
O O10 0.518373 0.791801 0.337224
O O11 0.233606 0.962900 0.051084
O O12 0.555873 0.769780 0.895890
O O13 0.000000 0.500000 0.500000
O O14 0.697020 0.297821 0.285118
O O15 0.355297 0.730449 0.563750
O O16 0.030714 0.894535 0.109286
O O17 0.500000 0.000000 0.500000
#
# Coordination Sequence:
#
# PCOD9055852 Si02
#       8
#     2   2   2   2   2   2   2   2
#     4  10  17  36  59  83 118 156 200 239 285 350
#     4  11  25  39  61  90 121 156 195 251 304 353
#     4  10  22  38  58  90 124 157 196 243 301 349
#     4  10  20  38  64  86 113 160 202 240 291 357
#     4  11  23  41  63  88 119 152 204 247 297 360
#     4  10  19  33  58  89 120 152 202 244 291 342
#     4  11  19  36  60  89 116 155 201 244 291 353
#     4  11  19  31  59  95 117 152 206 252 280 344
#
# _framework density 23.282653
#
# number of rings (size 3 to 8) (size 9 to 14) (size 15 to 20)
#    0.000    1.500    7.500    0.000    0.000    2.500 
#    0.000    1.875    0.000    3.000    0.000    0.000 
#    0.000    0.000    0.000    0.000    0.000    0.000 
#
# Total GULP energy -89224.711224 kJ/mol
# GULP energy per Si atom -5576.544452 kJ/mol
# Density = 2.322966 g / cm^3
# Si number density = 23.282653 Si / 1000 Ang^3
#
#
#
# Elastic Constant Matrix: (Units=GPa)
#
#
# Indices 1 2 3 4 5 6 
#
# 1 82.8008 28.8869 4.9542 20.8859 0.4573 9.9675
# 2 28.8869 92.1644 25.1615 30.8397 -1.9994 8.1832
# 3 4.9542 25.1615 40.2433 18.4267 -14.7526 -8.4638
# 4 20.8859 30.8397 18.4267 40.7797 0.2007 -3.8206
# 5 0.4573 -1.9994 -14.7526 0.2007 26.9247 4.6488
# 6 9.9675 8.1832 -8.4638 -3.8206 4.6488 44.1243
#
#
#
# Elastic Compliance Matrix: (Units=1/GPa)
#
#
# Indices 1 2 3 4 5 6 
#
# 1 0.015100 -0.002870 0.003403 -0.007399 0.001981 -0.003076
# 2 -0.002870 0.017131 -0.008573 -0.008031 -0.002522 -0.004603
# 3 0.003403 -0.008573 0.047418 -0.016249 0.024382 0.005941
# 4 -0.007399 -0.008031 -0.016249 0.042229 -0.010519 0.004809
# 5 0.001981 -0.002522 0.024382 -0.010519 0.050625 -0.001547
# 6 -0.003076 -0.004603 0.005941 0.004809 -0.001547 0.025931
#
#
# Mechanical properties :
#
#
# Convention : Reuss Voigt Hill
#
# Bulk Modulus (GPa) = 15.73109 37.02375 26.37742
# Shear Modulus (GPa) = 21.21291 32.77946 26.99619
#
# Velocity S-wave (km/s) = 3.02172 3.75626 3.40883
# Velocity P-wave (km/s) = 4.35266 5.89483 5.18144
#
# Compressibility (1/GPa) = 0.06356840
#
# Stress axis : x y z
#
# Youngs Moduli (GPa) = 66.22306 58.37208 21.08906
#
# Poissons Ratio (x) = 0.16753 -0.07176
# Poissons Ratio (y) = 0.19006 0.18080
# Poissons Ratio (z) = -0.22533 0.50045
#
# Static dielectric constant tensor:
#      x y z
#    x 1.898920 -0.038810 -0.001240 
#    y -0.038810 1.998430 0.007780 
#    z -0.001240 0.007780 1.936890 
# 
# From -- ./inp_files/45373.got.cif
#   From: 2010.05.17/outbox.cif.g08.bks.cpg/sg2_23_cif.got.tgz:45373.got - 2010.06.03 11:33:40.
