data_PCOD9055570
_publ_section_title
;
Structure prediction by ZEFSAII (Michael W. Deem and Ramdas Pophale) SiO2 
 PCOD9055570
Probable space group: P -1
;
_chemical_formula_sum "Si O2"
_cell_formula_units_Z 16
_cell_length_a 13.744877
_cell_length_b 18.927591
_cell_length_c 8.083855
_cell_angle_alpha 67.093035
_cell_angle_beta 114.145023
_cell_angle_gamma 157.569856
_cell_volume 731.864572
_symmetry_space_group_name_H-M "P -1"
_symmetry_group_IT_number 2
_symmetry_cell_setting 'triclinic'
loop_
_space_group_symop_operation_xyz
x,y,z
-x,-y,-z
loop_
_atom_site_type_symbol
_atom_site_label
_atom_site_fract_x
_atom_site_fract_y
_atom_site_fract_z
Si Si1 0.117143 0.064209 0.745208
Si Si2 0.393375 0.243230 0.131079
Si Si3 0.256551 0.386040 0.002427
Si Si4 0.294964 0.937210 0.113027
Si Si5 0.775528 0.706329 0.567147
Si Si6 0.800166 0.303694 0.690948
Si Si7 0.700280 0.293496 0.278775
Si Si8 0.715191 0.979708 0.292884
O O1 0.194893 0.185955 0.569867
O O2 0.207758 0.046772 0.730182
O O3 0.261357 0.163038 0.931734
O O4 0.816170 0.870202 0.770929
O O5 0.492725 0.222671 0.247367
O O6 0.640695 0.460325 0.088969
O O7 0.226212 0.329584 0.214999
O O8 0.500000 0.500000 0.000000
O O9 0.975308 0.199426 0.892137
O O10 0.268956 0.829788 0.208921
O O11 0.545514 0.136785 0.191724
O O12 0.300840 0.962425 0.902010
O O13 0.500000 0.500000 0.500000
O O14 0.053509 0.855181 0.566650
O O15 0.817700 0.323595 0.486666
O O16 0.566313 0.207147 0.659630
O O17 0.048679 0.493447 0.794176
#
# Coordination Sequence:
#
# PCOD9055570 Si02
#       8
#     2   2   2   2   2   2   2   2
#     4  11  23  41  67  99 131 179 220 273 343 403
#     4  11  21  42  70  94 135 175 221 279 339 404
#     4  11  24  40  67 100 135 176 219 276 337 402
#     4  11  23  45  67  97 132 172 229 269 332 402
#     4  11  23  41  62  98 138 167 219 273 334 397
#     4  11  25  45  66  96 135 171 225 281 326 392
#     4  11  24  44  69  97 127 180 225 272 335 395
#     4  11  24  43  66  95 132 172 221 272 332 401
#
# _framework density 21.861965999999999
#
# number of rings (size 3 to 8) (size 9 to 14) (size 15 to 20)
#    0.000    1.000    3.750    3.375    1.750    2.500 
#    2.250    0.000    0.000    0.000    0.000    0.000 
#    0.000    0.000    0.000    0.000    0.000    0.000 
#
# Total GULP energy -89176.389100 kJ/mol
# GULP energy per Si atom -5573.524319 kJ/mol
# Density = 2.181221 g / cm^3
# Si number density = 21.861966 Si / 1000 Ang^3
#
#
#
# Elastic Constant Matrix: (Units=GPa)
#
#
# Indices 1 2 3 4 5 6 
#
# 1 72.6528 49.6439 19.9830 -4.7191 10.9814 1.6745
# 2 49.6439 175.8735 35.3619 23.9856 8.0672 -6.4928
# 3 19.9830 35.3619 96.7241 -8.4348 19.4366 -21.2547
# 4 -4.7191 23.9856 -8.4348 41.6547 -9.2218 7.4114
# 5 10.9814 8.0672 19.4366 -9.2218 20.3042 -12.3646
# 6 1.6745 -6.4928 -21.2547 7.4114 -12.3646 41.4739
#
#
#
# Elastic Compliance Matrix: (Units=1/GPa)
#
#
# Indices 1 2 3 4 5 6 
#
# 1 0.019743 -0.005763 -0.001059 0.004394 -0.008824 -0.005658
# 2 -0.005763 0.008691 -0.002155 -0.006425 -0.000237 0.001566
# 3 -0.001059 -0.002155 0.014171 0.001256 -0.009114 0.004026
# 4 0.004394 -0.006425 0.001256 0.031517 0.011644 -0.002700
# 5 -0.008824 -0.000237 -0.009114 0.011644 0.078458 0.016958
# 6 -0.005658 0.001566 0.004026 -0.002700 0.016958 0.032187
#
#
# Mechanical properties :
#
#
# Convention : Reuss Voigt Hill
#
# Bulk Modulus (GPa) = 40.56678 61.69200 51.12939
# Shear Modulus (GPa) = 23.70367 36.70401 30.20384
#
# Velocity S-wave (km/s) = 3.29636 4.10188 3.72098
# Velocity P-wave (km/s) = 5.75188 7.12138 6.47295
#
# Compressibility (1/GPa) = 0.02465071
#
# Stress axis : x y z
#
# Youngs Moduli (GPa) = 50.65084 115.06150 70.56619
#
# Poissons Ratio (x) = 0.66314 0.07471
# Poissons Ratio (y) = 0.29192 0.15208
# Poissons Ratio (z) = 0.05362 0.24797
#
# Static dielectric constant tensor:
#      x y z
#    x 1.863620 0.022400 -0.013600 
#    y 0.022400 1.925970 -0.031700 
#    z -0.013600 -0.031700 1.827290 
# 
# From -- ./inp_files/319315.got.cif
#   From: 2010.05.17/outbox.cif.g08.bks.cpg/sg2_160_cif.got.tgz:319315.got - 2010.06.03 11:33:40.
