data_PCOD9055920
_publ_section_title
;
Structure prediction by ZEFSAII (Michael W. Deem and Ramdas Pophale) SiO2 
 PCOD9055920
Probable space group: P -1
;
_chemical_formula_sum "Si O2"
_cell_formula_units_Z 16
_cell_length_a 11.785339
_cell_length_b 17.176034
_cell_length_c 9.838974
_cell_angle_alpha 102.535216
_cell_angle_beta 131.557816
_cell_angle_gamma 38.652760
_cell_volume 712.083549
_symmetry_space_group_name_H-M "P -1"
_symmetry_group_IT_number 2
_symmetry_cell_setting 'triclinic'
loop_
_space_group_symop_operation_xyz
x,y,z
-x,-y,-z
loop_
_atom_site_type_symbol
_atom_site_label
_atom_site_fract_x
_atom_site_fract_y
_atom_site_fract_z
Si Si1 0.170399 0.607766 0.429577
Si Si2 0.363083 0.477130 0.827022
Si Si3 0.962093 0.101428 0.080112
Si Si4 0.956747 0.410328 0.113498
Si Si5 0.723473 0.897107 0.767288
Si Si6 0.455488 0.095775 0.096655
Si Si7 0.644669 0.133816 0.447383
Si Si8 0.415017 0.662322 0.563453
O O1 0.170391 0.585401 0.578733
O O2 0.213335 0.683553 0.475245
O O3 0.450317 0.436427 0.506709
O O4 0.868767 0.721520 0.148231
O O5 0.163603 0.524539 0.803879
O O6 0.500000 0.500000 0.000000
O O7 0.635671 0.291841 0.928213
O O8 0.130868 0.083907 0.104601
O O9 0.143322 0.009312 0.331098
O O10 0.000000 0.000000 0.000000
O O11 0.007653 0.291446 0.104444
O O12 0.289959 0.293262 0.288558
O O13 0.693503 0.551792 0.849270
O O14 0.553372 0.945756 0.782709
O O15 0.500000 0.000000 0.500000
O O16 0.648795 0.085113 0.288659
O O17 0.500000 0.000000 0.000000
O O18 0.738081 0.182823 0.527681
#
# Coordination Sequence:
#
# PCOD9055920 Si02
#       8
#     2   2   2   2   2   2   2   2
#     4  11  24  41  71 102 134 181 236 285 336 421
#     4  12  25  43  73 103 138 181 241 290 338 415
#     4  12  26  45  69 106 140 184 230 286 356 414
#     4  11  22  43  72 100 128 185 240 281 345 412
#     4  11  21  44  71  94 134 187 232 276 346 420
#     4  11  26  42  66 106 137 181 233 287 352 413
#     4  11  25  45  73  99 143 186 225 292 359 419
#     4  11  22  44  70  98 135 180 233 280 351 416
#
# _framework density 22.469273000000001
#
# number of rings (size 3 to 8) (size 9 to 14) (size 15 to 20)
#    0.000    0.750    7.500    1.125    7.000    0.000 
#    2.250    3.750    0.000    0.000    0.000    0.000 
#    0.000    0.000    0.000    0.000    0.000    0.000 
#
# Total GULP energy -89367.283032 kJ/mol
# GULP energy per Si atom -5585.455189 kJ/mol
# Density = 2.241813 g / cm^3
# Si number density = 22.469273 Si / 1000 Ang^3
#
#
#
# Elastic Constant Matrix: (Units=GPa)
#
#
# Indices 1 2 3 4 5 6 
#
# 1 71.5456 26.9695 15.3153 10.0672 -12.4980 7.9645
# 2 26.9695 102.0673 6.8655 23.6772 6.2530 20.1073
# 3 15.3153 6.8655 91.9941 10.9418 -25.9901 -1.0510
# 4 10.0672 23.6772 10.9418 31.3197 0.2302 -7.5707
# 5 -12.4980 6.2530 -25.9901 0.2302 36.4850 6.7169
# 6 7.9645 20.1073 -1.0510 -7.5707 6.7169 39.6853
#
#
#
# Elastic Compliance Matrix: (Units=1/GPa)
#
#
# Indices 1 2 3 4 5 6 
#
# 1 0.017528 -0.003395 -0.000217 -0.003955 0.007150 -0.003768
# 2 -0.003395 0.015706 0.000351 -0.013184 -0.001776 -0.009481
# 3 -0.000217 0.000351 0.014627 -0.006046 0.010826 -0.002733
# 4 -0.003955 -0.013184 -0.006046 0.049676 -0.007025 0.017979
# 5 0.007150 -0.001776 0.010826 -0.007025 0.039440 -0.008264
# 6 -0.003768 -0.009481 -0.002733 0.017979 -0.008264 0.035515
#
#
# Mechanical properties :
#
#
# Convention : Reuss Voigt Hill
#
# Bulk Modulus (GPa) = 24.19093 40.43418 32.31256
# Shear Modulus (GPa) = 25.93444 35.92844 30.93144
#
# Velocity S-wave (km/s) = 3.40106 4.00309 3.71430
# Velocity P-wave (km/s) = 5.11982 6.27700 5.72771
#
# Compressibility (1/GPa) = 0.04133780
#
# Stress axis : x y z
#
# Youngs Moduli (GPa) = 57.05009 63.67035 68.36864
#
# Poissons Ratio (x) = 0.21618 0.01486
# Poissons Ratio (y) = 0.19370 -0.02401
# Poissons Ratio (z) = 0.01240 -0.02236
#
# Static dielectric constant tensor:
#      x y z
#    x 1.802920 -0.056750 0.040150 
#    y -0.056750 1.883590 0.001890 
#    z 0.040150 0.001890 1.832450 
# 
# From -- ./inp_files/279556.got.cif
#   From: 2010.05.17/outbox.cif.g08.bks.cpg/sg2_140_cif.got.tgz:279556.got - 2010.06.03 11:33:40.
