data_PCOD9055514
_publ_section_title
;
Structure prediction by ZEFSAII (Michael W. Deem and Ramdas Pophale) SiO2 
 PCOD9055514
Probable space group: P -1
;
_chemical_formula_sum "Si O2"
_cell_formula_units_Z 14
_cell_length_a 7.998003
_cell_length_b 8.576854
_cell_length_c 8.904479
_cell_angle_alpha 91.949605
_cell_angle_beta 65.277573
_cell_angle_gamma 84.092234
_cell_volume 549.883062
_symmetry_space_group_name_H-M "P -1"
_symmetry_group_IT_number 2
_symmetry_cell_setting 'triclinic'
loop_
_space_group_symop_operation_xyz
x,y,z
-x,-y,-z
loop_
_atom_site_type_symbol
_atom_site_label
_atom_site_fract_x
_atom_site_fract_y
_atom_site_fract_z
Si Si1 0.147557 0.258299 0.512380
Si Si2 0.515023 0.566125 0.662377
Si Si3 0.820439 0.202146 0.287131
Si Si4 0.121064 0.388217 0.069151
Si Si5 0.741897 0.361379 0.771808
Si Si6 0.266391 0.114086 0.785046
Si Si7 0.302311 0.929443 0.353352
O O1 0.296238 0.357750 0.390497
O O2 0.223634 0.211183 0.649981
O O3 0.942706 0.346894 0.613078
O O4 0.168648 0.092857 0.411654
O O5 0.500000 0.500000 0.500000
O O6 0.554837 0.420489 0.752954
O O7 0.338520 0.694348 0.747565
O O8 0.851427 0.032239 0.190603
O O9 0.516473 0.954907 0.290480
O O10 0.744533 0.163742 0.479674
O O11 0.243041 0.508953 0.104026
O O12 0.984447 0.310693 0.232008
O O13 0.218175 0.235887 0.940803
O O14 0.000000 0.500000 0.000000
O O15 0.727234 0.175311 0.785389
#
# Coordination Sequence:
#
# PCOD9055514 Si02
#       7
#     2   2   2   2   2   2   2
#     4  11  21  42  68 105 134 172 226 283 340 397
#     4  12  22  40  69 104 136 169 223 286 344 392
#     4  11  23  45  72 100 132 183 227 281 339 398
#     4  12  28  46  66  99 143 184 224 275 338 407
#     4  12  26  40  66 106 139 175 224 286 335 399
#     4  11  22  48  71  97 139 183 227 270 340 414
#     4  11  23  43  74 102 135 173 230 285 337 401
#
# _framework density 25.459958
#
# number of rings (size 3 to 8) (size 9 to 14) (size 15 to 20)
#    0.000    0.571    5.714    3.000    4.000    0.571 
#    0.000    0.714    0.000    0.000    0.000    0.000 
#    0.000    0.000    0.000    0.000    0.000    0.000 
#
# Total GULP energy -78374.058314 kJ/mol
# GULP energy per Si atom -5598.147022 kJ/mol
# Density = 2.540201 g / cm^3
# Si number density = 25.459958 Si / 1000 Ang^3
#
#
#
# Elastic Constant Matrix: (Units=GPa)
#
#
# Indices 1 2 3 4 5 6 
#
# 1 84.6826 21.7073 19.5449 6.4067 8.1733 -2.9854
# 2 21.7073 96.1427 38.3488 27.1307 -2.3871 0.5608
# 3 19.5449 38.3488 100.8255 46.8201 13.3391 -1.3024
# 4 6.4067 27.1307 46.8201 45.7937 10.3966 4.1036
# 5 8.1733 -2.3871 13.3391 10.3966 43.5141 10.3257
# 6 -2.9854 0.5608 -1.3024 4.1036 10.3257 55.7233
#
#
#
# Elastic Compliance Matrix: (Units=1/GPa)
#
#
# Indices 1 2 3 4 5 6 
#
# 1 0.013200 -0.002912 -0.002408 0.002894 -0.002828 0.000991
# 2 -0.002912 0.013819 -0.002298 -0.006203 0.003625 -0.000564
# 3 -0.002408 -0.002298 0.020250 -0.018763 -0.001897 0.002101
# 4 0.002894 -0.006203 -0.018763 0.045760 -0.005453 -0.002581
# 5 -0.002828 0.003625 -0.001897 -0.005453 0.026731 -0.004784
# 6 0.000991 -0.000564 0.002101 -0.002581 -0.004784 0.019130
#
#
# Mechanical properties :
#
#
# Convention : Reuss Voigt Hill
#
# Bulk Modulus (GPa) = 31.21862 48.98364 40.10113
# Shear Modulus (GPa) = 30.33898 42.47620 36.40759
#
# Velocity S-wave (km/s) = 3.45575 4.08898 3.78563
# Velocity P-wave (km/s) = 5.31144 6.44781 5.90702
#
# Compressibility (1/GPa) = 0.03203216
#
# Stress axis : x y z
#
# Youngs Moduli (GPa) = 75.75728 72.36371 49.38255
#
# Poissons Ratio (x) = 0.21076 0.11891
# Poissons Ratio (y) = 0.22064 0.11348
# Poissons Ratio (z) = 0.18242 0.16630
#
# Static dielectric constant tensor:
#      x y z
#    x 1.991800 0.016410 0.018420 
#    y 0.016410 2.054310 -0.031770 
#    z 0.018420 -0.031770 2.073560 
# 
# From -- ./inp_files/163996.got.cif
#   From: 2010.05.17/outbox.cif.g08.bks.cpg/sg2_82_cif.got.tgz:163996.got - 2010.06.03 11:33:40.
