data_PCOD9055108
_publ_section_title
;
Structure prediction by ZEFSAII (Michael W. Deem and Ramdas Pophale) SiO2 
 PCOD9055108
Probable space group: P -1
;
_chemical_formula_sum "Si O2"
_cell_formula_units_Z 14
_cell_length_a 6.972769
_cell_length_b 12.021080
_cell_length_c 18.073620
_cell_angle_alpha 32.116764
_cell_angle_beta 114.329279
_cell_angle_gamma 92.877055
_cell_volume 577.722721
_symmetry_space_group_name_H-M "P -1"
_symmetry_group_IT_number 2
_symmetry_cell_setting 'triclinic'
loop_
_space_group_symop_operation_xyz
x,y,z
-x,-y,-z
loop_
_atom_site_type_symbol
_atom_site_label
_atom_site_fract_x
_atom_site_fract_y
_atom_site_fract_z
Si Si1 0.317277 0.811779 0.634532
Si Si2 0.544712 0.712395 0.104868
Si Si3 0.379228 0.932679 0.264291
Si Si4 0.338568 0.392994 0.060704
Si Si5 0.137633 0.016816 0.334306
Si Si6 0.506374 0.209582 0.785359
Si Si7 0.015591 0.348729 0.481055
O O1 0.455198 0.497052 0.824744
O O2 0.493789 0.802824 0.732757
O O3 0.319295 0.906403 0.499079
O O4 0.000000 0.000000 0.500000
O O5 0.395929 0.782329 0.121675
O O6 0.854358 0.536100 0.279255
O O7 0.465258 0.982387 0.907457
O O8 0.277219 0.905554 0.340237
O O9 0.309333 0.862738 0.215353
O O10 0.698682 0.727434 0.427848
O O11 0.305946 0.224544 0.092276
O O12 0.500000 0.500000 0.000000
O O13 0.051071 0.667501 0.877259
O O14 0.961502 0.914865 0.374707
O O15 0.205745 0.484028 0.584649
#
# Coordination Sequence:
#
# PCOD9055108 Si02
#       7
#     2   2   2   2   2   2   2
#     4  11  21  40  67  88 126 167 202 260 307 366
#     4   8  18  37  62  92 119 159 216 243 306 376
#     4  12  23  39  63  94 126 158 206 261 305 366
#     4  12  22  41  65  90 124 166 204 252 319 362
#     4  11  25  42  61  98 124 160 212 254 311 372
#     4   9  19  37  63  90 123 165 204 253 306 369
#     4   9  19  40  62  85 121 163 204 242 313 363
#
# _framework density 24.233079
#
# number of rings (size 3 to 8) (size 9 to 14) (size 15 to 20)
#    0.857    0.857    2.857    2.571    0.000    1.143 
#    2.571    0.000    0.000    3.429    0.000    0.000 
#    0.000    0.000    0.000    0.000    0.000    0.000 
#
# Total GULP energy -78093.317375 kJ/mol
# GULP energy per Si atom -5578.094098 kJ/mol
# Density = 2.417792 g / cm^3
# Si number density = 24.233079 Si / 1000 Ang^3
#
#
#
# Elastic Constant Matrix: (Units=GPa)
#
#
# Indices 1 2 3 4 5 6 
#
# 1 43.7462 13.4777 17.5474 -1.6556 -6.0657 -16.7989
# 2 13.4777 140.7878 23.5418 -14.8834 3.5287 -35.5558
# 3 17.5474 23.5418 111.8507 -18.5454 -7.3567 -7.0812
# 4 -1.6556 -14.8834 -18.5454 42.9484 -1.5729 -5.4640
# 5 -6.0657 3.5287 -7.3567 -1.5729 26.3219 -0.5359
# 6 -16.7989 -35.5558 -7.0812 -5.4640 -0.5359 37.5239
#
#
#
# Elastic Compliance Matrix: (Units=1/GPa)
#
#
# Indices 1 2 3 4 5 6 
#
# 1 0.030395 0.001481 -0.003335 0.002361 0.006316 0.014815
# 2 0.001481 0.010416 -0.001022 0.004593 -0.000842 0.010996
# 3 -0.003335 -0.001022 0.010554 0.004191 0.002572 0.000177
# 4 0.002361 0.004593 0.004191 0.028203 0.002996 0.010350
# 5 0.006316 -0.000842 0.002572 0.002996 0.040529 0.003530
# 6 0.014815 0.010996 0.000177 0.010350 0.003530 0.045293
#
#
# Mechanical properties :
#
#
# Convention : Reuss Voigt Hill
#
# Bulk Modulus (GPa) = 21.92429 45.05764 33.49096
# Shear Modulus (GPa) = 26.83160 37.48003 32.15581
#
# Velocity S-wave (km/s) = 3.33112 3.93701 3.64667
# Velocity P-wave (km/s) = 4.88488 6.26901 5.61972
#
# Compressibility (1/GPa) = 0.04561151
#
# Stress axis : x y z
#
# Youngs Moduli (GPa) = 32.90012 96.00714 94.74881
#
# Poissons Ratio (x) = -0.14216 0.31602
# Poissons Ratio (y) = -0.04872 0.09686
# Poissons Ratio (z) = 0.10973 0.09814
#
# Static dielectric constant tensor:
#      x y z
#    x 1.934920 -0.033230 -0.021760 
#    y -0.033230 2.085370 0.024710 
#    z -0.021760 0.024710 1.916980 
# 
# From -- ./inp_files/558367.got.cif
#   From: 2010.05.17/outbox.cif.g08.bks.cpg/sg2_280_cif.got.tgz:558367.got - 2010.06.03 11:33:40.
