data_PCOD9055603
_publ_section_title
;
Structure prediction by ZEFSAII (Michael W. Deem and Ramdas Pophale) SiO2 
 PCOD9055603
Probable space group: P -1
;
_chemical_formula_sum "Si O2"
_cell_formula_units_Z 16
_cell_length_a 9.059353
_cell_length_b 12.094215
_cell_length_c 19.539529
_cell_angle_alpha 137.147393
_cell_angle_beta 143.193722
_cell_angle_gamma 70.200109
_cell_volume 691.753688
_symmetry_space_group_name_H-M "P -1"
_symmetry_group_IT_number 2
_symmetry_cell_setting 'triclinic'
loop_
_space_group_symop_operation_xyz
x,y,z
-x,-y,-z
loop_
_atom_site_type_symbol
_atom_site_label
_atom_site_fract_x
_atom_site_fract_y
_atom_site_fract_z
Si Si1 0.830340 0.888406 0.721575
Si Si2 0.230538 0.286850 0.144799
Si Si3 0.321320 0.807886 0.700077
Si Si4 0.102974 0.093261 0.399873
Si Si5 0.162169 0.290706 0.793494
Si Si6 0.191658 0.603379 0.188094
Si Si7 0.908213 0.253706 0.152591
Si Si8 0.824498 0.299872 0.556859
O O1 0.922508 0.972730 0.717886
O O2 0.461890 0.749418 0.527493
O O3 0.934535 0.752227 0.723073
O O4 0.993292 0.073579 0.919802
O O5 0.550729 0.313191 0.281024
O O6 0.228630 0.451718 0.176193
O O7 0.100132 0.266433 0.163489
O O8 0.321743 0.803020 0.616182
O O9 0.988473 0.753454 0.566920
O O10 0.571116 0.038343 0.925428
O O11 0.451858 0.201524 0.604654
O O12 0.866337 0.898304 0.270707
O O13 0.985440 0.338421 0.803186
O O14 0.984717 0.224127 0.625015
O O15 0.500000 0.500000 0.000000
O O16 0.000000 0.500000 0.000000
O O17 0.930230 0.455889 0.251325
#
# Coordination Sequence:
#
# PCOD9055603 Si02
#       8
#     2   2   2   2   2   2   2   2
#     4  11  22  42  72 102 146 194 232 303 372 428
#     4  11  22  44  74 106 149 187 245 303 360 443
#     4  11  26  44  70 111 146 188 249 300 367 436
#     4  12  28  48  69 110 151 190 243 306 375 435
#     4  12  28  49  74 102 143 199 254 298 359 444
#     4  12  28  47  72 108 148 194 239 307 373 432
#     4  11  21  42  71 111 143 186 247 300 360 433
#     4  12  23  42  76 101 142 198 247 297 356 445
#
# _framework density 23.129619000000002
#
# number of rings (size 3 to 8) (size 9 to 14) (size 15 to 20)
#    0.000    0.500    5.000    3.000    5.250    3.000 
#    2.250    0.000    0.000    0.000    0.000    0.000 
#    0.000    0.000    0.000    0.000    0.000    0.000 
#
# Total GULP energy -89533.177288 kJ/mol
# GULP energy per Si atom -5595.823581 kJ/mol
# Density = 2.307697 g / cm^3
# Si number density = 23.129619 Si / 1000 Ang^3
#
#
#
# Elastic Constant Matrix: (Units=GPa)
#
#
# Indices 1 2 3 4 5 6 
#
# 1 36.6750 10.3390 23.2875 -9.6265 6.4846 -7.1316
# 2 10.3390 127.8098 35.0837 -19.9679 4.8272 12.9923
# 3 23.2875 35.0837 75.5991 -24.7955 2.9520 12.0853
# 4 -9.6265 -19.9679 -24.7955 39.8988 5.5670 2.8496
# 5 6.4846 4.8272 2.9520 5.5670 31.3695 -7.1579
# 6 -7.1316 12.9923 12.0853 2.8496 -7.1579 37.0839
#
#
#
# Elastic Compliance Matrix: (Units=1/GPa)
#
#
# Indices 1 2 3 4 5 6 
#
# 1 0.038804 -0.000356 -0.013069 0.000896 -0.004402 0.010928
# 2 -0.000356 0.009561 -0.002432 0.003799 -0.002624 -0.003424
# 3 -0.013069 -0.002432 0.024300 0.012084 -0.003926 -0.011267
# 4 0.000896 0.003799 0.012084 0.036903 -0.010739 -0.010005
# 5 -0.004402 -0.002624 -0.003926 -0.010739 0.037621 0.009439
# 6 0.010928 -0.003424 -0.011267 -0.010005 0.009439 0.036530
#
#
# Mechanical properties :
#
#
# Convention : Reuss Voigt Hill
#
# Bulk Modulus (GPa) = 24.41937 41.94491 33.18214
# Shear Modulus (GPa) = 21.82627 33.09534 27.46081
#
# Velocity S-wave (km/s) = 3.07522 3.78678 3.44940
# Velocity P-wave (km/s) = 4.81558 6.10686 5.49925
#
# Compressibility (1/GPa) = 0.04095109
#
# Stress axis : x y z
#
# Youngs Moduli (GPa) = 25.77069 104.59079 41.15303
#
# Poissons Ratio (x) = 0.03725 0.53783
# Poissons Ratio (y) = 0.00918 0.10007
# Poissons Ratio (z) = 0.33680 0.25432
#
# Static dielectric constant tensor:
#      x y z
#    x 1.895750 -0.031380 0.018330 
#    y -0.031380 1.893420 0.016340 
#    z 0.018330 0.016340 1.846040 
# 
# From -- ./inp_files/559969.got.cif
#   From: 2010.05.17/outbox.cif.g08.bks.cpg/sg2_280_cif.got.tgz:559969.got - 2010.06.03 11:33:40.
