data_PCOD9055420
_publ_section_title
;
Structure prediction by ZEFSAII (Michael W. Deem and Ramdas Pophale) SiO2 
 PCOD9055420
Probable space group: P -1
;
_chemical_formula_sum "Si O2"
_cell_formula_units_Z 12
_cell_length_a 7.843028
_cell_length_b 11.704916
_cell_length_c 14.593533
_cell_angle_alpha 150.756008
_cell_angle_beta 124.801001
_cell_angle_gamma 63.112076
_cell_volume 533.923023
_symmetry_space_group_name_H-M "P -1"
_symmetry_group_IT_number 2
_symmetry_cell_setting 'triclinic'
loop_
_space_group_symop_operation_xyz
x,y,z
-x,-y,-z
loop_
_atom_site_type_symbol
_atom_site_label
_atom_site_fract_x
_atom_site_fract_y
_atom_site_fract_z
Si Si1 0.290756 0.985535 0.113729
Si Si2 0.778134 0.344039 0.310475
Si Si3 0.334342 0.425688 0.296200
Si Si4 0.714744 0.079116 0.408028
Si Si5 0.071040 0.771543 0.239775
Si Si6 0.032780 0.071351 0.863914
O O1 0.096598 0.981275 0.119760
O O2 0.318457 0.226978 0.231450
O O3 0.488167 0.971319 0.229759
O O4 0.259610 0.768293 0.880922
O O5 0.572774 0.459036 0.357116
O O6 0.000000 0.500000 0.500000
O O7 0.804449 0.119610 0.225374
O O8 0.252229 0.673325 0.464382
O O9 0.181261 0.311449 0.090935
O O10 0.751272 0.165653 0.585088
O O11 0.873439 0.891290 0.302902
O O12 0.114789 0.910124 0.254511
O O13 0.000000 0.500000 0.000000
#
# Coordination Sequence:
#
# PCOD9055420 Si02
#       6
#     2   2   2   2   2   2
#     4  11  24  40  66 106 138 175 225 276 344 403
#     4  11  23  41  68 105 139 176 218 282 343 402
#     4  11  21  41  71  99 136 174 219 278 340 404
#     4  11  24  43  73  97 128 183 227 279 338 392
#     4  11  24  46  70  94 132 180 239 272 329 398
#     4  11  23  42  66  99 142 177 224 279 330 404
#
# _framework density 22.475151
#
# number of rings (size 3 to 8) (size 9 to 14) (size 15 to 20)
#    0.000    1.000    1.667    7.500    0.000    4.667 
#    0.000    0.833    0.000    0.000    0.000    0.000 
#    0.000    0.000    0.000    0.000    0.000    0.000 
#
# Total GULP energy -67034.442987 kJ/mol
# GULP energy per Si atom -5586.203582 kJ/mol
# Density = 2.242400 g / cm^3
# Si number density = 22.475151 Si / 1000 Ang^3
#
#
#
# Elastic Constant Matrix: (Units=GPa)
#
#
# Indices 1 2 3 4 5 6 
#
# 1 75.5347 30.9488 43.5848 -19.0793 -7.6754 -4.9951
# 2 30.9488 104.1425 52.6184 -38.5294 -12.5740 -3.6797
# 3 43.5848 52.6184 170.3943 -32.0001 -16.5180 -13.7581
# 4 -19.0793 -38.5294 -32.0001 49.9073 -8.0110 -8.2005
# 5 -7.6754 -12.5740 -16.5180 -8.0110 41.2242 -8.6837
# 6 -4.9951 -3.6797 -13.7581 -8.2005 -8.6837 33.4163
#
#
#
# Elastic Compliance Matrix: (Units=1/GPa)
#
#
# Indices 1 2 3 4 5 6 
#
# 1 0.017056 -0.001473 -0.002329 0.005045 0.003529 0.003584
# 2 -0.001473 0.017367 -0.000615 0.015195 0.009328 0.007592
# 3 -0.002329 -0.000615 0.008836 0.006179 0.005414 0.006145
# 4 0.005045 0.015195 0.006179 0.044587 0.021228 0.021430
# 5 0.003529 0.009328 0.005414 0.021228 0.038031 0.018876
# 6 0.003584 0.007592 0.006145 0.021430 0.018876 0.043991
#
#
# Mechanical properties :
#
#
# Convention : Reuss Voigt Hill
#
# Bulk Modulus (GPa) = 29.04879 67.15285 48.10082
# Shear Modulus (GPa) = 26.29118 39.77086 33.03102
#
# Velocity S-wave (km/s) = 3.42393 4.21116 3.83778
# Velocity P-wave (km/s) = 5.34640 7.32043 6.40986
#
# Compressibility (1/GPa) = 0.03442484
#
# Stress axis : x y z
#
# Youngs Moduli (GPa) = 58.62963 57.58061 113.17356
#
# Poissons Ratio (x) = 0.08480 0.26359
# Poissons Ratio (y) = 0.08634 0.06965
# Poissons Ratio (z) = 0.13655 0.03544
#
# Static dielectric constant tensor:
#      x y z
#    x 1.830880 0.044470 -0.009260 
#    y 0.044470 1.874090 0.007970 
#    z -0.009260 0.007970 1.950230 
# 
# From -- ./inp_files/501299.got.cif
#   From: 2010.05.17/outbox.cif.g08.bks.cpg/sg2_251_cif.got.tgz:501299.got - 2010.06.03 11:33:40.
