data_PCOD9055347
_publ_section_title
;
Structure prediction by ZEFSAII (Michael W. Deem and Ramdas Pophale) SiO2 
 PCOD9055347
Probable space group: P -1
;
_chemical_formula_sum "Si O2"
_cell_formula_units_Z 16
_cell_length_a 10.189875
_cell_length_b 7.656948
_cell_length_c 11.059203
_cell_angle_alpha 55.364083
_cell_angle_beta 67.323499
_cell_angle_gamma 80.678545
_cell_volume 653.216537
_symmetry_space_group_name_H-M "P -1"
_symmetry_group_IT_number 2
_symmetry_cell_setting 'triclinic'
loop_
_space_group_symop_operation_xyz
x,y,z
-x,-y,-z
loop_
_atom_site_type_symbol
_atom_site_label
_atom_site_fract_x
_atom_site_fract_y
_atom_site_fract_z
Si Si1 0.022491 0.979612 0.642437
Si Si2 0.309768 0.597584 0.851023
Si Si3 0.880545 0.536861 0.841396
Si Si4 0.364177 0.151315 0.946206
Si Si5 0.820277 0.263644 0.755813
Si Si6 0.684194 0.090546 0.484465
Si Si7 0.599323 0.360622 0.606657
Si Si8 0.420602 0.258084 0.157897
O O1 0.988450 0.726456 0.775369
O O2 0.190558 0.029040 0.575038
O O3 0.922732 0.129731 0.689623
O O4 0.000000 0.000000 0.500000
O O5 0.276093 0.363195 0.898373
O O6 0.360216 0.762926 0.665996
O O7 0.443858 0.599498 0.894773
O O8 0.174132 0.630581 0.969977
O O9 0.912028 0.413069 0.757531
O O10 0.737029 0.656821 0.814725
O O11 0.475659 0.212187 0.776876
O O12 0.431493 0.167780 0.052386
O O13 0.272206 0.926929 0.064468
O O14 0.708691 0.401374 0.666577
O O15 0.711379 0.265441 0.511716
O O16 0.589169 0.927314 0.663620
O O17 0.500000 0.500000 0.500000
#
# Coordination Sequence:
#
# PCOD9055347 Si02
#       8
#     2   2   2   2   2   2   2   2
#     4  12  23  50  71  97 139 187 241 269 340 415
#     4  11  23  42  65 105 140 177 226 287 357 402
#     4  11  24  43  73 102 129 186 239 282 330 413
#     4  11  21  41  68  98 138 183 226 281 345 415
#     4  12  24  45  74  99 134 186 237 281 331 414
#     4  12  25  43  69  98 147 188 213 297 351 398
#     4  12  23  38  64 106 138 175 226 281 356 404
#     4  11  21  43  67 100 138 180 230 279 351 415
#
# _framework density 24.494174999999998
#
# number of rings (size 3 to 8) (size 9 to 14) (size 15 to 20)
#    0.000    0.500    7.500    3.750    1.750    1.000 
#    0.000    0.625    0.000    0.000    0.000    0.000 
#    0.000    0.000    0.000    0.000    0.000    0.000 
#
# Total GULP energy -89086.674816 kJ/mol
# GULP energy per Si atom -5567.917176 kJ/mol
# Density = 2.443843 g / cm^3
# Si number density = 24.494175 Si / 1000 Ang^3
#
#
#
# Elastic Constant Matrix: (Units=GPa)
#
#
# Indices 1 2 3 4 5 6 
#
# 1 26.3842 27.5010 21.3094 7.9821 6.7941 6.3403
# 2 27.5010 96.7582 38.1158 15.7408 -0.9182 -8.6053
# 3 21.3094 38.1158 137.0682 19.4037 12.8343 2.9824
# 4 7.9821 15.7408 19.4037 37.9104 -9.1568 -8.7892
# 5 6.7941 -0.9182 12.8343 -9.1568 32.0834 3.7047
# 6 6.3403 -8.6053 2.9824 -8.7892 3.7047 21.4825
#
#
#
# Elastic Compliance Matrix: (Units=1/GPa)
#
#
# Indices 1 2 3 4 5 6 
#
# 1 0.084810 -0.024060 -0.000706 -0.021581 -0.019910 -0.039966
# 2 -0.024060 0.019218 -0.003053 0.003771 0.006129 0.015709
# 3 -0.000706 -0.003053 0.009583 -0.005550 -0.004920 -0.003767
# 4 -0.021581 0.003771 -0.005550 0.041365 0.016071 0.022803
# 5 -0.019910 0.006129 -0.004920 0.016071 0.041134 0.008496
# 6 -0.039966 0.015709 -0.003767 0.022803 0.008496 0.073025
#
#
# Mechanical properties :
#
#
# Convention : Reuss Voigt Hill
#
# Bulk Modulus (GPa) = 17.24929 48.22922 32.73925
# Shear Modulus (GPa) = 14.53082 29.84755 22.18919
#
# Velocity S-wave (km/s) = 2.43829 3.49457 3.01308
# Velocity P-wave (km/s) = 3.87098 6.00129 5.04975
#
# Compressibility (1/GPa) = 0.05797342
#
# Stress axis : x y z
#
# Youngs Moduli (GPa) = 11.79113 52.03503 104.35380
#
# Poissons Ratio (x) = 1.25194 0.07363
# Poissons Ratio (y) = 0.28369 0.31861
# Poissons Ratio (z) = 0.00832 0.15887
#
# Static dielectric constant tensor:
#      x y z
#    x 2.056210 -0.033510 0.024570 
#    y -0.033510 2.063870 -0.081970 
#    z 0.024570 -0.081970 2.023270 
# 
# From -- ./inp_files/418862.got.cif
#   From: 2010.05.17/outbox.cif.g08.bks.cpg/sg2_210_cif.got.tgz:418862.got - 2010.06.03 11:33:40.
