data_PCOD9055549
_publ_section_title
;
Structure prediction by ZEFSAII (Michael W. Deem and Ramdas Pophale) SiO2 
 PCOD9055549
Probable space group: P -1
;
_chemical_formula_sum "Si O2"
_cell_formula_units_Z 16
_cell_length_a 19.341621
_cell_length_b 11.841841
_cell_length_c 8.907340
_cell_angle_alpha 113.146203
_cell_angle_beta 143.342355
_cell_angle_gamma 40.559256
_cell_volume 657.551375
_symmetry_space_group_name_H-M "P -1"
_symmetry_group_IT_number 2
_symmetry_cell_setting 'triclinic'
loop_
_space_group_symop_operation_xyz
x,y,z
-x,-y,-z
loop_
_atom_site_type_symbol
_atom_site_label
_atom_site_fract_x
_atom_site_fract_y
_atom_site_fract_z
Si Si1 0.877325 0.672928 0.744493
Si Si2 0.589893 0.055793 0.644908
Si Si3 0.767501 0.542848 0.950343
Si Si4 0.078495 0.126481 0.676662
Si Si5 0.921314 0.106141 0.664140
Si Si6 0.721553 0.309033 0.843686
Si Si7 0.504006 0.548471 0.865890
Si Si8 0.273620 0.394790 0.760190
O O1 0.727362 0.709828 0.419577
O O2 0.754036 0.887539 0.716398
O O3 0.000000 0.500000 0.000000
O O4 0.037652 0.576606 0.852255
O O5 0.414319 0.287882 0.393123
O O6 0.500000 0.000000 0.500000
O O7 0.709105 0.011316 0.967446
O O8 0.797836 0.377160 0.967911
O O9 0.713440 0.658214 0.072006
O O10 0.098045 0.005233 0.520961
O O11 0.941189 0.355667 0.502172
O O12 0.962039 0.172480 0.643149
O O13 0.715880 0.294035 0.491263
O O14 0.110423 0.934994 0.011467
O O15 0.500000 0.500000 0.500000
O O16 0.675286 0.338510 0.957968
O O17 0.500000 0.500000 0.000000
O O18 0.562067 0.641624 0.002443
#
# Coordination Sequence:
#
# PCOD9055549 Si02
#       8
#     2   2   2   2   2   2   2   2
#     4  12  25  44  72  95 129 183 230 275 350 397
#     4  12  26  44  68 103 131 174 233 283 338 409
#     4  11  25  46  65  97 141 168 224 291 336 397
#     4  11  21  42  69  97 139 174 225 275 325 409
#     4  11  22  40  70 101 130 188 222 263 343 402
#     4  11  25  44  65 102 143 173 218 286 343 394
#     4  11  22  40  68  99 134 175 232 269 330 411
#     4  11  23  45  67 101 138 175 223 290 330 399
#
# _framework density 24.332699999999999
#
# number of rings (size 3 to 8) (size 9 to 14) (size 15 to 20)
#    0.000    0.750    6.250    1.875    1.750    5.000 
#    0.000    0.000    0.000    0.000    0.000    0.000 
#    0.000    0.000    0.000    0.000    0.000    0.000 
#
# Total GULP energy -89600.648381 kJ/mol
# GULP energy per Si atom -5600.040524 kJ/mol
# Density = 2.427732 g / cm^3
# Si number density = 24.332700 Si / 1000 Ang^3
#
#
#
# Elastic Constant Matrix: (Units=GPa)
#
#
# Indices 1 2 3 4 5 6 
#
# 1 137.4959 4.5513 26.0745 -2.5215 16.6425 -0.8253
# 2 4.5513 42.1607 3.5554 -0.7687 8.3299 -4.2693
# 3 26.0745 3.5554 130.7979 -9.7743 4.1286 5.4360
# 4 -2.5215 -0.7687 -9.7743 44.9957 -0.5351 -2.1527
# 5 16.6425 8.3299 4.1286 -0.5351 38.8657 -5.5872
# 6 -0.8253 -4.2693 5.4360 -2.1527 -5.5872 28.2142
#
#
#
# Elastic Compliance Matrix: (Units=1/GPa)
#
#
# Indices 1 2 3 4 5 6 
#
# 1 0.007948 -0.000106 -0.001468 0.000080 -0.003243 -0.000137
# 2 -0.000106 0.025043 -0.000603 0.000376 -0.004825 0.002976
# 3 -0.001468 -0.000603 0.008152 0.001596 -0.000323 -0.001647
# 4 0.000080 0.000376 0.001596 0.022658 0.000248 0.001530
# 5 -0.003243 -0.004825 -0.000323 0.000248 0.028906 0.004980
# 6 -0.000137 0.002976 -0.001647 0.001530 0.004980 0.037310
#
#
# Mechanical properties :
#
#
# Convention : Reuss Voigt Hill
#
# Bulk Modulus (GPa) = 27.18116 42.09077 34.63596
# Shear Modulus (GPa) = 34.09884 40.83335 37.46609
#
# Velocity S-wave (km/s) = 3.74753 4.10094 3.92821
# Velocity P-wave (km/s) = 5.46994 6.30549 5.90252
#
# Compressibility (1/GPa) = 0.03679019
#
# Stress axis : x y z
#
# Youngs Moduli (GPa) = 125.81841 39.93206 122.66601
#
# Poissons Ratio (x) = 0.00423 0.18001
# Poissons Ratio (y) = 0.01332 0.07396
# Poissons Ratio (z) = 0.18464 0.02408
#
# Static dielectric constant tensor:
#      x y z
#    x 1.914930 -0.021850 -0.075190 
#    y -0.021850 1.925170 0.063890 
#    z -0.075190 0.063890 2.119410 
# 
# From -- ./inp_files/333445.got.cif
#   From: 2010.05.17/outbox.cif.g08.bks.cpg/sg2_167_cif.got.tgz:333445.got - 2010.06.03 11:33:40.
