data_PCOD9056878
_publ_section_title
;
Structure prediction by ZEFSAII (Michael W. Deem and Ramdas Pophale) SiO2 
 PCOD9056878
Probable space group: P -1
;
_chemical_formula_sum "Si O2"
_cell_formula_units_Z 16
_cell_length_a 19.591463
_cell_length_b 5.091503
_cell_length_c 8.117370
_cell_angle_alpha 91.391397
_cell_angle_beta 81.680891
_cell_angle_gamma 61.017979
_cell_volume 696.676744
_symmetry_space_group_name_H-M "P -1"
_symmetry_group_IT_number 2
_symmetry_cell_setting 'triclinic'
loop_
_space_group_symop_operation_xyz
x,y,z
-x,-y,-z
loop_
_atom_site_type_symbol
_atom_site_label
_atom_site_fract_x
_atom_site_fract_y
_atom_site_fract_z
Si Si1 0.297650 0.429061 0.778630
Si Si2 0.675197 0.084490 0.812705
Si Si3 0.065760 0.350234 0.295434
Si Si4 0.590049 0.739257 0.968757
Si Si5 0.050700 0.097154 0.863156
Si Si6 0.095403 0.603350 0.569076
Si Si7 0.744448 0.986440 0.417662
Si Si8 0.188438 0.900471 0.044595
O O1 0.298533 0.158847 0.675504
O O2 0.274412 0.705382 0.663602
O O3 0.228710 0.571476 0.945317
O O4 0.376501 0.329703 0.856465
O O5 0.606152 0.428271 0.874387
O O6 0.642494 0.856734 0.854532
O O7 0.711528 0.049443 0.617088
O O8 0.740046 0.044596 0.928251
O O9 0.109647 0.512431 0.370501
O O10 0.997065 0.307692 0.402619
O O11 0.133468 0.013735 0.224855
O O12 0.012578 0.580024 0.176852
O O13 0.500000 0.000000 0.000000
O O14 0.089778 0.865838 0.691674
O O15 0.122562 0.095979 0.935721
O O16 0.000000 0.000000 0.000000
O O17 0.163526 0.284154 0.613839
#
# Coordination Sequence:
#
# PCOD9056878 Si02
#       8
#     2   2   2   2   2   2   2   2
#     4  11  25  42  74 102 138 182 235 281 350 411
#     4  11  25  46  74 108 144 186 230 281 358 421
#     4  11  24  41  58  89 128 185 243 290 356 398
#     4  11  25  51  79 110 144 179 222 281 350 436
#     4  12  24  38  60  90 129 179 246 300 347 398
#     4  11  24  42  60  86 137 186 234 296 353 398
#     4  12  24  46  67 105 145 186 233 291 339 419
#     4  11  22  41  60  96 129 186 240 298 336 413
#
# _framework density 22.966172
#
# number of rings (size 3 to 8) (size 9 to 14) (size 15 to 20)
#    0.000    0.750    3.750    4.125    1.750    2.000 
#    2.250    3.750    0.000    0.000    0.000    0.000 
#    0.000    0.000    0.000    0.000    0.000    0.000 
#
# Total GULP energy -89247.416873 kJ/mol
# GULP energy per Si atom -5577.963555 kJ/mol
# Density = 2.291390 g / cm^3
# Si number density = 22.966172 Si / 1000 Ang^3
#
#
#
# Elastic Constant Matrix: (Units=GPa)
#
#
# Indices 1 2 3 4 5 6 
#
# 1 37.4049 17.9860 24.9248 -2.6236 6.5675 -13.8159
# 2 17.9860 89.8649 33.3265 -2.2489 -0.1653 -10.3525
# 3 24.9248 33.3265 101.1498 16.3274 20.7386 -3.0995
# 4 -2.6236 -2.2489 16.3274 28.9871 7.6004 4.8803
# 5 6.5675 -0.1653 20.7386 7.6004 31.7522 -2.2387
# 6 -13.8159 -10.3525 -3.0995 4.8803 -2.2387 51.5376
#
#
#
# Elastic Compliance Matrix: (Units=1/GPa)
#
#
# Indices 1 2 3 4 5 6 
#
# 1 0.038231 -0.003353 -0.008556 0.007578 -0.003573 0.008188
# 2 -0.003353 0.013797 -0.004744 0.002285 0.003424 0.001520
# 3 -0.008556 -0.004744 0.016264 -0.008150 -0.007054 -0.001803
# 4 0.007578 0.002285 -0.008150 0.042024 -0.006450 -0.002259
# 5 -0.003573 0.003424 -0.007054 -0.006450 0.038514 0.001589
# 6 0.008188 0.001520 -0.001803 -0.002259 0.001589 0.022078
#
#
# Mechanical properties :
#
#
# Convention : Reuss Voigt Hill
#
# Bulk Modulus (GPa) = 28.58163 42.32159 35.45161
# Shear Modulus (GPa) = 23.16164 32.60088 27.88126
#
# Velocity S-wave (km/s) = 3.17915 3.77174 3.48805
# Velocity P-wave (km/s) = 5.09393 6.11848 5.62956
#
# Compressibility (1/GPa) = 0.03498751
#
# Stress axis : x y z
#
# Youngs Moduli (GPa) = 26.15694 72.48141 61.48467
#
# Poissons Ratio (x) = 0.24299 0.52604
# Poissons Ratio (y) = 0.08769 0.29168
# Poissons Ratio (z) = 0.22379 0.34384
#
# Static dielectric constant tensor:
#      x y z
#    x 2.176030 0.089860 -0.179300 
#    y 0.089860 1.877740 0.014290 
#    z -0.179300 0.014290 2.208860 
# 
# From -- ./inp_files/339855.got.cif
#   From: 2010.05.17/outbox.cif.g08.bks.cpg/sg2_170_cif.got.tgz:339855.got - 2010.06.03 11:33:40.
