data_PCOD9056518
_publ_section_title
;
Structure prediction by ZEFSAII (Michael W. Deem and Ramdas Pophale) SiO2 
 PCOD9056518
Probable space group: P -1
;
_chemical_formula_sum "Si O2"
_cell_formula_units_Z 15
_cell_length_a 8.634974
_cell_length_b 8.945727
_cell_length_c 20.014950
_cell_angle_alpha 128.053495
_cell_angle_beta 144.531328
_cell_angle_gamma 44.312444
_cell_volume 624.542569
_symmetry_space_group_name_H-M "P -1"
_symmetry_group_IT_number 2
_symmetry_cell_setting 'triclinic'
loop_
_space_group_symop_operation_xyz
x,y,z
-x,-y,-z
loop_
_atom_site_type_symbol
_atom_site_label
_atom_site_fract_x
_atom_site_fract_y
_atom_site_fract_z
Si Si1 0.711911 0.575788 0.019064
Si Si2 0.405935 0.594840 0.567732
Si Si3 0.625468 0.551893 0.240952
Si Si4 0.088673 0.823072 0.925644
Si Si5 0.000000 0.500000 0.500000
Si Si6 0.825133 0.867203 0.638451
Si Si7 0.222282 0.680626 0.259255
Si Si8 0.531550 0.006105 0.325107
O O1 0.825775 0.403763 0.071806
O O2 0.973097 0.643023 0.121745
O O3 0.629836 0.463146 0.898098
O O4 0.396560 0.779269 0.984555
O O5 0.500000 0.500000 0.500000
O O6 0.684268 0.450694 0.675520
O O7 0.331557 0.843465 0.610832
O O8 0.135338 0.573696 0.502263
O O9 0.906042 0.319465 0.275894
O O10 0.526750 0.587823 0.294698
O O11 0.672907 0.752517 0.289891
O O12 0.797287 0.901173 0.799210
O O13 0.000000 0.000000 0.000000
O O14 0.168735 0.252708 0.459863
O O15 0.538927 0.945523 0.607955
O O16 0.884121 0.068902 0.701709
#
# Coordination Sequence:
#
# PCOD9056518 Si02
#       8
#     2   2   2   2   1   2   2   2
#     4  11  23  39  67 106 145 192 240 288 356 439
#     4  12  26  49  78 106 141 186 250 308 371 434
#     4  11  23  44  72 105 150 193 237 292 360 441
#     4  11  22  39  66 102 147 188 241 296 349 431
#     4  12  26  50  76 104 140 190 242 314 368 430
#     4  11  25  47  71 103 146 192 248 299 364 435
#     4  11  26  44  73 105 147 189 237 307 362 432
#     4  11  23  45  72 104 144 195 238 300 361 431
#
# _framework density 24.017578
#
# number of rings (size 3 to 8) (size 9 to 14) (size 15 to 20)
#    0.000    0.800    6.667    0.400    0.000    4.267 
#    2.400    1.333    0.000    0.000    0.000    0.000 
#    0.000    0.000    0.000    0.000    0.000    0.000 
#
# Total GULP energy -83717.347830 kJ/mol
# GULP energy per Si atom -5581.156522 kJ/mol
# Density = 2.396291 g / cm^3
# Si number density = 24.017578 Si / 1000 Ang^3
#
#
#
# Elastic Constant Matrix: (Units=GPa)
#
#
# Indices 1 2 3 4 5 6 
#
# 1 126.7475 41.8386 43.4739 20.7943 0.9085 6.3658
# 2 41.8386 157.7393 61.6670 14.9976 5.8547 27.1256
# 3 43.4739 61.6670 94.5800 9.3698 -6.1143 18.2477
# 4 20.7943 14.9976 9.3698 55.8344 5.5443 -3.0989
# 5 0.9085 5.8547 -6.1143 5.5443 40.6676 10.3347
# 6 6.3658 27.1256 18.2477 -3.0989 10.3347 43.4372
#
#
#
# Elastic Compliance Matrix: (Units=1/GPa)
#
#
# Indices 1 2 3 4 5 6 
#
# 1 0.009939 -0.000985 -0.003817 -0.002713 -0.000456 0.000677
# 2 -0.000985 0.009259 -0.004836 -0.001406 -0.000963 -0.003477
# 3 -0.003817 -0.004836 0.016743 -0.000799 0.004577 -0.004600
# 4 -0.002713 -0.001406 -0.000799 0.020003 -0.003572 0.003888
# 5 -0.000456 -0.000963 0.004577 -0.003572 0.027989 -0.008169
# 6 0.000677 -0.003477 -0.004600 0.003888 -0.008169 0.029247
#
#
# Mechanical properties :
#
#
# Convention : Reuss Voigt Hill
#
# Bulk Modulus (GPa) = 60.01101 74.78066 67.39583
# Shear Modulus (GPa) = 36.22860 43.46033 39.84447
#
# Velocity S-wave (km/s) = 3.88805 4.25846 4.07747
# Velocity P-wave (km/s) = 6.72283 7.44196 7.09152
#
# Compressibility (1/GPa) = 0.01666361
#
# Stress axis : x y z
#
# Youngs Moduli (GPa) = 100.61717 108.00402 59.72502
#
# Poissons Ratio (x) = 0.10642 0.22799
# Poissons Ratio (y) = 0.09915 0.28883
# Poissons Ratio (z) = 0.38408 0.52231
#
# Static dielectric constant tensor:
#      x y z
#    x 1.894580 0.010930 -0.060400 
#    y 0.010930 1.894670 0.075590 
#    z -0.060400 0.075590 1.593830 
# 
# From -- ./inp_files/587560.got.cif
#   From: 2010.05.17/outbox.cif.g08.bks.cpg/sg2_294_cif.got.tgz:587560.got - 2010.06.03 11:33:40.
