data_PCOD9056927
_publ_section_title
;
Structure prediction by ZEFSAII (Michael W. Deem and Ramdas Pophale) SiO2 
 PCOD9056927
Probable space group: P -1
;
_chemical_formula_sum "Si O2"
_cell_formula_units_Z 16
_cell_length_a 14.453950
_cell_length_b 13.786434
_cell_length_c 8.960231
_cell_angle_alpha 85.935326
_cell_angle_beta 74.009425
_cell_angle_gamma 148.812116
_cell_volume 700.318730
_symmetry_space_group_name_H-M "P -1"
_symmetry_group_IT_number 2
_symmetry_cell_setting 'triclinic'
loop_
_space_group_symop_operation_xyz
x,y,z
-x,-y,-z
loop_
_atom_site_type_symbol
_atom_site_label
_atom_site_fract_x
_atom_site_fract_y
_atom_site_fract_z
Si Si1 0.413087 0.749378 0.642118
Si Si2 0.731796 0.013532 0.213499
Si Si3 0.083046 0.622566 0.749955
Si Si4 0.400085 0.365010 0.214041
Si Si5 0.155790 0.322381 0.856423
Si Si6 0.940007 0.809116 0.432628
Si Si7 0.884521 0.229423 0.558189
Si Si8 0.285479 0.860476 0.046009
O O1 0.297757 0.744399 0.644810
O O2 0.221206 0.497361 0.813104
O O3 0.526568 0.799717 0.442646
O O4 0.621356 0.961747 0.643835
O O5 0.855313 0.218296 0.220540
O O6 0.645619 0.985438 0.103437
O O7 0.913773 0.096359 0.083741
O O8 0.025482 0.603179 0.608512
O O9 0.866717 0.363288 0.942101
O O10 0.624366 0.529329 0.184580
O O11 0.262474 0.316390 0.382025
O O12 0.500000 0.500000 0.000000
O O13 0.195947 0.096805 0.303277
O O14 0.110648 0.249695 0.714371
O O15 0.962672 0.726931 0.515460
O O16 0.866408 0.242264 0.736515
O O17 0.500000 0.000000 0.000000
#
# Coordination Sequence:
#
# PCOD9056927 Si02
#       8
#     2   2   2   2   2   2   2   2
#     4  11  23  43  66  95 140 187 224 272 335 389
#     4  11  24  39  64  95 131 182 232 270 328 396
#     4  11  23  40  62  93 141 189 227 269 333 386
#     4  11  28  48  78 102 132 172 222 287 353 413
#     4  12  25  46  73 102 139 177 222 284 343 404
#     4  11  25  49  70 105 138 172 226 281 345 410
#     4  11  22  41  65  94 137 183 222 279 332 396
#     4  12  23  36  59  97 138 179 233 278 316 389
#
# _framework density 22.846737999999998
#
# number of rings (size 3 to 8) (size 9 to 14) (size 15 to 20)
#    0.000    0.750    3.750    4.125    5.250    2.500 
#    0.000    0.000    0.000    0.000    0.000    0.000 
#    0.000    0.000    0.000    0.000    0.000    0.000 
#
# Total GULP energy -89533.981711 kJ/mol
# GULP energy per Si atom -5595.873857 kJ/mol
# Density = 2.279474 g / cm^3
# Si number density = 22.846738 Si / 1000 Ang^3
#
#
#
# Elastic Constant Matrix: (Units=GPa)
#
#
# Indices 1 2 3 4 5 6 
#
# 1 126.2925 38.4081 29.2124 7.9367 -24.3766 29.6084
# 2 38.4081 80.3834 10.5015 9.8497 -15.7861 23.2832
# 3 29.2124 10.5015 101.2999 7.2558 -18.2177 8.7100
# 4 7.9367 9.8497 7.2558 30.6706 4.8963 -0.6117
# 5 -24.3766 -15.7861 -18.2177 4.8963 38.5238 -3.6400
# 6 29.6084 23.2832 8.7100 -0.6117 -3.6400 37.3287
#
#
#
# Elastic Compliance Matrix: (Units=1/GPa)
#
#
# Indices 1 2 3 4 5 6 
#
# 1 0.011847 -0.001775 -0.001301 -0.003273 0.005864 -0.007468
# 2 -0.001775 0.018105 0.001184 -0.006917 0.006827 -0.009609
# 3 -0.001301 0.001184 0.011523 -0.003669 0.005395 -0.001929
# 4 -0.003273 -0.006917 -0.003669 0.038416 -0.010830 0.007340
# 5 0.005864 0.006827 0.005395 -0.010830 0.035746 -0.006861
# 6 -0.007468 -0.009609 -0.001929 0.007340 -0.006861 0.038608
#
#
# Mechanical properties :
#
#
# Convention : Reuss Voigt Hill
#
# Bulk Modulus (GPa) = 26.53071 51.57998 39.05534
# Shear Modulus (GPa) = 29.30949 36.62822 32.96885
#
# Velocity S-wave (km/s) = 3.58561 4.00836 3.80286
# Velocity P-wave (km/s) = 5.36468 6.63688 6.03440
#
# Compressibility (1/GPa) = 0.03769217
#
# Stress axis : x y z
#
# Youngs Moduli (GPa) = 84.40690 55.23236 86.78187
#
# Poissons Ratio (x) = 0.09803 0.11293
# Poissons Ratio (y) = 0.14981 -0.10278
# Poissons Ratio (z) = 0.10984 -0.06542
#
# Static dielectric constant tensor:
#      x y z
#    x 1.833300 -0.005480 -0.025130 
#    y -0.005480 1.903150 0.052020 
#    z -0.025130 0.052020 1.965870 
# 
# From -- ./inp_files/207576.got.cif
#   From: 2010.05.17/outbox.cif.g08.bks.cpg/sg2_104_cif.got.tgz:207576.got - 2010.06.03 11:33:40.
