data_PCOD9056821
_publ_section_title
;
Structure prediction by ZEFSAII (Michael W. Deem and Ramdas Pophale) SiO2 
 PCOD9056821
Probable space group: P -1
;
_chemical_formula_sum "Si O2"
_cell_formula_units_Z 16
_cell_length_a 14.242671
_cell_length_b 11.226034
_cell_length_c 11.906977
_cell_angle_alpha 66.523691
_cell_angle_beta 40.844671
_cell_angle_gamma 44.094370
_cell_volume 821.281085
_symmetry_space_group_name_H-M "P -1"
_symmetry_group_IT_number 2
_symmetry_cell_setting 'triclinic'
loop_
_space_group_symop_operation_xyz
x,y,z
-x,-y,-z
loop_
_atom_site_type_symbol
_atom_site_label
_atom_site_fract_x
_atom_site_fract_y
_atom_site_fract_z
Si Si1 0.076353 0.524153 0.533648
Si Si2 0.445749 0.485504 0.179142
Si Si3 0.150820 0.785907 0.951372
Si Si4 0.774029 0.160839 0.605535
Si Si5 0.281310 0.080963 0.179249
Si Si6 0.967085 0.625755 0.162817
Si Si7 0.904306 0.704970 0.942147
Si Si8 0.265051 0.651868 0.647602
O O1 0.271530 0.486629 0.341865
O O2 0.124187 0.393650 0.641425
O O3 0.000000 0.500000 0.500000
O O4 0.892722 0.728805 0.670202
O O5 0.651772 0.312529 0.117094
O O6 0.352619 0.662753 0.268475
O O7 0.500000 0.500000 0.000000
O O8 0.203097 0.733919 0.794624
O O9 0.059772 0.701387 0.097138
O O10 0.000000 0.000000 0.000000
O O11 0.783189 0.215960 0.454410
O O12 0.687472 0.072711 0.727219
O O13 0.000000 0.000000 0.500000
O O14 0.204941 0.122858 0.103134
O O15 0.500000 0.000000 0.000000
O O16 0.117674 0.422820 0.047702
O O17 0.849045 0.736750 0.112131
O O18 0.138075 0.600682 0.759467
O O19 0.500000 0.500000 0.500000
#
# Coordination Sequence:
#
# PCOD9056821 Si02
#       8
#     2   2   2   2   2   2   2   2
#     4  11  24  45  66  98 138 177 226 273 341 412
#     4  12  27  44  72  96 138 183 223 284 347 399
#     4  11  26  44  66 100 135 177 228 276 342 409
#     4  12  23  43  70 101 134 174 233 283 334 399
#     4  11  25  40  67 103 135 173 224 281 333 403
#     4   9  20  39  68  87 130 172 212 272 333 390
#     4   9  19  38  64  97 130 166 220 273 333 394
#     4  11  22  40  70  99 132 174 227 282 333 401
#
# _framework density 19.481759
#
# number of rings (size 3 to 8) (size 9 to 14) (size 15 to 20)
#    0.000    1.250    3.750    1.500    7.000    2.000 
#    0.000    0.625    0.000    0.000    0.000    0.000 
#    0.000    0.000    0.000    0.000    0.000    0.000 
#
# Total GULP energy -89174.142870 kJ/mol
# GULP energy per Si atom -5573.383929 kJ/mol
# Density = 1.943742 g / cm^3
# Si number density = 19.481759 Si / 1000 Ang^3
#
#
#
# Elastic Constant Matrix: (Units=GPa)
#
#
# Indices 1 2 3 4 5 6 
#
# 1 92.6104 43.2124 53.5588 -12.4306 -12.0619 -9.3229
# 2 43.2124 101.0442 56.0697 -15.1689 -16.7175 -11.5514
# 3 53.5588 56.0697 145.1795 -32.8235 -15.2573 -3.8179
# 4 -12.4306 -15.1689 -32.8235 44.1929 -10.4590 0.4736
# 5 -12.0619 -16.7175 -15.2573 -10.4590 41.9502 -9.7516
# 6 -9.3229 -11.5514 -3.8179 0.4736 -9.7516 36.1238
#
#
#
# Elastic Compliance Matrix: (Units=1/GPa)
#
#
# Indices 1 2 3 4 5 6 
#
# 1 0.015410 -0.003595 -0.003738 0.000903 0.002589 0.003119
# 2 -0.003595 0.015186 -0.003033 0.003299 0.005938 0.005167
# 3 -0.003738 -0.003033 0.011500 0.007341 0.003777 0.000204
# 4 0.000903 0.003299 0.007341 0.032632 0.013615 0.005311
# 5 0.002589 0.005938 0.003777 0.013615 0.034532 0.012110
# 6 0.003119 0.005167 0.000204 0.005311 0.012110 0.033361
#
#
# Mechanical properties :
#
#
# Convention : Reuss Voigt Hill
#
# Bulk Modulus (GPa) = 46.80892 71.61290 59.21091
# Shear Modulus (GPa) = 29.33012 36.85292 33.09152
#
# Velocity S-wave (km/s) = 3.88431 4.35404 4.12587
# Velocity P-wave (km/s) = 6.64803 7.88135 7.29082
#
# Compressibility (1/GPa) = 0.02136345
#
# Stress axis : x y z
#
# Youngs Moduli (GPa) = 64.89415 65.85227 86.95428
#
# Poissons Ratio (x) = 0.23677 0.32503
# Poissons Ratio (y) = 0.23332 0.26370
# Poissons Ratio (z) = 0.24257 0.19971
#
# Static dielectric constant tensor:
#      x y z
#    x 1.730770 0.005510 -0.022630 
#    y 0.005510 1.665340 -0.017410 
#    z -0.022630 -0.017410 1.663570 
# 
# From -- ./inp_files/452181.got.cif
#   From: 2010.05.17/outbox.cif.g08.bks.cpg/sg2_227_cif.got.tgz:452181.got - 2010.06.03 11:33:40.
