data_PCOD9056356
_publ_section_title
;
Structure prediction by ZEFSAII (Michael W. Deem and Ramdas Pophale) SiO2 
 PCOD9056356
Probable space group: P -1
;
_chemical_formula_sum "Si O2"
_cell_formula_units_Z 16
_cell_length_a 9.461795
_cell_length_b 11.083090
_cell_length_c 22.234780
_cell_angle_alpha 30.626549
_cell_angle_beta 33.055562
_cell_angle_gamma 39.865516
_cell_volume 638.846511
_symmetry_space_group_name_H-M "P -1"
_symmetry_group_IT_number 2
_symmetry_cell_setting 'triclinic'
loop_
_space_group_symop_operation_xyz
x,y,z
-x,-y,-z
loop_
_atom_site_type_symbol
_atom_site_label
_atom_site_fract_x
_atom_site_fract_y
_atom_site_fract_z
Si Si1 0.433790 0.010119 0.237965
Si Si2 0.590131 0.703176 0.422555
Si Si3 0.299379 0.823055 0.246986
Si Si4 0.827831 0.264228 0.933651
Si Si5 0.168288 0.745142 0.201835
Si Si6 0.239643 0.940756 0.644474
Si Si7 0.112291 0.698861 0.682996
Si Si8 0.041070 0.222581 0.094026
O O1 0.129738 0.083096 0.333196
O O2 0.578834 0.914578 0.287375
O O3 0.454218 0.822577 0.254172
O O4 0.555844 0.236165 0.074511
O O5 0.500000 0.500000 0.500000
O O6 0.893915 0.653494 0.354414
O O7 0.371515 0.736615 0.538060
O O8 0.345560 0.685868 0.225125
O O9 0.995417 0.829896 0.372500
O O10 0.258492 0.099009 0.118288
O O11 0.768422 0.328371 0.857159
O O12 0.994734 0.461937 0.811735
O O13 0.000000 0.000000 0.000000
O O14 0.125077 0.041803 0.086939
O O15 0.173146 0.722936 0.721105
O O16 0.230489 0.858090 0.751609
O O17 0.500000 0.000000 0.500000
O O18 0.000000 0.500000 0.000000
#
# Coordination Sequence:
#
# PCOD9056356 Si02
#       8
#     2   2   2   2   2   2   2   2
#     4  11  23  41  61  91 122 164 207 263 305 358
#     4  12  22  41  64  90 124 163 207 248 314 376
#     4   7  19  35  58  81 121 152 198 250 302 348
#     4  12  23  38  61  93 127 166 203 250 312 376
#     4   9  20  38  61  88 124 160 201 250 302 373
#     4   8  16  32  56  85 117 156 202 249 298 352
#     4  11  22  38  62  91 127 160 205 259 307 362
#     4   8  17  33  59  84 118 155 201 243 296 361
#
# _framework density 25.04514
#
# number of rings (size 3 to 8) (size 9 to 14) (size 15 to 20)
#    1.500    0.500    2.500    2.250    1.750    0.500 
#    2.250    0.625    0.000    1.500    0.000    0.000 
#    0.000    0.000    0.000    0.000    0.000    0.000 
#
# Total GULP energy -89069.077246 kJ/mol
# GULP energy per Si atom -5566.817328 kJ/mol
# Density = 2.498814 g / cm^3
# Si number density = 25.045140 Si / 1000 Ang^3
#
#
#
# Elastic Constant Matrix: (Units=GPa)
#
#
# Indices 1 2 3 4 5 6 
#
# 1 92.6004 20.8866 19.3478 -3.7440 5.1137 18.5050
# 2 20.8866 42.2495 14.9797 6.3835 7.0887 18.3496
# 3 19.3478 14.9797 96.8702 22.9398 -8.5760 12.8997
# 4 -3.7440 6.3835 22.9398 31.8775 8.0680 -5.7523
# 5 5.1137 7.0887 -8.5760 8.0680 36.9062 5.2630
# 6 18.5050 18.3496 12.8997 -5.7523 5.2630 40.0906
#
#
#
# Elastic Compliance Matrix: (Units=1/GPa)
#
#
# Indices 1 2 3 4 5 6 
#
# 1 0.013272 -0.005064 -0.003040 0.005051 -0.002422 -0.001787
# 2 -0.005064 0.034229 -0.000335 -0.009316 -0.001873 -0.014312
# 3 -0.003040 -0.000335 0.016382 -0.015562 0.008705 -0.007090
# 4 0.005051 -0.009316 -0.015562 0.052137 -0.016285 0.016558
# 5 -0.002422 -0.001873 0.008705 -0.016285 0.034470 -0.007688
# 6 -0.001787 -0.014312 -0.007090 0.016558 -0.007688 0.037986
#
#
# Mechanical properties :
#
#
# Convention : Reuss Voigt Hill
#
# Bulk Modulus (GPa) = 21.27469 38.01645 29.64557
# Shear Modulus (GPa) = 22.62212 33.54194 28.08203
#
# Velocity S-wave (km/s) = 3.00868 3.66356 3.35215
# Velocity P-wave (km/s) = 4.53680 5.75393 5.18123
#
# Compressibility (1/GPa) = 0.04700421
#
# Stress axis : x y z
#
# Youngs Moduli (GPa) = 75.34892 29.21494 61.04208
#
# Poissons Ratio (x) = 0.14793 0.18558
# Poissons Ratio (y) = 0.38153 0.02048
# Poissons Ratio (z) = 0.22908 0.00980
#
# Static dielectric constant tensor:
#      x y z
#    x 1.927370 -0.076830 0.074970 
#    y -0.076830 2.054030 0.054660 
#    z 0.074970 0.054660 1.925540 
# 
# From -- ./inp_files/610332.got.cif
#   From: 2010.05.17/outbox.cif.g08.bks.cpg/sg2_306_cif.got.tgz:610332.got - 2010.06.03 11:33:40.
