data_PCOD9056667
_publ_section_title
;
Structure prediction by ZEFSAII (Michael W. Deem and Ramdas Pophale) SiO2 
 PCOD9056667
Probable space group: P -1
;
_chemical_formula_sum "Si O2"
_cell_formula_units_Z 16
_cell_length_a 9.698614
_cell_length_b 9.995711
_cell_length_c 7.406559
_cell_angle_alpha 76.079189
_cell_angle_beta 118.401851
_cell_angle_gamma 86.985296
_cell_volume 601.203485
_symmetry_space_group_name_H-M "P -1"
_symmetry_group_IT_number 2
_symmetry_cell_setting 'triclinic'
loop_
_space_group_symop_operation_xyz
x,y,z
-x,-y,-z
loop_
_atom_site_type_symbol
_atom_site_label
_atom_site_fract_x
_atom_site_fract_y
_atom_site_fract_z
Si Si1 0.999770 0.251725 0.178046
Si Si2 0.095153 0.276995 0.858815
Si Si3 0.645213 0.770587 0.452820
Si Si4 0.728810 0.152800 0.203491
Si Si5 0.506614 0.348398 0.258332
Si Si6 0.305223 0.435920 0.767177
Si Si7 0.353677 0.996488 0.159105
Si Si8 0.112708 0.938940 0.318999
O O1 0.164661 0.245690 0.391358
O O2 0.831572 0.270130 0.167628
O O3 0.010011 0.091611 0.161654
O O4 0.015325 0.336026 0.977952
O O5 0.135014 0.399431 0.719841
O O6 0.982358 0.184979 0.725103
O O7 0.260522 0.160470 0.044130
O O8 0.573640 0.693395 0.598066
O O9 0.619023 0.693795 0.274984
O O10 0.540299 0.929177 0.333865
O O11 0.584427 0.222074 0.217916
O O12 0.841079 0.056390 0.445990
O O13 0.679510 0.067435 0.033967
O O14 0.651000 0.431936 0.352420
O O15 0.379241 0.437560 0.013663
O O16 0.261915 0.926748 0.281249
#
# Coordination Sequence:
#
# PCOD9056667 Si02
#       8
#     2   2   2   2   2   2   2   2
#     4  11  23  39  68 101 137 171 214 264 341 396
#     4  11  22  43  65 101 140 170 216 273 331 396
#     4  12  24  44  67 102 132 172 221 275 329 391
#     4  12  22  42  69  98 130 179 218 267 331 395
#     4  11  25  46  68  93 131 178 230 269 321 386
#     4  11  25  44  69  92 132 180 222 275 323 384
#     4  11  23  38  67 101 135 171 212 270 335 396
#     4  11  22  40  65  96 144 171 211 270 334 396
#
# _framework density 26.613285999999999
#
# number of rings (size 3 to 8) (size 9 to 14) (size 15 to 20)
#    0.000    0.750    6.250    2.250    1.750    3.500 
#    0.000    3.125    0.000    0.000    0.000    0.000 
#    0.000    0.000    0.000    0.000    0.000    0.000 
#
# Total GULP energy -89547.176594 kJ/mol
# GULP energy per Si atom -5596.698537 kJ/mol
# Density = 2.655271 g / cm^3
# Si number density = 26.613286 Si / 1000 Ang^3
#
#
#
# Elastic Constant Matrix: (Units=GPa)
#
#
# Indices 1 2 3 4 5 6 
#
# 1 117.3889 18.8166 44.4969 -8.3778 -28.3901 29.7905
# 2 18.8166 77.9511 21.3170 -0.9875 -11.2504 31.7626
# 3 44.4969 21.3170 106.7385 6.8507 -25.2705 12.8748
# 4 -8.3778 -0.9875 6.8507 26.2158 -0.0880 0.5755
# 5 -28.3901 -11.2504 -25.2705 -0.0880 46.1208 -2.1857
# 6 29.7905 31.7626 12.8748 0.5755 -2.1857 46.5718
#
#
#
# Elastic Compliance Matrix: (Units=1/GPa)
#
#
# Indices 1 2 3 4 5 6 
#
# 1 0.014039 0.002566 -0.004044 0.005868 0.006619 -0.009374
# 2 0.002566 0.019168 -0.002362 0.002479 0.004308 -0.013890
# 3 -0.004044 -0.002362 0.012635 -0.004691 0.003894 0.000945
# 4 0.005868 0.002479 -0.004691 0.041445 0.001508 -0.004589
# 5 0.006619 0.004308 0.003894 0.001508 0.028615 -0.006924
# 6 -0.009374 -0.013890 0.000945 -0.004589 -0.006924 0.036412
#
#
# Mechanical properties :
#
#
# Convention : Reuss Voigt Hill
#
# Bulk Modulus (GPa) = 26.20327 52.37107 39.28717
# Shear Modulus (GPa) = 28.94975 38.27822 33.61399
#
# Velocity S-wave (km/s) = 3.30175 3.79662 3.55780
# Velocity P-wave (km/s) = 4.93991 6.24022 5.62775
#
# Compressibility (1/GPa) = 0.03816318
#
# Stress axis : x y z
#
# Youngs Moduli (GPa) = 71.23189 52.17115 79.14550
#
# Poissons Ratio (x) = -0.13389 0.32005
# Poissons Ratio (y) = -0.18281 0.18692
# Poissons Ratio (z) = 0.28804 0.12321
#
# Static dielectric constant tensor:
#      x y z
#    x 2.191030 0.057250 0.047810 
#    y 0.057250 2.126320 -0.021370 
#    z 0.047810 -0.021370 2.096330 
# 
# From -- ./inp_files/176681.got.cif
#   From: 2010.05.17/outbox.cif.g08.bks.cpg/sg2_89_cif.got.tgz:176681.got - 2010.06.03 11:33:40.
