data_PCOD9056988
_publ_section_title
;
Structure prediction by ZEFSAII (Michael W. Deem and Ramdas Pophale) SiO2 
 PCOD9056988
Probable space group: P -1
;
_chemical_formula_sum "Si O2"
_cell_formula_units_Z 15
_cell_length_a 7.250872
_cell_length_b 17.300269
_cell_length_c 6.704547
_cell_angle_alpha 132.932868
_cell_angle_beta 113.482776
_cell_angle_gamma 72.405207
_cell_volume 564.168972
_symmetry_space_group_name_H-M "P -1"
_symmetry_group_IT_number 2
_symmetry_cell_setting 'triclinic'
loop_
_space_group_symop_operation_xyz
x,y,z
-x,-y,-z
loop_
_atom_site_type_symbol
_atom_site_label
_atom_site_fract_x
_atom_site_fract_y
_atom_site_fract_z
Si Si1 0.636294 0.406337 0.797972
Si Si2 0.839884 0.154228 0.988885
Si Si3 0.087711 0.602226 0.445365
Si Si4 0.750584 0.600254 0.598065
Si Si5 0.474277 0.898926 0.942121
Si Si6 0.801253 0.809629 0.221949
Si Si7 0.000000 0.000000 0.500000
Si Si8 0.524353 0.223296 0.662604
O O1 0.847668 0.412126 0.783990
O O2 0.486981 0.378535 0.499535
O O3 0.643632 0.327696 0.850987
O O4 0.500000 0.500000 0.000000
O O5 0.738469 0.105409 0.050648
O O6 0.674513 0.149220 0.728450
O O7 0.014904 0.080082 0.841416
O O8 0.869492 0.276280 0.266498
O O9 0.206680 0.507339 0.449796
O O10 0.863009 0.591141 0.416452
O O11 0.838404 0.700709 0.925979
O O12 0.632578 0.881137 0.155411
O O13 0.510141 0.811427 0.636938
O O14 0.500000 0.000000 0.000000
O O15 0.688386 0.773219 0.309481
O O16 0.972970 0.893435 0.449966
#
# Coordination Sequence:
#
# PCOD9056988 Si02
#       8
#     2   2   2   2   2   2   1   2
#     4  12  23  42  69 105 136 178 230 271 344 417
#     4  11  23  44  65  99 136 171 232 278 339 407
#     4  11  23  44  71  99 141 181 218 288 346 401
#     4  11  23  44  71  99 141 181 218 288 346 401
#     4  11  22  42  67  92 132 177 225 282 334 396
#     4  11  23  44  65  99 136 171 232 278 339 407
#     4  12  24  42  68  92 132 188 222 280 340 402
#     4  11  22  41  67  96 130 178 219 282 337 401
#
# _framework density 26.587781
#
# number of rings (size 3 to 8) (size 9 to 14) (size 15 to 20)
#    0.000    0.800    4.000    4.400    0.000    2.667 
#    2.400    6.000    0.000    0.000    0.000    0.000 
#    0.000    0.000    0.000    0.000    0.000    0.000 
#
# Total GULP energy -83618.041025 kJ/mol
# GULP energy per Si atom -5574.536068 kJ/mol
# Density = 2.652727 g / cm^3
# Si number density = 26.587781 Si / 1000 Ang^3
#
#
#
# Elastic Constant Matrix: (Units=GPa)
#
#
# Indices 1 2 3 4 5 6 
#
# 1 107.9237 55.2564 28.7634 -11.7553 -37.5323 37.8771
# 2 55.2564 211.0027 49.2756 11.6152 -37.2078 38.4684
# 3 28.7634 49.2756 108.3577 18.1167 -40.5551 17.5016
# 4 -11.7553 11.6152 18.1167 56.1656 3.7831 -10.5653
# 5 -37.5323 -37.2078 -40.5551 3.7831 65.2251 -26.8424
# 6 37.8771 38.4684 17.5016 -10.5653 -26.8424 51.4239
#
#
#
# Elastic Compliance Matrix: (Units=1/GPa)
#
#
# Indices 1 2 3 4 5 6 
#
# 1 0.014240 -0.001804 -0.000832 0.002159 0.003898 -0.006378
# 2 -0.001804 0.006277 -0.001376 -0.001830 0.000568 -0.002978
# 3 -0.000832 -0.001376 0.013706 -0.004835 0.007496 -0.000103
# 4 0.002159 -0.001830 -0.004835 0.021217 -0.002112 0.004681
# 5 0.003898 0.000568 0.007496 -0.002112 0.025595 0.007079
# 6 -0.006378 -0.002978 -0.000103 0.004681 0.007079 0.031064
#
#
# Mechanical properties :
#
#
# Convention : Reuss Voigt Hill
#
# Bulk Modulus (GPa) = 38.16801 77.09723 57.63262
# Shear Modulus (GPa) = 38.80304 54.16218 46.48261
#
# Velocity S-wave (km/s) = 3.82439 4.51833 4.18577
# Velocity P-wave (km/s) = 5.82134 7.50204 6.71448
#
# Compressibility (1/GPa) = 0.02619995
#
# Stress axis : x y z
#
# Youngs Moduli (GPa) = 70.22351 159.31724 72.96117
#
# Poissons Ratio (x) = 0.28734 0.06069
# Poissons Ratio (y) = 0.12665 0.10040
# Poissons Ratio (z) = 0.05841 0.21924
#
# Static dielectric constant tensor:
#      x y z
#    x 2.328710 -0.023610 0.077090 
#    y -0.023610 2.621480 0.268050 
#    z 0.077090 0.268050 2.316780 
# 
# From -- ./inp_files/45974.got.cif
#   From: 2010.05.17/outbox.cif.g08.bks.cpg/sg2_23_cif.got.tgz:45974.got - 2010.06.03 11:33:40.
