data_PCOD9056076
_publ_section_title
;
Structure prediction by ZEFSAII (Michael W. Deem and Ramdas Pophale) SiO2 
 PCOD9056076
Probable space group: P -1
;
_chemical_formula_sum "Si O2"
_cell_formula_units_Z 12
_cell_length_a 9.669038
_cell_length_b 13.194826
_cell_length_c 12.976920
_cell_angle_alpha 149.305220
_cell_angle_beta 34.210945
_cell_angle_gamma 147.112262
_cell_volume 424.778638
_symmetry_space_group_name_H-M "P -1"
_symmetry_group_IT_number 2
_symmetry_cell_setting 'triclinic'
loop_
_space_group_symop_operation_xyz
x,y,z
-x,-y,-z
loop_
_atom_site_type_symbol
_atom_site_label
_atom_site_fract_x
_atom_site_fract_y
_atom_site_fract_z
Si Si1 0.678022 0.774734 0.252764
Si Si2 0.154257 0.655587 0.611387
Si Si3 0.482661 0.768392 0.846598
Si Si4 0.948696 0.490726 0.822678
Si Si5 0.967809 0.895266 0.537061
Si Si6 0.939652 0.893226 0.851762
O O1 0.442912 0.750609 0.455681
O O2 0.950361 0.897093 0.258502
O O3 0.778268 0.947635 0.248232
O O4 0.687249 0.544089 0.022426
O O5 0.106050 0.586070 0.700677
O O6 0.064126 0.369727 0.374818
O O7 0.094922 0.893412 0.875654
O O8 0.167521 0.587270 0.866638
O O9 0.667809 0.726591 0.609941
O O10 0.655357 0.806830 0.880242
O O11 0.500000 0.000000 0.000000
O O12 0.847944 0.229232 0.663314
O O13 0.000000 0.000000 0.500000
#
# Coordination Sequence:
#
# PCOD9056076 Si02
#       6
#     2   2   2   2   2   2
#     4  11  25  49  75 109 156 197 259 313 385 454
#     4  12  26  48  76 111 152 202 258 316 385 457
#     4  11  21  45  75 106 153 196 247 312 381 450
#     4  12  25  50  78 110 156 199 255 321 384 456
#     4  11  25  45  74 114 149 197 253 319 386 452
#     4  11  22  45  76 109 152 206 243 311 383 452
#
# _framework density 28.250007
#
# number of rings (size 3 to 8) (size 9 to 14) (size 15 to 20)
#    0.000    0.667    5.000    4.000    0.000    2.667 
#    9.000    0.000    0.000    0.000    0.000    0.000 
#    0.000    0.000    0.000    0.000    0.000    0.000 
#
# Total GULP energy -66912.219038 kJ/mol
# GULP energy per Si atom -5576.018253 kJ/mol
# Density = 2.818571 g / cm^3
# Si number density = 28.250007 Si / 1000 Ang^3
#
#
#
# Elastic Constant Matrix: (Units=GPa)
#
#
# Indices 1 2 3 4 5 6 
#
# 1 189.0041 48.3770 48.8097 14.5815 -8.4955 -21.6497
# 2 48.3770 133.0277 67.3154 -5.9247 -4.3460 -19.1500
# 3 48.8097 67.3154 163.5745 3.0431 -30.6374 -21.1868
# 4 14.5815 -5.9247 3.0431 58.5286 -12.1818 -3.7491
# 5 -8.4955 -4.3460 -30.6374 -12.1818 54.6244 6.1425
# 6 -21.6497 -19.1500 -21.1868 -3.7491 6.1425 68.4654
#
#
#
# Elastic Compliance Matrix: (Units=1/GPa)
#
#
# Indices 1 2 3 4 5 6 
#
# 1 0.006229 -0.001656 -0.001048 -0.001644 -0.000243 0.001114
# 2 -0.001656 0.010285 -0.003857 0.001443 -0.001434 0.001367
# 3 -0.001048 -0.003857 0.008986 0.000414 0.004552 0.000985
# 4 -0.001644 0.001443 0.000414 0.018525 0.004149 0.000654
# 5 -0.000243 -0.001434 0.004552 0.004149 0.021722 -0.000791
# 6 0.001114 0.001367 0.000985 0.000654 -0.000791 0.015752
#
#
# Mechanical properties :
#
#
# Convention : Reuss Voigt Hill
#
# Bulk Modulus (GPa) = 80.78386 90.51228 85.64807
# Shear Modulus (GPa) = 50.63445 57.73063 54.18254
#
# Velocity S-wave (km/s) = 4.23823 4.52548 4.38421
# Velocity P-wave (km/s) = 7.25316 7.70817 7.48412
#
# Compressibility (1/GPa) = 0.01237871
#
# Stress axis : x y z
#
# Youngs Moduli (GPa) = 160.54392 97.22522 111.28748
#
# Poissons Ratio (x) = 0.16098 0.11661
# Poissons Ratio (y) = 0.26582 0.42924
# Poissons Ratio (z) = 0.16822 0.37500
#
# Static dielectric constant tensor:
#      x y z
#    x 2.189280 0.039040 -0.190120 
#    y 0.039040 2.197080 0.419480 
#    z -0.190120 0.419480 2.441270 
# 
# From -- ./inp_files/600513.got.cif
#   From: 2010.05.17/outbox.cif.g08.bks.cpg/sg2_301_cif.got.tgz:600513.got - 2010.06.03 11:33:40.
