data_PCOD9056241
_publ_section_title
;
Structure prediction by ZEFSAII (Michael W. Deem and Ramdas Pophale) SiO2 
 PCOD9056241
Probable space group: P -1
;
_chemical_formula_sum "Si O2"
_cell_formula_units_Z 14
_cell_length_a 10.760419
_cell_length_b 9.411892
_cell_length_c 13.298433
_cell_angle_alpha 49.604640
_cell_angle_beta 33.321272
_cell_angle_gamma 52.979469
_cell_volume 557.522492
_symmetry_space_group_name_H-M "P -1"
_symmetry_group_IT_number 2
_symmetry_cell_setting 'triclinic'
loop_
_space_group_symop_operation_xyz
x,y,z
-x,-y,-z
loop_
_atom_site_type_symbol
_atom_site_label
_atom_site_fract_x
_atom_site_fract_y
_atom_site_fract_z
Si Si1 0.399688 0.125579 0.914224
Si Si2 0.719109 0.500833 0.778168
Si Si3 0.047540 0.537164 0.706795
Si Si4 0.212884 0.541349 0.901112
Si Si5 0.185227 0.914878 0.494448
Si Si6 0.616170 0.714749 0.535201
Si Si7 0.982712 0.913773 0.265521
O O1 0.377543 0.340895 0.869115
O O2 0.571211 0.093445 0.719360
O O3 0.159696 0.064812 0.068442
O O4 0.500000 0.000000 0.000000
O O5 0.663461 0.609700 0.660521
O O6 0.899770 0.594985 0.680451
O O7 0.849264 0.288903 0.764009
O O8 0.500000 0.500000 0.000000
O O9 0.121899 0.705259 0.643618
O O10 0.271443 0.410761 0.574564
O O11 0.883848 0.431069 0.934045
O O12 0.348278 0.711244 0.703667
O O13 0.000000 0.500000 0.000000
O O14 0.136483 0.036096 0.570409
O O15 0.000000 0.000000 0.500000
O O16 0.765041 0.885603 0.356015
#
# Coordination Sequence:
#
# PCOD9056241 Si02
#       7
#     2   2   2   2   2   2   2
#     4  12  24  40  66 101 136 172 225 286 333 393
#     4  11  22  36  64  98 140 174 219 280 345 400
#     4  11  22  40  64  96 135 178 222 275 339 405
#     4  12  26  46  70 100 136 185 231 275 335 417
#     4  12  21  35  63  97 137 170 214 277 344 392
#     4  11  23  42  62  98 135 176 225 277 340 406
#     4  11  24  36  61  97 132 171 218 278 342 387
#
# _framework density 25.111091999999999
#
# number of rings (size 3 to 8) (size 9 to 14) (size 15 to 20)
#    0.000    0.571    5.714    4.286    4.000    0.571 
#    0.000    0.714    0.000    4.286    0.000    0.000 
#    0.000    0.000    0.000    0.000    0.000    0.000 
#
# Total GULP energy -78331.870931 kJ/mol
# GULP energy per Si atom -5595.133638 kJ/mol
# Density = 2.505394 g / cm^3
# Si number density = 25.111092 Si / 1000 Ang^3
#
#
#
# Elastic Constant Matrix: (Units=GPa)
#
#
# Indices 1 2 3 4 5 6 
#
# 1 82.4187 24.2541 15.2810 1.6640 -21.8476 16.1181
# 2 24.2541 125.2925 56.6275 -2.7882 9.5472 19.0084
# 3 15.2810 56.6275 202.3674 20.8767 -19.7191 10.8145
# 4 1.6640 -2.7882 20.8767 45.4933 25.8784 -1.0165
# 5 -21.8476 9.5472 -19.7191 25.8784 43.4179 -2.0706
# 6 16.1181 19.0084 10.8145 -1.0165 -2.0706 28.7858
#
#
#
# Elastic Compliance Matrix: (Units=1/GPa)
#
#
# Indices 1 2 3 4 5 6 
#
# 1 0.022611 -0.008176 0.005640 -0.019411 0.026919 -0.008130
# 2 -0.008176 0.015246 -0.007090 0.016013 -0.020409 -0.003728
# 3 0.005640 -0.007090 0.009944 -0.015535 0.018103 -0.001459
# 4 -0.019411 0.016013 -0.015535 0.064080 -0.058337 0.004198
# 5 0.026919 -0.020409 0.018103 -0.058337 0.083847 -0.004426
# 6 -0.008130 -0.003728 -0.001459 0.004198 -0.004426 0.042131
#
#
# Mechanical properties :
#
#
# Convention : Reuss Voigt Hill
#
# Bulk Modulus (GPa) = 35.02719 66.93375 50.98047
# Shear Modulus (GPa) = 18.75286 44.46714 31.61000
#
# Velocity S-wave (km/s) = 2.73572 4.21267 3.55182
# Velocity P-wave (km/s) = 4.89470 7.09754 6.09644
#
# Compressibility (1/GPa) = 0.02854925
#
# Stress axis : x y z
#
# Youngs Moduli (GPa) = 44.22638 65.59285 100.56186
#
# Poissons Ratio (x) = 0.53629 -0.56722
# Poissons Ratio (y) = 0.36160 0.71299
# Poissons Ratio (z) = -0.24946 0.46506
#
# Static dielectric constant tensor:
#      x y z
#    x 2.002850 -0.105090 -0.024860 
#    y -0.105090 2.025060 -0.047800 
#    z -0.024860 -0.047800 1.980310 
# 
# From -- ./inp_files/304751.got.cif
#   From: 2010.05.17/outbox.cif.g08.bks.cpg/sg2_153_cif.got.tgz:304751.got - 2010.06.03 11:33:40.
