data_PCOD9056775
_publ_section_title
;
Structure prediction by ZEFSAII (Michael W. Deem and Ramdas Pophale) SiO2 
 PCOD9056775
Probable space group: P -1
;
_chemical_formula_sum "Si O2"
_cell_formula_units_Z 14
_cell_length_a 22.656513
_cell_length_b 16.492040
_cell_length_c 5.193418
_cell_angle_alpha 55.375224
_cell_angle_beta 68.333665
_cell_angle_gamma 23.736734
_cell_volume 572.180222
_symmetry_space_group_name_H-M "P -1"
_symmetry_group_IT_number 2
_symmetry_cell_setting 'triclinic'
loop_
_space_group_symop_operation_xyz
x,y,z
-x,-y,-z
loop_
_atom_site_type_symbol
_atom_site_label
_atom_site_fract_x
_atom_site_fract_y
_atom_site_fract_z
Si Si1 0.188603 0.011809 0.399308
Si Si2 0.318268 0.619092 0.806769
Si Si3 0.807714 0.508639 0.083473
Si Si4 0.081693 0.309818 0.414983
Si Si5 0.174539 0.740880 0.329686
Si Si6 0.738454 0.723287 0.328444
Si Si7 0.367832 0.931097 0.959189
O O1 0.310262 0.746812 0.643345
O O2 0.156598 0.098231 0.581332
O O3 0.004359 0.243532 0.200535
O O4 0.262891 0.000962 0.160791
O O5 0.182999 0.791371 0.489195
O O6 0.294519 0.604604 0.152222
O O7 0.476321 0.345996 0.908984
O O8 0.790406 0.420147 0.348952
O O9 0.750951 0.655464 0.152558
O O10 0.715385 0.675244 0.674028
O O11 0.241885 0.136914 0.563411
O O12 0.920615 0.510438 0.472051
O O13 0.000000 0.500000 0.000000
O O14 0.000000 0.000000 0.000000
O O15 0.611593 0.995782 0.056673
#
# Coordination Sequence:
#
# PCOD9056775 Si02
#       7
#     2   2   2   2   2   2   2
#     4  11  24  41  70 105 144 184 229 286 354 425
#     4  12  30  45  73 106 141 193 224 295 363 408
#     4  11  24  43  76 102 128 181 251 292 333 398
#     4  11  22  40  69 103 147 188 230 275 341 422
#     4  12  27  52  74  99 138 183 254 293 336 414
#     4  11  23  41  70 109 135 185 228 286 347 412
#     4  12  25  44  67 106 159 174 228 283 364 435
#
# _framework density 24.467818000000001
#
# number of rings (size 3 to 8) (size 9 to 14) (size 15 to 20)
#    0.000    0.571    4.286    3.857    6.000    0.571 
#    0.000    4.286    0.000    0.000    0.000    0.000 
#    0.000    0.000    0.000    0.000    0.000    0.000 
#
# Total GULP energy -78299.874020 kJ/mol
# GULP energy per Si atom -5592.848144 kJ/mol
# Density = 2.441213 g / cm^3
# Si number density = 24.467818 Si / 1000 Ang^3
#
#
#
# Elastic Constant Matrix: (Units=GPa)
#
#
# Indices 1 2 3 4 5 6 
#
# 1 54.7366 22.4722 36.4571 -8.5695 -21.6583 26.6450
# 2 22.4722 120.6547 52.5121 -17.1049 -20.8941 38.3731
# 3 36.4571 52.5121 131.9062 15.0546 -32.7279 14.6298
# 4 -8.5695 -17.1049 15.0546 40.8430 3.8493 -17.0894
# 5 -21.6583 -20.8941 -32.7279 3.8493 42.5869 -11.1328
# 6 26.6450 38.3731 14.6298 -17.0894 -11.1328 36.6330
#
#
#
# Elastic Compliance Matrix: (Units=1/GPa)
#
#
# Indices 1 2 3 4 5 6 
#
# 1 0.038949 0.007530 -0.008315 0.001157 0.009287 -0.029534
# 2 0.007530 0.016078 -0.006393 0.003059 0.001884 -0.017767
# 3 -0.008315 -0.006393 0.014171 -0.008073 0.005564 0.005010
# 4 0.001157 0.003059 -0.008073 0.035443 -0.003488 0.014653
# 5 0.009287 0.001884 0.005564 -0.003488 0.033059 -0.002531
# 6 -0.029534 -0.017767 0.005010 0.014653 -0.002531 0.071455
#
#
# Mechanical properties :
#
#
# Convention : Reuss Voigt Hill
#
# Bulk Modulus (GPa) = 18.23432 58.90894 38.57163
# Shear Modulus (GPa) = 20.67898 37.06964 28.87431
#
# Velocity S-wave (km/s) = 2.91030 3.89657 3.43898
# Velocity P-wave (km/s) = 4.33148 6.66128 5.61847
#
# Compressibility (1/GPa) = 0.05484165
#
# Stress axis : x y z
#
# Youngs Moduli (GPa) = 25.67491 62.19488 70.56807
#
# Poissons Ratio (x) = -0.46832 0.58675
# Poissons Ratio (y) = -0.19333 0.45116
# Poissons Ratio (z) = 0.21348 0.39763
#
# Static dielectric constant tensor:
#      x y z
#    x 2.041680 0.009930 0.084870 
#    y 0.009930 1.961510 0.029660 
#    z 0.084870 0.029660 1.973350 
# 
# From -- ./inp_files/127368.got.cif
#   From: 2010.05.17/outbox.cif.g08.bks.cpg/sg2_64_cif.got.tgz:127368.got - 2010.06.03 11:33:40.
