data_PCOD9056684
_publ_section_title
;
Structure prediction by ZEFSAII (Michael W. Deem and Ramdas Pophale) SiO2 
 PCOD9056684
Probable space group: P -1
;
_chemical_formula_sum "Si O2"
_cell_formula_units_Z 16
_cell_length_a 8.690599
_cell_length_b 15.814909
_cell_length_c 9.093557
_cell_angle_alpha 95.086659
_cell_angle_beta 110.099771
_cell_angle_gamma 43.528962
_cell_volume 783.073326
_symmetry_space_group_name_H-M "P -1"
_symmetry_group_IT_number 2
_symmetry_cell_setting 'triclinic'
loop_
_space_group_symop_operation_xyz
x,y,z
-x,-y,-z
loop_
_atom_site_type_symbol
_atom_site_label
_atom_site_fract_x
_atom_site_fract_y
_atom_site_fract_z
Si Si1 0.658464 0.852243 0.509947
Si Si2 0.512977 0.362184 0.227184
Si Si3 0.367313 0.225713 0.194551
Si Si4 0.108986 0.720718 0.440196
Si Si5 0.075265 0.025117 0.671880
Si Si6 0.889552 0.349617 0.888452
Si Si7 0.161370 0.800866 0.968204
Si Si8 0.727899 0.080752 0.812312
O O1 0.676570 0.796957 0.661875
O O2 0.509308 0.855124 0.342539
O O3 0.922290 0.765246 0.513079
O O4 0.500000 0.000000 0.500000
O O5 0.392259 0.318082 0.218910
O O6 0.634170 0.357628 0.410222
O O7 0.311897 0.502288 0.115908
O O8 0.731015 0.263113 0.165714
O O9 0.638215 0.089924 0.219886
O O10 0.153216 0.276675 0.025150
O O11 0.112623 0.659275 0.290195
O O12 0.003170 0.849587 0.364358
O O13 0.918780 0.046553 0.753935
O O14 0.000000 0.000000 0.500000
O O15 0.819468 0.287004 0.932010
O O16 0.308688 0.828022 0.073547
O O17 0.878041 0.941162 0.897296
#
# Coordination Sequence:
#
# PCOD9056684 Si02
#       8
#     2   2   2   2   2   2   2   2
#     4  12  23  40  68 100 139 166 214 271 347 398
#     4  12  25  49  69  90 136 189 221 263 334 399
#     4  12  25  42  70 101 131 174 222 273 334 392
#     4  12  25  43  70 100 131 174 225 275 333 396
#     4  12  19  41  71  97 132 170 213 273 342 395
#     4  12  28  45  66 100 135 176 230 276 314 396
#     4  11  24  41  71  96 135 174 224 270 339 389
#     4  11  22  40  66 106 134 169 214 283 335 399
#
# _framework density 20.432313000000001
#
# number of rings (size 3 to 8) (size 9 to 14) (size 15 to 20)
#    0.000    0.250    6.250    3.375    1.750    0.500 
#    0.000    0.625    0.000    0.000    0.000    0.000 
#    0.000    0.000    0.000    0.000    0.000    0.000 
#
# Total GULP energy -89504.255522 kJ/mol
# GULP energy per Si atom -5594.015970 kJ/mol
# Density = 2.038581 g / cm^3
# Si number density = 20.432313 Si / 1000 Ang^3
#
#
#
# Elastic Constant Matrix: (Units=GPa)
#
#
# Indices 1 2 3 4 5 6 
#
# 1 83.7746 30.8654 31.4846 -7.9691 -4.6482 7.8991
# 2 30.8654 79.8407 30.5164 -20.7241 8.9629 7.0030
# 3 31.4846 30.5164 122.4486 5.0596 28.0840 1.5823
# 4 -7.9691 -20.7241 5.0596 31.6368 -1.0806 -6.9621
# 5 -4.6482 8.9629 28.0840 -1.0806 50.7110 -10.4584
# 6 7.8991 7.0030 1.5823 -6.9621 -10.4584 14.6913
#
#
#
# Elastic Compliance Matrix: (Units=1/GPa)
#
#
# Indices 1 2 3 4 5 6 
#
# 1 0.015568 -0.004477 -0.003773 0.001155 0.003801 -0.002577
# 2 -0.004477 0.018975 -0.003543 0.011277 -0.002051 -0.002373
# 3 -0.003773 -0.003543 0.012226 -0.006949 -0.007997 -0.006585
# 4 0.001155 0.011277 -0.006949 0.045380 0.007362 0.021498
# 5 0.003801 -0.002051 -0.007997 0.007362 0.030114 0.024722
# 6 -0.002577 -0.002373 -0.006585 0.021498 0.024722 0.099080
#
#
# Mechanical properties :
#
#
# Convention : Reuss Voigt Hill
#
# Bulk Modulus (GPa) = 43.13482 52.42187 47.77834
# Shear Modulus (GPa) = 19.78958 32.28764 26.03861
#
# Velocity S-wave (km/s) = 3.11552 3.97952 3.57372
# Velocity P-wave (km/s) = 5.83942 6.84306 6.36107
#
# Compressibility (1/GPa) = 0.02318313
#
# Stress axis : x y z
#
# Youngs Moduli (GPa) = 64.23342 52.70032 81.79210
#
# Poissons Ratio (x) = 0.23595 0.30864
# Poissons Ratio (y) = 0.28758 0.28976
# Poissons Ratio (z) = 0.24238 0.18670
#
# Static dielectric constant tensor:
#      x y z
#    x 1.720500 0.024830 0.011300 
#    y 0.024830 1.731440 0.015120 
#    z 0.011300 0.015120 1.781340 
# 
# From -- ./inp_files/205386.got.cif
#   From: 2010.05.17/outbox.cif.g08.bks.cpg/sg2_103_cif.got.tgz:205386.got - 2010.06.03 11:33:40.
