data_PCOD9056482
_publ_section_title
;
Structure prediction by ZEFSAII (Michael W. Deem and Ramdas Pophale) SiO2 
 PCOD9056482
Probable space group: P -1
;
_chemical_formula_sum "Si O2"
_cell_formula_units_Z 14
_cell_length_a 9.572213
_cell_length_b 8.744901
_cell_length_c 11.386932
_cell_angle_alpha 117.236554
_cell_angle_beta 110.961579
_cell_angle_gamma 50.499295
_cell_volume 650.849484
_symmetry_space_group_name_H-M "P -1"
_symmetry_group_IT_number 2
_symmetry_cell_setting 'triclinic'
loop_
_space_group_symop_operation_xyz
x,y,z
-x,-y,-z
loop_
_atom_site_type_symbol
_atom_site_label
_atom_site_fract_x
_atom_site_fract_y
_atom_site_fract_z
Si Si1 0.986785 0.578572 0.295548
Si Si2 0.815472 0.787806 0.067360
Si Si3 0.640960 0.563759 0.567976
Si Si4 0.632093 0.774726 0.404312
Si Si5 0.476256 0.249433 0.167239
Si Si6 0.973997 0.223784 0.088085
Si Si7 0.566922 0.516168 0.151653
O O1 0.891871 0.681349 0.178362
O O2 0.826588 0.704958 0.387241
O O3 0.155722 0.593861 0.375768
O O4 0.063271 0.329433 0.224937
O O5 0.667853 0.037105 0.119302
O O6 0.690903 0.724482 0.945052
O O7 0.979914 0.739451 0.016250
O O8 0.500000 0.500000 0.500000
O O9 0.666495 0.619847 0.465944
O O10 0.553143 0.749491 0.702680
O O11 0.531691 0.734332 0.255928
O O12 0.500000 0.000000 0.500000
O O13 0.489072 0.437937 0.197109
O O14 0.781343 0.360882 0.142542
O O15 0.000000 0.000000 0.000000
O O16 0.500000 0.500000 0.000000
#
# Coordination Sequence:
#
# PCOD9056482 Si02
#       7
#     2   2   2   2   2   2   2
#     4  11  25  45  69 101 140 182 235 287 340 417
#     4  11  23  42  70 102 140 177 227 286 352 402
#     4  12  25  44  70  94 137 188 230 278 343 409
#     4  11  25  47  69  99 138 183 232 283 353 416
#     4  11  22  42  68 101 138 182 226 281 343 417
#     4  11  22  39  64 103 138 173 220 283 350 404
#     4  11  24  41  69 101 138 174 230 287 343 407
#
# _framework density 21.510351
#
# number of rings (size 3 to 8) (size 9 to 14) (size 15 to 20)
#    0.000    0.857    4.286    3.429    2.000    2.286 
#    0.000    4.286    0.000    0.000    0.000    0.000 
#    0.000    0.000    0.000    0.000    0.000    0.000 
#
# Total GULP energy -78019.947424 kJ/mol
# GULP energy per Si atom -5572.853387 kJ/mol
# Density = 2.146139 g / cm^3
# Si number density = 21.510351 Si / 1000 Ang^3
#
#
#
# Elastic Constant Matrix: (Units=GPa)
#
#
# Indices 1 2 3 4 5 6 
#
# 1 140.8216 29.0708 46.6321 -0.7115 -4.4142 1.7722
# 2 29.0708 58.3706 34.1427 12.4053 12.1834 -2.1864
# 3 46.6321 34.1427 122.2479 6.3616 2.1641 -8.9207
# 4 -0.7115 12.4053 6.3616 43.9636 -1.2032 -4.3350
# 5 -4.4142 12.1834 2.1641 -1.2032 50.6179 -4.8474
# 6 1.7722 -2.1864 -8.9207 -4.3350 -4.8474 14.2102
#
#
#
# Elastic Compliance Matrix: (Units=1/GPa)
#
#
# Indices 1 2 3 4 5 6 
#
# 1 0.008786 -0.003524 -0.002636 0.001327 0.001532 -0.002365
# 2 -0.003524 0.024669 -0.005326 -0.006759 -0.006503 -0.003388
# 3 -0.002636 -0.005326 0.011139 0.000585 0.001271 0.007114
# 4 0.001327 -0.006759 0.000585 0.025462 0.003087 0.007982
# 5 0.001532 -0.006503 0.001271 0.003087 0.022253 0.008139
# 6 -0.002365 -0.003388 0.007114 0.007982 0.008139 0.079823
#
#
# Mechanical properties :
#
#
# Convention : Reuss Voigt Hill
#
# Bulk Modulus (GPa) = 46.24863 60.12569 53.18716
# Shear Modulus (GPa) = 24.71418 35.86463 30.28941
#
# Velocity S-wave (km/s) = 3.39328 4.08771 3.75658
# Velocity P-wave (km/s) = 6.07452 7.09167 6.60271
#
# Compressibility (1/GPa) = 0.02162226
#
# Stress axis : x y z
#
# Youngs Moduli (GPa) = 113.81581 40.53605 89.77224
#
# Poissons Ratio (x) = 0.14286 0.23664
# Poissons Ratio (y) = 0.40113 0.47812
# Poissons Ratio (z) = 0.30001 0.21589
#
# Static dielectric constant tensor:
#      x y z
#    x 1.788390 0.026270 0.038930 
#    y 0.026270 1.804970 0.041000 
#    z 0.038930 0.041000 1.861990 
# 
# From -- ./inp_files/383298.got.cif
#   From: 2010.05.17/outbox.cif.g08.bks.cpg/sg2_192_cif.got.tgz:383298.got - 2010.06.03 11:33:40.
