data_PCOD9056225
_publ_section_title
;
Structure prediction by ZEFSAII (Michael W. Deem and Ramdas Pophale) SiO2 
 PCOD9056225
Probable space group: P -1
;
_chemical_formula_sum "Si O2"
_cell_formula_units_Z 10
_cell_length_a 15.655512
_cell_length_b 20.550116
_cell_length_c 9.198806
_cell_angle_alpha 144.556191
_cell_angle_beta 37.658193
_cell_angle_gamma 164.217588
_cell_volume 466.225764
_symmetry_space_group_name_H-M "P -1"
_symmetry_group_IT_number 2
_symmetry_cell_setting 'triclinic'
loop_
_space_group_symop_operation_xyz
x,y,z
-x,-y,-z
loop_
_atom_site_type_symbol
_atom_site_label
_atom_site_fract_x
_atom_site_fract_y
_atom_site_fract_z
Si Si1 0.872889 0.510718 0.784727
Si Si2 0.838243 0.728944 0.545794
Si Si3 0.522935 0.460834 0.052934
Si Si4 0.849933 0.055512 0.760579
Si Si5 0.228807 0.576043 0.905616
O O1 0.000000 0.500000 0.500000
O O2 0.624850 0.404481 0.831093
O O3 0.131870 0.793899 0.988134
O O4 0.738163 0.377606 0.881298
O O5 0.500000 0.500000 0.500000
O O6 0.898322 0.641209 0.330258
O O7 0.103363 0.956106 0.486994
O O8 0.775521 0.736715 0.800381
O O9 0.500000 0.500000 0.000000
O O10 0.824854 0.740938 0.227279
O O11 0.553873 0.808933 0.803783
O O12 0.000000 0.500000 0.000000
#
# Coordination Sequence:
#
# PCOD9056225 Si02
#       5
#     2   2   2   2   2
#     4   9  21  39  55  83 123 143 188 238 271 339
#     4   9  18  38  57  83 116 142 190 243 269 334
#     4   9  19  38  61  81 116 148 183 232 287 335
#     4   8  20  38  59  83 115 145 192 233 281 326
#     4  11  22  36  62  83 111 157 191 227 284 331
#
# _framework density 21.448837000000001
#
# number of rings (size 3 to 8) (size 9 to 14) (size 15 to 20)
#    1.200    1.600    2.000    0.000    2.800    7.200 
#    0.000    3.000    4.400    0.000    0.000    0.000 
#    0.000    0.000    0.000    0.000    0.000    0.000 
#
# Total GULP energy -55708.098807 kJ/mol
# GULP energy per Si atom -5570.809881 kJ/mol
# Density = 2.140002 g / cm^3
# Si number density = 21.448837 Si / 1000 Ang^3
#
#
#
# Elastic Constant Matrix: (Units=GPa)
#
#
# Indices 1 2 3 4 5 6 
#
# 1 173.9025 34.7936 90.3101 -18.1068 8.1886 -32.2842
# 2 34.7936 66.8355 30.8666 -30.8951 22.4327 -19.7835
# 3 90.3101 30.8666 189.2327 -36.7726 11.9778 -31.5917
# 4 -18.1068 -30.8951 -36.7726 35.2602 -22.0509 10.4402
# 5 8.1886 22.4327 11.9778 -22.0509 42.4166 -5.4646
# 6 -32.2842 -19.7835 -31.5917 10.4402 -5.4646 28.9067
#
#
#
# Elastic Compliance Matrix: (Units=1/GPa)
#
#
# Indices 1 2 3 4 5 6 
#
# 1 0.008757 -0.002886 -0.003482 -0.003354 -0.000260 0.005162
# 2 -0.002886 0.030043 0.003067 0.022725 -0.002845 0.011945
# 3 -0.003482 0.003067 0.009165 0.010660 0.002632 0.004873
# 4 -0.003354 0.022725 0.010660 0.071483 0.023038 0.001994
# 5 -0.000260 -0.002845 0.002632 0.023038 0.036257 -0.000827
# 6 0.005162 0.011945 0.004873 0.001994 -0.000827 0.052984
#
#
# Mechanical properties :
#
#
# Convention : Reuss Voigt Hill
#
# Bulk Modulus (GPa) = 24.17642 82.43460 53.30551
# Shear Modulus (GPa) = 21.82647 39.58338 30.70492
#
# Velocity S-wave (km/s) = 3.19345 4.30056 3.78768
# Velocity P-wave (km/s) = 4.98936 7.94836 6.63589
#
# Compressibility (1/GPa) = 0.04136262
#
# Stress axis : x y z
#
# Youngs Moduli (GPa) = 114.18792 33.28527 109.11637
#
# Poissons Ratio (x) = 0.09607 0.37997
# Poissons Ratio (y) = 0.32957 -0.33467
# Poissons Ratio (z) = 0.39763 -0.10209
#
# Static dielectric constant tensor:
#      x y z
#    x 1.783450 0.007650 0.024910 
#    y 0.007650 1.818500 0.039940 
#    z 0.024910 0.039940 1.793700 
# 
# From -- ./inp_files/87659.got.cif
#   From: 2010.05.17/outbox.cif.g08.bks.cpg/sg2_44_cif.got.tgz:87659.got - 2010.06.03 11:33:40.
