data_PCOD9056510
_publ_section_title
;
Structure prediction by ZEFSAII (Michael W. Deem and Ramdas Pophale) SiO2 
 PCOD9056510
Probable space group: P -1
;
_chemical_formula_sum "Si O2"
_cell_formula_units_Z 16
_cell_length_a 14.816906
_cell_length_b 14.617100
_cell_length_c 14.643328
_cell_angle_alpha 151.479610
_cell_angle_beta 138.136008
_cell_angle_gamma 28.490908
_cell_volume 717.053760
_symmetry_space_group_name_H-M "P -1"
_symmetry_group_IT_number 2
_symmetry_cell_setting 'triclinic'
loop_
_space_group_symop_operation_xyz
x,y,z
-x,-y,-z
loop_
_atom_site_type_symbol
_atom_site_label
_atom_site_fract_x
_atom_site_fract_y
_atom_site_fract_z
Si Si1 0.376092 0.452839 0.907186
Si Si2 0.938394 0.154572 0.463240
Si Si3 0.283118 0.099807 0.400336
Si Si4 0.097703 0.690797 0.760404
Si Si5 0.107549 0.595555 0.173547
Si Si6 0.335568 0.948238 0.520864
Si Si7 0.574195 0.748370 0.040678
Si Si8 0.692285 0.305203 0.233012
O O1 0.168711 0.654514 0.884289
O O2 0.358651 0.455049 0.003384
O O3 0.512263 0.145533 0.704454
O O4 0.500000 0.500000 0.000000
O O5 0.842761 0.388571 0.672032
O O6 0.814524 0.247413 0.361200
O O7 0.976717 0.903461 0.311184
O O8 0.141310 0.051023 0.503608
O O9 0.203936 0.381704 0.552031
O O10 0.123042 0.117009 0.254719
O O11 0.288843 0.052568 0.471834
O O12 0.191063 0.752963 0.819770
O O13 0.290007 0.403676 0.077186
O O14 0.000000 0.500000 0.000000
O O15 0.502670 0.625427 0.368766
O O16 0.404020 0.062349 0.733064
O O17 0.371128 0.854551 0.956229
#
# Coordination Sequence:
#
# PCOD9056510 Si02
#       8
#     2   2   2   2   2   2   2   2
#     4  12  23  40  63  96 143 182 222 284 336 403
#     4  11  26  48  76 101 136 184 227 292 361 413
#     4  11  23  40  65  98 139 191 237 272 336 415
#     4  11  22  39  65  96 137 187 235 274 333 407
#     4  11  25  51  78 102 136 180 233 295 356 418
#     4  12  22  44  73  97 146 189 223 292 349 405
#     4  12  25  43  70 106 139 182 237 289 345 411
#     4  12  25  44  69 107 141 182 237 284 348 418
#
# _framework density 22.31353
#
# number of rings (size 3 to 8) (size 9 to 14) (size 15 to 20)
#    0.000    0.500    7.500    1.125    0.000    2.000 
#    2.250    1.250    0.000    0.000    0.000    0.000 
#    0.000    0.000    0.000    0.000    0.000    0.000 
#
# Total GULP energy -89466.251476 kJ/mol
# GULP energy per Si atom -5591.640717 kJ/mol
# Density = 2.226274 g / cm^3
# Si number density = 22.313530 Si / 1000 Ang^3
#
#
#
# Elastic Constant Matrix: (Units=GPa)
#
#
# Indices 1 2 3 4 5 6 
#
# 1 102.1138 19.9875 27.5061 -2.5069 13.7348 -16.7802
# 2 19.9875 85.5649 47.6061 -20.8669 -1.4698 -8.2143
# 3 27.5061 47.6061 140.3315 -7.3089 21.2820 -6.1022
# 4 -2.5069 -20.8669 -7.3089 35.8029 -4.5526 3.9972
# 5 13.7348 -1.4698 21.2820 -4.5526 44.5890 -6.3495
# 6 -16.7802 -8.2143 -6.1022 3.9972 -6.3495 24.9317
#
#
#
# Elastic Compliance Matrix: (Units=1/GPa)
#
#
# Indices 1 2 3 4 5 6 
#
# 1 0.011855 -0.001945 -0.001090 -0.001581 -0.002401 0.006713
# 2 -0.001945 0.018207 -0.005992 0.009605 0.005478 0.003078
# 3 -0.001090 -0.005992 0.009972 -0.002033 -0.005002 -0.001215
# 4 -0.001581 0.009605 -0.002033 0.033912 0.004867 -0.002594
# 5 -0.002401 0.005478 -0.005002 0.004867 0.026950 0.005048
# 6 0.006713 0.003078 -0.001215 -0.002594 0.005048 0.047046
#
#
# Mechanical properties :
#
#
# Convention : Reuss Voigt Hill
#
# Bulk Modulus (GPa) = 45.49629 57.57882 51.53756
# Shear Modulus (GPa) = 28.84782 36.59209 32.71996
#
# Velocity S-wave (km/s) = 3.59951 4.05397 3.83348
# Velocity P-wave (km/s) = 6.14077 6.91183 6.53768
#
# Compressibility (1/GPa) = 0.02197982
#
# Stress axis : x y z
#
# Youngs Moduli (GPa) = 84.35541 54.92301 100.27810
#
# Poissons Ratio (x) = 0.10682 0.10931
# Poissons Ratio (y) = 0.16407 0.60088
# Poissons Ratio (z) = 0.09196 0.32910
#
# Static dielectric constant tensor:
#      x y z
#    x 1.807700 0.019820 0.046230 
#    y 0.019820 1.810560 -0.027350 
#    z 0.046230 -0.027350 1.969420 
# 
# From -- ./inp_files/534613.got.cif
#   From: 2010.05.17/outbox.cif.g08.bks.cpg/sg2_268_cif.got.tgz:534613.got - 2010.06.03 11:33:40.
