data_PCOD9056258
_publ_section_title
;
Structure prediction by ZEFSAII (Michael W. Deem and Ramdas Pophale) SiO2 
 PCOD9056258
Probable space group: P -1
;
_chemical_formula_sum "Si O2"
_cell_formula_units_Z 16
_cell_length_a 11.290720
_cell_length_b 8.231797
_cell_length_c 11.571586
_cell_angle_alpha 72.913470
_cell_angle_beta 36.423601
_cell_angle_gamma 71.993660
_cell_volume 605.362244
_symmetry_space_group_name_H-M "P -1"
_symmetry_group_IT_number 2
_symmetry_cell_setting 'triclinic'
loop_
_space_group_symop_operation_xyz
x,y,z
-x,-y,-z
loop_
_atom_site_type_symbol
_atom_site_label
_atom_site_fract_x
_atom_site_fract_y
_atom_site_fract_z
Si Si1 0.660478 0.837126 0.672880
Si Si2 0.941170 0.286785 0.711243
Si Si3 0.668404 0.098497 0.407650
Si Si4 0.952977 0.499130 0.237446
Si Si5 0.424310 0.626758 0.395041
Si Si6 0.775048 0.102241 0.074678
Si Si7 0.154799 0.292390 0.948815
Si Si8 0.773279 0.089949 0.686988
O O1 0.442635 0.795783 0.812643
O O2 0.858423 0.703088 0.524856
O O3 0.720083 0.979592 0.503552
O O4 0.650830 0.930565 0.785611
O O5 0.791763 0.194029 0.768742
O O6 0.908515 0.464182 0.771496
O O7 0.944633 0.166234 0.848378
O O8 0.590900 0.281463 0.486210
O O9 0.806451 0.120104 0.183413
O O10 0.500000 0.000000 0.500000
O O11 0.722930 0.516967 0.457034
O O12 0.944670 0.620813 0.106324
O O13 0.018086 0.314553 0.166207
O O14 0.659042 0.601055 0.190088
O O15 0.318524 0.760731 0.357783
O O16 0.759391 0.903995 0.098926
O O17 0.000000 0.000000 0.500000
#
# Coordination Sequence:
#
# PCOD9056258 Si02
#       8
#     2   2   2   2   2   2   2   2
#     4   9  19  39  62  92 122 159 212 268 316 355
#     4  11  25  40  61  99 130 165 214 263 311 380
#     4   9  17  33  60  93 113 150 212 254 310 363
#     4  11  28  40  60  95 138 174 206 251 326 397
#     4  11  22  45  66  86 134 174 205 266 322 373
#     4  11  22  36  68  94 126 161 212 270 315 369
#     4  11  24  43  61  97 128 172 212 254 326 388
#     4   9  20  41  68  96 122 160 225 267 310 371
#
# _framework density 26.430454999999998
#
# number of rings (size 3 to 8) (size 9 to 14) (size 15 to 20)
#    0.000    1.750    3.750    1.125   10.500    3.000 
#    0.000    0.625    0.000    0.000    0.000    0.000 
#    0.000    0.000    0.000    0.000    0.000    0.000 
#
# Total GULP energy -89286.957329 kJ/mol
# GULP energy per Si atom -5580.434833 kJ/mol
# Density = 2.637030 g / cm^3
# Si number density = 26.430455 Si / 1000 Ang^3
#
#
#
# Elastic Constant Matrix: (Units=GPa)
#
#
# Indices 1 2 3 4 5 6 
#
# 1 136.5515 22.7947 18.5387 25.3864 20.1991 28.4227
# 2 22.7947 35.0140 6.5616 11.5250 12.9800 19.8751
# 3 18.5387 6.5616 93.4150 9.5177 -7.9695 6.7958
# 4 25.3864 11.5250 9.5177 31.5839 12.3340 6.6753
# 5 20.1991 12.9800 -7.9695 12.3340 41.3648 10.4446
# 6 28.4227 19.8751 6.7958 6.6753 10.4446 48.4645
#
#
#
# Elastic Compliance Matrix: (Units=1/GPa)
#
#
# Indices 1 2 3 4 5 6 
#
# 1 0.009827 -0.001495 -0.001185 -0.005417 -0.001980 -0.003811
# 2 -0.001495 0.043078 -0.001466 -0.008379 -0.007060 -0.013908
# 3 -0.001185 -0.001466 0.011883 -0.003731 0.004658 -0.000860
# 4 -0.005417 -0.008379 -0.003731 0.043078 -0.009087 0.003161
# 5 -0.001980 -0.007060 0.004658 -0.009087 0.031503 -0.002134
# 6 -0.003811 -0.013908 -0.000860 0.003161 -0.002134 0.028718
#
#
# Mechanical properties :
#
#
# Convention : Reuss Voigt Hill
#
# Bulk Modulus (GPa) = 17.70028 40.08560 28.89294
# Shear Modulus (GPa) = 25.61334 38.75502 32.18418
#
# Velocity S-wave (km/s) = 3.11639 3.83339 3.49333
# Velocity P-wave (km/s) = 4.43403 5.89852 5.21791
#
# Compressibility (1/GPa) = 0.05649627
#
# Stress axis : x y z
#
# Youngs Moduli (GPa) = 101.76053 23.21378 84.15333
#
# Poissons Ratio (x) = 0.03470 0.09972
# Poissons Ratio (y) = 0.15213 0.12336
# Poissons Ratio (z) = 0.12058 0.03403
#
# Static dielectric constant tensor:
#      x y z
#    x 2.064210 0.020450 -0.040570 
#    y 0.020450 2.211690 0.010890 
#    z -0.040570 0.010890 2.168150 
# 
# From -- ./inp_files/417009.got.cif
#   From: 2010.05.17/outbox.cif.g08.bks.cpg/sg2_209_cif.got.tgz:417009.got - 2010.06.03 11:33:40.
