data_PCOD9056526
_publ_section_title
;
Structure prediction by ZEFSAII (Michael W. Deem and Ramdas Pophale) SiO2 
 PCOD9056526
Probable space group: P -1
;
_chemical_formula_sum "Si O2"
_cell_formula_units_Z 16
_cell_length_a 16.008244
_cell_length_b 20.210265
_cell_length_c 7.630179
_cell_angle_alpha 36.954640
_cell_angle_beta 132.100030
_cell_angle_gamma 154.482063
_cell_volume 626.945476
_symmetry_space_group_name_H-M "P -1"
_symmetry_group_IT_number 2
_symmetry_cell_setting 'triclinic'
loop_
_space_group_symop_operation_xyz
x,y,z
-x,-y,-z
loop_
_atom_site_type_symbol
_atom_site_label
_atom_site_fract_x
_atom_site_fract_y
_atom_site_fract_z
Si Si1 0.083712 0.361834 0.867888
Si Si2 0.159549 0.033776 0.674561
Si Si3 0.745102 0.396021 0.850070
Si Si4 0.351269 0.279065 0.759321
Si Si5 0.836311 0.280199 0.453334
Si Si6 0.335143 0.029024 0.389559
Si Si7 0.890634 0.716854 0.539127
Si Si8 0.504037 0.205735 0.590563
O O1 0.300219 0.568395 0.668279
O O2 0.916455 0.320867 0.676526
O O3 0.107404 0.329981 0.161269
O O4 0.973450 0.174887 0.004709
O O5 0.305189 0.196379 0.679422
O O6 0.302307 0.110735 0.553633
O O7 0.000000 0.000000 0.500000
O O8 0.748601 0.328587 0.177341
O O9 0.741892 0.521327 0.631417
O O10 0.577792 0.221005 0.850860
O O11 0.954502 0.551391 0.715185
O O12 0.500000 0.500000 0.500000
O O13 0.160226 0.195839 0.726944
O O14 0.409526 0.214606 0.076383
O O15 0.689585 0.074549 0.588570
O O16 0.106895 0.865867 0.459563
O O17 0.448107 0.081019 0.614508
#
# Coordination Sequence:
#
# PCOD9056526 Si02
#       8
#     2   2   2   2   2   2   2   2
#     4  11  22  43  67  96 134 174 220 270 331 393
#     4  12  24  44  64  96 135 173 218 272 329 397
#     4   9  21  42  67  96 132 176 223 272 331 388
#     4  12  24  40  62  93 131 173 218 272 324 397
#     4   9  20  41  69  96 131 175 220 279 329 385
#     4  11  22  39  66  95 132 171 223 272 329 390
#     4  11  22  42  63  95 135 174 218 270 331 396
#     4  11  24  42  66  97 134 176 219 273 327 394
#
# _framework density 25.520558999999999
#
# number of rings (size 3 to 8) (size 9 to 14) (size 15 to 20)
#    0.000    1.250    3.750    1.875    0.000    1.500 
#    2.250    0.625    0.000    0.000    0.000    0.000 
#    0.000    0.000    0.000    0.000    0.000    0.000 
#
# Total GULP energy -89337.253266 kJ/mol
# GULP energy per Si atom -5583.578329 kJ/mol
# Density = 2.546247 g / cm^3
# Si number density = 25.520559 Si / 1000 Ang^3
#
#
#
# Elastic Constant Matrix: (Units=GPa)
#
#
# Indices 1 2 3 4 5 6 
#
# 1 60.9503 28.3259 20.8010 -9.8183 7.4671 6.1853
# 2 28.3259 168.4588 31.8500 -10.9960 7.1169 -5.6769
# 3 20.8010 31.8500 81.4126 -3.6182 14.8270 7.5720
# 4 -9.8183 -10.9960 -3.6182 42.5377 1.7756 -6.3448
# 5 7.4671 7.1169 14.8270 1.7756 31.4381 -17.6388
# 6 6.1853 -5.6769 7.5720 -6.3448 -17.6388 44.4753
#
#
#
# Elastic Compliance Matrix: (Units=1/GPa)
#
#
# Indices 1 2 3 4 5 6 
#
# 1 0.020176 -0.002607 -0.002525 0.003335 -0.005727 -0.004504
# 2 -0.002607 0.006951 -0.002507 0.001286 0.001542 0.002472
# 3 -0.002525 -0.002507 0.016450 -0.000437 -0.010489 -0.006992
# 4 0.003335 0.001286 -0.000437 0.025064 -0.000532 0.003139
# 5 -0.005727 0.001542 -0.010489 -0.000532 0.050565 0.022757
# 6 -0.004504 0.002472 -0.006992 0.003139 0.022757 0.034090
#
#
# Mechanical properties :
#
#
# Convention : Reuss Voigt Hill
#
# Bulk Modulus (GPa) = 35.33661 52.53062 43.93361
# Shear Modulus (GPa) = 28.08884 39.01320 33.55102
#
# Velocity S-wave (km/s) = 3.32118 3.91410 3.62977
# Velocity P-wave (km/s) = 5.34634 6.40743 5.90079
#
# Compressibility (1/GPa) = 0.02829926
#
# Stress axis : x y z
#
# Youngs Moduli (GPa) = 49.56330 143.87281 60.79001
#
# Poissons Ratio (x) = 0.37513 0.15349
# Poissons Ratio (y) = 0.12923 0.15238
# Poissons Ratio (z) = 0.12514 0.36063
#
# Static dielectric constant tensor:
#      x y z
#    x 2.062870 0.013500 -0.038450 
#    y 0.013500 2.204520 0.130670 
#    z -0.038450 0.130670 2.145570 
# 
# From -- ./inp_files/316174.got.cif
#   From: 2010.05.17/outbox.cif.g08.bks.cpg/sg2_159_cif.got.tgz:316174.got - 2010.06.03 11:33:40.
