data_PCOD9056646
_publ_section_title
;
Structure prediction by ZEFSAII (Michael W. Deem and Ramdas Pophale) SiO2 
 PCOD9056646
Probable space group: P -1
;
_chemical_formula_sum "Si O2"
_cell_formula_units_Z 14
_cell_length_a 9.600229
_cell_length_b 15.200236
_cell_length_c 5.378399
_cell_angle_alpha 65.266558
_cell_angle_beta 72.028562
_cell_angle_gamma 63.579381
_cell_volume 631.126265
_symmetry_space_group_name_H-M "P -1"
_symmetry_group_IT_number 2
_symmetry_cell_setting 'triclinic'
loop_
_space_group_symop_operation_xyz
x,y,z
-x,-y,-z
loop_
_atom_site_type_symbol
_atom_site_label
_atom_site_fract_x
_atom_site_fract_y
_atom_site_fract_z
Si Si1 0.729036 0.688362 0.500555
Si Si2 0.848696 0.478725 0.515228
Si Si3 0.860590 0.750552 0.848528
Si Si4 0.799299 0.316479 0.057448
Si Si5 0.447431 0.761192 0.864293
Si Si6 0.614428 0.519514 0.207124
Si Si7 0.548914 0.933108 0.803015
O O1 0.720313 0.574292 0.619768
O O2 0.829377 0.698053 0.674066
O O3 0.553498 0.765776 0.562841
O O4 0.801756 0.708729 0.179609
O O5 0.790055 0.499366 0.243578
O O6 0.000000 0.500000 0.500000
O O7 0.849266 0.368812 0.731036
O O8 0.737089 0.868640 0.765638
O O9 0.043932 0.729271 0.809744
O O10 0.724261 0.232905 0.122692
O O11 0.658984 0.417528 0.127595
O O12 0.466742 0.846829 0.934360
O O13 0.533925 0.643221 0.057797
O O14 0.500000 0.500000 0.500000
O O15 0.500000 0.000000 0.500000
O O16 0.500000 0.000000 0.000000
#
# Coordination Sequence:
#
# PCOD9056646 Si02
#       7
#     2   2   2   2   2   2   2
#     4  11  22  40  64  97 137 189 227 267 322 411
#     4  12  22  35  58  92 143 189 228 263 322 398
#     4  11  25  44  71 103 136 175 235 287 346 406
#     4  12  25  40  62 106 144 182 222 280 340 413
#     4  11  24  44  68 101 136 186 233 281 342 415
#     4  12  24  40  63 100 151 193 224 266 334 422
#     4  11  25  50  76  99 126 177 238 299 353 408
#
# _framework density 22.182566000000001
#
# number of rings (size 3 to 8) (size 9 to 14) (size 15 to 20)
#    0.000    0.571    4.286    5.571    0.000    2.286 
#    0.000    1.429    0.000    0.000    0.000    0.000 
#    0.000    0.000    0.000    0.000    0.000    0.000 
#
# Total GULP energy -78161.001896 kJ/mol
# GULP energy per Si atom -5582.928707 kJ/mol
# Density = 2.213208 g / cm^3
# Si number density = 22.182566 Si / 1000 Ang^3
#
#
#
# Elastic Constant Matrix: (Units=GPa)
#
#
# Indices 1 2 3 4 5 6 
#
# 1 161.6512 45.1824 36.9642 -11.2397 2.0747 16.9474
# 2 45.1824 136.2118 37.5383 2.9476 7.1892 16.9178
# 3 36.9642 37.5383 96.3578 2.5965 10.3871 5.3296
# 4 -11.2397 2.9476 2.5965 29.5648 -4.7892 9.3343
# 5 2.0747 7.1892 10.3871 -4.7892 38.4834 -2.1536
# 6 16.9474 16.9178 5.3296 9.3343 -2.1536 42.1867
#
#
#
# Elastic Compliance Matrix: (Units=1/GPa)
#
#
# Indices 1 2 3 4 5 6 
#
# 1 0.007834 -0.001699 -0.002392 0.004490 0.000925 -0.003110
# 2 -0.001699 0.009000 -0.002576 -0.000709 -0.001123 -0.002502
# 3 -0.002392 -0.002576 0.012654 -0.002513 -0.003074 0.000794
# 4 0.004490 -0.000709 -0.002513 0.039699 0.004964 -0.009732
# 5 0.000925 -0.001123 -0.003074 0.004964 0.027636 0.000779
# 6 -0.003110 -0.002502 0.000794 -0.009732 0.000779 0.028049
#
#
# Mechanical properties :
#
#
# Convention : Reuss Voigt Hill
#
# Bulk Modulus (GPa) = 61.90265 70.39897 66.15081
# Shear Modulus (GPa) = 34.82059 40.34938 37.58498
#
# Velocity S-wave (km/s) = 3.96628 4.26956 4.12071
# Velocity P-wave (km/s) = 6.99584 7.49070 7.24749
#
# Compressibility (1/GPa) = 0.01615440
#
# Stress axis : x y z
#
# Youngs Moduli (GPa) = 127.64159 111.10650 79.02477
#
# Poissons Ratio (x) = 0.18880 0.18904
# Poissons Ratio (y) = 0.21689 0.20356
# Poissons Ratio (z) = 0.30534 0.28620
#
# Static dielectric constant tensor:
#      x y z
#    x 1.910850 -0.032040 0.040590 
#    y -0.032040 1.856390 0.031220 
#    z 0.040590 0.031220 1.938400 
# 
# From -- ./inp_files/36827.got.cif
#   From: 2010.05.17/outbox.cif.g08.bks.cpg/sg2_19_cif.got.tgz:36827.got - 2010.06.03 11:33:40.
