data_PCOD9056435
_publ_section_title
;
Structure prediction by ZEFSAII (Michael W. Deem and Ramdas Pophale) SiO2 
 PCOD9056435
Probable space group: P -1
;
_chemical_formula_sum "Si O2"
_cell_formula_units_Z 16
_cell_length_a 14.975885
_cell_length_b 12.353870
_cell_length_c 9.756152
_cell_angle_alpha 138.418260
_cell_angle_beta 135.859738
_cell_angle_gamma 38.597633
_cell_volume 707.709732
_symmetry_space_group_name_H-M "P -1"
_symmetry_group_IT_number 2
_symmetry_cell_setting 'triclinic'
loop_
_space_group_symop_operation_xyz
x,y,z
-x,-y,-z
loop_
_atom_site_type_symbol
_atom_site_label
_atom_site_fract_x
_atom_site_fract_y
_atom_site_fract_z
Si Si1 0.059452 0.380455 0.677458
Si Si2 0.423741 0.476699 0.531033
Si Si3 0.382697 0.639780 0.113321
Si Si4 0.728636 0.709667 0.665641
Si Si5 0.845859 0.858282 0.176063
Si Si6 0.225216 0.084792 0.329014
Si Si7 0.094005 0.731323 0.972735
Si Si8 0.835985 0.190211 0.588045
O O1 0.113645 0.296715 0.808909
O O2 0.147263 0.217192 0.503880
O O3 0.093772 0.545611 0.844089
O O4 0.876748 0.500611 0.593009
O O5 0.500000 0.500000 0.500000
O O6 0.532132 0.477056 0.766324
O O7 0.394755 0.316662 0.415388
O O8 0.253461 0.638758 0.456250
O O9 0.340230 0.860213 0.269618
O O10 0.500000 0.500000 0.000000
O O11 0.220537 0.664783 0.934201
O O12 0.700113 0.828637 0.605952
O O13 0.776100 0.815062 0.929530
O O14 0.992130 0.863565 0.296744
O O15 0.762812 0.062533 0.354561
O O16 0.076032 0.115243 0.113833
O O17 0.163041 0.791455 0.229357
#
# Coordination Sequence:
#
# PCOD9056435 Si02
#       8
#     2   2   2   2   2   2   2   2
#     4  11  22  40  73 108 139 181 234 304 357 405
#     4  12  27  47  69  96 150 189 238 284 363 428
#     4  12  30  46  69 102 146 197 229 289 359 434
#     4  11  23  45  72 106 141 185 239 300 351 419
#     4  11  22  38  73 107 135 178 237 302 349 403
#     4  11  26  47  73 104 143 185 244 292 356 420
#     4  11  22  46  74 103 141 182 241 300 349 417
#     4  11  22  41  70 105 139 179 236 294 353 414
#
# _framework density 22.608139999999999
#
# number of rings (size 3 to 8) (size 9 to 14) (size 15 to 20)
#    0.000    0.750    5.000    3.750    5.250    0.500 
#    0.000    0.625    0.000    0.000    0.000    0.000 
#    0.000    0.000    0.000    0.000    0.000    0.000 
#
# Total GULP energy -89092.190459 kJ/mol
# GULP energy per Si atom -5568.261904 kJ/mol
# Density = 2.255668 g / cm^3
# Si number density = 22.608140 Si / 1000 Ang^3
#
#
#
# Elastic Constant Matrix: (Units=GPa)
#
#
# Indices 1 2 3 4 5 6 
#
# 1 132.5900 13.5959 13.9812 14.4482 1.7253 14.3138
# 2 13.5959 62.3814 25.5994 6.1469 -18.0459 -0.7279
# 3 13.9812 25.5994 78.6411 4.1887 -19.6950 -7.2055
# 4 14.4482 6.1469 4.1887 26.1546 1.5643 -1.9314
# 5 1.7253 -18.0459 -19.6950 1.5643 40.7204 -5.4356
# 6 14.3138 -0.7279 -7.2055 -1.9314 -5.4356 17.5250
#
#
#
# Elastic Compliance Matrix: (Units=1/GPa)
#
#
# Indices 1 2 3 4 5 6 
#
# 1 0.009824 -0.001684 -0.002898 -0.005153 -0.003840 -0.011044
# 2 -0.001684 0.020690 -0.004069 -0.003554 0.007753 0.002575
# 3 -0.002898 -0.004069 0.017810 0.000093 0.008557 0.012184
# 4 -0.005153 -0.003554 0.000093 0.042619 -0.001852 0.008222
# 5 -0.003840 0.007753 0.008557 -0.001852 0.034707 0.017537
# 6 -0.011044 0.002575 0.012184 0.008222 0.017537 0.077544
#
#
# Mechanical properties :
#
#
# Convention : Reuss Voigt Hill
#
# Bulk Modulus (GPa) = 32.23392 42.21838 37.22615
# Shear Modulus (GPa) = 21.66038 31.57574 26.61806
#
# Velocity S-wave (km/s) = 3.09864 3.74124 3.43500
# Velocity P-wave (km/s) = 5.20488 6.11367 5.67749
#
# Compressibility (1/GPa) = 0.03102322
#
# Stress axis : x y z
#
# Youngs Moduli (GPa) = 101.79120 48.33197 56.14819
#
# Poissons Ratio (x) = 0.08140 0.16269
# Poissons Ratio (y) = 0.17143 0.22846
# Poissons Ratio (z) = 0.29495 0.19666
#
# Static dielectric constant tensor:
#      x y z
#    x 2.124570 -0.221460 -0.236240 
#    y -0.221460 2.013710 0.260210 
#    z -0.236240 0.260210 2.061820 
# 
# From -- ./inp_files/308610.got.cif
#   From: 2010.05.17/outbox.cif.g08.bks.cpg/sg2_155_cif.got.tgz:308610.got - 2010.06.03 11:33:40.
