data_PCOD9056823
_publ_section_title
;
Structure prediction by ZEFSAII (Michael W. Deem and Ramdas Pophale) SiO2 
 PCOD9056823
Probable space group: P -1
;
_chemical_formula_sum "Si O2"
_cell_formula_units_Z 15
_cell_length_a 11.575647
_cell_length_b 8.708130
_cell_length_c 14.869883
_cell_angle_alpha 49.799976
_cell_angle_beta 40.176780
_cell_angle_gamma 71.164746
_cell_volume 693.085624
_symmetry_space_group_name_H-M "P -1"
_symmetry_group_IT_number 2
_symmetry_cell_setting 'triclinic'
loop_
_space_group_symop_operation_xyz
x,y,z
-x,-y,-z
loop_
_atom_site_type_symbol
_atom_site_label
_atom_site_fract_x
_atom_site_fract_y
_atom_site_fract_z
Si Si1 0.101682 0.728471 0.399936
Si Si2 0.719710 0.325119 0.394491
Si Si3 0.570837 0.697673 0.563649
Si Si4 0.441552 0.738529 0.306924
Si Si5 0.249342 0.120716 0.422090
Si Si6 0.500000 0.500000 0.000000
Si Si7 0.077272 0.224256 0.814485
Si Si8 0.716571 0.196926 0.918474
O O1 0.226736 0.704984 0.417396
O O2 0.000000 0.500000 0.500000
O O3 0.949174 0.836417 0.474234
O O4 0.244269 0.847537 0.191159
O O5 0.612293 0.268157 0.384923
O O6 0.555615 0.306327 0.572747
O O7 0.858473 0.569706 0.234118
O O8 0.793582 0.134581 0.452107
O O9 0.505869 0.440793 0.709509
O O10 0.639466 0.797361 0.581329
O O11 0.750206 0.765510 0.361268
O O12 0.573182 0.974816 0.122295
O O13 0.380999 0.264019 0.210671
O O14 0.632078 0.386302 0.909600
O O15 0.908491 0.245735 0.844189
O O16 0.000000 0.000000 0.000000
#
# Coordination Sequence:
#
# PCOD9056823 Si02
#       8
#     2   2   2   2   2   1   2   2
#     4  12  22  42  68  96 140 180 228 274 347 413
#     4  11  24  42  68 105 136 179 229 287 347 405
#     4  11  22  45  72  97 138 183 225 285 349 410
#     4  11  22  40  71 100 131 179 232 276 337 415
#     4  12  25  45  70 102 142 186 221 290 351 402
#     4  12  26  40  70 100 144 176 230 286 340 404
#     4  11  23  43  74  98 137 182 233 282 342 417
#     4  12  23  43  65 103 134 182 231 280 338 409
#
# _framework density 21.642347000000001
#
# number of rings (size 3 to 8) (size 9 to 14) (size 15 to 20)
#    0.000    0.533    5.333    4.800    0.000    1.600 
#    0.000    0.667    0.000    0.000    0.000    0.000 
#    0.000    0.000    0.000    0.000    0.000    0.000 
#
# Total GULP energy -83556.761641 kJ/mol
# GULP energy per Si atom -5570.450776 kJ/mol
# Density = 2.159309 g / cm^3
# Si number density = 21.642347 Si / 1000 Ang^3
#
#
#
# Elastic Constant Matrix: (Units=GPa)
#
#
# Indices 1 2 3 4 5 6 
#
# 1 77.7479 0.0633 6.3991 10.5625 -0.0883 -15.7683
# 2 0.0633 87.9237 36.8225 -6.5289 2.1940 -35.7103
# 3 6.3991 36.8225 98.7894 -19.9255 4.4284 -12.9572
# 4 10.5625 -6.5289 -19.9255 40.2513 1.6112 7.4263
# 5 -0.0883 2.1940 4.4284 1.6112 24.0025 -2.7269
# 6 -15.7683 -35.7103 -12.9572 7.4263 -2.7269 27.3687
#
#
#
# Elastic Compliance Matrix: (Units=1/GPa)
#
#
# Indices 1 2 3 4 5 6 
#
# 1 0.021346 0.014053 -0.005014 -0.011853 0.004138 0.031889
# 2 0.014053 0.037424 -0.010452 -0.013393 0.005843 0.056195
# 3 -0.005014 -0.010452 0.014774 0.009387 -0.003835 -0.012462
# 4 -0.011853 -0.013393 0.009387 0.036285 -0.006435 -0.030348
# 5 0.004138 0.005843 -0.003835 -0.006435 0.043909 0.014313
# 6 0.031889 0.056195 -0.012462 -0.030348 0.014313 0.131993
#
#
# Mechanical properties :
#
#
# Convention : Reuss Voigt Hill
#
# Bulk Modulus (GPa) = 14.14105 39.00343 26.57224
# Shear Modulus (GPa) = 16.01890 33.06958 24.54424
#
# Velocity S-wave (km/s) = 2.72355 3.91321 3.37127
# Velocity P-wave (km/s) = 4.05443 6.20311 5.24009
#
# Compressibility (1/GPa) = 0.07071611
#
# Stress axis : x y z
#
# Youngs Moduli (GPa) = 46.84742 26.72081 67.68631
#
# Poissons Ratio (x) = -0.37551 0.33941
# Poissons Ratio (y) = -0.65835 0.70749
# Poissons Ratio (z) = 0.23492 0.27930
#
# Static dielectric constant tensor:
#      x y z
#    x 1.816130 -0.008310 0.027670 
#    y -0.008310 1.815270 -0.004150 
#    z 0.027670 -0.004150 1.845650 
# 
# From -- ./inp_files/378221.got.cif
#   From: 2010.05.17/outbox.cif.g08.bks.cpg/sg2_190_cif.got.tgz:378221.got - 2010.06.03 11:33:40.
