data_PCOD9056987
_publ_section_title
;
Structure prediction by ZEFSAII (Michael W. Deem and Ramdas Pophale) SiO2 
 PCOD9056987
Probable space group: P -1
;
_chemical_formula_sum "Si O2"
_cell_formula_units_Z 16
_cell_length_a 12.116226
_cell_length_b 6.553636
_cell_length_c 11.986426
_cell_angle_alpha 91.499098
_cell_angle_beta 86.189580
_cell_angle_gamma 50.234148
_cell_volume 727.055527
_symmetry_space_group_name_H-M "P -1"
_symmetry_group_IT_number 2
_symmetry_cell_setting 'triclinic'
loop_
_space_group_symop_operation_xyz
x,y,z
-x,-y,-z
loop_
_atom_site_type_symbol
_atom_site_label
_atom_site_fract_x
_atom_site_fract_y
_atom_site_fract_z
Si Si1 0.558120 0.954858 0.783271
Si Si2 0.473182 0.235674 0.573163
Si Si3 0.729972 0.840140 0.105019
Si Si4 0.788678 0.358914 0.730806
Si Si5 0.253723 0.799266 0.493253
Si Si6 0.108168 0.087691 0.731158
Si Si7 0.078676 0.766482 0.896397
Si Si8 0.223506 0.992231 0.117612
O O1 0.654562 0.663348 0.717845
O O2 0.466670 0.186071 0.701894
O O3 0.439690 0.997854 0.871781
O O4 0.673529 0.967897 0.830242
O O5 0.332268 0.515233 0.542501
O O6 0.614379 0.208195 0.546892
O O7 0.500000 0.000000 0.500000
O O8 0.800899 0.843279 0.213685
O O9 0.809694 0.531372 0.067418
O O10 0.756029 0.982256 0.012995
O O11 0.818800 0.184765 0.617198
O O12 0.743853 0.267545 0.835867
O O13 0.934008 0.308163 0.750947
O O14 0.154016 0.013456 0.598364
O O15 0.139099 0.845431 0.798490
O O16 0.948489 0.790348 0.850342
O O17 0.000000 0.000000 0.000000
#
# Coordination Sequence:
#
# PCOD9056987 Si02
#       8
#     2   2   2   2   2   2   2   2
#     4  12  25  43  68 101 138 176 222 277 337 397
#     4  11  22  41  67  95 133 179 217 276 336 391
#     4  12  26  43  70 102 133 178 229 272 333 405
#     4  11  25  44  68 100 139 178 218 279 339 388
#     4  11  23  43  69  97 135 174 232 272 330 402
#     4  11  25  43  70 101 133 177 226 278 330 402
#     4  11  24  46  71  96 133 179 223 277 334 396
#     4  11  25  44  67  98 137 177 221 274 337 394
#
# _framework density 22.006571999999998
#
# number of rings (size 3 to 8) (size 9 to 14) (size 15 to 20)
#    0.000    0.750    3.750    3.375    5.250    1.500 
#    0.000    0.625    0.000    0.000    0.000    0.000 
#    0.000    0.000    0.000    0.000    0.000    0.000 
#
# Total GULP energy -89431.556951 kJ/mol
# GULP energy per Si atom -5589.472309 kJ/mol
# Density = 2.195648 g / cm^3
# Si number density = 22.006572 Si / 1000 Ang^3
#
#
#
# Elastic Constant Matrix: (Units=GPa)
#
#
# Indices 1 2 3 4 5 6 
#
# 1 67.2413 17.6950 17.6695 14.0489 6.8453 6.6996
# 2 17.6950 59.5325 22.6854 0.4489 -3.0420 -6.3119
# 3 17.6695 22.6854 61.2540 -5.9577 4.3933 4.0964
# 4 14.0489 0.4489 -5.9577 31.9537 5.0007 4.2103
# 5 6.8453 -3.0420 4.3933 5.0007 39.5270 -0.5558
# 6 6.6996 -6.3119 4.0964 4.2103 -0.5558 17.6776
#
#
#
# Elastic Compliance Matrix: (Units=1/GPa)
#
#
# Indices 1 2 3 4 5 6 
#
# 1 0.019892 -0.005145 -0.004012 -0.008171 -0.002454 -0.006577
# 2 -0.005145 0.023097 -0.008398 -0.001936 0.004026 0.012731
# 3 -0.004012 -0.008398 0.022165 0.007691 -0.003508 -0.008557
# 4 -0.008171 -0.001936 0.007691 0.038195 -0.004542 -0.008616
# 5 -0.002454 0.004026 -0.003508 -0.004542 0.027070 0.005113
# 6 -0.006577 0.012731 -0.008557 -0.008616 0.005113 0.067803
#
#
# Mechanical properties :
#
#
# Convention : Reuss Voigt Hill
#
# Bulk Modulus (GPa) = 33.28407 33.79197 33.53802
# Shear Modulus (GPa) = 20.54678 26.49684 23.52181
#
# Velocity S-wave (km/s) = 3.05891 3.47370 3.27288
# Velocity P-wave (km/s) = 5.25674 5.61048 5.43649
#
# Compressibility (1/GPa) = 0.03004440
#
# Stress axis : x y z
#
# Youngs Moduli (GPa) = 50.27087 43.29540 45.11650
#
# Poissons Ratio (x) = 0.22276 0.18099
# Poissons Ratio (y) = 0.25865 0.37890
# Poissons Ratio (z) = 0.20166 0.36360
#
# Static dielectric constant tensor:
#      x y z
#    x 1.778340 0.007390 0.017170 
#    y 0.007390 1.802740 -0.005780 
#    z 0.017170 -0.005780 1.831470 
# 
# From -- ./inp_files/410504.got.cif
#   From: 2010.05.17/outbox.cif.g08.bks.cpg/sg2_206_cif.got.tgz:410504.got - 2010.06.03 11:33:40.
