data_PCOD9056237
_publ_section_title
;
Structure prediction by ZEFSAII (Michael W. Deem and Ramdas Pophale) SiO2 
 PCOD9056237
Probable space group: P -1
;
_chemical_formula_sum "Si O2"
_cell_formula_units_Z 16
_cell_length_a 6.507125
_cell_length_b 12.779644
_cell_length_c 19.973361
_cell_angle_alpha 24.422473
_cell_angle_beta 73.669987
_cell_angle_gamma 76.461035
_cell_volume 658.033496
_symmetry_space_group_name_H-M "P -1"
_symmetry_group_IT_number 2
_symmetry_cell_setting 'triclinic'
loop_
_space_group_symop_operation_xyz
x,y,z
-x,-y,-z
loop_
_atom_site_type_symbol
_atom_site_label
_atom_site_fract_x
_atom_site_fract_y
_atom_site_fract_z
Si Si1 0.716183 0.006016 0.357957
Si Si2 0.559147 0.014467 0.728654
Si Si3 0.959724 0.394392 0.491515
Si Si4 0.750571 0.856659 0.205942
Si Si5 0.464266 0.281546 0.816434
Si Si6 0.333908 0.342173 0.318391
Si Si7 0.728991 0.547308 0.067993
Si Si8 0.015746 0.361325 0.877543
O O1 0.678135 0.925122 0.485977
O O2 0.873178 0.803818 0.432105
O O3 0.502371 0.999374 0.335787
O O4 0.812579 0.293782 0.175083
O O5 0.733498 0.239163 0.595327
O O6 0.344904 0.079679 0.750377
O O7 0.647193 0.758323 0.902123
O O8 0.932987 0.656753 0.302251
O O9 0.000000 0.500000 0.500000
O O10 0.549288 0.739223 0.249922
O O11 0.854105 0.121927 0.015733
O O12 0.624499 0.470988 0.730447
O O13 0.229215 0.353984 0.818905
O O14 0.500000 0.000000 0.000000
O O15 0.522761 0.433614 0.196477
O O16 0.113747 0.394386 0.270624
O O17 0.901317 0.654177 0.044469
#
# Coordination Sequence:
#
# PCOD9056237 Si02
#       8
#     2   2   2   2   2   2   2   2
#     4  12  28  47  72 104 143 189 232 290 354 410
#     4  12  26  49  71 102 142 187 235 288 345 418
#     4  12  27  43  68 104 144 181 224 285 351 421
#     4  12  22  43  71 100 144 184 227 288 350 416
#     4  11  22  36  64 106 140 179 227 283 349 420
#     4  11  24  45  71 106 138 182 234 296 350 409
#     4  11  26  48  75 102 137 186 245 291 341 413
#     4  11  23  43  70 104 142 183 236 289 350 413
#
# _framework density 24.314871
#
# number of rings (size 3 to 8) (size 9 to 14) (size 15 to 20)
#    0.000    0.500    3.750    4.500    3.500    3.000 
#    0.000    0.000    0.000    0.000    0.000    0.000 
#    0.000    0.000    0.000    0.000    0.000    0.000 
#
# Total GULP energy -89521.407774 kJ/mol
# GULP energy per Si atom -5595.087986 kJ/mol
# Density = 2.425953 g / cm^3
# Si number density = 24.314871 Si / 1000 Ang^3
#
#
#
# Elastic Constant Matrix: (Units=GPa)
#
#
# Indices 1 2 3 4 5 6 
#
# 1 88.3318 20.3971 31.3875 9.1535 20.0163 7.3258
# 2 20.3971 47.2624 12.9448 -2.8960 21.5104 -7.4687
# 3 31.3875 12.9448 123.9757 -1.7696 31.4377 -2.0381
# 4 9.1535 -2.8960 -1.7696 40.2839 5.9884 6.0531
# 5 20.0163 21.5104 31.4377 5.9884 47.8437 6.8091
# 6 7.3258 -7.4687 -2.0381 6.0531 6.8091 28.5085
#
#
#
# Elastic Compliance Matrix: (Units=1/GPa)
#
#
# Indices 1 2 3 4 5 6 
#
# 1 0.014685 -0.006422 -0.003156 -0.003176 -0.000075 -0.004989
# 2 -0.006422 0.033054 0.002604 0.004355 -0.016348 0.013476
# 3 -0.003156 0.002604 0.010603 0.001949 -0.007581 0.003648
# 4 -0.003176 0.004355 0.001949 0.027050 -0.004945 -0.002466
# 5 -0.000075 -0.016348 -0.007581 -0.004945 0.035629 -0.012265
# 6 -0.004989 0.013476 0.003648 -0.002466 -0.012265 0.043604
#
#
# Mechanical properties :
#
#
# Convention : Reuss Voigt Hill
#
# Bulk Modulus (GPa) = 22.52543 43.22543 32.87543
# Shear Modulus (GPa) = 25.85706 36.31659 31.08683
#
# Velocity S-wave (km/s) = 3.26456 3.86890 3.57951
# Velocity P-wave (km/s) = 4.84706 6.14604 5.53479
#
# Compressibility (1/GPa) = 0.04439427
#
# Stress axis : x y z
#
# Youngs Moduli (GPa) = 68.09551 30.25370 94.31034
#
# Poissons Ratio (x) = 0.19430 0.29761
# Poissons Ratio (y) = 0.43733 -0.24558
# Poissons Ratio (z) = 0.21489 -0.07878
#
# Static dielectric constant tensor:
#      x y z
#    x 2.024720 0.097890 0.032090 
#    y 0.097890 2.105400 0.044730 
#    z 0.032090 0.044730 1.920900 
# 
# From -- ./inp_files/542153.got.cif
#   From: 2010.05.17/outbox.cif.g08.bks.cpg/sg2_272_cif.got.tgz:542153.got - 2010.06.03 11:33:40.
