data_PCOD9056717
_publ_section_title
;
Structure prediction by ZEFSAII (Michael W. Deem and Ramdas Pophale) SiO2 
 PCOD9056717
Probable space group: P -1
;
_chemical_formula_sum "Si O2"
_cell_formula_units_Z 12
_cell_length_a 11.712486
_cell_length_b 8.862380
_cell_length_c 9.021115
_cell_angle_alpha 88.979748
_cell_angle_beta 69.687009
_cell_angle_gamma 39.103906
_cell_volume 501.285268
_symmetry_space_group_name_H-M "P -1"
_symmetry_group_IT_number 2
_symmetry_cell_setting 'triclinic'
loop_
_space_group_symop_operation_xyz
x,y,z
-x,-y,-z
loop_
_atom_site_type_symbol
_atom_site_label
_atom_site_fract_x
_atom_site_fract_y
_atom_site_fract_z
Si Si1 0.817222 0.607011 0.777978
Si Si2 0.852463 0.370563 0.517843
Si Si3 0.364044 0.923515 0.007377
Si Si4 0.894347 0.888939 0.149499
Si Si5 0.690945 0.235659 0.721431
Si Si6 0.248775 0.631815 0.756909
O O1 0.825227 0.560151 0.601665
O O2 0.012515 0.322932 0.772173
O O3 0.792222 0.802955 0.838834
O O4 0.599068 0.748267 0.928982
O O5 0.725432 0.376829 0.674981
O O6 0.770645 0.436484 0.386916
O O7 0.094850 0.065423 0.422316
O O8 0.334600 0.789790 0.096386
O O9 0.292224 0.991294 0.868957
O O10 0.817891 0.125790 0.247048
O O11 0.082859 0.736576 0.950132
O O12 0.484307 0.392164 0.722618
#
# Coordination Sequence:
#
# PCOD9056717 Si02
#       6
#     2   2   2   2   2   2
#     4  11  25  43  66  92 128 166 212 255 310 373
#     4  11  24  41  63  97 128 162 206 263 314 365
#     4  11  24  43  66  93 125 170 211 253 309 377
#     4  11  22  40  67  93 124 167 210 257 307 374
#     4  11  22  41  65  94 128 160 209 259 312 369
#     4  11  23  39  66  97 125 161 211 259 314 367
#
# _framework density 23.938465000000001
#
# number of rings (size 3 to 8) (size 9 to 14) (size 15 to 20)
#    0.000    1.000    3.333    4.000    2.333    3.333 
#    0.000    0.833    0.000    0.000    0.000    0.000 
#    0.000    0.000    0.000    0.000    0.000    0.000 
#
# Total GULP energy -67257.864545 kJ/mol
# GULP energy per Si atom -5604.822045 kJ/mol
# Density = 2.388398 g / cm^3
# Si number density = 23.938465 Si / 1000 Ang^3
#
#
#
# Elastic Constant Matrix: (Units=GPa)
#
#
# Indices 1 2 3 4 5 6 
#
# 1 84.5728 34.2540 21.8407 -7.1025 10.3500 -10.7299
# 2 34.2540 83.0424 13.5194 -0.6763 16.8770 -36.0834
# 3 21.8407 13.5194 47.7572 -6.5470 25.2274 -0.6203
# 4 -7.1025 -0.6763 -6.5470 30.1117 0.3850 4.8306
# 5 10.3500 16.8770 25.2274 0.3850 56.3616 7.7657
# 6 -10.7299 -36.0834 -0.6203 4.8306 7.7657 42.5742
#
#
#
# Elastic Compliance Matrix: (Units=1/GPa)
#
#
# Indices 1 2 3 4 5 6 
#
# 1 0.015946 -0.007395 -0.006162 0.002721 0.002452 -0.003095
# 2 -0.007395 0.027382 0.000829 -0.004632 -0.010458 0.023789
# 3 -0.006162 0.000829 0.031337 0.005318 -0.013379 0.001443
# 4 0.002721 -0.004632 0.005318 0.036055 -0.000759 -0.007115
# 5 0.002452 -0.010458 -0.013379 -0.000759 0.028279 -0.013513
# 6 -0.003095 0.023789 0.001443 -0.007115 -0.013513 0.046163
#
#
# Mechanical properties :
#
#
# Convention : Reuss Voigt Hill
#
# Bulk Modulus (GPa) = 20.32096 39.40008 29.86052
# Shear Modulus (GPa) = 22.02427 35.52673 28.77550
#
# Velocity S-wave (km/s) = 3.03650 3.85656 3.47084
# Velocity P-wave (km/s) = 4.56082 6.02706 5.34446
#
# Compressibility (1/GPa) = 0.04921026
#
# Stress axis : x y z
#
# Youngs Moduli (GPa) = 62.70973 36.52042 31.91082
#
# Poissons Ratio (x) = 0.27009 0.19662
# Poissons Ratio (y) = 0.46377 -0.02647
# Poissons Ratio (z) = 0.38639 -0.03029
#
# Static dielectric constant tensor:
#      x y z
#    x 1.901370 0.013100 -0.028450 
#    y 0.013100 1.854930 0.020820 
#    z -0.028450 0.020820 1.959720 
# 
# From -- ./inp_files/152116.got.cif
#   From: 2010.05.17/outbox.cif.g08.bks.cpg/sg2_77_cif.got.tgz:152116.got - 2010.06.03 11:33:40.
