data_PCOD9056033
_publ_section_title
;
Structure prediction by ZEFSAII (Michael W. Deem and Ramdas Pophale) SiO2 
 PCOD9056033
Probable space group: P -1
;
_chemical_formula_sum "Si O2"
_cell_formula_units_Z 16
_cell_length_a 11.504904
_cell_length_b 8.577703
_cell_length_c 18.422063
_cell_angle_alpha 136.121858
_cell_angle_beta 149.906709
_cell_angle_gamma 57.024990
_cell_volume 615.122845
_symmetry_space_group_name_H-M "P -1"
_symmetry_group_IT_number 2
_symmetry_cell_setting 'triclinic'
loop_
_space_group_symop_operation_xyz
x,y,z
-x,-y,-z
loop_
_atom_site_type_symbol
_atom_site_label
_atom_site_fract_x
_atom_site_fract_y
_atom_site_fract_z
Si Si1 0.576602 0.407693 0.244279
Si Si2 0.703009 0.835063 0.709501
Si Si3 0.089962 0.221879 0.672426
Si Si4 0.417342 0.833622 0.130176
Si Si5 0.020510 0.537195 0.623464
Si Si6 0.130371 0.012269 0.906672
Si Si7 0.023341 0.518226 0.180595
Si Si8 0.423787 0.731509 0.380872
O O1 0.720712 0.472215 0.270294
O O2 0.511448 0.616911 0.321022
O O3 0.804822 0.377936 0.407949
O O4 0.335200 0.210084 0.047312
O O5 0.836277 0.667209 0.770475
O O6 0.546737 0.696982 0.513400
O O7 0.902668 0.030129 0.839611
O O8 0.551854 0.957004 0.724072
O O9 0.367746 0.244073 0.819119
O O10 0.006990 0.433251 0.660591
O O11 0.985444 0.242584 0.701802
O O12 0.000000 0.000000 0.500000
O O13 0.281740 0.916800 0.017751
O O14 0.247415 0.621648 0.008656
O O15 0.025797 0.807878 0.724244
O O16 0.149981 0.607221 0.204138
O O17 0.500000 0.000000 0.500000
#
# Coordination Sequence:
#
# PCOD9056033 Si02
#       8
#     2   2   2   2   2   2   2   2
#     4  11  24  44  68  94 139 183 225 274 342 413
#     4  11  22  44  73  96 135 181 236 277 335 413
#     4  12  24  41  66 102 136 174 222 285 350 396
#     4  11  23  40  70 103 135 166 234 290 338 401
#     4  11  24  44  67 100 134 180 229 279 336 418
#     4  11  21  45  70 100 128 180 236 281 332 412
#     4  11  23  44  70  95 135 181 226 283 338 405
#     4  12  26  44  65 102 141 180 227 284 345 410
#
# _framework density 26.011064000000001
#
# number of rings (size 3 to 8) (size 9 to 14) (size 15 to 20)
#    0.000    0.750    3.750    5.625    3.500    0.000 
#    2.250    1.250    0.000    0.000    0.000    0.000 
#    0.000    0.000    0.000    0.000    0.000    0.000 
#
# Total GULP energy -89422.927041 kJ/mol
# GULP energy per Si atom -5588.932940 kJ/mol
# Density = 2.595186 g / cm^3
# Si number density = 26.011064 Si / 1000 Ang^3
#
#
#
# Elastic Constant Matrix: (Units=GPa)
#
#
# Indices 1 2 3 4 5 6 
#
# 1 104.4664 16.5180 2.0474 13.3931 14.6968 -23.4347
# 2 16.5180 48.7926 10.1031 7.7284 4.8942 -15.6034
# 3 2.0474 10.1031 91.9792 8.0397 14.2496 -7.4875
# 4 13.3931 7.7284 8.0397 40.4034 -2.6311 -8.5774
# 5 14.6968 4.8942 14.2496 -2.6311 52.1490 8.3696
# 6 -23.4347 -15.6034 -7.4875 -8.5774 8.3696 37.6968
#
#
#
# Elastic Compliance Matrix: (Units=1/GPa)
#
#
# Indices 1 2 3 4 5 6 
#
# 1 0.012703 -0.000952 0.001597 -0.002925 -0.005416 0.008357
# 2 -0.000952 0.024880 -0.001186 -0.002373 -0.003417 0.009690
# 3 0.001597 -0.001186 0.012104 -0.002282 -0.004297 0.003341
# 4 -0.002925 -0.002373 -0.002282 0.027304 0.002668 0.002366
# 5 -0.005416 -0.003417 -0.004297 0.002668 0.023994 -0.010355
# 6 0.008357 0.009690 0.003341 0.002366 -0.010355 0.039235
#
#
# Mechanical properties :
#
#
# Convention : Reuss Voigt Hill
#
# Bulk Modulus (GPa) = 20.57403 33.61948 27.09675
# Shear Modulus (GPa) = 31.74522 40.48782 36.11652
#
# Velocity S-wave (km/s) = 3.49728 3.94961 3.73031
# Velocity P-wave (km/s) = 4.92290 5.80968 5.38457
#
# Compressibility (1/GPa) = 0.04860496
#
# Stress axis : x y z
#
# Youngs Moduli (GPa) = 78.71901 40.19267 82.61802
#
# Poissons Ratio (x) = 0.03827 -0.13193
# Poissons Ratio (y) = 0.07495 0.09799
# Poissons Ratio (z) = -0.12570 0.04767
#
# Static dielectric constant tensor:
#      x y z
#    x 1.988190 -0.038660 0.031590 
#    y -0.038660 2.083260 -0.048210 
#    z 0.031590 -0.048210 2.175050 
# 
# From -- ./inp_files/594287.got.cif
#   From: 2010.05.17/outbox.cif.g08.bks.cpg/sg2_298_cif.got.tgz:594287.got - 2010.06.03 11:33:40.
