data_PCOD9056921
_publ_section_title
;
Structure prediction by ZEFSAII (Michael W. Deem and Ramdas Pophale) SiO2 
 PCOD9056921
Probable space group: P -1
;
_chemical_formula_sum "Si O2"
_cell_formula_units_Z 16
_cell_length_a 11.297745
_cell_length_b 11.146777
_cell_length_c 18.642009
_cell_angle_alpha 75.281216
_cell_angle_beta 29.977198
_cell_angle_gamma 56.575631
_cell_volume 827.172653
_symmetry_space_group_name_H-M "P -1"
_symmetry_group_IT_number 2
_symmetry_cell_setting 'triclinic'
loop_
_space_group_symop_operation_xyz
x,y,z
-x,-y,-z
loop_
_atom_site_type_symbol
_atom_site_label
_atom_site_fract_x
_atom_site_fract_y
_atom_site_fract_z
Si Si1 0.673989 0.908939 0.820121
Si Si2 0.330335 0.417435 0.301771
Si Si3 0.783743 0.761396 0.180611
Si Si4 0.584091 0.499140 0.037414
Si Si5 0.253863 0.553388 0.835350
Si Si6 0.728001 0.733989 0.960209
Si Si7 0.788281 0.188545 0.549645
Si Si8 0.315922 0.944198 0.879605
O O1 0.775317 0.791789 0.852697
O O2 0.359812 0.961726 0.937399
O O3 0.967898 0.816360 0.623956
O O4 0.557965 0.087536 0.876964
O O5 0.345693 0.518310 0.217070
O O6 0.589279 0.372383 0.232358
O O7 0.431409 0.254368 0.236192
O O8 0.000000 0.500000 0.500000
O O9 0.494560 0.776290 0.353611
O O10 0.634482 0.942475 0.202917
O O11 0.060074 0.685872 0.104911
O O12 0.987789 0.627453 0.027118
O O13 0.500000 0.500000 0.000000
O O14 0.624740 0.630467 0.012857
O O15 0.567215 0.350206 0.695388
O O16 0.047184 0.626710 0.859528
O O17 0.000000 0.000000 0.500000
O O18 0.000000 0.000000 0.000000
#
# Coordination Sequence:
#
# PCOD9056921 Si02
#       8
#     2   2   2   2   2   2   2   2
#     4  11  25  39  63  97 125 169 208 275 321 371
#     4  11  25  39  65  98 128 166 210 269 316 371
#     4  11  23  39  69  92 121 171 212 261 318 388
#     4  11  24  43  67  90 127 174 211 259 324 396
#     4  11  22  41  65  92 126 169 212 262 316 389
#     4  11  23  43  65  89 129 168 218 254 326 394
#     4  12  23  38  64  97 129 153 217 275 320 369
#     4  12  20  40  63  91 128 164 220 253 315 386
#
# _framework density 19.343
#
# number of rings (size 3 to 8) (size 9 to 14) (size 15 to 20)
#    0.000    0.750    6.250    1.875    5.250    0.500 
#    2.250    0.000    0.000    1.500    0.000    0.000 
#    0.000    0.000    0.000    0.000    0.000    0.000 
#
# Total GULP energy -89220.104950 kJ/mol
# GULP energy per Si atom -5576.256559 kJ/mol
# Density = 1.929897 g / cm^3
# Si number density = 19.343000 Si / 1000 Ang^3
#
#
#
# Elastic Constant Matrix: (Units=GPa)
#
#
# Indices 1 2 3 4 5 6 
#
# 1 153.7650 51.0343 35.4247 -12.2530 -4.4182 -12.4699
# 2 51.0343 117.9504 30.8602 5.5691 10.8691 6.7581
# 3 35.4247 30.8602 95.2834 -14.5216 -9.4553 1.8480
# 4 -12.2530 5.5691 -14.5216 21.3834 7.9621 3.7544
# 5 -4.4182 10.8691 -9.4553 7.9621 21.4914 6.4748
# 6 -12.4699 6.7581 1.8480 3.7544 6.4748 41.2341
#
#
#
# Elastic Compliance Matrix: (Units=1/GPa)
#
#
# Indices 1 2 3 4 5 6 
#
# 1 0.008671 -0.003840 -0.001305 0.004329 0.000701 0.002806
# 2 -0.003840 0.012065 -0.003888 -0.005434 -0.006135 -0.001506
# 3 -0.001305 -0.003888 0.014059 0.008123 0.005472 -0.001987
# 4 0.004329 -0.005434 0.008123 0.062156 -0.015392 -0.001407
# 5 0.000701 -0.006135 0.005472 -0.015392 0.060010 -0.007049
# 6 0.002806 -0.001506 -0.001987 -0.001407 -0.007049 0.026671
#
#
# Mechanical properties :
#
#
# Convention : Reuss Voigt Hill
#
# Bulk Modulus (GPa) = 59.77520 66.84858 63.31189
# Shear Modulus (GPa) = 24.12252 33.46707 28.79480
#
# Velocity S-wave (km/s) = 3.53525 4.16407 3.86248
# Velocity P-wave (km/s) = 6.90173 7.59960 7.25905
#
# Compressibility (1/GPa) = 0.01672935
#
# Stress axis : x y z
#
# Youngs Moduli (GPa) = 115.32270 82.88420 71.12905
#
# Poissons Ratio (x) = 0.31829 0.09284
# Poissons Ratio (y) = 0.44286 0.27652
# Poissons Ratio (z) = 0.15052 0.32222
#
# Static dielectric constant tensor:
#      x y z
#    x 1.687590 -0.011510 -0.043650 
#    y -0.011510 1.674060 -0.019670 
#    z -0.043650 -0.019670 1.645260 
# 
# From -- ./inp_files/568708.got.cif
#   From: 2010.05.17/outbox.cif.g08.bks.cpg/sg2_285_cif.got.tgz:568708.got - 2010.06.03 11:33:40.
