data_PCOD9056180
_publ_section_title
;
Structure prediction by ZEFSAII (Michael W. Deem and Ramdas Pophale) SiO2 
 PCOD9056180
Probable space group: P -1
;
_chemical_formula_sum "Si O2"
_cell_formula_units_Z 14
_cell_length_a 15.964916
_cell_length_b 15.980818
_cell_length_c 14.768854
_cell_angle_alpha 27.626824
_cell_angle_beta 28.902480
_cell_angle_gamma 18.182097
_cell_volume 530.225765
_symmetry_space_group_name_H-M "P -1"
_symmetry_group_IT_number 2
_symmetry_cell_setting 'triclinic'
loop_
_space_group_symop_operation_xyz
x,y,z
-x,-y,-z
loop_
_atom_site_type_symbol
_atom_site_label
_atom_site_fract_x
_atom_site_fract_y
_atom_site_fract_z
Si Si1 0.199827 0.048073 0.229936
Si Si2 0.470998 0.301115 0.313927
Si Si3 0.262474 0.419705 0.747629
Si Si4 0.052603 0.934157 0.122603
Si Si5 0.259881 0.984141 0.044215
Si Si6 0.138638 0.397076 0.188159
Si Si7 0.241791 0.312993 0.373657
O O1 0.889319 0.306599 0.310910
O O2 0.411151 0.822363 0.325604
O O3 0.237416 0.235572 0.991507
O O4 0.284747 0.873859 0.224978
O O5 0.202245 0.620777 0.295069
O O6 0.424150 0.333714 0.217163
O O7 0.554438 0.023164 0.510976
O O8 0.736562 0.183856 0.214359
O O9 0.076691 0.561109 0.696843
O O10 0.221624 0.921912 0.043090
O O11 0.000000 0.000000 0.000000
O O12 0.536963 0.882437 0.871261
O O13 0.971620 0.320811 0.010260
O O14 0.102626 0.445562 0.282643
O O15 0.000000 0.500000 0.500000
#
# Coordination Sequence:
#
# PCOD9056180 Si02
#       7
#     2   2   2   2   2   2   2
#     4   9  16  30  48  77 114 145 172 214 281 335
#     4  11  24  40  59  79 108 151 184 234 282 318
#     4   9  16  29  50  77 112 142 175 224 272 335
#     4  12  23  39  57  83 115 147 186 226 277 342
#     4  11  22  34  56  85 118 150 178 222 279 347
#     4  11  22  34  56  86 113 147 186 228 282 328
#     4  11  24  42  61  80 112 148 194 241 276 321
#
# _framework density 26.403846999999999
#
# number of rings (size 3 to 8) (size 9 to 14) (size 15 to 20)
#    0.000    1.429    1.429    7.286    4.000    0.000 
#    0.000    0.000    0.000    0.000    0.000    6.000 
#    0.000    0.000    0.000    0.000    0.000    0.000 
#
# Total GULP energy -77985.912901 kJ/mol
# GULP energy per Si atom -5570.422350 kJ/mol
# Density = 2.634375 g / cm^3
# Si number density = 26.403847 Si / 1000 Ang^3
#
#
#
# Elastic Constant Matrix: (Units=GPa)
#
#
# Indices 1 2 3 4 5 6 
#
# 1 204.5921 50.8236 23.1481 6.4523 11.5398 -20.6008
# 2 50.8236 155.2390 25.3774 -6.3487 3.6028 -23.9677
# 3 23.1481 25.3774 29.8460 1.3578 0.7474 -7.6825
# 4 6.4523 -6.3487 1.3578 22.0711 5.2311 3.4058
# 5 11.5398 3.6028 0.7474 5.2311 30.0118 1.3386
# 6 -20.6008 -23.9677 -7.6825 3.4058 1.3386 42.0197
#
#
#
# Elastic Compliance Matrix: (Units=1/GPa)
#
#
# Indices 1 2 3 4 5 6 
#
# 1 0.005857 -0.001179 -0.002938 -0.001726 -0.001820 0.001860
# 2 -0.001179 0.008327 -0.005507 0.002868 -0.001041 0.002966
# 3 -0.002938 -0.005507 0.041467 -0.004098 0.001326 0.003290
# 4 -0.001726 0.002868 -0.004098 0.049362 -0.008017 -0.003705
# 5 -0.001820 -0.001041 0.001326 -0.008017 0.035586 -0.001728
# 6 0.001860 0.002966 0.003290 -0.003705 -0.001728 0.027359
#
#
# Mechanical properties :
#
#
# Convention : Reuss Voigt Hill
#
# Bulk Modulus (GPa) = 27.46967 65.37502 46.42235
# Shear Modulus (GPa) = 25.08274 38.17571 31.62923
#
# Velocity S-wave (km/s) = 3.08549 3.80654 3.46483
# Velocity P-wave (km/s) = 4.80832 6.64328 5.79884
#
# Compressibility (1/GPa) = 0.03640379
#
# Stress axis : x y z
#
# Youngs Moduli (GPa) = 170.72656 120.08875 24.11571
#
# Poissons Ratio (x) = 0.14153 0.07085
# Poissons Ratio (y) = 0.20121 0.13281
# Poissons Ratio (z) = 0.50156 0.66137
#
# Static dielectric constant tensor:
#      x y z
#    x 2.190680 -0.032220 -0.013500 
#    y -0.032220 2.071890 0.018020 
#    z -0.013500 0.018020 2.234830 
# 
# From -- ./inp_files/534242.got.cif
#   From: 2010.05.17/outbox.cif.g08.bks.cpg/sg2_268_cif.got.tgz:534242.got - 2010.06.03 11:33:40.
