data_PCOD9056367
_publ_section_title
;
Structure prediction by ZEFSAII (Michael W. Deem and Ramdas Pophale) SiO2 
 PCOD9056367
Probable space group: P -1
;
_chemical_formula_sum "Si O2"
_cell_formula_units_Z 14
_cell_length_a 12.149741
_cell_length_b 12.437578
_cell_length_c 9.474456
_cell_angle_alpha 74.312299
_cell_angle_beta 62.792651
_cell_angle_gamma 37.478341
_cell_volume 763.370779
_symmetry_space_group_name_H-M "P -1"
_symmetry_group_IT_number 2
_symmetry_cell_setting 'triclinic'
loop_
_space_group_symop_operation_xyz
x,y,z
-x,-y,-z
loop_
_atom_site_type_symbol
_atom_site_label
_atom_site_fract_x
_atom_site_fract_y
_atom_site_fract_z
Si Si1 0.275407 0.792264 0.510749
Si Si2 0.684369 0.445263 0.860557
Si Si3 0.946885 0.050280 0.849962
Si Si4 0.701038 0.062888 0.809718
Si Si5 0.975419 0.654756 0.797680
Si Si6 0.240894 0.421826 0.995625
Si Si7 0.689583 0.483166 0.526298
O O1 0.229189 0.918851 0.377091
O O2 0.497861 0.651790 0.487692
O O3 0.268958 0.675925 0.480811
O O4 0.128855 0.897810 0.692137
O O5 0.867001 0.231283 0.810580
O O6 0.641483 0.526267 0.703787
O O7 0.500000 0.500000 0.000000
O O8 0.733531 0.502375 0.927773
O O9 0.775797 0.084886 0.889541
O O10 0.000000 0.000000 0.000000
O O11 0.462678 0.228430 0.888827
O O12 0.807673 0.868647 0.825339
O O13 0.115257 0.559072 0.889094
O O14 0.121126 0.579244 0.609667
O O15 0.875867 0.603848 0.870576
#
# Coordination Sequence:
#
# PCOD9056367 Si02
#       7
#     2   2   2   2   2   2   2
#     4  11  22  38  63  96 125 163 213 257 316 381
#     4  12  23  39  62  92 130 163 202 267 324 365
#     4  12  23  35  61  97 128 155 202 267 322 372
#     4  12  21  42  67  94 124 167 212 259 317 374
#     4  11  24  43  68  90 127 173 218 255 307 382
#     4  11  25  44  63  95 129 169 216 259 310 378
#     4  11  22  39  64  91 130 170 206 261 316 375
#
# _framework density 18.339711000000001
#
# number of rings (size 3 to 8) (size 9 to 14) (size 15 to 20)
#    0.000    0.571    5.714    3.429    2.000    0.571 
#    0.000    0.000    0.000    1.714    0.000    0.000 
#    0.000    0.000    0.000    0.000    0.000    0.000 
#
# Total GULP energy -78286.686518 kJ/mol
# GULP energy per Si atom -5591.906180 kJ/mol
# Density = 1.829797 g / cm^3
# Si number density = 18.339711 Si / 1000 Ang^3
#
#
#
# Elastic Constant Matrix: (Units=GPa)
#
#
# Indices 1 2 3 4 5 6 
#
# 1 108.9247 29.4954 55.3422 -1.7753 8.1061 -0.7435
# 2 29.4954 95.4618 14.0067 -3.3850 3.3592 -4.3954
# 3 55.3422 14.0067 105.5819 -4.8964 6.8640 -1.5180
# 4 -1.7753 -3.3850 -4.8964 36.0574 -5.5836 -1.6397
# 5 8.1061 3.3592 6.8640 -5.5836 27.7410 0.9644
# 6 -0.7435 -4.3954 -1.5180 -1.6397 0.9644 25.1447
#
#
#
# Elastic Compliance Matrix: (Units=1/GPa)
#
#
# Indices 1 2 3 4 5 6 
#
# 1 0.013526 -0.003196 -0.006578 -0.000876 -0.002096 -0.000533
# 2 -0.003196 0.011570 0.000241 0.000992 -0.000397 0.002022
# 3 -0.006578 0.000241 0.013031 0.001334 -0.001089 0.000763
# 4 -0.000876 0.000992 0.001334 0.028912 0.005559 0.001900
# 5 -0.002096 -0.000397 -0.001089 0.005559 0.038142 -0.001298
# 6 -0.000533 0.002022 0.000763 0.001900 -0.001298 0.040327
#
#
# Mechanical properties :
#
#
# Convention : Reuss Voigt Hill
#
# Bulk Modulus (GPa) = 52.46181 56.40634 54.43408
# Shear Modulus (GPa) = 29.25218 31.86355 30.55787
#
# Velocity S-wave (km/s) = 3.99810 4.17274 4.08636
# Velocity P-wave (km/s) = 7.06971 7.35111 7.21178
#
# Compressibility (1/GPa) = 0.01906148
#
# Stress axis : x y z
#
# Youngs Moduli (GPa) = 73.93011 86.43225 76.74030
#
# Poissons Ratio (x) = 0.27624 0.50480
# Poissons Ratio (y) = 0.23628 -0.01852
# Poissons Ratio (z) = 0.48632 -0.02085
#
# Static dielectric constant tensor:
#      x y z
#    x 1.606880 -0.026720 -0.002870 
#    y -0.026720 1.642660 -0.002890 
#    z -0.002870 -0.002890 1.629070 
# 
# From -- ./inp_files/171592.got.cif
#   From: 2010.05.17/outbox.cif.g08.bks.cpg/sg2_86_cif.got.tgz:171592.got - 2010.06.03 11:33:40.
