data_PCOD9056975
_publ_section_title
;
Structure prediction by ZEFSAII (Michael W. Deem and Ramdas Pophale) SiO2 
 PCOD9056975
Probable space group: P -1
;
_chemical_formula_sum "Si O2"
_cell_formula_units_Z 15
_cell_length_a 11.205252
_cell_length_b 14.823590
_cell_length_c 10.025640
_cell_angle_alpha 73.373770
_cell_angle_beta 121.393013
_cell_angle_gamma 56.361929
_cell_volume 696.254496
_symmetry_space_group_name_H-M "P -1"
_symmetry_group_IT_number 2
_symmetry_cell_setting 'triclinic'
loop_
_space_group_symop_operation_xyz
x,y,z
-x,-y,-z
loop_
_atom_site_type_symbol
_atom_site_label
_atom_site_fract_x
_atom_site_fract_y
_atom_site_fract_z
Si Si1 0.235111 0.888613 0.580048
Si Si2 0.000000 0.500000 0.000000
Si Si3 0.551738 0.288559 0.663019
Si Si4 0.423743 0.569867 0.775331
Si Si5 0.135059 0.039558 0.174943
Si Si6 0.787840 0.639028 0.117354
Si Si7 0.864960 0.444547 0.466737
Si Si8 0.136737 0.626712 0.078969
O O1 0.338144 0.728052 0.653918
O O2 0.162906 0.989788 0.364582
O O3 0.471531 0.806747 0.830374
O O4 0.000000 0.000000 0.500000
O O5 0.046177 0.586520 0.965586
O O6 0.933189 0.561378 0.092685
O O7 0.398211 0.365455 0.681591
O O8 0.352108 0.469695 0.383316
O O9 0.617219 0.153587 0.679398
O O10 0.846059 0.167256 0.898910
O O11 0.195733 0.629124 0.565873
O O12 0.688663 0.408837 0.904523
O O13 0.500000 0.500000 0.000000
O O14 0.109379 0.166685 0.098204
O O15 0.879177 0.495575 0.317615
O O16 0.876501 0.677012 0.241492
#
# Coordination Sequence:
#
# PCOD9056975 Si02
#       8
#     2   1   2   2   2   2   2   2
#     4  12  24  44  69 104 148 184 243 308 355 439
#     4  12  22  44  74 100 142 192 236 294 356 444
#     4  11  22  41  67 104 143 180 237 304 352 424
#     4  12  22  42  74 104 136 194 247 291 364 429
#     4  11  24  39  68 107 139 185 241 297 359 424
#     4  11  24  43  72 104 146 189 236 297 372 424
#     4  11  23  42  74 106 138 192 244 300 361 432
#     4  12  23  42  72 100 144 192 245 291 366 428
#
# _framework density 21.543845000000001
#
# number of rings (size 3 to 8) (size 9 to 14) (size 15 to 20)
#    0.000    0.533    6.667    2.000    0.000    0.000 
#    0.000    3.333    5.867    0.000    0.000    0.000 
#    0.000    0.000    0.000    0.000    0.000    0.000 
#
# Total GULP energy -83621.644088 kJ/mol
# GULP energy per Si atom -5574.776273 kJ/mol
# Density = 2.149481 g / cm^3
# Si number density = 21.543845 Si / 1000 Ang^3
#
#
#
# Elastic Constant Matrix: (Units=GPa)
#
#
# Indices 1 2 3 4 5 6 
#
# 1 83.3286 24.3899 31.1855 10.0483 9.1403 5.5614
# 2 24.3899 82.5278 43.6419 1.0916 3.7346 11.1913
# 3 31.1855 43.6419 93.5778 3.6296 -7.9829 15.2371
# 4 10.0483 1.0916 3.6296 31.2666 3.8547 -1.8125
# 5 9.1403 3.7346 -7.9829 3.8547 33.5981 11.3839
# 6 5.5614 11.1913 15.2371 -1.8125 11.3839 58.8150
#
#
#
# Elastic Compliance Matrix: (Units=1/GPa)
#
#
# Indices 1 2 3 4 5 6 
#
# 1 0.015199 -0.001914 -0.004609 -0.003619 -0.004928 0.000964
# 2 -0.001914 0.016801 -0.007438 0.001249 -0.003105 -0.000450
# 3 -0.004609 -0.007438 0.017071 -0.001427 0.007691 -0.004104
# 4 -0.003619 0.001249 -0.001427 0.033917 -0.004173 0.002327
# 5 -0.004928 -0.003105 0.007691 -0.004173 0.036511 -0.008131
# 6 0.000964 -0.000450 -0.004104 0.002327 -0.008131 0.019706
#
#
# Mechanical properties :
#
#
# Convention : Reuss Voigt Hill
#
# Bulk Modulus (GPa) = 47.28539 50.87434 49.07986
# Shear Modulus (GPa) = 28.70663 35.41706 32.06185
#
# Velocity S-wave (km/s) = 3.65427 4.05897 3.86192
# Velocity P-wave (km/s) = 6.30880 6.75519 6.53581
#
# Compressibility (1/GPa) = 0.02114818
#
# Stress axis : x y z
#
# Youngs Moduli (GPa) = 65.79527 59.52063 58.57953
#
# Poissons Ratio (x) = 0.11392 0.27002
# Poissons Ratio (y) = 0.12593 0.43570
# Poissons Ratio (z) = 0.30328 0.44270
#
# Static dielectric constant tensor:
#      x y z
#    x 1.783830 -0.003820 0.031320 
#    y -0.003820 1.863020 0.009970 
#    z 0.031320 0.009970 1.800390 
# 
# From -- ./inp_files/270213.got.cif
#   From: 2010.05.17/outbox.cif.g08.bks.cpg/sg2_136_cif.got.tgz:270213.got - 2010.06.03 11:33:40.
