data_PCOD9056315
_publ_section_title
;
Structure prediction by ZEFSAII (Michael W. Deem and Ramdas Pophale) SiO2 
 PCOD9056315
Probable space group: P -1
;
_chemical_formula_sum "Si O2"
_cell_formula_units_Z 16
_cell_length_a 16.756097
_cell_length_b 19.527201
_cell_length_c 25.994603
_cell_angle_alpha 17.739558
_cell_angle_beta 161.317141
_cell_angle_gamma 152.970748
_cell_volume 824.371083
_symmetry_space_group_name_H-M "P -1"
_symmetry_group_IT_number 2
_symmetry_cell_setting 'triclinic'
loop_
_space_group_symop_operation_xyz
x,y,z
-x,-y,-z
loop_
_atom_site_type_symbol
_atom_site_label
_atom_site_fract_x
_atom_site_fract_y
_atom_site_fract_z
Si Si1 0.952491 0.751328 0.082685
Si Si2 0.192086 0.865761 0.451610
Si Si3 0.245435 0.317476 0.102743
Si Si4 0.656947 0.177056 0.646907
Si Si5 0.750789 0.323935 0.273879
Si Si6 0.807683 0.568212 0.381139
Si Si7 0.291943 0.765457 0.871257
Si Si8 0.211298 0.035424 0.530371
O O1 0.188207 0.832247 0.198056
O O2 0.953169 0.495228 0.285378
O O3 0.902640 0.721873 0.012607
O O4 0.730310 0.934526 0.837396
O O5 0.454191 0.722866 0.695803
O O6 0.215215 0.864577 0.527433
O O7 0.956400 0.743783 0.377462
O O8 0.185642 0.113808 0.247964
O O9 0.198556 0.554095 0.934387
O O10 0.741385 0.363000 0.525162
O O11 0.373190 0.191707 0.483437
O O12 0.773071 0.201371 0.321245
O O13 0.500000 0.500000 0.000000
O O14 0.000000 0.500000 0.500000
O O15 0.549328 0.680703 0.117749
O O16 0.321179 0.961643 0.706632
O O17 0.072050 0.858927 0.708919
#
# Coordination Sequence:
#
# PCOD9056315 Si02
#       8
#     2   2   2   2   2   2   2   2
#     4  11  22  37  65  97 126 163 215 278 317 372
#     4  11  23  37  63  98 128 159 217 273 323 376
#     4  11  22  40  63  95 128 172 212 263 326 382
#     4  11  25  39  65 103 129 168 218 269 332 376
#     4  12  20  39  66  92 124 169 216 270 313 376
#     4  12  25  41  65 101 134 166 211 278 327 377
#     4  11  26  44  66  93 134 180 212 264 328 388
#     4  11  25  46  66  93 133 176 221 258 322 402
#
# _framework density 19.408736000000001
#
# number of rings (size 3 to 8) (size 9 to 14) (size 15 to 20)
#    0.000    0.750    6.250    0.750    8.750    0.500 
#    0.000    2.500    0.000    0.000    0.000    0.000 
#    0.000    0.000    0.000    0.000    0.000    0.000 
#
# Total GULP energy -89202.897373 kJ/mol
# GULP energy per Si atom -5575.181086 kJ/mol
# Density = 1.936456 g / cm^3
# Si number density = 19.408736 Si / 1000 Ang^3
#
#
#
# Elastic Constant Matrix: (Units=GPa)
#
#
# Indices 1 2 3 4 5 6 
#
# 1 113.4099 46.8576 59.3554 12.9583 -2.5036 12.7481
# 2 46.8576 81.4274 31.8666 11.2891 -0.2377 -1.2767
# 3 59.3554 31.8666 96.7871 16.4421 -0.3135 2.2494
# 4 12.9583 11.2891 16.4421 23.6853 -4.4424 -7.6915
# 5 -2.5036 -0.2377 -0.3135 -4.4424 34.3513 1.0906
# 6 12.7481 -1.2767 2.2494 -7.6915 1.0906 37.2509
#
#
#
# Elastic Compliance Matrix: (Units=1/GPa)
#
#
# Indices 1 2 3 4 5 6 
#
# 1 0.016164 -0.006177 -0.007306 -0.002556 0.000924 -0.005857
# 2 -0.006177 0.016802 -0.001247 -0.003229 -0.000830 0.002123
# 3 -0.007306 -0.001247 0.016411 -0.007028 -0.001302 0.000053
# 4 -0.002556 -0.003229 -0.007028 0.055284 0.006483 0.012414
# 5 0.000924 -0.000830 -0.001302 0.006483 0.029993 0.000194
# 6 -0.005857 0.002123 0.000053 0.012414 0.000194 0.031476
#
#
# Mechanical properties :
#
#
# Convention : Reuss Voigt Hill
#
# Bulk Modulus (GPa) = 50.20693 63.08706 56.64700
# Shear Modulus (GPa) = 24.72422 29.29383 27.00902
#
# Velocity S-wave (km/s) = 3.57300 3.88920 3.73445
# Velocity P-wave (km/s) = 6.55333 7.26243 6.91697
#
# Compressibility (1/GPa) = 0.01991757
#
# Stress axis : x y z
#
# Youngs Moduli (GPa) = 61.86447 59.51535 60.93393
#
# Poissons Ratio (x) = 0.36766 0.44516
# Poissons Ratio (y) = 0.38217 0.07599
# Poissons Ratio (z) = 0.45196 0.07422
#
# Static dielectric constant tensor:
#      x y z
#    x 1.728650 0.023240 -0.015590 
#    y 0.023240 1.713840 0.008330 
#    z -0.015590 0.008330 1.653270 
# 
# From -- ./inp_files/331827.got.cif
#   From: 2010.05.17/outbox.cif.g08.bks.cpg/sg2_166_cif.got.tgz:331827.got - 2010.06.03 11:33:40.
