data_PCOD9057504
_publ_section_title
;
Structure prediction by ZEFSAII (Michael W. Deem and Ramdas Pophale) SiO2 
 PCOD9057504
Probable space group: P -1
;
_chemical_formula_sum "Si O2"
_cell_formula_units_Z 16
_cell_length_a 8.434764
_cell_length_b 13.341502
_cell_length_c 9.302085
_cell_angle_alpha 47.486826
_cell_angle_beta 115.013358
_cell_angle_gamma 122.043634
_cell_volume 650.577977
_symmetry_space_group_name_H-M "P -1"
_symmetry_group_IT_number 2
_symmetry_cell_setting 'triclinic'
loop_
_space_group_symop_operation_xyz
x,y,z
-x,-y,-z
loop_
_atom_site_type_symbol
_atom_site_label
_atom_site_fract_x
_atom_site_fract_y
_atom_site_fract_z
Si Si1 0.434516 0.190478 0.480966
Si Si2 0.710258 0.515119 0.607239
Si Si3 0.294510 0.336738 0.028042
Si Si4 0.824896 0.342520 0.600979
Si Si5 0.793194 0.138586 0.282807
Si Si6 0.292295 0.568734 0.996820
Si Si7 0.876876 0.823158 0.398383
Si Si8 0.075628 0.880325 0.980860
O O1 0.343202 0.250202 0.260572
O O2 0.653416 0.294169 0.468676
O O3 0.317546 0.205328 0.561868
O O4 0.381123 0.016028 0.614769
O O5 0.500000 0.500000 0.500000
O O6 0.736573 0.379353 0.676211
O O7 0.768291 0.512498 0.797399
O O8 0.852688 0.672662 0.457449
O O9 0.214090 0.454967 0.947023
O O10 0.140200 0.219963 0.991140
O O11 0.486839 0.406323 0.949380
O O12 0.000000 0.500000 0.500000
O O13 0.837451 0.187361 0.797234
O O14 0.861048 0.143071 0.137552
O O15 0.956568 0.135702 0.458866
O O16 0.744200 0.281242 0.161289
O O17 0.898677 0.952343 0.172544
#
# Coordination Sequence:
#
# PCOD9057504 Si02
#       8
#     2   2   2   2   2   2   2   2
#     4  11  22  46  67  99 144 179 224 283 345 399
#     4  12  24  45  67  97 138 183 230 275 343 417
#     4  11  23  43  69  99 144 175 226 289 342 395
#     4  12  29  45  69 102 140 182 229 284 339 409
#     4  11  22  42  72 104 131 178 238 285 331 408
#     4  11  25  39  69 103 133 182 231 280 341 401
#     4  11  22  42  72 101 135 179 230 284 341 402
#     4  11  23  43  67 100 137 180 226 278 344 402
#
# _framework density 24.593516000000001
#
# number of rings (size 3 to 8) (size 9 to 14) (size 15 to 20)
#    0.000    0.750    6.250    0.750    7.000    4.500 
#    2.250    0.625    0.000    0.000    0.000    0.000 
#    0.000    0.000    0.000    0.000    0.000    0.000 
#
# Total GULP energy -89467.928679 kJ/mol
# GULP energy per Si atom -5591.745542 kJ/mol
# Density = 2.453754 g / cm^3
# Si number density = 24.593516 Si / 1000 Ang^3
#
#
#
# Elastic Constant Matrix: (Units=GPa)
#
#
# Indices 1 2 3 4 5 6 
#
# 1 39.8190 18.6489 19.5820 -9.9685 0.5443 -5.2719
# 2 18.6489 114.2909 41.4655 -26.7379 9.0142 9.1725
# 3 19.5820 41.4655 129.8896 -31.7450 6.6361 -18.1013
# 4 -9.9685 -26.7379 -31.7450 46.7622 -2.1089 9.6677
# 5 0.5443 9.0142 6.6361 -2.1089 29.6473 -8.0284
# 6 -5.2719 9.1725 -18.1013 9.6677 -8.0284 28.8047
#
#
#
# Elastic Compliance Matrix: (Units=1/GPa)
#
#
# Indices 1 2 3 4 5 6 
#
# 1 0.029244 -0.004465 -0.002009 0.001225 0.002962 0.005926
# 2 -0.004465 0.013555 -0.003284 0.006588 -0.005823 -0.011032
# 3 -0.002009 -0.003284 0.010826 0.003749 0.000610 0.006393
# 4 0.001225 0.006588 0.003749 0.029984 -0.003598 -0.010584
# 5 0.002962 -0.005823 0.000610 -0.003598 0.039083 0.014880
# 6 0.005926 -0.011032 0.006393 -0.010584 0.014880 0.051031
#
#
# Mechanical properties :
#
#
# Convention : Reuss Voigt Hill
#
# Bulk Modulus (GPa) = 29.31854 49.26581 39.29217
# Shear Modulus (GPa) = 24.43672 34.66305 29.54989
#
# Velocity S-wave (km/s) = 3.15560 3.75832 3.47007
# Velocity P-wave (km/s) = 5.02237 6.23769 5.66273
#
# Compressibility (1/GPa) = 0.03410811
#
# Stress axis : x y z
#
# Youngs Moduli (GPa) = 34.19516 73.77117 92.36832
#
# Poissons Ratio (x) = 0.32941 0.18560
# Poissons Ratio (y) = 0.15269 0.30334
# Poissons Ratio (z) = 0.06871 0.24227
#
# Static dielectric constant tensor:
#      x y z
#    x 2.032820 -0.011570 0.026890 
#    y -0.011570 1.939760 0.001740 
#    z 0.026890 0.001740 1.967470 
# 
# From -- ./inp_files/398475.got.cif
#   From: 2010.05.17/outbox.cif.g08.bks.cpg/sg2_200_cif.got.tgz:398475.got - 2010.06.03 11:33:40.
