data_PCOD9057606
_publ_section_title
;
Structure prediction by ZEFSAII (Michael W. Deem and Ramdas Pophale) SiO2 
 PCOD9057606
Probable space group: P -1
;
_chemical_formula_sum "Si O2"
_cell_formula_units_Z 12
_cell_length_a 20.974133
_cell_length_b 6.968232
_cell_length_c 23.816333
_cell_angle_alpha 134.793900
_cell_angle_beta 169.517269
_cell_angle_gamma 44.697695
_cell_volume 445.014022
_symmetry_space_group_name_H-M "P -1"
_symmetry_group_IT_number 2
_symmetry_cell_setting 'triclinic'
loop_
_space_group_symop_operation_xyz
x,y,z
-x,-y,-z
loop_
_atom_site_type_symbol
_atom_site_label
_atom_site_fract_x
_atom_site_fract_y
_atom_site_fract_z
Si Si1 0.918336 0.436873 0.837106
Si Si2 0.793950 0.295450 0.368675
Si Si3 0.666837 0.384803 0.043788
Si Si4 0.920506 0.959978 0.002211
Si Si5 0.755055 0.688755 0.564913
Si Si6 0.584464 0.786942 0.866164
O O1 0.500000 0.500000 0.500000
O O2 0.047520 0.731679 0.018361
O O3 0.093681 0.230181 0.994006
O O4 0.035212 0.305695 0.851822
O O5 0.061318 0.514628 0.656343
O O6 0.492092 0.319034 0.160436
O O7 0.616643 0.360583 0.168585
O O8 0.000000 0.000000 0.500000
O O9 0.899559 0.307707 0.173810
O O10 0.509744 0.113308 0.868333
O O11 0.174566 0.172403 0.286514
O O12 0.550475 0.122035 0.695505
O O13 0.662830 0.380475 0.420810
#
# Coordination Sequence:
#
# PCOD9057606 Si02
#       6
#     2   2   2   2   2   2
#     4  11  23  44  68 101 143 191 241 289 347 408
#     4  11  27  50  75 110 141 177 237 293 352 440
#     4  11  24  47  75 104 151 174 234 301 345 425
#     4  11  22  43  64  93 149 184 234 305 323 398
#     4  11  23  44  66 105 138 188 243 283 341 420
#     4  11  26  44  76 106 137 202 227 286 373 404
#
# _framework density 26.965443
#
# number of rings (size 3 to 8) (size 9 to 14) (size 15 to 20)
#    0.000    1.000    3.333    2.500    0.000    6.667 
#   18.000    0.000    0.000    0.000    0.000    0.000 
#    0.000    0.000    0.000    0.000    0.000    0.000 
#
# Total GULP energy -67275.089271 kJ/mol
# GULP energy per Si atom -5606.257439 kJ/mol
# Density = 2.690407 g / cm^3
# Si number density = 26.965443 Si / 1000 Ang^3
#
#
#
# Elastic Constant Matrix: (Units=GPa)
#
#
# Indices 1 2 3 4 5 6 
#
# 1 87.9574 16.0182 30.8600 -12.0519 10.2158 6.8316
# 2 16.0182 161.8624 47.1091 14.3805 -0.1186 17.3879
# 3 30.8600 47.1091 116.9359 -3.5020 -10.5947 21.6456
# 4 -12.0519 14.3805 -3.5020 56.4068 3.9821 -7.2217
# 5 10.2158 -0.1186 -10.5947 3.9821 31.4852 -4.8509
# 6 6.8316 17.3879 21.6456 -7.2217 -4.8509 37.4995
#
#
#
# Elastic Compliance Matrix: (Units=1/GPa)
#
#
# Indices 1 2 3 4 5 6 
#
# 1 0.014050 -0.000520 -0.003931 0.003308 -0.006338 -0.000232
# 2 -0.000520 0.007450 -0.002550 -0.002431 -0.000731 -0.002451
# 3 -0.003931 -0.002550 0.011839 -0.000345 0.004614 -0.004405
# 4 0.003308 -0.002431 -0.000345 0.019779 -0.003063 0.004136
# 5 -0.006338 -0.000731 0.004614 -0.003063 0.036205 0.002924
# 6 -0.000232 -0.002451 -0.004405 0.004136 0.002924 0.031563
#
#
# Mechanical properties :
#
#
# Convention : Reuss Voigt Hill
#
# Bulk Modulus (GPa) = 51.70751 61.63668 56.67209
# Shear Modulus (GPa) = 35.37705 43.26287 39.31996
#
# Velocity S-wave (km/s) = 3.62600 4.00982 3.82273
# Velocity P-wave (km/s) = 6.06198 6.65924 6.36762
#
# Compressibility (1/GPa) = 0.01933955
#
# Stress axis : x y z
#
# Youngs Moduli (GPa) = 71.17284 134.22242 84.46454
#
# Poissons Ratio (x) = 0.06980 0.33199
# Poissons Ratio (y) = 0.03701 0.21535
# Poissons Ratio (z) = 0.27975 0.34221
#
# Static dielectric constant tensor:
#      x y z
#    x 2.075470 -0.034620 0.067680 
#    y -0.034620 2.122320 0.015080 
#    z 0.067680 0.015080 2.131360 
# 
# From -- ./inp_files/620881.got.cif
#   From: 2010.05.17/outbox.cif.g08.bks.cpg/sg2_311_cif.got.tgz:620881.got - 2010.06.03 11:33:40.
