data_PCOD9057399
_publ_section_title
;
Structure prediction by ZEFSAII (Michael W. Deem and Ramdas Pophale) SiO2 
 PCOD9057399
Probable space group: P -1
;
_chemical_formula_sum "Si O2"
_cell_formula_units_Z 15
_cell_length_a 11.149208
_cell_length_b 9.624571
_cell_length_c 16.070162
_cell_angle_alpha 116.226979
_cell_angle_beta 130.855541
_cell_angle_gamma 104.015301
_cell_volume 727.755181
_symmetry_space_group_name_H-M "P -1"
_symmetry_group_IT_number 2
_symmetry_cell_setting 'triclinic'
loop_
_space_group_symop_operation_xyz
x,y,z
-x,-y,-z
loop_
_atom_site_type_symbol
_atom_site_label
_atom_site_fract_x
_atom_site_fract_y
_atom_site_fract_z
Si Si1 0.087019 0.395622 0.691290
Si Si2 0.300449 0.703325 0.184039
Si Si3 0.350746 0.129688 0.191984
Si Si4 0.369639 0.829041 0.814491
Si Si5 0.323862 0.059020 0.723751
Si Si6 0.243100 0.407259 0.203779
Si Si7 0.356109 0.754987 0.481884
Si Si8 0.500000 0.500000 0.000000
O O1 0.165780 0.558905 0.690904
O O2 0.323469 0.501121 0.873098
O O3 0.920849 0.379091 0.671449
O O4 0.887350 0.120801 0.490947
O O5 0.414063 0.785239 0.164673
O O6 0.341313 0.566496 0.207374
O O7 0.445302 0.951352 0.365411
O O8 0.000000 0.500000 0.000000
O O9 0.443773 0.129590 0.147495
O O10 0.342514 0.309414 0.232633
O O11 0.544691 0.229796 0.379519
O O12 0.065098 0.847721 0.005600
O O13 0.279246 0.900871 0.734682
O O14 0.500000 0.000000 0.000000
O O15 0.337291 0.240263 0.812087
O O16 0.334654 0.595024 0.367189
#
# Coordination Sequence:
#
# PCOD9057399 Si02
#       8
#     2   2   2   2   2   2   2   1
#     4  11  25  43  72  96 138 176 224 285 337 401
#     4  11  22  42  69  95 135 177 218 276 336 397
#     4  11  24  44  66 101 140 168 233 283 321 402
#     4  12  22  44  72  97 131 188 226 272 339 403
#     4  11  25  45  66  98 137 176 226 277 336 402
#     4  11  24  42  69  99 135 178 222 281 335 391
#     4  11  23  45  69  99 131 183 224 272 340 407
#     4  12  26  46  66 100 136 170 232 286 336 402
#
# _framework density 20.611328
#
# number of rings (size 3 to 8) (size 9 to 14) (size 15 to 20)
#    0.000    0.800    5.333    2.400    3.733    0.000 
#    0.000    0.000    0.000    0.000    0.000    0.000 
#    0.000    0.000    0.000    0.000    0.000    0.000 
#
# Total GULP energy -83535.395965 kJ/mol
# GULP energy per Si atom -5569.026398 kJ/mol
# Density = 2.056442 g / cm^3
# Si number density = 20.611328 Si / 1000 Ang^3
#
#
#
# Elastic Constant Matrix: (Units=GPa)
#
#
# Indices 1 2 3 4 5 6 
#
# 1 46.0009 38.2139 27.5009 11.0124 -14.0405 -17.9501
# 2 38.2139 100.5426 35.7322 11.3338 -2.3182 -18.5495
# 3 27.5009 35.7322 74.6699 -1.0229 -11.4067 -3.8154
# 4 11.0124 11.3338 -1.0229 37.8833 -5.5188 -4.9056
# 5 -14.0405 -2.3182 -11.4067 -5.5188 31.4695 8.5791
# 6 -17.9501 -18.5495 -3.8154 -4.9056 8.5791 33.9626
#
#
#
# Elastic Compliance Matrix: (Units=1/GPa)
#
#
# Indices 1 2 3 4 5 6 
#
# 1 0.047439 -0.010835 -0.009886 -0.007296 0.011677 0.014041
# 2 -0.010835 0.016697 -0.004879 -0.002441 -0.006959 0.004250
# 3 -0.009886 -0.004879 0.019875 0.004788 0.004970 -0.006220
# 4 -0.007296 -0.002441 0.004788 0.029771 0.003885 -0.001333
# 5 0.011677 -0.006959 0.004970 0.003885 0.040816 -0.006820
# 6 0.014041 0.004250 -0.006220 -0.001333 -0.006820 0.040018
#
#
# Mechanical properties :
#
#
# Convention : Reuss Voigt Hill
#
# Bulk Modulus (GPa) = 30.47686 47.12303 38.79994
# Shear Modulus (GPa) = 19.47402 28.64750 24.06076
#
# Velocity S-wave (km/s) = 3.07713 3.73217 3.42037
# Velocity P-wave (km/s) = 5.23866 6.44084 5.87060
#
# Compressibility (1/GPa) = 0.03281178
#
# Stress axis : x y z
#
# Youngs Moduli (GPa) = 21.07954 59.89120 50.31494
#
# Poissons Ratio (x) = 0.64893 0.49740
# Poissons Ratio (y) = 0.22840 0.24548
# Poissons Ratio (z) = 0.20839 0.29220
#
# Static dielectric constant tensor:
#      x y z
#    x 1.735460 0.018050 0.007240 
#    y 0.018050 1.773660 0.020870 
#    z 0.007240 0.020870 1.745280 
# 
# From -- ./inp_files/515995.got.cif
#   From: 2010.05.17/outbox.cif.g08.bks.cpg/sg2_258_cif.got.tgz:515995.got - 2010.06.03 11:33:40.
