data_PCOD9057023
_publ_section_title
;
Structure prediction by ZEFSAII (Michael W. Deem and Ramdas Pophale) SiO2 
 PCOD9057023
Probable space group: P -1
;
_chemical_formula_sum "Si O2"
_cell_formula_units_Z 14
_cell_length_a 9.044539
_cell_length_b 11.878921
_cell_length_c 9.685163
_cell_angle_alpha 133.851534
_cell_angle_beta 125.573489
_cell_angle_gamma 64.404110
_cell_volume 609.600614
_symmetry_space_group_name_H-M "P -1"
_symmetry_group_IT_number 2
_symmetry_cell_setting 'triclinic'
loop_
_space_group_symop_operation_xyz
x,y,z
-x,-y,-z
loop_
_atom_site_type_symbol
_atom_site_label
_atom_site_fract_x
_atom_site_fract_y
_atom_site_fract_z
Si Si1 0.914928 0.308091 0.190328
Si Si2 0.673884 0.061359 0.742331
Si Si3 0.338895 0.574252 0.603648
Si Si4 0.693743 0.761406 0.662772
Si Si5 0.997582 0.547500 0.202904
Si Si6 0.381414 0.151068 0.018488
Si Si7 0.282617 0.155721 0.662638
O O1 0.787235 0.390144 0.303264
O O2 0.926674 0.408841 0.142907
O O3 0.114950 0.283488 0.341586
O O4 0.832144 0.143579 0.974743
O O5 0.494203 0.180095 0.750023
O O6 0.611206 0.911272 0.667320
O O7 0.751060 0.989770 0.580080
O O8 0.414966 0.395292 0.514857
O O9 0.489074 0.702475 0.797573
O O10 0.199915 0.577169 0.399668
O O11 0.745864 0.809769 0.887499
O O12 0.861468 0.697081 0.291583
O O13 0.000000 0.500000 0.000000
O O14 0.290395 0.117818 0.796587
O O15 0.500000 0.000000 0.000000
#
# Coordination Sequence:
#
# PCOD9057023 Si02
#       7
#     2   2   2   2   2   2   2
#     4  11  22  43  69  98 127 178 224 266 323 394
#     4  11  23  41  66 101 132 173 220 274 330 386
#     4  11  23  44  68  97 127 179 221 267 324 395
#     4  11  22  41  68  95 133 170 223 271 324 395
#     4  11  25  45  67  98 136 171 220 276 333 390
#     4  12  24  44  64  98 132 172 220 271 329 391
#     4  11  23  43  63  96 137 167 218 272 335 385
#
# _framework density 22.965858000000001
#
# number of rings (size 3 to 8) (size 9 to 14) (size 15 to 20)
#    0.000    0.857    2.857    6.000    0.000    2.857 
#    5.143    2.143    0.000    0.000    0.000    0.000 
#    0.000    0.000    0.000    0.000    0.000    0.000 
#
# Total GULP energy -78156.479286 kJ/mol
# GULP energy per Si atom -5582.605663 kJ/mol
# Density = 2.291359 g / cm^3
# Si number density = 22.965858 Si / 1000 Ang^3
#
#
#
# Elastic Constant Matrix: (Units=GPa)
#
#
# Indices 1 2 3 4 5 6 
#
# 1 85.3479 22.3578 19.1818 1.5981 -30.8333 -10.9898
# 2 22.3578 102.7642 28.9651 7.8946 -1.1208 -13.4925
# 3 19.1818 28.9651 125.1698 0.4758 -30.6519 6.9276
# 4 1.5981 7.8946 0.4758 36.7558 11.4085 -13.2158
# 5 -30.8333 -1.1208 -30.6519 11.4085 52.9102 -1.4151
# 6 -10.9898 -13.4925 6.9276 -13.2158 -1.4151 22.6369
#
#
#
# Elastic Compliance Matrix: (Units=1/GPa)
#
#
# Indices 1 2 3 4 5 6 
#
# 1 0.016991 -0.002685 0.000184 -0.000976 0.010340 0.006668
# 2 -0.002685 0.012233 -0.003726 0.001426 -0.003565 0.007738
# 3 0.000184 -0.003726 0.011001 -0.004275 0.007121 -0.007548
# 4 -0.000976 0.001426 -0.004275 0.038858 -0.010760 0.023698
# 5 0.010340 -0.003565 0.007121 -0.010760 0.031199 -0.003615
# 6 0.006668 0.007738 -0.007548 0.023698 -0.003615 0.067944
#
#
# Mechanical properties :
#
#
# Convention : Reuss Voigt Hill
#
# Bulk Modulus (GPa) = 36.00802 50.47683 43.24243
# Shear Modulus (GPa) = 25.00776 38.64573 31.82675
#
# Velocity S-wave (km/s) = 3.30344 4.10658 3.72671
# Velocity P-wave (km/s) = 5.50121 6.67174 6.11455
#
# Compressibility (1/GPa) = 0.02777159
#
# Stress axis : x y z
#
# Youngs Moduli (GPa) = 58.85335 81.74664 90.90079
#
# Poissons Ratio (x) = 0.21952 -0.01676
# Poissons Ratio (y) = 0.15804 0.33868
# Poissons Ratio (z) = -0.01085 0.30458
#
# Static dielectric constant tensor:
#      x y z
#    x 1.877880 -0.029730 -0.019220 
#    y -0.029730 1.912160 -0.004470 
#    z -0.019220 -0.004470 1.871990 
# 
# From -- ./inp_files/158954.got.cif
#   From: 2010.05.17/outbox.cif.g08.bks.cpg/sg2_80_cif.got.tgz:158954.got - 2010.06.03 11:33:40.
