data_PCOD9057026
_publ_section_title
;
Structure prediction by ZEFSAII (Michael W. Deem and Ramdas Pophale) SiO2 
 PCOD9057026
Probable space group: P -1
;
_chemical_formula_sum "Si O2"
_cell_formula_units_Z 12
_cell_length_a 7.730318
_cell_length_b 14.078201
_cell_length_c 9.045976
_cell_angle_alpha 32.392540
_cell_angle_beta 89.345727
_cell_angle_gamma 80.768456
_cell_volume 506.037395
_symmetry_space_group_name_H-M "P -1"
_symmetry_group_IT_number 2
_symmetry_cell_setting 'triclinic'
loop_
_space_group_symop_operation_xyz
x,y,z
-x,-y,-z
loop_
_atom_site_type_symbol
_atom_site_label
_atom_site_fract_x
_atom_site_fract_y
_atom_site_fract_z
Si Si1 0.099864 0.649172 0.839574
Si Si2 0.858141 0.361002 0.836939
Si Si3 0.558138 0.064752 0.638022
Si Si4 0.725004 0.642401 0.211691
Si Si5 0.219342 0.993734 0.589245
Si Si6 0.415791 0.577924 0.739210
O O1 0.204672 0.665308 0.670664
O O2 0.214147 0.572255 0.086926
O O3 0.962502 0.841030 0.638344
O O4 0.000000 0.500000 0.000000
O O5 0.751650 0.497120 0.534989
O O6 0.068235 0.362218 0.828124
O O7 0.822120 0.160941 0.100617
O O8 0.689841 0.075472 0.481219
O O9 0.535748 0.230042 0.537655
O O10 0.365074 0.080242 0.548518
O O11 0.632829 0.855980 0.969695
O O12 0.603049 0.575463 0.177445
O O13 0.500000 0.500000 0.000000
#
# Coordination Sequence:
#
# PCOD9057026 Si02
#       6
#     2   2   2   2   2   2
#     4  12  21  40  68  98 125 172 230 263 313 396
#     4  11  23  43  66  96 133 170 216 273 328 385
#     4  11  22  42  67  96 134 170 218 271 320 387
#     4  11  25  45  65  99 136 169 212 275 340 374
#     4  11  22  41  68  96 128 175 220 268 321 385
#     4  12  24  42  69  99 130 171 223 270 319 392
#
# _framework density 23.713660999999998
#
# number of rings (size 3 to 8) (size 9 to 14) (size 15 to 20)
#    0.000    0.667    5.000    4.500    0.000    0.667 
#    3.000    3.333    0.000    0.000    0.000    0.000 
#    0.000    0.000    0.000    0.000    0.000    0.000 
#
# Total GULP energy -67012.045568 kJ/mol
# GULP energy per Si atom -5584.337131 kJ/mol
# Density = 2.365969 g / cm^3
# Si number density = 23.713661 Si / 1000 Ang^3
#
#
#
# Elastic Constant Matrix: (Units=GPa)
#
#
# Indices 1 2 3 4 5 6 
#
# 1 68.8373 17.6216 21.5190 -0.9087 -10.9491 12.9046
# 2 17.6216 72.1828 49.6656 -33.6247 -5.1657 22.1251
# 3 21.5190 49.6656 180.1502 -15.1225 -8.7482 9.9640
# 4 -0.9087 -33.6247 -15.1225 43.6369 3.7677 -4.2339
# 5 -10.9491 -5.1657 -8.7482 3.7677 38.3039 -3.5578
# 6 12.9046 22.1251 9.9640 -4.2339 -3.5578 44.7268
#
#
#
# Elastic Compliance Matrix: (Units=1/GPa)
#
#
# Indices 1 2 3 4 5 6 
#
# 1 0.016991 -0.004249 -0.000828 -0.003829 0.004226 -0.002642
# 2 -0.004249 0.032898 -0.006127 0.022127 -0.001441 -0.011703
# 3 -0.000828 -0.006127 0.007113 -0.002203 0.000922 0.001550
# 4 -0.003829 0.022127 -0.002203 0.038807 -0.002980 -0.005914
# 5 0.004226 -0.001441 0.000922 -0.002980 0.027737 0.001212
# 6 -0.002642 -0.011703 0.001550 -0.005914 0.001212 0.028101
#
#
# Mechanical properties :
#
#
# Convention : Reuss Voigt Hill
#
# Bulk Modulus (GPa) = 28.90804 55.42030 42.16417
# Shear Modulus (GPa) = 26.94148 40.82444 33.88296
#
# Velocity S-wave (km/s) = 3.37429 4.15367 3.78410
# Velocity P-wave (km/s) = 5.23431 6.81361 6.07550
#
# Compressibility (1/GPa) = 0.03459245
#
# Stress axis : x y z
#
# Youngs Moduli (GPa) = 58.85628 30.39654 140.58292
#
# Poissons Ratio (x) = 0.12917 0.11641
# Poissons Ratio (y) = 0.25010 0.86141
# Poissons Ratio (z) = 0.04874 0.18625
#
# Static dielectric constant tensor:
#      x y z
#    x 2.117310 -0.018280 0.021530 
#    y -0.018280 1.910390 -0.018160 
#    z 0.021530 -0.018160 1.898490 
# 
# From -- ./inp_files/198829.got.cif
#   From: 2010.05.17/outbox.cif.g08.bks.cpg/sg2_100_cif.got.tgz:198829.got - 2010.06.03 11:33:40.
