data_PCOD9057789
_publ_section_title
;
Structure prediction by ZEFSAII (Michael W. Deem and Ramdas Pophale) SiO2 
 PCOD9057789
Probable space group: P -1
;
_chemical_formula_sum "Si O2"
_cell_formula_units_Z 16
_cell_length_a 12.929108
_cell_length_b 9.250600
_cell_length_c 8.476704
_cell_angle_alpha 90.317211
_cell_angle_beta 133.188125
_cell_angle_gamma 109.515875
_cell_volume 655.030745
_symmetry_space_group_name_H-M "P -1"
_symmetry_group_IT_number 2
_symmetry_cell_setting 'triclinic'
loop_
_space_group_symop_operation_xyz
x,y,z
-x,-y,-z
loop_
_atom_site_type_symbol
_atom_site_label
_atom_site_fract_x
_atom_site_fract_y
_atom_site_fract_z
Si Si1 0.759466 0.946456 0.976799
Si Si2 0.833727 0.705221 0.228398
Si Si3 0.845112 0.214701 0.584186
Si Si4 0.492863 0.342445 0.415004
Si Si5 0.500833 0.053333 0.823678
Si Si6 0.713856 0.377613 0.912935
Si Si7 0.025083 0.719115 0.924584
Si Si8 0.740392 0.488477 0.438834
O O1 0.680038 0.809661 0.758952
O O2 0.622479 0.001345 0.862796
O O3 0.916951 0.102319 0.086585
O O4 0.786896 0.848288 0.147259
O O5 0.777411 0.609863 0.332951
O O6 0.024871 0.786364 0.401363
O O7 0.759818 0.558702 0.020014
O O8 0.680376 0.047523 0.426008
O O9 0.927154 0.262820 0.842498
O O10 0.799726 0.352880 0.475168
O O11 0.500000 0.500000 0.500000
O O12 0.621958 0.314659 0.650548
O O13 0.558389 0.388327 0.305991
O O14 0.585420 0.248042 0.898036
O O15 0.500000 0.000000 0.000000
O O16 0.872755 0.356191 0.061465
O O17 0.842754 0.599677 0.693434
#
# Coordination Sequence:
#
# PCOD9057789 Si02
#       8
#     2   2   2   2   2   2   2   2
#     4  11  26  46  67 103 143 179 229 290 346 404
#     4  12  27  43  69 103 146 180 228 284 348 414
#     4  12  23  45  73 102 134 184 236 280 340 413
#     4  12  24  44  71 101 136 180 234 287 345 401
#     4  11  25  44  73 102 138 180 234 283 348 410
#     4  11  22  43  71 100 131 186 233 284 340 408
#     4  11  24  44  72  97 136 180 239 284 333 409
#     4  12  25  43  69 101 138 185 233 282 340 413
#
# _framework density 24.426333
#
# number of rings (size 3 to 8) (size 9 to 14) (size 15 to 20)
#    0.000    0.500    5.000    3.000    3.500    4.500 
#    2.250    0.000    0.000    0.000    0.000    0.000 
#    0.000    0.000    0.000    0.000    0.000    0.000 
#
# Total GULP energy -89609.370064 kJ/mol
# GULP energy per Si atom -5600.585629 kJ/mol
# Density = 2.437074 g / cm^3
# Si number density = 24.426333 Si / 1000 Ang^3
#
#
#
# Elastic Constant Matrix: (Units=GPa)
#
#
# Indices 1 2 3 4 5 6 
#
# 1 48.0211 6.3594 8.4718 -4.1884 9.1471 21.9842
# 2 6.3594 113.8105 17.7066 -2.8676 16.5694 23.6714
# 3 8.4718 17.7066 59.2223 -0.0131 -0.5499 10.3263
# 4 -4.1884 -2.8676 -0.0131 43.2197 9.4399 -4.8589
# 5 9.1471 16.5694 -0.5499 9.4399 34.6577 -1.2721
# 6 21.9842 23.6714 10.3263 -4.8589 -1.2721 41.4575
#
#
#
# Elastic Compliance Matrix: (Units=1/GPa)
#
#
# Indices 1 2 3 4 5 6 
#
# 1 0.032007 0.004441 -0.002754 0.003996 -0.012391 -0.018735
# 2 0.004441 0.011913 -0.002792 0.001962 -0.007757 -0.008470
# 3 -0.002754 -0.002792 0.018416 -0.001198 0.002622 -0.001593
# 4 0.003996 0.001962 -0.001198 0.025594 -0.008991 -0.000217
# 5 -0.012391 -0.007757 0.002622 -0.008991 0.038708 0.010481
# 6 -0.018735 -0.008470 -0.001593 -0.000217 0.010481 0.039585
#
#
# Mechanical properties :
#
#
# Convention : Reuss Voigt Hill
#
# Bulk Modulus (GPa) = 16.63144 31.79217 24.21180
# Shear Modulus (GPa) = 26.52871 36.43471 31.48171
#
# Velocity S-wave (km/s) = 3.29913 3.86633 3.59394
# Velocity P-wave (km/s) = 4.61909 5.74240 5.21110
#
# Compressibility (1/GPa) = 0.06012708
#
# Stress axis : x y z
#
# Youngs Moduli (GPa) = 31.24279 83.94044 54.30059
#
# Poissons Ratio (x) = -0.37280 0.14955
# Poissons Ratio (y) = -0.13876 0.15160
# Poissons Ratio (z) = 0.08604 0.23436
#
# Static dielectric constant tensor:
#      x y z
#    x 1.919650 -0.021150 -0.003780 
#    y -0.021150 1.949560 -0.033400 
#    z -0.003780 -0.033400 2.021450 
# 
# From -- ./inp_files/261486.got.cif
#   From: 2010.05.17/outbox.cif.g08.bks.cpg/sg2_131_cif.got.tgz:261486.got - 2010.06.03 11:33:40.
