data_PCOD9057796
_publ_section_title
;
Structure prediction by ZEFSAII (Michael W. Deem and Ramdas Pophale) SiO2 
 PCOD9057796
Probable space group: P -1
;
_chemical_formula_sum "Si O2"
_cell_formula_units_Z 16
_cell_length_a 18.149813
_cell_length_b 12.135125
_cell_length_c 8.912370
_cell_angle_alpha 80.019935
_cell_angle_beta 142.411060
_cell_angle_gamma 129.477038
_cell_volume 658.312234
_symmetry_space_group_name_H-M "P -1"
_symmetry_group_IT_number 2
_symmetry_cell_setting 'triclinic'
loop_
_space_group_symop_operation_xyz
x,y,z
-x,-y,-z
loop_
_atom_site_type_symbol
_atom_site_label
_atom_site_fract_x
_atom_site_fract_y
_atom_site_fract_z
Si Si1 0.788849 0.447676 0.256519
Si Si2 0.221162 0.627809 0.402019
Si Si3 0.597359 0.004190 0.359287
Si Si4 0.647941 0.467838 0.580518
Si Si5 0.899446 0.941556 0.513668
Si Si6 0.562674 0.639887 0.255806
Si Si7 0.936131 0.222191 0.605522
Si Si8 0.252633 0.087281 0.240589
O O1 0.829782 0.436072 0.491860
O O2 0.988882 0.629353 0.430062
O O3 0.664869 0.472026 0.071839
O O4 0.622465 0.234351 0.957713
O O5 0.397592 0.863146 0.619065
O O6 0.308943 0.587552 0.467538
O O7 0.000000 0.500000 0.000000
O O8 0.724926 0.095559 0.385880
O O9 0.741520 0.041450 0.699207
O O10 0.579493 0.534377 0.388263
O O11 0.458030 0.281288 0.427604
O O12 0.865731 0.640903 0.990058
O O13 0.660361 0.717794 0.228038
O O14 0.000000 0.000000 0.500000
O O15 0.901715 0.075693 0.510824
O O16 0.047876 0.983896 0.856250
O O17 0.716286 0.837997 0.560781
#
# Coordination Sequence:
#
# PCOD9057796 Si02
#       8
#     2   2   2   2   2   2   2   2
#     4  11  26  47  76 110 138 192 245 299 363 430
#     4  12  29  47  72 108 146 194 248 301 354 422
#     4  11  24  49  75 100 145 196 247 296 355 421
#     4  12  24  43  73 107 143 189 237 294 360 434
#     4  12  26  38  68 115 146 185 233 300 368 434
#     4  11  22  44  72 104 144 184 229 297 368 432
#     4  12  22  46  75 105 146 189 243 289 368 437
#     4  11  22  43  71 102 138 192 236 287 364 434
#
# _framework density 24.304575
#
# number of rings (size 3 to 8) (size 9 to 14) (size 15 to 20)
#    0.000    0.500    7.500    2.625    3.500    1.500 
#    0.000    0.000    0.000    0.000    0.000    0.000 
#    0.000    0.000    0.000    0.000    0.000    0.000 
#
# Total GULP energy -89753.562197 kJ/mol
# GULP energy per Si atom -5609.597637 kJ/mol
# Density = 2.424926 g / cm^3
# Si number density = 24.304575 Si / 1000 Ang^3
#
#
#
# Elastic Constant Matrix: (Units=GPa)
#
#
# Indices 1 2 3 4 5 6 
#
# 1 83.5870 38.1800 4.3487 6.7788 6.9536 -1.8767
# 2 38.1800 172.7808 20.0650 0.1739 1.2446 0.4146
# 3 4.3487 20.0650 59.6300 -13.3150 9.3964 -4.1685
# 4 6.7788 0.1739 -13.3150 46.0250 8.6576 9.6382
# 5 6.9536 1.2446 9.3964 8.6576 31.0627 1.6904
# 6 -1.8767 0.4146 -4.1685 9.6382 1.6904 48.7447
#
#
#
# Elastic Compliance Matrix: (Units=1/GPa)
#
#
# Indices 1 2 3 4 5 6 
#
# 1 0.013713 -0.003025 0.000111 -0.001701 -0.002562 0.000988
# 2 -0.003025 0.006722 -0.002359 -0.000429 0.001259 -0.000334
# 3 0.000111 -0.002359 0.020537 0.007353 -0.008225 0.000612
# 4 -0.001701 -0.000429 0.007353 0.026729 -0.009036 -0.004405
# 5 -0.002562 0.001259 -0.008225 -0.009036 0.037741 -0.000335
# 6 0.000988 -0.000334 0.000612 -0.004405 -0.000335 0.021491
#
#
# Mechanical properties :
#
#
# Convention : Reuss Voigt Hill
#
# Bulk Modulus (GPa) = 32.86796 49.02057 40.94426
# Shear Modulus (GPa) = 33.87055 42.06009 37.96532
#
# Velocity S-wave (km/s) = 3.73713 4.16449 3.95658
# Velocity P-wave (km/s) = 5.67223 6.58309 6.14456
#
# Compressibility (1/GPa) = 0.03042476
#
# Stress axis : x y z
#
# Youngs Moduli (GPa) = 72.92383 148.75878 48.69369
#
# Poissons Ratio (x) = 0.45003 -0.00539
# Poissons Ratio (y) = 0.22061 0.11487
# Poissons Ratio (z) = -0.00808 0.35092
#
# Static dielectric constant tensor:
#      x y z
#    x 1.919420 -0.021400 -0.010940 
#    y -0.021400 1.912750 0.011230 
#    z -0.010940 0.011230 1.961880 
# 
# From -- ./inp_files/333200.got.cif
#   From: 2010.05.17/outbox.cif.g08.bks.cpg/sg2_167_cif.got.tgz:333200.got - 2010.06.03 11:33:40.
