data_PCOD9057473
_publ_section_title
;
Structure prediction by ZEFSAII (Michael W. Deem and Ramdas Pophale) SiO2 
 PCOD9057473
Probable space group: P -1
;
_chemical_formula_sum "Si O2"
_cell_formula_units_Z 10
_cell_length_a 4.815360
_cell_length_b 15.024069
_cell_length_c 20.070165
_cell_angle_alpha 15.437294
_cell_angle_beta 82.980905
_cell_angle_gamma 86.369794
_cell_volume 375.359156
_symmetry_space_group_name_H-M "P -1"
_symmetry_group_IT_number 2
_symmetry_cell_setting 'triclinic'
loop_
_space_group_symop_operation_xyz
x,y,z
-x,-y,-z
loop_
_atom_site_type_symbol
_atom_site_label
_atom_site_fract_x
_atom_site_fract_y
_atom_site_fract_z
Si Si1 0.047071 0.561915 0.838624
Si Si2 0.491159 0.536399 0.635900
Si Si3 0.481232 0.682777 0.061198
Si Si4 0.761087 0.822014 0.769499
Si Si5 0.910938 0.390873 0.506778
O O1 0.947593 0.860385 0.668623
O O2 0.500000 0.500000 0.000000
O O3 0.356047 0.603141 0.766799
O O4 0.056560 0.292616 0.093250
O O5 0.798118 0.626650 0.527180
O O6 0.259126 0.382158 0.697593
O O7 0.366539 0.855843 0.438130
O O8 0.525415 0.326714 0.852490
O O9 0.179222 0.610071 0.085823
O O10 0.675982 0.040623 0.775218
O O11 0.000000 0.500000 0.500000
#
# Coordination Sequence:
#
# PCOD9057473 Si02
#       5
#     2   2   2   2   2
#     4  11  23  41  69 104 148 191 221 289 343 414
#     4  12  28  45  75 107 138 189 238 290 356 420
#     4  12  25  47  71 106 146 183 239 288 351 425
#     4  11  22  42  71 103 147 189 238 276 346 424
#     4  12  27  49  75 103 140 184 235 305 363 408
#
# _framework density 26.64115
#
# number of rings (size 3 to 8) (size 9 to 14) (size 15 to 20)
#    0.000    0.400    4.000    4.200    2.800    3.200 
#    0.000    0.000    0.000    0.000    0.000    0.000 
#    0.000    0.000    0.000    0.000    0.000    0.000 
#
# Total GULP energy -56086.496779 kJ/mol
# GULP energy per Si atom -5608.649678 kJ/mol
# Density = 2.658051 g / cm^3
# Si number density = 26.641150 Si / 1000 Ang^3
#
#
#
# Elastic Constant Matrix: (Units=GPa)
#
#
# Indices 1 2 3 4 5 6 
#
# 1 173.5698 39.5944 31.1885 28.0953 27.5350 14.9556
# 2 39.5944 137.8732 49.0589 56.2486 6.0225 5.1116
# 3 31.1885 49.0589 71.8519 32.2731 11.2615 3.5700
# 4 28.0953 56.2486 32.2731 57.9285 8.7266 9.2401
# 5 27.5350 6.0225 11.2615 8.7266 38.7942 14.0740
# 6 14.9556 5.1116 3.5700 9.2401 14.0740 64.5697
#
#
#
# Elastic Compliance Matrix: (Units=1/GPa)
#
#
# Indices 1 2 3 4 5 6 
#
# 1 0.007070 -0.000918 -0.001264 -0.001148 -0.004092 -0.000439
# 2 -0.000918 0.013138 -0.004283 -0.010300 0.002010 0.000445
# 3 -0.001264 -0.004283 0.020778 -0.006471 -0.003434 0.001158
# 4 -0.001148 -0.010300 -0.006471 0.032156 -0.001948 -0.002738
# 5 -0.004092 0.002010 -0.003434 -0.001948 0.031868 -0.005689
# 6 -0.000439 0.000445 0.001158 -0.002738 -0.005689 0.017121
#
#
# Mechanical properties :
#
#
# Convention : Reuss Voigt Hill
#
# Bulk Modulus (GPa) = 35.64131 69.21983 52.43057
# Shear Modulus (GPa) = 34.62268 49.82201 42.22235
#
# Velocity S-wave (km/s) = 3.60890 4.32917 3.98534
# Velocity P-wave (km/s) = 5.54733 7.14337 6.39533
#
# Compressibility (1/GPa) = 0.02805733
#
# Stress axis : x y z
#
# Youngs Moduli (GPa) = 141.43280 76.11260 48.12811
#
# Poissons Ratio (x) = 0.06983 0.06084
# Poissons Ratio (y) = 0.12977 0.20614
# Poissons Ratio (z) = 0.17877 0.32601
#
# Static dielectric constant tensor:
#      x y z
#    x 2.016460 0.001330 0.076340 
#    y 0.001330 2.139000 -0.030080 
#    z 0.076340 -0.030080 2.224780 
# 
# From -- ./inp_files/2444.got.cif
#   From: 2010.05.17/outbox.cif.g08.bks.cpg/sg2_2_cif.got.tgz:2444.got - 2010.06.03 11:33:40.
