data_PCOD9057522
_publ_section_title
;
Structure prediction by ZEFSAII (Michael W. Deem and Ramdas Pophale) SiO2 
 PCOD9057522
Probable space group: P -1
;
_chemical_formula_sum "Si O2"
_cell_formula_units_Z 12
_cell_length_a 7.391752
_cell_length_b 9.870019
_cell_length_c 12.949296
_cell_angle_alpha 39.143988
_cell_angle_beta 59.751326
_cell_angle_gamma 70.980275
_cell_volume 511.536528
_symmetry_space_group_name_H-M "P -1"
_symmetry_group_IT_number 2
_symmetry_cell_setting 'triclinic'
loop_
_space_group_symop_operation_xyz
x,y,z
-x,-y,-z
loop_
_atom_site_type_symbol
_atom_site_label
_atom_site_fract_x
_atom_site_fract_y
_atom_site_fract_z
Si Si1 0.352734 0.867284 0.244560
Si Si2 0.386211 0.491619 0.715187
Si Si3 0.547656 0.599928 0.815258
Si Si4 0.025378 0.921518 0.155635
Si Si5 0.017316 0.540946 0.646772
Si Si6 0.419111 0.022705 0.685461
O O1 0.497462 0.732100 0.512968
O O2 0.480695 0.676549 0.280241
O O3 0.249079 0.982229 0.111236
O O4 0.151078 0.749145 0.435026
O O5 0.399727 0.480833 0.840376
O O6 0.154238 0.475319 0.743513
O O7 0.785791 0.581203 0.723129
O O8 0.507564 0.848443 0.690883
O O9 0.500000 0.500000 0.000000
O O10 0.996765 0.661125 0.307665
O O11 0.502027 0.994451 0.795965
O O12 0.833020 0.000247 0.226979
O O13 0.000000 0.000000 0.000000
#
# Coordination Sequence:
#
# PCOD9057522 Si02
#       6
#     2   2   2   2   2   2
#     4  11  22  42  72  95 122 165 220 272 306 365
#     4  11  22  43  71  92 125 170 215 268 310 369
#     4  12  27  42  61  95 140 170 201 261 327 378
#     4  12  23  37  65  96 127 169 209 256 319 379
#     4  11  22  43  69  92 125 169 217 258 318 373
#     4  11  24  42  64 100 125 162 224 260 309 381
#
# _framework density 23.458735000000001
#
# number of rings (size 3 to 8) (size 9 to 14) (size 15 to 20)
#    0.000    0.667    5.000    4.000    0.000    6.667 
#    0.000    0.000    0.000    0.000    0.000    0.000 
#    0.000    0.000    0.000    0.000    0.000    0.000 
#
# Total GULP energy -67279.149396 kJ/mol
# GULP energy per Si atom -5606.595783 kJ/mol
# Density = 2.340534 g / cm^3
# Si number density = 23.458735 Si / 1000 Ang^3
#
#
#
# Elastic Constant Matrix: (Units=GPa)
#
#
# Indices 1 2 3 4 5 6 
#
# 1 162.3645 76.8408 9.2361 11.8318 15.6338 -11.3973
# 2 76.8408 112.8565 3.5521 10.8897 1.1362 -1.1816
# 3 9.2361 3.5521 67.1976 -0.3627 12.0864 -5.9270
# 4 11.8318 10.8897 -0.3627 26.8625 9.9794 4.8122
# 5 15.6338 1.1362 12.0864 9.9794 39.6791 10.5390
# 6 -11.3973 -1.1816 -5.9270 4.8122 10.5390 41.9146
#
#
#
# Elastic Compliance Matrix: (Units=1/GPa)
#
#
# Indices 1 2 3 4 5 6 
#
# 1 0.010106 -0.006734 0.000144 -0.000666 -0.004683 0.003833
# 2 -0.006734 0.013766 -0.000725 -0.003723 0.003979 -0.002119
# 3 0.000144 -0.000725 0.016429 0.002232 -0.006596 0.003744
# 4 -0.000666 -0.003723 0.002232 0.043415 -0.010623 -0.002284
# 5 -0.004683 0.003979 -0.006596 -0.010623 0.034126 -0.009455
# 6 0.003833 -0.002119 0.003744 -0.002284 -0.009455 0.028009
#
#
# Mechanical properties :
#
#
# Convention : Reuss Voigt Hill
#
# Bulk Modulus (GPa) = 38.95522 57.96408 48.45965
# Shear Modulus (GPa) = 29.57921 38.54387 34.06154
#
# Velocity S-wave (km/s) = 3.55477 4.05785 3.81462
# Velocity P-wave (km/s) = 5.78709 6.83502 6.33277
#
# Compressibility (1/GPa) = 0.02567050
#
# Stress axis : x y z
#
# Youngs Moduli (GPa) = 98.94814 72.64480 60.86916
#
# Poissons Ratio (x) = 0.48919 -0.00875
# Poissons Ratio (y) = 0.66632 0.04411
# Poissons Ratio (z) = -0.01422 0.05264
#
# Static dielectric constant tensor:
#      x y z
#    x 1.877110 0.020530 0.074480 
#    y 0.020530 1.815830 -0.029710 
#    z 0.074480 -0.029710 1.958220 
# 
# From -- ./inp_files/359725.got.cif
#   From: 2010.05.17/outbox.cif.g08.bks.cpg/sg2_180_cif.got.tgz:359725.got - 2010.06.03 11:33:40.
