data_PCOD9057582
_publ_section_title
;
Structure prediction by ZEFSAII (Michael W. Deem and Ramdas Pophale) SiO2 
 PCOD9057582
Probable space group: P -1
;
_chemical_formula_sum "Si O2"
_cell_formula_units_Z 14
_cell_length_a 11.963181
_cell_length_b 18.640973
_cell_length_c 18.745521
_cell_angle_alpha 160.662190
_cell_angle_beta 151.212335
_cell_angle_gamma 27.585850
_cell_volume 618.721408
_symmetry_space_group_name_H-M "P -1"
_symmetry_group_IT_number 2
_symmetry_cell_setting 'triclinic'
loop_
_space_group_symop_operation_xyz
x,y,z
-x,-y,-z
loop_
_atom_site_type_symbol
_atom_site_label
_atom_site_fract_x
_atom_site_fract_y
_atom_site_fract_z
Si Si1 0.937590 0.901611 0.152412
Si Si2 0.584510 0.714341 0.741664
Si Si3 0.781564 0.542971 0.544805
Si Si4 0.238523 0.093509 0.400298
Si Si5 0.018300 0.830728 0.284663
Si Si6 0.753233 0.943523 0.797713
Si Si7 0.417241 0.328533 0.074165
O O1 0.056009 0.921847 0.313504
O O2 0.657806 0.093491 0.177753
O O3 0.857156 0.677938 0.892045
O O4 0.087498 0.944110 0.210120
O O5 0.500000 0.500000 0.500000
O O6 0.632590 0.724628 0.693432
O O7 0.790891 0.699815 0.629552
O O8 0.632403 0.375597 0.283164
O O9 0.051029 0.365985 0.557439
O O10 0.287660 0.061525 0.313759
O O11 0.500000 0.000000 0.500000
O O12 0.240878 0.586014 0.192478
O O13 0.000000 0.000000 0.500000
O O14 0.764578 0.777313 0.087624
O O15 0.535314 0.152740 0.910823
O O16 0.000000 0.000000 0.000000
#
# Coordination Sequence:
#
# PCOD9057582 Si02
#       7
#     2   2   2   2   2   2   2
#     4  11  25  44  69 108 149 181 240 305 374 437
#     4  11  22  42  76 107 139 185 236 307 380 433
#     4  12  25  48  77 103 141 198 252 306 362 446
#     4  12  29  47  71 105 154 199 247 304 370 432
#     4  11  25  45  75 111 145 186 239 312 374 440
#     4  12  26  48  77 103 141 202 257 293 354 449
#     4  11  25  44  76 107 143 185 252 296 372 430
#
# _framework density 22.627306999999998
#
# number of rings (size 3 to 8) (size 9 to 14) (size 15 to 20)
#    0.000    0.571    2.857    4.714    6.000    2.286 
#    0.000    2.143    0.000    0.000    0.000    0.000 
#    0.000    0.000    0.000    0.000    0.000    0.000 
#
# Total GULP energy -78222.584763 kJ/mol
# GULP energy per Si atom -5587.327483 kJ/mol
# Density = 2.257581 g / cm^3
# Si number density = 22.627307 Si / 1000 Ang^3
#
#
#
# Elastic Constant Matrix: (Units=GPa)
#
#
# Indices 1 2 3 4 5 6 
#
# 1 153.5299 52.1285 32.3566 -14.4266 -0.2217 15.6040
# 2 52.1285 131.3256 36.3578 -5.4946 7.5991 -4.2882
# 3 32.3566 36.3578 74.6969 -16.8952 16.4128 3.2292
# 4 -14.4266 -5.4946 -16.8952 28.3365 1.1267 -11.0440
# 5 -0.2217 7.5991 16.4128 1.1267 29.9622 3.4736
# 6 15.6040 -4.2882 3.2292 -11.0440 3.4736 42.9393
#
#
#
# Elastic Compliance Matrix: (Units=1/GPa)
#
#
# Indices 1 2 3 4 5 6 
#
# 1 0.008410 -0.002868 -0.002431 0.000967 0.002445 -0.003109
# 2 -0.002868 0.009848 -0.003688 -0.000890 -0.000712 0.002132
# 3 -0.002431 -0.003688 0.021505 0.012529 -0.011690 0.003066
# 4 0.000967 -0.000890 0.012529 0.048057 -0.009802 0.011771
# 5 0.002445 -0.000712 -0.011690 -0.009802 0.041032 -0.005921
# 6 -0.003109 0.002132 0.003066 0.011771 -0.005921 0.027907
#
#
# Mechanical properties :
#
#
# Convention : Reuss Voigt Hill
#
# Bulk Modulus (GPa) = 45.89486 66.80425 56.34955
# Shear Modulus (GPa) = 27.47303 36.16157 31.81730
#
# Velocity S-wave (km/s) = 3.48825 4.00201 3.75393
# Velocity P-wave (km/s) = 6.04573 7.13741 6.61413
#
# Compressibility (1/GPa) = 0.02178893
#
# Stress axis : x y z
#
# Youngs Moduli (GPa) = 118.90888 101.54822 46.49977
#
# Poissons Ratio (x) = 0.29120 0.11305
# Poissons Ratio (y) = 0.34099 0.17149
# Poissons Ratio (z) = 0.28910 0.37451
#
# Static dielectric constant tensor:
#      x y z
#    x 1.776490 0.081580 0.711950 
#    y 0.081580 1.838190 -0.188460 
#    z 0.711950 -0.188460 -0.766360 
# 
# From -- ./inp_files/473436.got.cif
#   From: 2010.05.17/outbox.cif.g08.bks.cpg/sg2_237_cif.got.tgz:473436.got - 2010.06.03 11:33:40.
