data_PCOD9057181
_publ_section_title
;
Structure prediction by ZEFSAII (Michael W. Deem and Ramdas Pophale) SiO2 
 PCOD9057181
Probable space group: P -1
;
_chemical_formula_sum "Si O2"
_cell_formula_units_Z 14
_cell_length_a 15.329259
_cell_length_b 6.799102
_cell_length_c 11.332293
_cell_angle_alpha 70.256734
_cell_angle_beta 49.645051
_cell_angle_gamma 46.157566
_cell_volume 635.860204
_symmetry_space_group_name_H-M "P -1"
_symmetry_group_IT_number 2
_symmetry_cell_setting 'triclinic'
loop_
_space_group_symop_operation_xyz
x,y,z
-x,-y,-z
loop_
_atom_site_type_symbol
_atom_site_label
_atom_site_fract_x
_atom_site_fract_y
_atom_site_fract_z
Si Si1 0.092056 0.453046 0.269787
Si Si2 0.376519 0.732240 0.901341
Si Si3 0.408145 0.893948 0.098403
Si Si4 0.099514 0.675663 0.458400
Si Si5 0.401330 0.247705 0.404260
Si Si6 0.155094 0.724603 0.973192
Si Si7 0.577747 0.630447 0.383548
O O1 0.070199 0.640700 0.357370
O O2 0.956672 0.449848 0.385475
O O3 0.240582 0.141948 0.241177
O O4 0.126774 0.541616 0.103982
O O5 0.494514 0.396919 0.861893
O O6 0.437960 0.826707 0.737162
O O7 0.216775 0.821837 0.992646
O O8 0.385532 0.831916 0.999300
O O9 0.500000 0.000000 0.000000
O O10 0.277871 0.483876 0.371893
O O11 0.000000 0.000000 0.500000
O O12 0.353347 0.361227 0.556021
O O13 0.443689 0.956687 0.402492
O O14 0.288908 0.540918 0.795851
O O15 0.000000 0.000000 0.000000
O O16 0.500000 0.500000 0.500000
#
# Coordination Sequence:
#
# PCOD9057181 Si02
#       7
#     2   2   2   2   2   2   2
#     4  11  26  45  69 104 147 185 244 297 376 429
#     4  11  24  41  71 109 139 186 243 301 372 431
#     4  11  22  41  72 105 141 177 238 311 365 439
#     4  11  27  45  72 107 145 189 237 311 378 434
#     4  11  25  44  75 101 138 193 249 295 366 436
#     4  12  28  46  73 104 153 199 241 301 365 438
#     4  11  26  48  70 102 145 191 247 296 353 440
#
# _framework density 22.017419
#
# number of rings (size 3 to 8) (size 9 to 14) (size 15 to 20)
#    0.000    0.857    2.857    2.571   10.000    1.143 
#    0.000    2.143    0.000    0.000    0.000    0.000 
#    0.000    0.000    0.000    0.000    0.000    0.000 
#
# Total GULP energy -78328.446755 kJ/mol
# GULP energy per Si atom -5594.889054 kJ/mol
# Density = 2.196731 g / cm^3
# Si number density = 22.017419 Si / 1000 Ang^3
#
#
#
# Elastic Constant Matrix: (Units=GPa)
#
#
# Indices 1 2 3 4 5 6 
#
# 1 81.6844 44.0345 17.2831 0.6082 -8.8593 0.4718
# 2 44.0345 148.1680 33.4268 3.9131 1.4566 13.6580
# 3 17.2831 33.4268 116.5713 -9.5712 -2.7534 15.6619
# 4 0.6082 3.9131 -9.5712 38.7899 7.6683 0.4385
# 5 -8.8593 1.4566 -2.7534 7.6683 32.8679 2.7147
# 6 0.4718 13.6580 15.6619 0.4385 2.7147 35.2513
#
#
#
# Elastic Compliance Matrix: (Units=1/GPa)
#
#
# Indices 1 2 3 4 5 6 
#
# 1 0.015376 -0.004475 -0.001208 -0.000962 0.004322 0.001744
# 2 -0.004475 0.008708 -0.001605 -0.000918 -0.001307 -0.002489
# 3 -0.001208 -0.001605 0.009956 0.002625 0.000284 -0.003840
# 4 -0.000962 -0.000918 0.002625 0.027815 -0.006434 -0.000648
# 5 0.004322 -0.001307 0.000284 -0.006434 0.033352 -0.002166
# 6 0.001744 -0.002489 -0.003840 -0.000648 -0.002166 0.031189
#
#
# Mechanical properties :
#
#
# Convention : Reuss Voigt Hill
#
# Bulk Modulus (GPa) = 51.37779 59.54582 55.46181
# Shear Modulus (GPa) = 33.90772 38.16044 36.03408
#
# Velocity S-wave (km/s) = 3.92859 4.16768 4.04990
# Velocity P-wave (km/s) = 6.63055 7.08964 6.86393
#
# Compressibility (1/GPa) = 0.01946366
#
# Stress axis : x y z
#
# Youngs Moduli (GPa) = 65.03644 114.84105 100.44279
#
# Poissons Ratio (x) = 0.51392 0.12130
# Poissons Ratio (y) = 0.29104 0.16124
# Poissons Ratio (z) = 0.07854 0.18436
#
# Static dielectric constant tensor:
#      x y z
#    x 1.858810 0.017590 0.008490 
#    y 0.017590 1.786690 -0.008540 
#    z 0.008490 -0.008540 1.845840 
# 
# From -- ./inp_files/69144.got.cif
#   From: 2010.05.17/outbox.cif.g08.bks.cpg/sg2_35_cif.got.tgz:69144.got - 2010.06.03 11:33:40.
