data_PCOD9057130
_publ_section_title
;
Structure prediction by ZEFSAII (Michael W. Deem and Ramdas Pophale) SiO2 
 PCOD9057130
Probable space group: P -1
;
_chemical_formula_sum "Si O2"
_cell_formula_units_Z 16
_cell_length_a 9.323276
_cell_length_b 14.833698
_cell_length_c 14.876660
_cell_angle_alpha 141.514081
_cell_angle_beta 38.660090
_cell_angle_gamma 141.885418
_cell_volume 713.664149
_symmetry_space_group_name_H-M "P -1"
_symmetry_group_IT_number 2
_symmetry_cell_setting 'triclinic'
loop_
_space_group_symop_operation_xyz
x,y,z
-x,-y,-z
loop_
_atom_site_type_symbol
_atom_site_label
_atom_site_fract_x
_atom_site_fract_y
_atom_site_fract_z
Si Si1 0.053857 0.918024 0.065293
Si Si2 0.471575 0.955014 0.744243
Si Si3 0.417307 0.310445 0.446292
Si Si4 0.977030 0.645738 0.029813
Si Si5 0.860116 0.567382 0.552159
Si Si6 0.440521 0.263853 0.194946
Si Si7 0.056931 0.694838 0.224682
Si Si8 0.707559 0.091797 0.395174
O O1 0.266128 0.072172 0.135639
O O2 0.956047 0.754866 0.044936
O O3 0.833344 0.976003 0.209749
O O4 0.210331 0.919256 0.899500
O O5 0.678379 0.141335 0.776592
O O6 0.611299 0.868749 0.663248
O O7 0.408617 0.878570 0.616289
O O8 0.674948 0.426716 0.466222
O O9 0.460769 0.340442 0.342860
O O10 0.154257 0.311143 0.605722
O O11 0.280151 0.705825 0.943874
O O12 0.878907 0.456389 0.910238
O O13 0.903651 0.673497 0.187709
O O14 0.678685 0.646381 0.740990
O O15 0.000000 0.500000 0.500000
O O16 0.084900 0.734645 0.532657
O O17 0.500000 0.000000 0.500000
#
# Coordination Sequence:
#
# PCOD9057130 Si02
#       8
#     2   2   2   2   2   2   2   2
#     4  11  24  45  70  94 139 185 234 273 350 425
#     4  12  24  45  69 100 139 186 230 280 353 412
#     4  12  24  41  74 105 136 179 239 284 343 407
#     4  11  22  42  65  99 136 179 220 289 346 400
#     4  11  24  45  70  99 139 182 230 277 344 419
#     4  11  22  41  71 102 132 181 229 284 338 412
#     4  11  26  39  66 107 141 166 229 297 341 397
#     4  11  28  46  69  99 139 184 230 290 344 414
#
# _framework density 22.419509000000001
#
# number of rings (size 3 to 8) (size 9 to 14) (size 15 to 20)
#    0.000    0.750    5.000    2.250    5.250    0.000 
#    0.000    0.625    0.000    0.000    0.000    0.000 
#    0.000    0.000    0.000    0.000    0.000    0.000 
#
# Total GULP energy -89360.179642 kJ/mol
# GULP energy per Si atom -5585.011228 kJ/mol
# Density = 2.236848 g / cm^3
# Si number density = 22.419509 Si / 1000 Ang^3
#
#
#
# Elastic Constant Matrix: (Units=GPa)
#
#
# Indices 1 2 3 4 5 6 
#
# 1 71.4952 16.5046 9.0752 4.8136 -0.2341 -18.5168
# 2 16.5046 117.5863 8.7538 15.9521 -1.2170 -12.9272
# 3 9.0752 8.7538 67.7263 -11.6789 12.2501 -11.3068
# 4 4.8136 15.9521 -11.6789 38.5402 -8.3920 0.5326
# 5 -0.2341 -1.2170 12.2501 -8.3920 35.6975 9.7556
# 6 -18.5168 -12.9272 -11.3068 0.5326 9.7556 33.2522
#
#
#
# Elastic Compliance Matrix: (Units=1/GPa)
#
#
# Indices 1 2 3 4 5 6 
#
# 1 0.016993 -0.000934 -0.000395 -0.002673 -0.003126 0.009925
# 2 -0.000934 0.009688 -0.001133 -0.004557 -0.001261 0.003304
# 3 -0.000395 -0.001133 0.018338 0.004356 -0.007409 0.007679
# 4 -0.002673 -0.004557 0.004356 0.031025 0.006792 -0.004269
# 5 -0.003126 -0.001261 -0.007409 0.006792 0.036329 -0.015517
# 6 0.009925 0.003304 0.007679 -0.004269 -0.015517 0.044116
#
#
# Mechanical properties :
#
#
# Convention : Reuss Voigt Hill
#
# Bulk Modulus (GPa) = 24.94121 36.16390 30.55255
# Shear Modulus (GPa) = 28.60749 36.32960 32.46855
#
# Velocity S-wave (km/s) = 3.57600 4.02984 3.80969
# Velocity P-wave (km/s) = 5.31030 6.14967 5.74533
#
# Compressibility (1/GPa) = 0.04009429
#
# Stress axis : x y z
#
# Youngs Moduli (GPa) = 58.84765 103.21753 54.53203
#
# Poissons Ratio (x) = 0.09644 0.02153
# Poissons Ratio (y) = 0.05498 0.06180
# Poissons Ratio (z) = 0.02324 0.11697
#
# Static dielectric constant tensor:
#      x y z
#    x 1.850200 0.026170 0.013330 
#    y 0.026170 1.893320 0.062950 
#    z 0.013330 0.062950 1.878590 
# 
# From -- ./inp_files/206259.got.cif
#   From: 2010.05.17/outbox.cif.g08.bks.cpg/sg2_104_cif.got.tgz:206259.got - 2010.06.03 11:33:40.
