data_PCOD9057982
_publ_section_title
;
Structure prediction by ZEFSAII (Michael W. Deem and Ramdas Pophale) SiO2 
 PCOD9057982
Probable space group: P -1
;
_chemical_formula_sum "Si O2"
_cell_formula_units_Z 16
_cell_length_a 8.816788
_cell_length_b 9.471062
_cell_length_c 18.140583
_cell_angle_alpha 84.787361
_cell_angle_beta 150.723467
_cell_angle_gamma 96.754313
_cell_volume 735.427762
_symmetry_space_group_name_H-M "P -1"
_symmetry_group_IT_number 2
_symmetry_cell_setting 'triclinic'
loop_
_space_group_symop_operation_xyz
x,y,z
-x,-y,-z
loop_
_atom_site_type_symbol
_atom_site_label
_atom_site_fract_x
_atom_site_fract_y
_atom_site_fract_z
Si Si1 0.603741 0.935701 0.371194
Si Si2 0.410324 0.513059 0.592515
Si Si3 0.541957 0.836186 0.591923
Si Si4 0.253930 0.848498 0.698143
Si Si5 0.238672 0.884623 0.865721
Si Si6 0.542914 0.627590 0.069163
Si Si7 0.238110 0.732612 0.317924
Si Si8 0.670896 0.473210 0.274928
O O1 0.304129 0.833776 0.270687
O O2 0.903358 0.845634 0.515345
O O3 0.654243 0.066192 0.444659
O O4 0.584281 0.014068 0.281372
O O5 0.531091 0.677035 0.626429
O O6 0.606459 0.412572 0.630262
O O7 0.415918 0.475851 0.683232
O O8 0.043661 0.499511 0.417736
O O9 0.421519 0.811960 0.459257
O O10 0.886838 0.911747 0.733431
O O11 0.254971 0.867316 0.785314
O O12 0.391661 0.697853 0.747727
O O13 0.301916 0.739478 0.940570
O O14 0.500000 0.000000 0.000000
O O15 0.514333 0.560713 0.141142
O O16 0.886702 0.701954 0.196126
O O17 0.500000 0.500000 0.000000
#
# Coordination Sequence:
#
# PCOD9057982 Si02
#       8
#     2   2   2   2   2   2   2   2
#     4  11  24  41  72 100 133 177 227 281 334 391
#     4  11  23  39  71 101 133 172 228 285 327 385
#     4  12  23  44  69 102 134 174 232 279 324 402
#     4  11  23  44  67 100 141 175 219 282 341 393
#     4  12  27  45  67 100 139 180 221 275 344 403
#     4  12  26  44  70  97 140 182 217 274 344 401
#     4  12  24  42  68 106 130 174 235 276 321 398
#     4  11  22  44  67 104 138 174 223 278 342 391
#
# _framework density 21.756045
#
# number of rings (size 3 to 8) (size 9 to 14) (size 15 to 20)
#    0.000    0.500    6.250    2.250    1.750    1.000 
#    0.000    7.500    0.000    0.000    0.000    0.000 
#    0.000    0.000    0.000    0.000    0.000    0.000 
#
# Total GULP energy -89527.181613 kJ/mol
# GULP energy per Si atom -5595.448851 kJ/mol
# Density = 2.170653 g / cm^3
# Si number density = 21.756045 Si / 1000 Ang^3
#
#
#
# Elastic Constant Matrix: (Units=GPa)
#
#
# Indices 1 2 3 4 5 6 
#
# 1 59.9796 8.6641 24.5889 -30.3002 -18.3620 13.1074
# 2 8.6641 89.5578 16.6800 -20.7812 -8.0941 12.4325
# 3 24.5889 16.6800 71.2002 -8.1125 -13.4323 14.4439
# 4 -30.3002 -20.7812 -8.1125 34.2331 14.7350 -0.0119
# 5 -18.3620 -8.0941 -13.4323 14.7350 38.7029 -6.4169
# 6 13.1074 12.4325 14.4439 -0.0119 -6.4169 45.5422
#
#
#
# Elastic Compliance Matrix: (Units=1/GPa)
#
#
# Indices 1 2 3 4 5 6 
#
# 1 0.042414 0.008629 -0.009540 0.039837 0.001576 -0.011305
# 2 0.008629 0.015607 -0.003811 0.016764 -0.001295 -0.005713
# 3 -0.009540 -0.003811 0.018344 -0.008077 0.003872 -0.001489
# 4 0.039837 0.016764 -0.008077 0.078193 -0.012695 -0.015248
# 5 0.001576 -0.001295 0.003872 -0.012695 0.033043 0.003324
# 6 -0.011305 -0.005713 -0.001489 -0.015248 0.003324 0.027707
#
#
# Mechanical properties :
#
#
# Convention : Reuss Voigt Hill
#
# Bulk Modulus (GPa) = 14.94289 35.62264 25.28277
# Shear Modulus (GPa) = 20.23796 35.08259 27.66027
#
# Velocity S-wave (km/s) = 3.05326 4.02001 3.56951
# Velocity P-wave (km/s) = 4.39468 6.16088 5.35115
#
# Compressibility (1/GPa) = 0.06692144
#
# Stress axis : x y z
#
# Youngs Moduli (GPa) = 23.57711 64.07327 54.51242
#
# Poissons Ratio (x) = -0.55289 0.52003
# Poissons Ratio (y) = -0.20345 0.20777
# Poissons Ratio (z) = 0.22492 0.24421
#
# Static dielectric constant tensor:
#      x y z
#    x 1.808590 0.053050 -0.006240 
#    y 0.053050 1.815860 -0.008930 
#    z -0.006240 -0.008930 1.773570 
# 
# From -- ./inp_files/186715.got.cif
#   From: 2010.05.17/outbox.cif.g08.bks.cpg/sg2_94_cif.got.tgz:186715.got - 2010.06.03 11:33:40.
