data_PCOD9057351
_publ_section_title
;
Structure prediction by ZEFSAII (Michael W. Deem and Ramdas Pophale) SiO2 
 PCOD9057351
Probable space group: P -1
;
_chemical_formula_sum "Si O2"
_cell_formula_units_Z 16
_cell_length_a 11.709303
_cell_length_b 12.295341
_cell_length_c 15.126504
_cell_angle_alpha 150.562894
_cell_angle_beta 130.430325
_cell_angle_gamma 41.428079
_cell_volume 708.128409
_symmetry_space_group_name_H-M "P -1"
_symmetry_group_IT_number 2
_symmetry_cell_setting 'triclinic'
loop_
_space_group_symop_operation_xyz
x,y,z
-x,-y,-z
loop_
_atom_site_type_symbol
_atom_site_label
_atom_site_fract_x
_atom_site_fract_y
_atom_site_fract_z
Si Si1 0.609392 0.867244 0.601395
Si Si2 0.177430 0.318424 0.015061
Si Si3 0.673901 0.767535 0.151083
Si Si4 0.711985 0.281610 0.910632
Si Si5 0.287263 0.511743 0.749238
Si Si6 0.113243 0.036224 0.934029
Si Si7 0.937884 0.535908 0.645892
Si Si8 0.029981 0.736015 0.366052
O O1 0.571459 0.727590 0.403991
O O2 0.788515 0.651876 0.581212
O O3 0.470040 0.994927 0.699369
O O4 0.634161 0.095955 0.739410
O O5 0.321400 0.199162 0.927804
O O6 0.165034 0.107033 0.917480
O O7 0.000000 0.500000 0.000000
O O8 0.181707 0.512356 0.226165
O O9 0.661843 0.513607 0.982677
O O10 0.857050 0.716745 0.247229
O O11 0.677446 0.413580 0.083549
O O12 0.917035 0.097173 0.873274
O O13 0.124457 0.464619 0.650702
O O14 0.229539 0.758645 0.834542
O O15 0.108277 0.234412 0.145252
O O16 0.939410 0.314631 0.550092
O O17 0.000000 0.000000 0.500000
#
# Coordination Sequence:
#
# PCOD9057351 Si02
#       8
#     2   2   2   2   2   2   2   2
#     4  12  25  36  62  99 127 163 202 252 323 367
#     4   9  18  37  62  84 115 163 205 247 298 361
#     4  11  23  43  57  93 131 158 206 259 308 369
#     4  11  20  41  63  88 130 161 198 262 308 364
#     4  11  21  38  63  92 125 162 212 250 303 372
#     4  10  17  36  67  86 115 161 214 255 295 362
#     4  10  19  39  60  89 125 162 208 256 302 372
#     4  10  21  40  65  89 118 166 215 255 299 365
#
# _framework density 22.594771999999999
#
# number of rings (size 3 to 8) (size 9 to 14) (size 15 to 20)
#    0.000    1.500    7.500    1.500    0.000    3.500 
#    2.250    5.000    0.000    0.000    0.000    0.000 
#    0.000    0.000    0.000    0.000    0.000    0.000 
#
# Total GULP energy -89476.338144 kJ/mol
# GULP energy per Si atom -5592.271134 kJ/mol
# Density = 2.254335 g / cm^3
# Si number density = 22.594772 Si / 1000 Ang^3
#
#
#
# Elastic Constant Matrix: (Units=GPa)
#
#
# Indices 1 2 3 4 5 6 
#
# 1 113.8562 33.6358 56.8475 5.0421 -13.3759 43.3747
# 2 33.6358 81.6180 17.0215 5.6244 6.8745 40.1810
# 3 56.8475 17.0215 89.9402 18.6199 -16.7665 23.4487
# 4 5.0421 5.6244 18.6199 26.8920 7.8119 7.0445
# 5 -13.3759 6.8745 -16.7665 7.8119 26.8080 -0.6712
# 6 43.3747 40.1810 23.4487 7.0445 -0.6712 43.7201
#
#
#
# Elastic Compliance Matrix: (Units=1/GPa)
#
#
# Indices 1 2 3 4 5 6 
#
# 1 0.018969 0.001668 -0.009160 0.006455 0.001015 -0.016464
# 2 0.001668 0.023924 -0.002039 0.004716 -0.008539 -0.023439
# 3 -0.009160 -0.002039 0.024187 -0.019898 0.016915 0.001455
# 4 0.006455 0.004716 -0.019898 0.059556 -0.028041 -0.010093
# 5 0.001015 -0.008539 0.016915 -0.028041 0.058828 0.003191
# 6 -0.016464 -0.023439 0.001455 -0.010093 0.003191 0.061643
#
#
# Mechanical properties :
#
#
# Convention : Reuss Voigt Hill
#
# Bulk Modulus (GPa) = 20.82580 55.60265 38.21422
# Shear Modulus (GPa) = 17.71942 31.34466 24.53204
#
# Velocity S-wave (km/s) = 2.80344 3.72862 3.29863
# Velocity P-wave (km/s) = 4.44029 6.57259 5.60870
#
# Compressibility (1/GPa) = 0.04801737
#
# Stress axis : x y z
#
# Youngs Moduli (GPa) = 52.71656 41.79988 41.34383
#
# Poissons Ratio (x) = -0.06971 0.37872
# Poissons Ratio (y) = -0.08792 0.08430
# Poissons Ratio (z) = 0.48289 0.08523
#
# Static dielectric constant tensor:
#      x y z
#    x 1.857960 -0.034010 -0.013760 
#    y -0.034010 1.892460 -0.032070 
#    z -0.013760 -0.032070 1.848700 
# 
# From -- ./inp_files/279532.got.cif
#   From: 2010.05.17/outbox.cif.g08.bks.cpg/sg2_140_cif.got.tgz:279532.got - 2010.06.03 11:33:40.
