data_PCOD9057109
_publ_section_title
;
Structure prediction by ZEFSAII (Michael W. Deem and Ramdas Pophale) SiO2 
 PCOD9057109
Probable space group: P -1
;
_chemical_formula_sum "Si O2"
_cell_formula_units_Z 13
_cell_length_a 6.602800
_cell_length_b 11.880466
_cell_length_c 7.294882
_cell_angle_alpha 91.300115
_cell_angle_beta 115.031959
_cell_angle_gamma 112.383031
_cell_volume 467.747683
_symmetry_space_group_name_H-M "P -1"
_symmetry_group_IT_number 2
_symmetry_cell_setting 'triclinic'
loop_
_space_group_symop_operation_xyz
x,y,z
-x,-y,-z
loop_
_atom_site_type_symbol
_atom_site_label
_atom_site_fract_x
_atom_site_fract_y
_atom_site_fract_z
Si Si1 0.230979 0.102115 0.495047
Si Si2 0.759107 0.182235 0.818751
Si Si3 0.011732 0.728146 0.487223
Si Si4 0.718538 0.422061 0.932011
Si Si5 0.444311 0.183517 0.210785
Si Si6 0.626007 0.466584 0.317935
Si Si7 0.000000 0.000000 0.000000
O O1 0.485051 0.096157 0.637975
O O2 0.231518 0.086605 0.272114
O O3 0.187538 0.222401 0.530510
O O4 0.000000 0.000000 0.500000
O O5 0.925414 0.250832 0.705317
O O6 0.697553 0.284064 0.903692
O O7 0.878226 0.106809 0.969557
O O8 0.280428 0.805814 0.685572
O O9 0.883729 0.580917 0.482043
O O10 0.570717 0.474552 0.744036
O O11 0.657619 0.445315 0.114263
O O12 0.000000 0.500000 0.000000
O O13 0.508263 0.321079 0.324676
O O14 0.256543 0.114096 0.976585
#
# Coordination Sequence:
#
# PCOD9057109 Si02
#       7
#     2   2   2   2   2   2   1
#     4  11  24  46  72  98 139 194 235 281 353 416
#     4  11  24  45  72 102 139 185 234 293 348 413
#     4  11  23  46  71 102 142 188 230 287 356 422
#     4  11  22  41  70 105 141 187 223 285 356 414
#     4  11  27  44  68 106 141 181 238 296 340 421
#     4  11  24  42  72 107 145 181 232 287 353 421
#     4  12  26  46  68 100 140 180 240 294 340 410
#
# _framework density 27.792760999999999
#
# number of rings (size 3 to 8) (size 9 to 14) (size 15 to 20)
#    0.000    0.923    3.077    3.231    2.154    6.769 
#    0.000    6.154    0.000    0.000    0.000    0.000 
#    0.000    0.000    0.000    0.000    0.000    0.000 
#
# Total GULP energy -72576.445929 kJ/mol
# GULP energy per Si atom -5582.803533 kJ/mol
# Density = 2.772950 g / cm^3
# Si number density = 27.792761 Si / 1000 Ang^3
#
#
#
# Elastic Constant Matrix: (Units=GPa)
#
#
# Indices 1 2 3 4 5 6 
#
# 1 167.4445 66.3795 43.9746 -3.0198 32.5564 -1.2970
# 2 66.3795 175.9546 22.8226 27.3943 23.0143 -3.5413
# 3 43.9746 22.8226 76.3975 4.7220 38.8663 5.5940
# 4 -3.0198 27.3943 4.7220 41.6591 1.6499 6.7094
# 5 32.5564 23.0143 38.8663 1.6499 68.4214 -7.4132
# 6 -1.2970 -3.5413 5.5940 6.7094 -7.4132 73.9390
#
#
#
# Elastic Compliance Matrix: (Units=1/GPa)
#
#
# Indices 1 2 3 4 5 6 
#
# 1 0.008368 -0.003040 -0.003574 0.003069 -0.001015 -0.000109
# 2 -0.003040 0.007804 0.000283 -0.005449 -0.001134 0.000680
# 3 -0.003574 0.000283 0.020618 -0.001976 -0.010326 -0.002465
# 4 0.003069 -0.005449 -0.001976 0.028429 0.000529 -0.002584
# 5 -0.001015 -0.001134 -0.010326 0.000529 0.021639 0.002831
# 6 -0.000109 0.000680 -0.002465 -0.002584 0.002831 0.014260
#
#
# Mechanical properties :
#
#
# Convention : Reuss Voigt Hill
#
# Bulk Modulus (GPa) = 41.44882 76.23888 58.84385
# Shear Modulus (GPa) = 41.04318 55.91190 48.47754
#
# Velocity S-wave (km/s) = 3.84703 4.49011 4.18095
# Velocity P-wave (km/s) = 5.88887 7.37375 6.67274
#
# Compressibility (1/GPa) = 0.02412614
#
# Stress axis : x y z
#
# Youngs Moduli (GPa) = 119.50624 128.14043 48.50168
#
# Poissons Ratio (x) = 0.38961 0.17333
# Poissons Ratio (y) = 0.36335 -0.01370
# Poissons Ratio (z) = 0.42709 -0.03620
#
# Static dielectric constant tensor:
#      x y z
#    x 2.111090 0.061840 -0.061670 
#    y 0.061840 2.436670 0.021780 
#    z -0.061670 0.021780 2.321100 
# 
# From -- ./inp_files/25555.got.cif
#   From: 2010.05.17/outbox.cif.g08.bks.cpg/sg2_13_cif.got.tgz:25555.got - 2010.06.03 11:33:40.
