data_PCOD9057327
_publ_section_title
;
Structure prediction by ZEFSAII (Michael W. Deem and Ramdas Pophale) SiO2 
 PCOD9057327
Probable space group: P -1
;
_chemical_formula_sum "Si O2"
_cell_formula_units_Z 16
_cell_length_a 15.145402
_cell_length_b 12.129312
_cell_length_c 13.117659
_cell_angle_alpha 96.355864
_cell_angle_beta 150.632520
_cell_angle_gamma 62.924636
_cell_volume 795.215839
_symmetry_space_group_name_H-M "P -1"
_symmetry_group_IT_number 2
_symmetry_cell_setting 'triclinic'
loop_
_space_group_symop_operation_xyz
x,y,z
-x,-y,-z
loop_
_atom_site_type_symbol
_atom_site_label
_atom_site_fract_x
_atom_site_fract_y
_atom_site_fract_z
Si Si1 0.400313 0.892555 0.629920
Si Si2 0.708612 0.912191 0.791878
Si Si3 0.302789 0.109932 0.720908
Si Si4 0.644073 0.687886 0.321501
Si Si5 0.746604 0.466746 0.225278
Si Si6 0.194252 0.485367 0.943901
Si Si7 0.239926 0.642409 0.186839
Si Si8 0.824232 0.114060 0.982798
O O1 0.581248 0.898392 0.752056
O O2 0.295390 0.002692 0.635726
O O3 0.590349 0.703675 0.826967
O O4 0.134812 0.981564 0.310053
O O5 0.500000 0.000000 0.500000
O O6 0.753791 0.019962 0.875331
O O7 0.986060 0.738416 0.013038
O O8 0.391842 0.171929 0.744659
O O9 0.017587 0.275960 0.492809
O O10 0.500000 0.000000 0.000000
O O11 0.729151 0.574276 0.299588
O O12 0.375750 0.767096 0.112881
O O13 0.889071 0.580523 0.637486
O O14 0.745290 0.505707 0.110421
O O15 0.500000 0.500000 0.000000
O O16 0.214014 0.576232 0.054097
O O17 0.500000 0.500000 0.500000
O O18 0.232168 0.772320 0.151596
#
# Coordination Sequence:
#
# PCOD9057327 Si02
#       8
#     2   2   2   2   2   2   2   2
#     4  12  25  45  70 100 138 178 224 282 334 404
#     4  12  26  46  71  98 134 181 227 279 344 389
#     4  11  22  42  67  99 135 174 224 270 335 403
#     4  11  22  43  69  99 134 179 218 277 341 398
#     4  11  23  42  68  99 137 177 224 274 339 405
#     4  11  25  45  67 101 138 176 229 276 339 404
#     4  12  27  45  69 101 135 180 229 281 335 400
#     4  12  25  47  70 100 138 173 230 282 334 406
#
# _framework density 20.120322999999999
#
# number of rings (size 3 to 8) (size 9 to 14) (size 15 to 20)
#    0.000    0.500    2.500    7.875    3.500    1.500 
#    4.500    2.500    0.000    0.000    0.000    0.000 
#    0.000    0.000    0.000    0.000    0.000    0.000 
#
# Total GULP energy -89527.039346 kJ/mol
# GULP energy per Si atom -5595.439959 kJ/mol
# Density = 2.007453 g / cm^3
# Si number density = 20.120323 Si / 1000 Ang^3
#
#
#
# Elastic Constant Matrix: (Units=GPa)
#
#
# Indices 1 2 3 4 5 6 
#
# 1 80.6057 40.1111 67.9688 -9.5595 17.8206 -9.0673
# 2 40.1111 126.5375 65.1386 3.6851 -2.6946 -8.8451
# 3 67.9688 65.1386 180.5695 -17.5338 -3.1789 9.8234
# 4 -9.5595 3.6851 -17.5338 44.5093 -1.5391 -4.5668
# 5 17.8206 -2.6946 -3.1789 -1.5391 36.1213 0.3201
# 6 -9.0673 -8.8451 9.8234 -4.5668 0.3201 37.4690
#
#
#
# Elastic Compliance Matrix: (Units=1/GPa)
#
#
# Indices 1 2 3 4 5 6 
#
# 1 0.025985 -0.003405 -0.008985 0.002696 -0.013823 0.008287
# 2 -0.003405 0.010752 -0.002918 -0.002477 0.002101 0.002159
# 3 -0.008985 -0.002918 0.010565 0.002100 0.005282 -0.005422
# 4 0.002696 -0.002477 0.002100 0.024322 -0.000315 0.002484
# 5 -0.013823 0.002101 0.005282 -0.000315 0.035153 -0.004573
# 6 0.008287 0.002159 -0.005422 0.002484 -0.004573 0.030967
#
#
# Mechanical properties :
#
#
# Convention : Reuss Voigt Hill
#
# Bulk Modulus (GPa) = 59.93355 81.57218 70.75287
# Shear Modulus (GPa) = 28.74844 37.91953 33.33399
#
# Velocity S-wave (km/s) = 3.78408 4.34595 4.07471
# Velocity P-wave (km/s) = 6.99604 8.11254 7.57489
#
# Compressibility (1/GPa) = 0.01668514
#
# Stress axis : x y z
#
# Youngs Moduli (GPa) = 38.48381 93.00500 94.65533
#
# Poissons Ratio (x) = 0.31671 0.85049
# Poissons Ratio (y) = 0.13105 0.27620
# Poissons Ratio (z) = 0.34578 0.27138
#
# Static dielectric constant tensor:
#      x y z
#    x 1.694450 -0.014610 0.012960 
#    y -0.014610 1.726200 0.000810 
#    z 0.012960 0.000810 1.697110 
# 
# From -- ./inp_files/226252.got.cif
#   From: 2010.05.17/outbox.cif.g08.bks.cpg/sg2_114_cif.got.tgz:226252.got - 2010.06.03 11:33:40.
