data_PCOD9057057
_publ_section_title
;
Structure prediction by ZEFSAII (Michael W. Deem and Ramdas Pophale) SiO2 
 PCOD9057057
Probable space group: P -1
;
_chemical_formula_sum "Si O2"
_cell_formula_units_Z 14
_cell_length_a 14.959084
_cell_length_b 9.814697
_cell_length_c 14.180928
_cell_angle_alpha 68.667759
_cell_angle_beta 30.947494
_cell_angle_gamma 46.601811
_cell_volume 620.349907
_symmetry_space_group_name_H-M "P -1"
_symmetry_group_IT_number 2
_symmetry_cell_setting 'triclinic'
loop_
_space_group_symop_operation_xyz
x,y,z
-x,-y,-z
loop_
_atom_site_type_symbol
_atom_site_label
_atom_site_fract_x
_atom_site_fract_y
_atom_site_fract_z
Si Si1 0.941935 0.438467 0.158525
Si Si2 0.761386 0.566481 0.755269
Si Si3 0.171455 0.775757 0.967178
Si Si4 0.409251 0.947952 0.511950
Si Si5 0.345586 0.353328 0.944974
Si Si6 0.169294 0.048463 0.513068
Si Si7 0.188994 0.962262 0.069687
O O1 0.610118 0.676145 0.414504
O O2 0.049923 0.205241 0.103311
O O3 0.111322 0.405721 0.096240
O O4 0.000000 0.500000 0.000000
O O5 0.000000 0.500000 0.500000
O O6 0.881427 0.325162 0.689885
O O7 0.725961 0.599742 0.891847
O O8 0.457343 0.805911 0.931159
O O9 0.306967 0.791877 0.917430
O O10 0.350769 0.512703 0.850198
O O11 0.911715 0.865138 0.226305
O O12 0.000000 0.000000 0.000000
O O13 0.500000 0.000000 0.500000
O O14 0.379546 0.989761 0.414371
O O15 0.647856 0.089029 0.711323
O O16 0.058649 0.968256 0.675413
#
# Coordination Sequence:
#
# PCOD9057057 Si02
#       7
#     2   2   2   2   2   2   2
#     4  12  24  42  72 106 145 187 243 293 363 440
#     4  12  27  51  75 101 149 193 251 301 364 434
#     4  11  25  42  69 106 146 187 238 293 372 430
#     4  11  22  41  69 101 150 190 229 291 361 421
#     4  12  25  47  73 108 144 195 247 298 362 440
#     4  11  25  46  72 106 146 187 247 302 357 435
#     4  11  27  46  72 104 147 194 237 309 366 421
#
# _framework density 22.567907999999999
#
# number of rings (size 3 to 8) (size 9 to 14) (size 15 to 20)
#    0.000    0.571    5.714    2.143    2.000    5.143 
#    0.000    0.000    0.000    0.000    0.000    0.000 
#    0.000    0.000    0.000    0.000    0.000    0.000 
#
# Total GULP energy -78040.784328 kJ/mol
# GULP energy per Si atom -5574.341738 kJ/mol
# Density = 2.251654 g / cm^3
# Si number density = 22.567908 Si / 1000 Ang^3
#
#
#
# Elastic Constant Matrix: (Units=GPa)
#
#
# Indices 1 2 3 4 5 6 
#
# 1 58.0287 8.3942 26.1295 -5.9337 -1.4717 -7.0036
# 2 8.3942 94.4823 19.2413 -1.2711 -2.1214 6.6527
# 3 26.1295 19.2413 76.1775 20.0696 12.8116 -5.5853
# 4 -5.9337 -1.2711 20.0696 40.6756 -4.7037 2.7323
# 5 -1.4717 -2.1214 12.8116 -4.7037 32.3414 3.4627
# 6 -7.0036 6.6527 -5.5853 2.7323 3.4627 31.3986
#
#
#
# Elastic Compliance Matrix: (Units=1/GPa)
#
#
# Indices 1 2 3 4 5 6 
#
# 1 0.024081 0.000566 -0.012263 0.010340 0.007349 0.001360
# 2 0.000566 0.012005 -0.005149 0.003715 0.003830 -0.004079
# 3 -0.012263 -0.005149 0.025884 -0.016769 -0.014229 0.005988
# 4 0.010340 0.003715 -0.016769 0.036432 0.013309 -0.006102
# 5 0.007349 0.003830 -0.014229 0.013309 0.039855 -0.007257
# 6 0.001360 -0.004079 0.005988 -0.006102 -0.007257 0.035412
#
#
# Mechanical properties :
#
#
# Convention : Reuss Voigt Hill
#
# Bulk Modulus (GPa) = 35.36163 37.35763 36.35963
# Shear Modulus (GPa) = 23.06406 32.54470 27.80438
#
# Velocity S-wave (km/s) = 3.20032 3.80159 3.51384
# Velocity P-wave (km/s) = 5.41840 5.98822 5.71042
#
# Compressibility (1/GPa) = 0.02827924
#
# Stress axis : x y z
#
# Youngs Moduli (GPa) = 41.52696 83.29630 38.63351
#
# Poissons Ratio (x) = -0.04718 0.47378
# Poissons Ratio (y) = -0.02352 0.19891
# Poissons Ratio (z) = 0.50926 0.42885
#
# Static dielectric constant tensor:
#      x y z
#    x 1.986250 -0.005930 0.144920 
#    y -0.005930 2.022290 -0.075930 
#    z 0.144920 -0.075930 1.940580 
# 
# From -- ./inp_files/314706.got.cif
#   From: 2010.05.17/outbox.cif.g08.bks.cpg/sg2_158_cif.got.tgz:314706.got - 2010.06.03 11:33:40.
