data_PCOD9057152
_publ_section_title
;
Structure prediction by ZEFSAII (Michael W. Deem and Ramdas Pophale) SiO2 
 PCOD9057152
Probable space group: P -1
;
_chemical_formula_sum "Si O2"
_cell_formula_units_Z 14
_cell_length_a 8.894039
_cell_length_b 23.299263
_cell_length_c 9.077459
_cell_angle_alpha 38.016270
_cell_angle_beta 49.793932
_cell_angle_gamma 33.810399
_cell_volume 644.431544
_symmetry_space_group_name_H-M "P -1"
_symmetry_group_IT_number 2
_symmetry_cell_setting 'triclinic'
loop_
_space_group_symop_operation_xyz
x,y,z
-x,-y,-z
loop_
_atom_site_type_symbol
_atom_site_label
_atom_site_fract_x
_atom_site_fract_y
_atom_site_fract_z
Si Si1 0.359634 0.619216 0.503333
Si Si2 0.757900 0.820677 0.929882
Si Si3 0.861759 0.241314 0.920903
Si Si4 0.105579 0.434716 0.725879
Si Si5 0.165705 0.784297 0.562899
Si Si6 0.165216 0.984921 0.066015
Si Si7 0.418443 0.409326 0.070139
O O1 0.218397 0.657863 0.357019
O O2 0.633629 0.587299 0.366339
O O3 0.181907 0.742460 0.472197
O O4 0.398791 0.513631 0.786494
O O5 0.812483 0.700430 0.070708
O O6 0.937560 0.776932 0.051634
O O7 0.446930 0.934636 0.933403
O O8 0.877107 0.856914 0.668091
O O9 0.594497 0.294160 0.072772
O O10 0.000584 0.110678 0.014212
O O11 0.000000 0.500000 0.500000
O O12 0.874254 0.521690 0.820355
O O13 0.386199 0.655268 0.779813
O O14 0.235872 0.869811 0.348851
O O15 0.000000 0.000000 0.000000
#
# Coordination Sequence:
#
# PCOD9057152 Si02
#       7
#     2   2   2   2   2   2   2
#     4  12  22  44  66 101 137 174 221 273 331 397
#     4  11  24  42  69  98 129 177 224 271 333 390
#     4  11  26  43  66 101 140 174 217 282 335 384
#     4  12  21  38  71  96 130 179 223 262 332 399
#     4  11  22  41  71  95 128 178 226 267 325 397
#     4  12  24  48  70  94 134 174 229 273 326 402
#     4  11  24  41  68 103 136 173 222 276 331 395
#
# _framework density 21.724574
#
# number of rings (size 3 to 8) (size 9 to 14) (size 15 to 20)
#    0.000    0.571    5.714    3.000    0.000    3.429 
#    0.000    5.714    0.000    0.000    0.000    0.000 
#    0.000    0.000    0.000    0.000    0.000    0.000 
#
# Total GULP energy -78293.025188 kJ/mol
# GULP energy per Si atom -5592.358942 kJ/mol
# Density = 2.167513 g / cm^3
# Si number density = 21.724574 Si / 1000 Ang^3
#
#
#
# Elastic Constant Matrix: (Units=GPa)
#
#
# Indices 1 2 3 4 5 6 
#
# 1 82.0534 57.1482 27.9627 15.3130 9.3133 -8.7377
# 2 57.1482 193.0086 43.9182 43.8994 -5.3669 4.3283
# 3 27.9627 43.9182 67.7319 26.5216 8.5183 -1.3492
# 4 15.3130 43.8994 26.5216 41.8703 -1.6725 -11.4090
# 5 9.3133 -5.3669 8.5183 -1.6725 32.5851 1.9122
# 6 -8.7377 4.3283 -1.3492 -11.4090 1.9122 26.4843
#
#
#
# Elastic Compliance Matrix: (Units=1/GPa)
#
#
# Indices 1 2 3 4 5 6 
#
# 1 0.018625 -0.005826 -0.004907 0.004717 -0.005301 0.009262
# 2 -0.005826 0.009446 -0.000635 -0.009354 0.003363 -0.007771
# 3 -0.004907 -0.000635 0.023261 -0.014126 -0.005153 -0.006044
# 4 0.004717 -0.009354 -0.014126 0.047128 0.001901 0.022530
# 5 -0.005301 0.003363 -0.005153 0.001901 0.034451 -0.004230
# 6 0.009262 -0.007771 -0.006044 0.022530 -0.004230 0.051787
#
#
# Mechanical properties :
#
#
# Convention : Reuss Voigt Hill
#
# Bulk Modulus (GPa) = 34.97052 66.76133 50.86593
# Shear Modulus (GPa) = 23.04516 34.43893 28.74204
#
# Velocity S-wave (km/s) = 3.26051 3.98584 3.64128
# Velocity P-wave (km/s) = 5.50515 7.20972 6.41431
#
# Compressibility (1/GPa) = 0.02859551
#
# Stress axis : x y z
#
# Youngs Moduli (GPa) = 53.69148 105.86651 42.99109
#
# Poissons Ratio (x) = 0.61678 0.21097
# Poissons Ratio (y) = 0.31281 0.02728
# Poissons Ratio (z) = 0.26348 0.06718
#
# Static dielectric constant tensor:
#      x y z
#    x 1.785280 0.006550 0.011690 
#    y 0.006550 1.825360 -0.040070 
#    z 0.011690 -0.040070 1.814600 
# 
# From -- ./inp_files/178448.got.cif
#   From: 2010.05.17/outbox.cif.g08.bks.cpg/sg2_90_cif.got.tgz:178448.got - 2010.06.03 11:33:40.
