data_PCOD9057415
_publ_section_title
;
Structure prediction by ZEFSAII (Michael W. Deem and Ramdas Pophale) SiO2 
 PCOD9057415
Probable space group: P -1
;
_chemical_formula_sum "Si O2"
_cell_formula_units_Z 16
_cell_length_a 13.835766
_cell_length_b 9.075763
_cell_length_c 6.230397
_cell_angle_alpha 120.090284
_cell_angle_beta 98.732231
_cell_angle_gamma 94.640436
_cell_volume 657.699051
_symmetry_space_group_name_H-M "P -1"
_symmetry_group_IT_number 2
_symmetry_cell_setting 'triclinic'
loop_
_space_group_symop_operation_xyz
x,y,z
-x,-y,-z
loop_
_atom_site_type_symbol
_atom_site_label
_atom_site_fract_x
_atom_site_fract_y
_atom_site_fract_z
Si Si1 0.301307 0.309804 0.891283
Si Si2 0.577304 0.366514 0.959647
Si Si3 0.127895 0.251822 0.087293
Si Si4 0.906367 0.399292 0.525923
Si Si5 0.754191 0.939894 0.684079
Si Si6 0.301727 0.803961 0.815001
Si Si7 0.436195 0.067632 0.840325
Si Si8 0.054956 0.860546 0.303380
O O1 0.306105 0.215153 0.593589
O O2 0.376355 0.221428 0.997037
O O3 0.331624 0.517340 0.052918
O O4 0.190035 0.245857 0.887207
O O5 0.510912 0.173639 0.765133
O O6 0.500000 0.500000 0.000000
O O7 0.632143 0.334084 0.179616
O O8 0.148394 0.450252 0.302385
O O9 0.173436 0.142841 0.196924
O O10 0.011229 0.192222 0.967899
O O11 0.815948 0.268446 0.290720
O O12 0.950161 0.301470 0.660698
O O13 0.000000 0.500000 0.500000
O O14 0.831070 0.068160 0.656983
O O15 0.692207 0.050423 0.888700
O O16 0.347781 0.898943 0.680360
O O17 0.500000 0.000000 0.000000
O O18 0.000000 0.000000 0.500000
#
# Coordination Sequence:
#
# PCOD9057415 Si02
#       8
#     2   2   2   2   2   2   2   2
#     4  11  22  42  69  99 136 176 224 277 353 401
#     4   9  21  40  70  95 135 176 220 287 337 407
#     4  12  25  43  68  97 144 180 228 283 335 404
#     4  12  27  44  69 104 139 184 228 280 340 407
#     4  12  24  42  69 102 135 184 229 278 338 404
#     4  11  22  42  71  97 138 178 228 282 336 403
#     4   9  19  43  70  95 132 175 226 284 337 406
#     4  12  24  43  66  97 138 181 230 275 331 403
#
# _framework density 24.327235000000002
#
# number of rings (size 3 to 8) (size 9 to 14) (size 15 to 20)
#    0.000    1.000    2.500    4.500    3.500    0.000 
#    0.000    6.250   11.000    0.000    0.000    0.000 
#    0.000    0.000    0.000    0.000    0.000    0.000 
#
# Total GULP energy -89208.038516 kJ/mol
# GULP energy per Si atom -5575.502407 kJ/mol
# Density = 2.427187 g / cm^3
# Si number density = 24.327235 Si / 1000 Ang^3
#
#
#
# Elastic Constant Matrix: (Units=GPa)
#
#
# Indices 1 2 3 4 5 6 
#
# 1 110.3710 51.1360 31.1498 -5.9117 31.0227 9.8029
# 2 51.1360 184.4991 22.0663 -9.9165 13.7588 3.7106
# 3 31.1498 22.0663 66.9581 11.0606 5.1445 3.7689
# 4 -5.9117 -9.9165 11.0606 24.8771 -7.3168 5.3422
# 5 31.0227 13.7588 5.1445 -7.3168 33.6273 2.4480
# 6 9.8029 3.7106 3.7689 5.3422 2.4480 51.2006
#
#
#
# Elastic Compliance Matrix: (Units=1/GPa)
#
#
# Indices 1 2 3 4 5 6 
#
# 1 0.015439 -0.002570 -0.005679 0.002160 -0.011706 -0.002017
# 2 -0.002570 0.006411 -0.001411 0.002784 0.000583 -0.000187
# 3 -0.005679 -0.001411 0.019740 -0.010753 0.000396 0.000840
# 4 0.002160 0.002784 -0.010753 0.050732 0.009959 -0.005593
# 5 -0.011706 0.000583 0.000396 0.009959 0.042470 -0.000900
# 6 -0.002017 -0.000187 0.000840 -0.005593 -0.000900 0.020496
#
#
# Mechanical properties :
#
#
# Convention : Reuss Voigt Hill
#
# Bulk Modulus (GPa) = 44.90525 63.39249 54.14887
# Shear Modulus (GPa) = 27.46754 39.10607 33.28681
#
# Velocity S-wave (km/s) = 3.36383 4.01372 3.70306
# Velocity P-wave (km/s) = 5.79535 6.89889 6.37106
#
# Compressibility (1/GPa) = 0.02226911
#
# Stress axis : x y z
#
# Youngs Moduli (GPa) = 64.77009 155.97834 50.65748
#
# Poissons Ratio (x) = 0.40091 0.28770
# Poissons Ratio (y) = 0.16648 0.07149
# Poissons Ratio (z) = 0.36785 0.22013
#
# Static dielectric constant tensor:
#      x y z
#    x 1.968610 0.055820 -0.001120 
#    y 0.055820 1.940300 0.026610 
#    z -0.001120 0.026610 1.996870 
# 
# From -- ./inp_files/91026.got.cif
#   From: 2010.05.17/outbox.cif.g08.bks.cpg/sg2_46_cif.got.tgz:91026.got - 2010.06.03 11:33:40.
