data_PCOD9057699
_publ_section_title
;
Structure prediction by ZEFSAII (Michael W. Deem and Ramdas Pophale) SiO2 
 PCOD9057699
Probable space group: P -1
;
_chemical_formula_sum "Si O2"
_cell_formula_units_Z 16
_cell_length_a 18.800239
_cell_length_b 9.839790
_cell_length_c 12.730460
_cell_angle_alpha 76.674254
_cell_angle_beta 133.913655
_cell_angle_gamma 141.042899
_cell_volume 780.226136
_symmetry_space_group_name_H-M "P -1"
_symmetry_group_IT_number 2
_symmetry_cell_setting 'triclinic'
loop_
_space_group_symop_operation_xyz
x,y,z
-x,-y,-z
loop_
_atom_site_type_symbol
_atom_site_label
_atom_site_fract_x
_atom_site_fract_y
_atom_site_fract_z
Si Si1 0.452117 0.615471 0.687080
Si Si2 0.910792 0.266125 0.022442
Si Si3 0.997473 0.340397 0.567462
Si Si4 0.540913 0.682754 0.175779
Si Si5 0.131702 0.238839 0.237745
Si Si6 0.831702 0.370741 0.100075
Si Si7 0.411988 0.706852 0.848583
Si Si8 0.249134 0.435846 0.095143
O O1 0.511027 0.540659 0.811599
O O2 0.274523 0.385017 0.458342
O O3 0.384951 0.625473 0.715307
O O4 0.667769 0.941584 0.802319
O O5 0.909020 0.329826 0.126413
O O6 0.029314 0.266045 0.137808
O O7 0.000000 0.500000 0.000000
O O8 0.007371 0.367657 0.697978
O O9 0.204462 0.522140 0.708362
O O10 0.000000 0.500000 0.500000
O O11 0.789571 0.007406 0.374969
O O12 0.439989 0.644960 0.174769
O O13 0.456656 0.636609 0.987844
O O14 0.265666 0.405029 0.237341
O O15 0.947347 0.895502 0.094993
O O16 0.788409 0.444974 0.964506
O O17 0.617187 0.061226 0.994708
#
# Coordination Sequence:
#
# PCOD9057699 Si02
#       8
#     2   2   2   2   2   2   2   2
#     4  11  27  43  69 101 131 181 223 269 340 400
#     4  11  24  46  69  97 138 174 217 277 337 394
#     4  12  24  39  66  98 129 178 224 268 329 394
#     4  12  24  44  68  98 136 176 226 276 332 397
#     4  11  25  47  69  99 135 172 228 275 332 404
#     4  11  22  43  68  99 137 177 218 277 335 392
#     4  11  25  44  64  97 144 170 224 278 328 399
#     4  11  23  45  72  96 135 177 218 284 332 388
#
# _framework density 20.506874
#
# number of rings (size 3 to 8) (size 9 to 14) (size 15 to 20)
#    0.000    0.750    5.000    2.250    1.750    2.500 
#    0.000    0.000    0.000    0.000    0.000    0.000 
#    0.000    0.000    0.000    0.000    0.000    0.000 
#
# Total GULP energy -89442.445092 kJ/mol
# GULP energy per Si atom -5590.152818 kJ/mol
# Density = 2.046020 g / cm^3
# Si number density = 20.506874 Si / 1000 Ang^3
#
#
#
# Elastic Constant Matrix: (Units=GPa)
#
#
# Indices 1 2 3 4 5 6 
#
# 1 64.7675 18.4833 29.7098 2.9222 0.8539 2.5286
# 2 18.4833 107.0688 29.2359 2.0256 6.7878 -0.2755
# 3 29.7098 29.2359 101.3920 -10.5267 -7.5003 11.7225
# 4 2.9222 2.0256 -10.5267 24.2023 1.0099 -0.3706
# 5 0.8539 6.7878 -7.5003 1.0099 19.0721 -0.0309
# 6 2.5286 -0.2755 11.7225 -0.3706 -0.0309 33.3645
#
#
#
# Elastic Compliance Matrix: (Units=1/GPa)
#
#
# Indices 1 2 3 4 5 6 
#
# 1 0.018713 -0.001412 -0.005787 -0.004551 -0.002369 0.000551
# 2 -0.001412 0.010895 -0.003473 -0.002019 -0.005071 0.001390
# 3 -0.005787 -0.003473 0.014295 0.006856 0.006746 -0.004530
# 4 -0.004551 -0.002019 0.006856 0.044943 0.001236 -0.001580
# 5 -0.002369 -0.005071 0.006746 0.001236 0.056928 -0.002166
# 6 0.000551 0.001390 -0.004530 -0.001580 -0.002166 0.031514
#
#
# Mechanical properties :
#
#
# Convention : Reuss Voigt Hill
#
# Bulk Modulus (GPa) = 44.33285 47.56517 45.94901
# Shear Modulus (GPa) = 24.25396 28.38107 26.31752
#
# Velocity S-wave (km/s) = 3.44281 3.72422 3.58628
# Velocity P-wave (km/s) = 6.12122 6.46051 6.29315
#
# Compressibility (1/GPa) = 0.02255664
#
# Stress axis : x y z
#
# Youngs Moduli (GPa) = 53.43953 91.78302 69.95649
#
# Poissons Ratio (x) = 0.12963 0.40486
# Poissons Ratio (y) = 0.07548 0.24297
# Poissons Ratio (z) = 0.30927 0.31878
#
# Static dielectric constant tensor:
#      x y z
#    x 1.751170 0.015060 0.007380 
#    y 0.015060 1.726970 -0.041990 
#    z 0.007380 -0.041990 1.646220 
# 
# From -- ./inp_files/77110.got.cif
#   From: 2010.05.17/outbox.cif.g08.bks.cpg/sg2_39_cif.got.tgz:77110.got - 2010.06.03 11:33:40.
