data_PCOD9057276
_publ_section_title
;
Structure prediction by ZEFSAII (Michael W. Deem and Ramdas Pophale) SiO2 
 PCOD9057276
Probable space group: P -1
;
_chemical_formula_sum "Si O2"
_cell_formula_units_Z 12
_cell_length_a 23.466397
_cell_length_b 12.550144
_cell_length_c 8.093615
_cell_angle_alpha 130.409683
_cell_angle_beta 147.495706
_cell_angle_gamma 25.975490
_cell_volume 496.076545
_symmetry_space_group_name_H-M "P -1"
_symmetry_group_IT_number 2
_symmetry_cell_setting 'triclinic'
loop_
_space_group_symop_operation_xyz
x,y,z
-x,-y,-z
loop_
_atom_site_type_symbol
_atom_site_label
_atom_site_fract_x
_atom_site_fract_y
_atom_site_fract_z
Si Si1 0.437340 0.778499 0.598136
Si Si2 0.829088 0.393812 0.649822
Si Si3 0.956389 0.556197 0.255259
Si Si4 0.343566 0.250616 0.703658
Si Si5 0.847834 0.132731 0.910482
Si Si6 0.595652 0.085025 0.694402
O O1 0.667745 0.450628 0.814418
O O2 0.291286 0.850534 0.428582
O O3 0.343490 0.896951 0.302646
O O4 0.482603 0.877186 0.886186
O O5 0.757094 0.508808 0.406005
O O6 0.616871 0.610405 0.450720
O O7 0.916853 0.442634 0.982705
O O8 0.994243 0.084677 0.773997
O O9 0.151273 0.399895 0.478019
O O10 0.000000 0.500000 0.500000
O O11 0.236300 0.130316 0.967407
O O12 0.437186 0.033021 0.583266
O O13 0.000000 0.000000 0.000000
#
# Coordination Sequence:
#
# PCOD9057276 Si02
#       6
#     2   2   2   2   2   2
#     4  11  24  44  71  97 131 180 224 273 330 393
#     4  11  23  42  66  98 138 176 218 274 331 393
#     4  11  23  39  67 100 134 174 217 274 340 398
#     4  11  23  41  65 101 132 170 222 276 333 399
#     4  11  24  45  69  92 134 181 226 274 324 388
#     4  11  22  42  66 101 137 172 215 277 338 394
#
# _framework density 24.189817000000001
#
# number of rings (size 3 to 8) (size 9 to 14) (size 15 to 20)
#    0.000    1.000    1.667    7.500    0.000    4.667 
#    0.000    0.833    0.000    0.000    0.000    0.000 
#    0.000    0.000    0.000    0.000    0.000    0.000 
#
# Total GULP energy -67168.410400 kJ/mol
# GULP energy per Si atom -5597.367533 kJ/mol
# Density = 2.413476 g / cm^3
# Si number density = 24.189817 Si / 1000 Ang^3
#
#
#
# Elastic Constant Matrix: (Units=GPa)
#
#
# Indices 1 2 3 4 5 6 
#
# 1 147.2961 14.8998 56.2974 -14.7506 1.4470 -6.1689
# 2 14.8998 79.0418 30.7605 -40.8425 -4.9196 13.2830
# 3 56.2974 30.7605 87.7195 -18.6568 -1.6738 -16.5283
# 4 -14.7506 -40.8425 -18.6568 48.7506 6.3698 -8.5674
# 5 1.4470 -4.9196 -1.6738 6.3698 60.1063 -14.2208
# 6 -6.1689 13.2830 -16.5283 -8.5674 -14.2208 30.8500
#
#
#
# Elastic Compliance Matrix: (Units=1/GPa)
#
#
# Indices 1 2 3 4 5 6 
#
# 1 0.009272 0.002215 -0.006937 0.001646 -0.001086 -0.002860
# 2 0.002215 0.027216 -0.009635 0.017920 -0.003036 -0.012860
# 3 -0.006937 -0.009635 0.022729 0.001006 0.003934 0.017032
# 4 0.001646 0.017920 0.001006 0.037109 -0.001862 0.002600
# 5 -0.001086 -0.003036 0.003934 -0.001862 0.019481 0.011660
# 6 -0.002860 -0.012860 0.017032 0.002600 0.011660 0.052602
#
#
# Mechanical properties :
#
#
# Convention : Reuss Voigt Hill
#
# Bulk Modulus (GPa) = 32.78337 57.55253 45.16795
# Shear Modulus (GPa) = 24.12075 42.08137 33.10106
#
# Velocity S-wave (km/s) = 3.16119 4.17541 3.70319
# Velocity P-wave (km/s) = 5.18711 6.86215 6.08257
#
# Compressibility (1/GPa) = 0.03050327
#
# Stress axis : x y z
#
# Youngs Moduli (GPa) = 107.85071 36.74361 43.99624
#
# Poissons Ratio (x) = -0.08140 0.30521
# Poissons Ratio (y) = -0.23893 0.42391
# Poissons Ratio (z) = 0.74818 0.35403
#
# Static dielectric constant tensor:
#      x y z
#    x 1.956220 0.041930 -0.017440 
#    y 0.041930 1.949280 -0.032480 
#    z -0.017440 -0.032480 1.924980 
# 
# From -- ./inp_files/346291.got.cif
#   From: 2010.05.17/outbox.cif.g08.bks.cpg/sg2_174_cif.got.tgz:346291.got - 2010.06.03 11:33:40.
