data_PCOD9058712
_publ_section_title
;
Structure prediction by ZEFSAII (Michael W. Deem and Ramdas Pophale) SiO2 
 PCOD9058712
Probable space group: P -1
;
_chemical_formula_sum "Si O2"
_cell_formula_units_Z 14
_cell_length_a 10.314447
_cell_length_b 7.376996
_cell_length_c 8.183777
_cell_angle_alpha 71.175593
_cell_angle_beta 116.720831
_cell_angle_gamma 95.282553
_cell_volume 525.414763
_symmetry_space_group_name_H-M "P -1"
_symmetry_group_IT_number 2
_symmetry_cell_setting 'triclinic'
loop_
_space_group_symop_operation_xyz
x,y,z
-x,-y,-z
loop_
_atom_site_type_symbol
_atom_site_label
_atom_site_fract_x
_atom_site_fract_y
_atom_site_fract_z
Si Si1 0.145664 0.256914 0.313344
Si Si2 0.383274 0.745858 0.078066
Si Si3 0.292826 0.882882 0.621149
Si Si4 0.105793 0.948178 0.925025
Si Si5 0.595991 0.701934 0.790348
Si Si6 0.311636 0.237536 0.806118
Si Si7 0.864539 0.429282 0.543562
O O1 0.259643 0.239311 0.235784
O O2 0.121780 0.476674 0.297298
O O3 0.990385 0.181052 0.206210
O O4 0.227689 0.104338 0.530699
O O5 0.412965 0.521832 0.190055
O O6 0.535185 0.843018 0.165115
O O7 0.316397 0.792821 0.843569
O O8 0.255597 0.833053 0.096041
O O9 0.447833 0.830897 0.637325
O O10 0.173392 0.780795 0.472167
O O11 0.170570 0.126531 0.815110
O O12 0.000000 0.000000 0.000000
O O13 0.624485 0.711223 0.995210
O O14 0.268993 0.437495 0.639957
O O15 0.000000 0.500000 0.500000
#
# Coordination Sequence:
#
# PCOD9058712 Si02
#       7
#     2   2   2   2   2   2   2
#     4  12  28  45  69 112 148 187 235 302 369 421
#     4  11  23  45  80 103 137 194 251 285 353 442
#     4  11  23  48  72 106 146 187 239 300 354 433
#     4  12  26  45  69 107 149 187 238 304 363 421
#     4  11  23  47  74 104 142 188 243 297 355 428
#     4  11  22  47  73 103 139 193 244 289 355 433
#     4  12  25  44  74 105 146 192 238 296 362 429
#
# _framework density 26.645617000000001
#
# number of rings (size 3 to 8) (size 9 to 14) (size 15 to 20)
#    0.000    0.571    4.286    4.286    0.000    6.286 
#    2.571    0.000    0.000    0.000    0.000    0.000 
#    0.000    0.000    0.000    0.000    0.000    0.000 
#
# Total GULP energy -78322.766898 kJ/mol
# GULP energy per Si atom -5594.483350 kJ/mol
# Density = 2.658497 g / cm^3
# Si number density = 26.645617 Si / 1000 Ang^3
#
#
#
# Elastic Constant Matrix: (Units=GPa)
#
#
# Indices 1 2 3 4 5 6 
#
# 1 200.4323 19.2153 7.3536 10.3758 15.7727 3.3542
# 2 19.2153 81.1266 -6.6748 -2.7768 -3.4266 8.2731
# 3 7.3536 -6.6748 31.3893 2.6112 11.0531 11.7672
# 4 10.3758 -2.7768 2.6112 41.0988 5.1493 6.7384
# 5 15.7727 -3.4266 11.0531 5.1493 32.4253 9.9222
# 6 3.3542 8.2731 11.7672 6.7384 9.9222 49.8914
#
#
#
# Elastic Compliance Matrix: (Units=1/GPa)
#
#
# Indices 1 2 3 4 5 6 
#
# 1 0.005425 -0.001589 -0.000905 -0.001229 -0.002543 0.000784
# 2 -0.001589 0.013509 0.003851 0.001437 0.001757 -0.003585
# 3 -0.000905 0.003851 0.039420 0.000567 -0.010259 -0.007911
# 4 -0.001229 0.001437 0.000567 0.025549 -0.002509 -0.003241
# 5 -0.002543 0.001757 -0.010259 -0.002509 0.037642 -0.004848
# 6 0.000784 -0.003585 -0.007911 -0.003241 -0.004848 0.023853
#
#
# Mechanical properties :
#
#
# Convention : Reuss Voigt Hill
#
# Bulk Modulus (GPa) = 16.37542 39.19295 27.78418
# Shear Modulus (GPa) = 30.66727 44.22005 37.44366
#
# Velocity S-wave (km/s) = 3.39622 4.07819 3.75273
# Velocity P-wave (km/s) = 4.64091 6.07589 5.40622
#
# Compressibility (1/GPa) = 0.06106713
#
# Stress axis : x y z
#
# Youngs Moduli (GPa) = 184.31800 74.02738 25.36778
#
# Poissons Ratio (x) = 0.11763 0.02296
# Poissons Ratio (y) = 0.29287 -0.09768
# Poissons Ratio (z) = 0.16681 -0.28504
#
# Static dielectric constant tensor:
#      x y z
#    x 2.059170 -0.063890 -0.046910 
#    y -0.063890 2.138170 0.059920 
#    z -0.046910 0.059920 2.199900 
# 
# From -- ./inp_files/157654.got.cif
#   From: 2010.05.17/outbox.cif.g08.bks.cpg/sg2_79_cif.got.tgz:157654.got - 2010.06.03 11:33:40.
