data_PCOD9058209
_publ_section_title
;
Structure prediction by ZEFSAII (Michael W. Deem and Ramdas Pophale) SiO2 
 PCOD9058209
Probable space group: P -1
;
_chemical_formula_sum "Si O2"
_cell_formula_units_Z 16
_cell_length_a 9.550319
_cell_length_b 9.460504
_cell_length_c 11.984422
_cell_angle_alpha 79.849214
_cell_angle_beta 79.913829
_cell_angle_gamma 45.083307
_cell_volume 752.769051
_symmetry_space_group_name_H-M "P -1"
_symmetry_group_IT_number 2
_symmetry_cell_setting 'triclinic'
loop_
_space_group_symop_operation_xyz
x,y,z
-x,-y,-z
loop_
_atom_site_type_symbol
_atom_site_label
_atom_site_fract_x
_atom_site_fract_y
_atom_site_fract_z
Si Si1 0.936318 0.403719 0.381956
Si Si2 0.723786 0.801554 0.784412
Si Si3 0.451497 0.787162 0.190643
Si Si4 0.382682 0.856051 0.732224
Si Si5 0.604098 0.431001 0.376267
Si Si6 0.274770 0.175731 0.553177
Si Si7 0.794678 0.715009 0.034558
Si Si8 0.199245 0.953678 0.977677
O O1 0.823996 0.337414 0.378285
O O2 0.776612 0.631198 0.417511
O O3 0.051331 0.376910 0.259827
O O4 0.110592 0.265029 0.468202
O O5 0.591212 0.786254 0.735760
O O6 0.664069 0.010152 0.750165
O O7 0.679800 0.805566 0.919653
O O8 0.496769 0.617461 0.281777
O O9 0.656464 0.719659 0.133897
O O10 0.326782 0.838733 0.088716
O O11 0.396665 0.722732 0.658457
O O12 0.309554 0.844313 0.861410
O O13 0.249296 0.077032 0.668659
O O14 0.500000 0.500000 0.500000
O O15 0.500000 0.000000 0.500000
O O16 0.834040 0.850317 0.048189
O O17 0.000000 0.500000 0.000000
O O18 0.000000 0.000000 0.000000
#
# Coordination Sequence:
#
# PCOD9058209 Si02
#       8
#     2   2   2   2   2   2   2   2
#     4  11  26  45  75 107 135 194 251 283 371 436
#     4  11  22  44  74 102 136 186 246 293 354 438
#     4  11  24  49  72  98 149 193 238 300 357 429
#     4  12  25  45  70 102 148 186 234 305 364 415
#     4  12  30  46  68 107 150 189 241 300 366 424
#     4  11  24  46  76 101 139 187 248 308 342 425
#     4  11  23  42  73 104 138 190 243 291 354 437
#     4  11  26  45  69 108 145 185 236 295 378 427
#
# _framework density 21.254857999999999
#
# number of rings (size 3 to 8) (size 9 to 14) (size 15 to 20)
#    0.000    0.750    3.750    3.000   10.500    3.000 
#    0.000    0.000    0.000    0.000    0.000    0.000 
#    0.000    0.000    0.000    0.000    0.000    0.000 
#
# Total GULP energy -89502.529506 kJ/mol
# GULP energy per Si atom -5593.908094 kJ/mol
# Density = 2.120648 g / cm^3
# Si number density = 21.254858 Si / 1000 Ang^3
#
#
#
# Elastic Constant Matrix: (Units=GPa)
#
#
# Indices 1 2 3 4 5 6 
#
# 1 144.2408 42.1446 65.1752 8.2337 15.6093 3.7506
# 2 42.1446 85.0133 24.2856 7.6744 8.2029 -8.3152
# 3 65.1752 24.2856 110.6979 8.8245 -3.5535 -2.2640
# 4 8.2337 7.6744 8.8245 42.2402 5.0075 -0.1273
# 5 15.6093 8.2029 -3.5535 5.0075 34.8438 9.6572
# 6 3.7506 -8.3152 -2.2640 -0.1273 9.6572 32.2965
#
#
#
# Elastic Compliance Matrix: (Units=1/GPa)
#
#
# Indices 1 2 3 4 5 6 
#
# 1 0.011180 -0.003549 -0.005993 0.000242 -0.004459 -0.001298
# 2 -0.003549 0.014749 -0.001035 -0.001377 -0.003200 0.005088
# 3 -0.005993 -0.001035 0.013087 -0.001917 0.004544 -0.000019
# 4 0.000242 -0.001377 -0.001917 0.024721 -0.003725 0.000694
# 5 -0.004459 -0.003200 0.004544 -0.003725 0.035382 -0.010582
# 6 -0.001298 0.005088 -0.000019 0.000694 -0.010582 0.035590
#
#
# Mechanical properties :
#
#
# Convention : Reuss Voigt Hill
#
# Bulk Modulus (GPa) = 55.98379 67.01810 61.50094
# Shear Modulus (GPa) = 30.89906 35.76587 33.33247
#
# Velocity S-wave (km/s) = 3.81693 4.10654 3.96438
# Velocity P-wave (km/s) = 6.76918 7.35419 7.06774
#
# Compressibility (1/GPa) = 0.01786231
#
# Stress axis : x y z
#
# Youngs Moduli (GPa) = 89.44372 67.80253 76.40968
#
# Poissons Ratio (x) = 0.24063 0.45792
# Poissons Ratio (y) = 0.31744 0.07909
# Poissons Ratio (z) = 0.53603 0.07018
#
# Static dielectric constant tensor:
#      x y z
#    x 1.738010 -0.023310 0.008890 
#    y -0.023310 1.772540 -0.025960 
#    z 0.008890 -0.025960 1.840650 
# 
# From -- ./inp_files/381952.got.cif
#   From: 2010.05.17/outbox.cif.g08.bks.cpg/sg2_191_cif.got.tgz:381952.got - 2010.06.03 11:33:40.
