data_PCOD9058429
_publ_section_title
;
Structure prediction by ZEFSAII (Michael W. Deem and Ramdas Pophale) SiO2 
 PCOD9058429
Probable space group: P -1
;
_chemical_formula_sum "Si O2"
_cell_formula_units_Z 16
_cell_length_a 23.082347
_cell_length_b 10.165784
_cell_length_c 9.938927
_cell_angle_alpha 149.107785
_cell_angle_beta 33.641041
_cell_angle_gamma 146.877433
_cell_volume 598.014543
_symmetry_space_group_name_H-M "P -1"
_symmetry_group_IT_number 2
_symmetry_cell_setting 'triclinic'
loop_
_space_group_symop_operation_xyz
x,y,z
-x,-y,-z
loop_
_atom_site_type_symbol
_atom_site_label
_atom_site_fract_x
_atom_site_fract_y
_atom_site_fract_z
Si Si1 0.036055 0.156556 0.787205
Si Si2 0.889730 0.193565 0.461132
Si Si3 0.358028 0.154509 0.889713
Si Si4 0.156504 0.246347 0.355361
Si Si5 0.771599 0.204537 0.433933
Si Si6 0.229372 0.692664 0.961100
Si Si7 0.457618 0.810427 0.046264
Si Si8 0.556038 0.358464 0.518752
O O1 0.101614 0.126652 0.500014
O O2 0.100757 0.490524 0.980896
O O3 0.061599 0.007141 0.735150
O O4 0.904642 0.000067 0.852977
O O5 0.831493 0.105435 0.349636
O O6 0.000000 0.500000 0.500000
O O7 0.793688 0.209758 0.763696
O O8 0.495220 0.291809 0.724564
O O9 0.307117 0.007577 0.714934
O O10 0.299050 0.931659 0.926499
O O11 0.293993 0.357544 0.205616
O O12 0.139658 0.511559 0.563995
O O13 0.680255 0.296709 0.769503
O O14 0.305883 0.512099 0.653407
O O15 0.516882 0.050856 0.256010
O O16 0.503670 0.567970 0.745821
O O17 0.500000 0.000000 0.000000
#
# Coordination Sequence:
#
# PCOD9058429 Si02
#       8
#     2   2   2   2   2   2   2   2
#     4  11  26  43  73 105 141 192 245 306 371 447
#     4  12  27  46  67 104 150 188 242 305 379 439
#     4  11  24  46  74 106 140 195 246 306 372 449
#     4  11  22  45  73 104 141 189 249 302 368 445
#     4  11  24  44  70 102 146 190 243 305 366 449
#     4  12  27  45  72 106 146 193 242 313 377 440
#     4  11  24  45  70 108 149 203 245 299 378 451
#     4  11  26  45  75 111 149 192 253 312 372 445
#
# _framework density 26.755202000000001
#
# number of rings (size 3 to 8) (size 9 to 14) (size 15 to 20)
#    0.000    0.750    5.000    1.500    5.250    2.000 
#    0.000    2.500    0.000    0.000    0.000    0.000 
#    0.000    0.000    0.000    0.000    0.000    0.000 
#
# Total GULP energy -89528.007750 kJ/mol
# GULP energy per Si atom -5595.500484 kJ/mol
# Density = 2.669431 g / cm^3
# Si number density = 26.755202 Si / 1000 Ang^3
#
#
#
# Elastic Constant Matrix: (Units=GPa)
#
#
# Indices 1 2 3 4 5 6 
#
# 1 146.9753 41.8285 46.0408 -12.8130 7.1764 -10.3583
# 2 41.8285 131.8678 20.1469 -13.6912 -6.1148 -28.1962
# 3 46.0408 20.1469 99.2627 -21.5810 -10.1637 -8.2247
# 4 -12.8130 -13.6912 -21.5810 45.3936 1.4631 -1.8653
# 5 7.1764 -6.1148 -10.1637 1.4631 59.2141 -7.0632
# 6 -10.3583 -28.1962 -8.2247 -1.8653 -7.0632 56.4202
#
#
#
# Elastic Compliance Matrix: (Units=1/GPa)
#
#
# Indices 1 2 3 4 5 6 
#
# 1 0.008742 -0.002367 -0.003814 -0.000011 -0.002004 -0.000385
# 2 -0.002367 0.009652 0.000263 0.002504 0.001832 0.004740
# 3 -0.003814 0.000263 0.013412 0.005365 0.002889 0.001926
# 4 -0.000011 0.002504 0.005365 0.025426 0.000909 0.002986
# 5 -0.002004 0.001832 0.002889 0.000909 0.018184 0.003275
# 6 -0.000385 0.004740 0.001926 0.002986 0.003275 0.020812
#
#
# Mechanical properties :
#
#
# Convention : Reuss Voigt Hill
#
# Bulk Modulus (GPa) = 50.07113 66.01535 58.04324
# Shear Modulus (GPa) = 43.58501 50.21155 46.89828
#
# Velocity S-wave (km/s) = 4.04050 4.33679 4.19127
# Velocity P-wave (km/s) = 6.36574 7.05722 6.72038
#
# Compressibility (1/GPa) = 0.01997159
#
# Stress axis : x y z
#
# Youngs Moduli (GPa) = 114.39183 103.60302 74.56284
#
# Poissons Ratio (x) = 0.24519 0.28437
# Poissons Ratio (y) = 0.27072 -0.01964
# Poissons Ratio (z) = 0.43627 -0.02729
#
# Static dielectric constant tensor:
#      x y z
#    x 2.147690 0.043990 -0.007620 
#    y 0.043990 2.083170 -0.005830 
#    z -0.007620 -0.005830 2.192020 
# 
# From -- ./inp_files/352480.got.cif
#   From: 2010.05.17/outbox.cif.g08.bks.cpg/sg2_177_cif.got.tgz:352480.got - 2010.06.03 11:33:40.
