data_PCOD9058627
_publ_section_title
;
Structure prediction by ZEFSAII (Michael W. Deem and Ramdas Pophale) SiO2 
 PCOD9058627
Probable space group: P -1
;
_chemical_formula_sum "Si O2"
_cell_formula_units_Z 15
_cell_length_a 11.951703
_cell_length_b 17.045012
_cell_length_c 11.559207
_cell_angle_alpha 29.195767
_cell_angle_beta 52.304195
_cell_angle_gamma 32.635764
_cell_volume 546.758145
_symmetry_space_group_name_H-M "P -1"
_symmetry_group_IT_number 2
_symmetry_cell_setting 'triclinic'
loop_
_space_group_symop_operation_xyz
x,y,z
-x,-y,-z
loop_
_atom_site_type_symbol
_atom_site_label
_atom_site_fract_x
_atom_site_fract_y
_atom_site_fract_z
Si Si1 0.991500 0.248860 0.986683
Si Si2 0.110613 0.067519 0.885319
Si Si3 0.266437 0.321093 0.241430
Si Si4 0.500000 0.000000 0.000000
Si Si5 0.867605 0.457457 0.330945
Si Si6 0.595254 0.143229 0.605470
Si Si7 0.497969 0.397722 0.899668
Si Si8 0.859497 0.015529 0.378912
O O1 0.924756 0.134671 0.227823
O O2 0.793190 0.554533 0.753918
O O3 0.235719 0.084445 0.103597
O O4 0.035050 0.178819 0.916912
O O5 0.018942 0.277551 0.581217
O O6 0.381098 0.783808 0.056565
O O7 0.000000 0.000000 0.000000
O O8 0.038950 0.434356 0.195637
O O9 0.500000 0.000000 0.500000
O O10 0.290099 0.464523 0.971510
O O11 0.374375 0.253942 0.842520
O O12 0.397463 0.195537 0.694203
O O13 0.910914 0.265719 0.466977
O O14 0.539131 0.378406 0.369503
O O15 0.733033 0.031999 0.540807
O O16 0.668891 0.213432 0.141272
#
# Coordination Sequence:
#
# PCOD9058627 Si02
#       8
#     2   2   2   1   2   2   2   2
#     4  12  26  46  75 110 152 200 245 311 378 441
#     4  11  22  46  75 108 148 194 255 303 365 453
#     4  12  24  48  73 113 149 186 261 305 372 434
#     4  12  28  50  70 108 162 194 240 310 390 440
#     4  11  25  50  72 112 148 199 252 312 373 443
#     4  12  27  48  70 114 152 195 251 305 378 454
#     4  11  24  45  81 109 144 200 253 306 372 442
#     4  11  24  47  82 107 144 201 259 307 363 453
#
# _framework density 27.434432000000001
#
# number of rings (size 3 to 8) (size 9 to 14) (size 15 to 20)
#    0.000    0.533    8.000    1.600    0.000    1.600 
#    4.800    0.000    0.000    0.000    0.000    0.000 
#    0.000    0.000    0.000    0.000    0.000    0.000 
#
# Total GULP energy -83820.882872 kJ/mol
# GULP energy per Si atom -5588.058858 kJ/mol
# Density = 2.737199 g / cm^3
# Si number density = 27.434432 Si / 1000 Ang^3
#
#
#
# Elastic Constant Matrix: (Units=GPa)
#
#
# Indices 1 2 3 4 5 6 
#
# 1 54.2481 28.5746 27.1868 -6.2452 -6.1369 14.4421
# 2 28.5746 210.6529 89.5779 -21.7270 -14.0192 43.1151
# 3 27.1868 89.5779 170.1469 -7.3622 -23.6959 27.0407
# 4 -6.2452 -21.7270 -7.3622 72.3693 6.1575 -9.4150
# 5 -6.1369 -14.0192 -23.6959 6.1575 52.9957 -0.6598
# 6 14.4421 43.1151 27.0407 -9.4150 -0.6598 53.4618
#
#
#
# Elastic Compliance Matrix: (Units=1/GPa)
#
#
# Indices 1 2 3 4 5 6 
#
# 1 0.021226 -0.001115 -0.002034 0.000717 0.001124 -0.003666
# 2 -0.001115 0.007002 -0.002830 0.001214 0.000270 -0.003697
# 3 -0.002034 -0.002830 0.008279 -0.000604 0.002770 -0.001428
# 4 0.000717 0.001214 -0.000604 0.014531 -0.001534 0.001673
# 5 0.001124 0.000270 0.002770 -0.001534 0.020464 -0.001940
# 6 -0.003666 -0.003697 -0.001428 0.001673 -0.001940 0.023669
#
#
# Mechanical properties :
#
#
# Convention : Reuss Voigt Hill
#
# Bulk Modulus (GPa) = 40.73755 80.63627 60.68691
# Shear Modulus (GPa) = 43.36006 55.07926 49.21966
#
# Velocity S-wave (km/s) = 3.97986 4.48556 4.24026
# Velocity P-wave (km/s) = 6.00003 7.50221 6.79277
#
# Compressibility (1/GPa) = 0.02454737
#
# Stress axis : x y z
#
# Youngs Moduli (GPa) = 47.11111 142.81920 120.78841
#
# Poissons Ratio (x) = 0.15927 0.24573
# Poissons Ratio (y) = 0.05254 0.34188
# Poissons Ratio (z) = 0.09584 0.40424
#
# Static dielectric constant tensor:
#      x y z
#    x 3.671760 -1.668920 -0.370090 
#    y -1.668920 3.956010 0.477560 
#    z -0.370090 0.477560 2.320770 
# 
# From -- ./inp_files/298410.got.cif
#   From: 2010.05.17/outbox.cif.g08.bks.cpg/sg2_150_cif.got.tgz:298410.got - 2010.06.03 11:33:40.
