data_PCOD9058433
_publ_section_title
;
Structure prediction by ZEFSAII (Michael W. Deem and Ramdas Pophale) SiO2 
 PCOD9058433
Probable space group: P -1
;
_chemical_formula_sum "Si O2"
_cell_formula_units_Z 16
_cell_length_a 14.523652
_cell_length_b 10.362374
_cell_length_c 14.292909
_cell_angle_alpha 149.803624
_cell_angle_beta 141.417357
_cell_angle_gamma 55.470115
_cell_volume 632.839510
_symmetry_space_group_name_H-M "P -1"
_symmetry_group_IT_number 2
_symmetry_cell_setting 'triclinic'
loop_
_space_group_symop_operation_xyz
x,y,z
-x,-y,-z
loop_
_atom_site_type_symbol
_atom_site_label
_atom_site_fract_x
_atom_site_fract_y
_atom_site_fract_z
Si Si1 0.351721 0.457782 0.103946
Si Si2 0.568201 0.673862 0.254380
Si Si3 0.257151 0.728370 0.839692
Si Si4 0.053934 0.221082 0.095973
Si Si5 0.013942 0.374596 0.572139
Si Si6 0.859512 0.004501 0.458487
Si Si7 0.413125 0.309730 0.396166
Si Si8 0.167581 0.774757 0.241649
O O1 0.424392 0.651517 0.194410
O O2 0.485773 0.553754 0.347890
O O3 0.203990 0.513474 0.067648
O O4 0.295122 0.151837 0.823692
O O5 0.674432 0.509697 0.281640
O O6 0.671181 0.976600 0.497277
O O7 0.500000 0.500000 0.000000
O O8 0.124514 0.607395 0.737908
O O9 0.153561 0.784547 0.708726
O O10 0.390002 0.997093 0.153095
O O11 0.234949 0.288199 0.259121
O O12 0.025003 0.485172 0.279903
O O13 0.956198 0.155670 0.880902
O O14 0.000000 0.000000 0.000000
O O15 0.120616 0.199225 0.572699
O O16 0.858703 0.245642 0.679310
O O17 0.000000 0.000000 0.500000
O O18 0.500000 0.500000 0.500000
#
# Coordination Sequence:
#
# PCOD9058433 Si02
#       8
#     2   2   2   2   2   2   2   2
#     4  12  27  48  70 109 149 198 243 304 384 450
#     4  12  23  43  73 110 150 187 245 312 380 434
#     4  11  23  43  74 106 146 193 250 305 372 437
#     4  12  24  45  75 111 144 195 255 306 368 447
#     4  11  22  45  73 106 138 192 257 313 350 436
#     4  12  28  47  73 107 148 198 251 308 372 445
#     4  12  29  47  71 110 157 196 241 316 389 448
#     4  12  25  46  79 107 145 194 254 308 366 448
#
# _framework density 25.282872000000001
#
# number of rings (size 3 to 8) (size 9 to 14) (size 15 to 20)
#    0.000    0.250    5.000    4.125    3.500    1.500 
#    0.000    1.250    0.000    0.000    0.000    0.000 
#    0.000    0.000    0.000    0.000    0.000    0.000 
#
# Total GULP energy -89581.904963 kJ/mol
# GULP energy per Si atom -5598.869060 kJ/mol
# Density = 2.522533 g / cm^3
# Si number density = 25.282872 Si / 1000 Ang^3
#
#
#
# Elastic Constant Matrix: (Units=GPa)
#
#
# Indices 1 2 3 4 5 6 
#
# 1 173.1598 5.2315 45.4059 -4.2924 -9.4310 8.5826
# 2 5.2315 48.9517 31.9092 -17.5997 -7.2212 -3.0456
# 3 45.4059 31.9092 146.4764 -39.4462 -17.1379 18.1247
# 4 -4.2924 -17.5997 -39.4462 43.0228 0.8857 -7.8279
# 5 -9.4310 -7.2212 -17.1379 0.8857 51.7757 -0.5799
# 6 8.5826 -3.0456 18.1247 -7.8279 -0.5799 43.5085
#
#
#
# Elastic Compliance Matrix: (Units=1/GPa)
#
#
# Indices 1 2 3 4 5 6 
#
# 1 0.006391 0.000346 -0.002332 -0.001463 0.000460 -0.000522
# 2 0.000346 0.026591 -0.004079 0.008028 0.002340 0.004968
# 3 -0.002332 -0.004079 0.011207 0.007764 0.002549 -0.003063
# 4 -0.001463 0.008028 0.007764 0.034131 0.002882 0.003796
# 5 0.000460 0.002340 0.002549 0.002882 0.020516 -0.000197
# 6 -0.000522 0.004968 -0.003063 0.003796 -0.000197 0.025391
#
#
# Mechanical properties :
#
#
# Convention : Reuss Voigt Hill
#
# Bulk Modulus (GPa) = 31.19306 59.29791 45.24548
# Shear Modulus (GPa) = 34.00375 46.73082 40.36728
#
# Velocity S-wave (km/s) = 3.67131 4.30387 4.00011
# Velocity P-wave (km/s) = 5.50779 6.94280 6.26651
#
# Compressibility (1/GPa) = 0.03205841
#
# Stress axis : x y z
#
# Youngs Moduli (GPa) = 156.47635 37.60703 89.23274
#
# Poissons Ratio (x) = -0.01303 0.20812
# Poissons Ratio (y) = -0.05421 0.36398
# Poissons Ratio (z) = 0.36495 0.15340
#
# Static dielectric constant tensor:
#      x y z
#    x 1.964510 0.005620 -0.004210 
#    y 0.005620 2.043840 0.009410 
#    z -0.004210 0.009410 2.003410 
# 
# From -- ./inp_files/532828.got.cif
#   From: 2010.05.17/outbox.cif.g08.bks.cpg/sg2_267_cif.got.tgz:532828.got - 2010.06.03 11:33:40.
