data_PCOD9058673
_publ_section_title
;
Structure prediction by ZEFSAII (Michael W. Deem and Ramdas Pophale) SiO2 
 PCOD9058673
Probable space group: P -1
;
_chemical_formula_sum "Si O2"
_cell_formula_units_Z 16
_cell_length_a 13.636009
_cell_length_b 8.451620
_cell_length_c 11.902712
_cell_angle_alpha 85.974677
_cell_angle_beta 31.230653
_cell_angle_gamma 77.715228
_cell_volume 677.828054
_symmetry_space_group_name_H-M "P -1"
_symmetry_group_IT_number 2
_symmetry_cell_setting 'triclinic'
loop_
_space_group_symop_operation_xyz
x,y,z
-x,-y,-z
loop_
_atom_site_type_symbol
_atom_site_label
_atom_site_fract_x
_atom_site_fract_y
_atom_site_fract_z
Si Si1 0.816677 0.205526 0.307224
Si Si2 0.565141 0.831732 0.014355
Si Si3 0.748842 0.981975 0.026864
Si Si4 0.356356 0.595088 0.323264
Si Si5 0.169745 0.338636 0.435538
Si Si6 0.022116 0.646538 0.049073
Si Si7 0.785782 0.335448 0.906520
Si Si8 0.662253 0.889593 0.500308
O O1 0.695159 0.352433 0.500066
O O2 0.726541 0.055150 0.419293
O O3 0.838854 0.263485 0.157072
O O4 0.045121 0.134538 0.125110
O O5 0.388218 0.754235 0.220837
O O6 0.722291 0.708419 0.785868
O O7 0.500000 0.000000 0.000000
O O8 0.661260 0.875359 0.031322
O O9 0.786075 0.145317 0.927806
O O10 0.573075 0.058177 0.283875
O O11 0.194234 0.512102 0.444321
O O12 0.564362 0.453295 0.107334
O O13 0.279612 0.200458 0.429916
O O14 0.943381 0.340615 0.657130
O O15 0.122204 0.605737 0.074647
O O16 0.800768 0.763501 0.283834
O O17 0.000000 0.500000 0.000000
#
# Coordination Sequence:
#
# PCOD9058673 Si02
#       8
#     2   2   2   2   2   2   2   2
#     4  12  25  46  70 106 143 188 233 289 348 417
#     4  12  25  46  72 106 139 188 237 284 354 416
#     4  12  25  45  73 101 143 186 233 287 349 412
#     4  12  26  46  73 103 148 183 233 293 348 414
#     4  11  23  46  70 101 150 181 231 295 345 412
#     4  11  26  45  73 104 144 183 236 287 353 419
#     4  11  26  48  72 103 141 189 231 291 356 407
#     4  11  22  47  68 104 144 183 228 296 339 418
#
# _framework density 23.604804000000001
#
# number of rings (size 3 to 8) (size 9 to 14) (size 15 to 20)
#    0.000    0.500    6.250    2.250    3.500    2.000 
#    2.250    0.000    0.000    0.000    0.000    0.000 
#    0.000    0.000    0.000    0.000    0.000    0.000 
#
# Total GULP energy -89639.765582 kJ/mol
# GULP energy per Si atom -5602.485349 kJ/mol
# Density = 2.355108 g / cm^3
# Si number density = 23.604804 Si / 1000 Ang^3
#
#
#
# Elastic Constant Matrix: (Units=GPa)
#
#
# Indices 1 2 3 4 5 6 
#
# 1 28.4031 19.8967 4.8913 -12.9602 2.8709 10.7519
# 2 19.8967 76.4483 8.0215 -15.8591 6.2888 24.6715
# 3 4.8913 8.0215 149.4265 -12.0473 8.8862 15.0171
# 4 -12.9602 -15.8591 -12.0473 46.2554 7.0151 0.9599
# 5 2.8709 6.2888 8.8862 7.0151 39.0272 3.5817
# 6 10.7519 24.6715 15.0171 0.9599 3.5817 43.6675
#
#
#
# Elastic Compliance Matrix: (Units=1/GPa)
#
#
# Indices 1 2 3 4 5 6 
#
# 1 0.049383 -0.007405 0.000841 0.012307 -0.004091 -0.008200
# 2 -0.007405 0.019233 0.000731 0.005330 -0.002837 -0.009179
# 3 0.000841 0.000731 0.007273 0.002754 -0.002054 -0.003013
# 4 0.012307 0.005330 0.002754 0.028809 -0.006922 -0.007055
# 5 -0.004091 -0.002837 -0.002054 -0.006922 0.027985 0.001173
# 6 -0.008200 -0.009179 -0.003013 -0.007055 0.001173 0.031200
#
#
# Mechanical properties :
#
#
# Convention : Reuss Voigt Hill
#
# Bulk Modulus (GPa) = 15.57125 35.54409 25.55767
# Shear Modulus (GPa) = 25.38628 40.55456 32.97042
#
# Velocity S-wave (km/s) = 3.28299 4.14945 3.74139
# Velocity P-wave (km/s) = 4.58058 6.16830 5.43275
#
# Compressibility (1/GPa) = 0.06422094
#
# Stress axis : x y z
#
# Youngs Moduli (GPa) = 20.24981 51.99504 137.50411
#
# Poissons Ratio (x) = 0.38503 -0.11558
# Poissons Ratio (y) = 0.14995 -0.10049
# Poissons Ratio (z) = -0.01702 -0.03800
#
# Static dielectric constant tensor:
#      x y z
#    x 1.901330 -0.037200 0.006770 
#    y -0.037200 1.898590 -0.003090 
#    z 0.006770 -0.003090 1.871940 
# 
# From -- ./inp_files/447454.got.cif
#   From: 2010.05.17/outbox.cif.g08.bks.cpg/sg2_224_cif.got.tgz:447454.got - 2010.06.03 11:33:40.
