data_PCOD9058386
_publ_section_title
;
Structure prediction by ZEFSAII (Michael W. Deem and Ramdas Pophale) SiO2 
 PCOD9058386
Probable space group: P -1
;
_chemical_formula_sum "Si O2"
_cell_formula_units_Z 16
_cell_length_a 9.251436
_cell_length_b 14.413183
_cell_length_c 9.675829
_cell_angle_alpha 77.765556
_cell_angle_beta 136.802556
_cell_angle_gamma 85.661577
_cell_volume 810.424911
_symmetry_space_group_name_H-M "P -1"
_symmetry_group_IT_number 2
_symmetry_cell_setting 'triclinic'
loop_
_space_group_symop_operation_xyz
x,y,z
-x,-y,-z
loop_
_atom_site_type_symbol
_atom_site_label
_atom_site_fract_x
_atom_site_fract_y
_atom_site_fract_z
Si Si1 0.893956 0.088071 0.738971
Si Si2 0.201050 0.221584 0.495136
Si Si3 0.260477 0.088801 0.307395
Si Si4 0.109176 0.624660 0.955388
Si Si5 0.659241 0.604870 0.785537
Si Si6 0.481710 0.195785 0.224568
Si Si7 0.324494 0.105728 0.895415
Si Si8 0.633841 0.273154 0.697487
O O1 0.723183 0.129069 0.476322
O O2 0.778710 0.173228 0.746085
O O3 0.137924 0.084777 0.866547
O O4 0.899226 0.975402 0.812056
O O5 0.216451 0.141319 0.408798
O O6 0.202839 0.172483 0.659473
O O7 0.426914 0.249750 0.631006
O O8 0.987646 0.317943 0.272679
O O9 0.297866 0.167550 0.200062
O O10 0.500000 0.000000 0.500000
O O11 0.889865 0.616382 0.884193
O O12 0.281250 0.511065 0.095450
O O13 0.220987 0.689725 0.104970
O O14 0.566698 0.686690 0.816546
O O15 0.479351 0.641170 0.524136
O O16 0.448978 0.164749 0.057208
O O17 0.500000 0.000000 0.000000
#
# Coordination Sequence:
#
# PCOD9058386 Si02
#       8
#     2   2   2   2   2   2   2   2
#     4  10  22  37  65  86 118 163 203 241 302 363
#     4  11  23  40  55  90 128 152 203 256 293 353
#     4  10  17  37  61  82 118 156 200 249 287 347
#     4  10  19  34  62  89 124 153 194 253 311 341
#     4   9  18  36  60  95 119 149 198 258 294 353
#     4  10  20  40  61  87 123 156 199 253 294 360
#     4  12  27  40  57  89 126 164 201 247 306 358
#     4  10  19  37  64  93 115 158 204 245 293 364
#
# _framework density 19.742730000000002
#
# number of rings (size 3 to 8) (size 9 to 14) (size 15 to 20)
#    0.000    1.750    5.000    2.625    0.000    4.500 
#    0.000    0.625    0.000    3.750    0.000    0.000 
#    0.000    0.000    0.000    0.000    0.000    0.000 
#
# Total GULP energy -89370.471256 kJ/mol
# GULP energy per Si atom -5585.654453 kJ/mol
# Density = 1.969779 g / cm^3
# Si number density = 19.742730 Si / 1000 Ang^3
#
#
#
# Elastic Constant Matrix: (Units=GPa)
#
#
# Indices 1 2 3 4 5 6 
#
# 1 29.4937 5.0439 14.6878 1.2509 4.9581 4.7598
# 2 5.0439 76.3942 44.1346 1.1679 -10.8049 3.4918
# 3 14.6878 44.1346 107.5292 3.7025 2.4130 3.4322
# 4 1.2509 1.1679 3.7025 42.4734 1.0717 2.0142
# 5 4.9581 -10.8049 2.4130 1.0717 27.5043 3.3124
# 6 4.7598 3.4918 3.4322 2.0142 3.3124 22.1766
#
#
#
# Elastic Compliance Matrix: (Units=1/GPa)
#
#
# Indices 1 2 3 4 5 6 
#
# 1 0.038380 -0.000296 -0.004773 -0.000248 -0.005816 -0.006561
# 2 -0.000296 0.018994 -0.007855 0.000097 0.008562 -0.002999
# 3 -0.004773 -0.007855 0.013254 -0.000749 -0.003455 0.000794
# 4 -0.000248 0.000097 -0.000749 0.023719 -0.000544 -0.001919
# 5 -0.005816 0.008562 -0.003455 -0.000544 0.041788 -0.005757
# 6 -0.006561 -0.002999 0.000794 -0.001919 -0.005757 0.047884
#
#
# Mechanical properties :
#
#
# Convention : Reuss Voigt Hill
#
# Bulk Modulus (GPa) = 22.33106 37.90552 30.11829
# Shear Modulus (GPa) = 22.24266 28.40092 25.32179
#
# Velocity S-wave (km/s) = 3.36017 3.79694 3.58521
# Velocity P-wave (km/s) = 5.13711 6.20191 5.69445
#
# Compressibility (1/GPa) = 0.04478067
#
# Stress axis : x y z
#
# Youngs Moduli (GPa) = 26.05526 52.64732 75.44943
#
# Poissons Ratio (x) = 0.01557 0.36009
# Poissons Ratio (y) = 0.00771 0.59269
# Poissons Ratio (z) = 0.12435 0.41357
#
# Static dielectric constant tensor:
#      x y z
#    x 1.679800 0.024710 0.006070 
#    y 0.024710 1.704130 0.003320 
#    z 0.006070 0.003320 1.730070 
# 
# From -- ./inp_files/207204.got.cif
#   From: 2010.05.17/outbox.cif.g08.bks.cpg/sg2_104_cif.got.tgz:207204.got - 2010.06.03 11:33:40.
