data_PCOD9058547
_publ_section_title
;
Structure prediction by ZEFSAII (Michael W. Deem and Ramdas Pophale) SiO2 
 PCOD9058547
Probable space group: P -1
;
_chemical_formula_sum "Si O2"
_cell_formula_units_Z 16
_cell_length_a 14.491846
_cell_length_b 11.827087
_cell_length_c 8.300223
_cell_angle_alpha 127.839209
_cell_angle_beta 38.231389
_cell_angle_gamma 128.016480
_cell_volume 668.614515
_symmetry_space_group_name_H-M "P -1"
_symmetry_group_IT_number 2
_symmetry_cell_setting 'triclinic'
loop_
_space_group_symop_operation_xyz
x,y,z
-x,-y,-z
loop_
_atom_site_type_symbol
_atom_site_label
_atom_site_fract_x
_atom_site_fract_y
_atom_site_fract_z
Si Si1 0.702144 0.819987 0.529485
Si Si2 0.968403 0.032443 0.886554
Si Si3 0.839140 0.360128 0.773127
Si Si4 0.597651 0.536840 0.234152
Si Si5 0.381497 0.857936 0.884121
Si Si6 0.678569 0.849659 0.933496
Si Si7 0.583317 0.339000 0.641390
Si Si8 0.087088 0.653859 0.698193
O O1 0.705105 0.701007 0.279888
O O2 0.550525 0.876658 0.750790
O O3 0.866287 0.941073 0.402454
O O4 0.691669 0.759011 0.673335
O O5 0.920293 0.188740 0.080930
O O6 0.834652 0.905042 0.872855
O O7 0.000000 0.000000 0.000000
O O8 0.920241 0.326827 0.469481
O O9 0.956185 0.510088 0.814608
O O10 0.691444 0.417925 0.980828
O O11 0.762614 0.223818 0.875749
O O12 0.500000 0.500000 0.500000
O O13 0.500412 0.545311 0.216746
O O14 0.388563 0.746695 0.632679
O O15 0.358428 0.004309 0.962141
O O16 0.538431 0.769099 0.169551
O O17 0.752195 0.385769 0.525979
#
# Coordination Sequence:
#
# PCOD9058547 Si02
#       8
#     2   2   2   2   2   2   2   2
#     4  11  24  43  69 101 134 180 224 284 339 399
#     4  12  26  44  68  97 142 183 226 284 340 399
#     4  11  24  47  69  99 137 179 230 273 348 400
#     4  11  22  46  70  99 133 178 228 277 341 403
#     4  11  23  44  73 100 135 182 222 287 339 411
#     4  12  26  45  68 105 137 176 236 277 345 408
#     4  11  24  43  70 101 134 180 224 280 339 400
#     4  11  26  45  68 101 135 181 229 283 336 409
#
# _framework density 23.930081999999999
#
# number of rings (size 3 to 8) (size 9 to 14) (size 15 to 20)
#    0.000    0.750    5.000    3.375    3.500    1.000 
#    2.250    0.000    0.000    0.000    0.000    0.000 
#    0.000    0.000    0.000    0.000    0.000    0.000 
#
# Total GULP energy -89531.851741 kJ/mol
# GULP energy per Si atom -5595.740734 kJ/mol
# Density = 2.387562 g / cm^3
# Si number density = 23.930082 Si / 1000 Ang^3
#
#
#
# Elastic Constant Matrix: (Units=GPa)
#
#
# Indices 1 2 3 4 5 6 
#
# 1 129.3543 39.1902 11.6318 -22.6628 -5.3900 -2.6121
# 2 39.1902 117.9347 39.8256 -27.3205 -21.6553 -20.7309
# 3 11.6318 39.8256 72.2310 -22.5238 1.7587 -1.0725
# 4 -22.6628 -27.3205 -22.5238 52.6809 12.5222 3.4131
# 5 -5.3900 -21.6553 1.7587 12.5222 28.4097 -4.2992
# 6 -2.6121 -20.7309 -1.0725 3.4131 -4.2992 33.4134
#
#
#
# Elastic Compliance Matrix: (Units=1/GPa)
#
#
# Indices 1 2 3 4 5 6 
#
# 1 0.009191 -0.003849 0.001834 0.003680 -0.003290 -0.002410
# 2 -0.003849 0.018010 -0.009881 -0.001183 0.016059 0.012743
# 3 0.001834 -0.009881 0.021957 0.008805 -0.013625 -0.007935
# 4 0.003680 -0.001183 0.008805 0.027217 -0.013453 -0.004675
# 5 -0.003290 0.016059 -0.013625 -0.013453 0.056296 0.017887
# 6 -0.002410 0.012743 -0.007935 -0.004675 0.017887 0.040170
#
#
# Mechanical properties :
#
#
# Convention : Reuss Voigt Hill
#
# Bulk Modulus (GPa) = 39.42314 55.64612 47.53463
# Shear Modulus (GPa) = 24.37998 38.15897 31.26948
#
# Velocity S-wave (km/s) = 3.19533 3.99758 3.61875
# Velocity P-wave (km/s) = 5.48849 6.67919 6.11290
#
# Compressibility (1/GPa) = 0.02536582
#
# Stress axis : x y z
#
# Youngs Moduli (GPa) = 108.80431 55.52605 45.54432
#
# Poissons Ratio (x) = 0.21370 -0.08352
# Poissons Ratio (y) = 0.41875 0.45002
# Poissons Ratio (z) = -0.19953 0.54864
#
# Static dielectric constant tensor:
#      x y z
#    x 1.975380 0.042440 0.030060 
#    y 0.042440 1.975940 0.041780 
#    z 0.030060 0.041780 1.948160 
# 
# From -- ./inp_files/308265.got.cif
#   From: 2010.05.17/outbox.cif.g08.bks.cpg/sg2_155_cif.got.tgz:308265.got - 2010.06.03 11:33:40.
