data_PCOD9058361
_publ_section_title
;
Structure prediction by ZEFSAII (Michael W. Deem and Ramdas Pophale) SiO2 
 PCOD9058361
Probable space group: P -1
;
_chemical_formula_sum "Si O2"
_cell_formula_units_Z 16
_cell_length_a 9.232805
_cell_length_b 9.302182
_cell_length_c 14.644234
_cell_angle_alpha 134.008364
_cell_angle_beta 108.122209
_cell_angle_gamma 97.611428
_cell_volume 739.562278
_symmetry_space_group_name_H-M "P -1"
_symmetry_group_IT_number 2
_symmetry_cell_setting 'triclinic'
loop_
_space_group_symop_operation_xyz
x,y,z
-x,-y,-z
loop_
_atom_site_type_symbol
_atom_site_label
_atom_site_fract_x
_atom_site_fract_y
_atom_site_fract_z
Si Si1 0.602466 0.453097 0.579509
Si Si2 0.517095 0.075227 0.139569
Si Si3 0.609090 0.432295 0.059816
Si Si4 0.036505 0.543127 0.920751
Si Si5 0.106647 0.459120 0.581418
Si Si6 0.164239 0.057967 0.120319
Si Si7 0.812261 0.247345 0.583458
Si Si8 0.674821 0.722592 0.388483
O O1 0.500000 0.500000 0.500000
O O2 0.787108 0.697544 0.719248
O O3 0.660582 0.261174 0.501956
O O4 0.490784 0.378201 0.619005
O O5 0.705648 0.303713 0.283750
O O6 0.355938 0.118011 0.146214
O O7 0.500000 0.000000 0.000000
O O8 0.491330 0.848661 0.085820
O O9 0.807909 0.506197 0.100289
O O10 0.626931 0.548692 0.215003
O O11 0.500000 0.500000 0.000000
O O12 0.869941 0.392052 0.754062
O O13 0.000000 0.500000 0.000000
O O14 0.103792 0.815455 0.048536
O O15 0.169720 0.270512 0.515007
O O16 0.000000 0.500000 0.500000
O O17 0.988016 0.386775 0.617610
O O18 0.000000 0.000000 0.000000
O O19 0.743987 0.980206 0.476648
#
# Coordination Sequence:
#
# PCOD9058361 Si02
#       8
#     2   2   2   2   2   2   2   2
#     4  12  27  47  73 109 145 197 247 302 373 437
#     4  11  22  45  71 100 139 182 246 303 353 428
#     4  11  26  44  73 103 141 192 241 299 369 432
#     4  11  26  45  70 108 142 187 241 301 368 439
#     4  12  25  45  75 108 145 195 244 304 366 437
#     4  11  23  45  73  97 140 186 246 298 357 432
#     4  12  27  46  72 108 152 191 244 304 371 441
#     4  12  26  49  71 107 152 192 244 304 368 444
#
# _framework density 21.634416999999999
#
# number of rings (size 3 to 8) (size 9 to 14) (size 15 to 20)
#    0.000    0.500    5.000    2.250    5.250    2.000 
#    0.000    0.000    0.000    0.000    0.000    0.000 
#    0.000    0.000    0.000    0.000    0.000    0.000 
#
# Total GULP energy -89212.519350 kJ/mol
# GULP energy per Si atom -5575.782459 kJ/mol
# Density = 2.158518 g / cm^3
# Si number density = 21.634417 Si / 1000 Ang^3
#
#
#
# Elastic Constant Matrix: (Units=GPa)
#
#
# Indices 1 2 3 4 5 6 
#
# 1 94.2753 78.9874 22.3888 9.8171 13.5276 -8.1112
# 2 78.9874 161.3304 68.3202 11.1130 15.7345 -22.1266
# 3 22.3888 68.3202 86.6620 16.4316 20.4739 -1.6885
# 4 9.8171 11.1130 16.4316 36.5316 -6.2919 -1.8860
# 5 13.5276 15.7345 20.4739 -6.2919 34.2114 -7.7830
# 6 -8.1112 -22.1266 -1.6885 -1.8860 -7.7830 52.9098
#
#
#
# Elastic Compliance Matrix: (Units=1/GPa)
#
#
# Indices 1 2 3 4 5 6 
#
# 1 0.021427 -0.013090 0.008401 -0.007405 -0.009662 -0.003607
# 2 -0.013090 0.018155 -0.013685 0.005785 0.007551 0.006466
# 3 0.008401 -0.013685 0.026518 -0.013257 -0.016822 -0.006536
# 4 -0.007405 0.005785 -0.013257 0.036546 0.015948 0.004510
# 5 -0.009662 0.007551 -0.016822 0.015948 0.044454 0.008248
# 6 -0.003607 0.006466 -0.006536 0.004510 0.008248 0.022216
#
#
# Mechanical properties :
#
#
# Convention : Reuss Voigt Hill
#
# Bulk Modulus (GPa) = 34.07216 75.74008 54.90612
# Shear Modulus (GPa) = 23.16415 36.23531 29.69973
#
# Velocity S-wave (km/s) = 3.27572 4.09698 3.70915
# Velocity P-wave (km/s) = 5.48547 7.58060 6.61649
#
# Compressibility (1/GPa) = 0.02934947
#
# Stress axis : x y z
#
# Youngs Moduli (GPa) = 46.67004 55.08156 37.70974
#
# Poissons Ratio (x) = 0.72104 -0.31678
# Poissons Ratio (y) = 0.61093 0.51608
# Poissons Ratio (z) = -0.39205 0.75382
#
# Static dielectric constant tensor:
#      x y z
#    x 1.754070 -0.080390 -0.144680 
#    y -0.080390 1.799410 -0.048820 
#    z -0.144680 -0.048820 1.681350 
# 
# From -- ./inp_files/495772.got.cif
#   From: 2010.05.17/outbox.cif.g08.bks.cpg/sg2_248_cif.got.tgz:495772.got - 2010.06.03 11:33:40.
