data_PCOD9058129
_publ_section_title
;
Structure prediction by ZEFSAII (Michael W. Deem and Ramdas Pophale) SiO2 
 PCOD9058129
Probable space group: P -1
;
_chemical_formula_sum "Si O2"
_cell_formula_units_Z 16
_cell_length_a 12.839606
_cell_length_b 11.419484
_cell_length_c 11.225597
_cell_angle_alpha 129.637198
_cell_angle_beta 123.149519
_cell_angle_gamma 98.360010
_cell_volume 681.536212
_symmetry_space_group_name_H-M "P -1"
_symmetry_group_IT_number 2
_symmetry_cell_setting 'triclinic'
loop_
_space_group_symop_operation_xyz
x,y,z
-x,-y,-z
loop_
_atom_site_type_symbol
_atom_site_label
_atom_site_fract_x
_atom_site_fract_y
_atom_site_fract_z
Si Si1 0.855468 0.726812 0.598122
Si Si2 0.652586 0.760952 0.321196
Si Si3 0.699245 0.266719 0.092788
Si Si4 0.302657 0.756605 0.444251
Si Si5 0.612147 0.456904 0.495048
Si Si6 0.784299 0.052333 0.147621
Si Si7 0.932656 0.193528 0.598959
Si Si8 0.324420 0.673103 0.142250
O O1 0.768243 0.789422 0.517677
O O2 0.756429 0.485685 0.317078
O O3 0.785137 0.657579 0.644223
O O4 0.082715 0.923112 0.841441
O O5 0.522074 0.775175 0.297962
O O6 0.805115 0.964394 0.451936
O O7 0.500000 0.500000 0.000000
O O8 0.793524 0.229562 0.212797
O O9 0.749633 0.308129 0.010277
O O10 0.472006 0.010817 0.781746
O O11 0.312342 0.594099 0.394224
O O12 0.113742 0.677251 0.303539
O O13 0.341407 0.782150 0.344706
O O14 0.500000 0.500000 0.500000
O O15 0.438156 0.205938 0.155363
O O16 0.873354 0.122679 0.379080
O O17 0.162105 0.391394 0.881851
#
# Coordination Sequence:
#
# PCOD9058129 Si02
#       8
#     2   2   2   2   2   2   2   2
#     4  12  24  44  71  98 135 176 220 279 332 394
#     4  12  24  42  64  97 137 176 218 272 333 396
#     4  11  22  44  71  99 133 176 223 277 332 392
#     4  11  24  44  68  98 139 179 219 276 333 398
#     4  11  26  46  68  98 136 175 220 275 335 401
#     4  11  25  44  72 101 130 172 227 281 328 394
#     4  12  25  43  69 104 130 175 230 272 334 392
#     4  12  25  44  66 100 139 175 224 276 332 392
#
# _framework density 23.476376999999999
#
# number of rings (size 3 to 8) (size 9 to 14) (size 15 to 20)
#    0.000    0.500    3.750    4.125    1.750    6.500 
#    0.000    0.000    0.000    0.000    0.000    0.000 
#    0.000    0.000    0.000    0.000    0.000    0.000 
#
# Total GULP energy -89606.365983 kJ/mol
# GULP energy per Si atom -5600.397874 kJ/mol
# Density = 2.342294 g / cm^3
# Si number density = 23.476377 Si / 1000 Ang^3
#
#
#
# Elastic Constant Matrix: (Units=GPa)
#
#
# Indices 1 2 3 4 5 6 
#
# 1 82.7095 44.0758 -2.2020 10.3091 -4.5004 18.4269
# 2 44.0758 136.8098 18.5665 11.3494 7.0128 3.0784
# 3 -2.2020 18.5665 57.3953 13.6386 2.4364 6.0856
# 4 10.3091 11.3494 13.6386 23.8002 12.0006 2.6013
# 5 -4.5004 7.0128 2.4364 12.0006 38.8679 6.1745
# 6 18.4269 3.0784 6.0856 2.6013 6.1745 38.1897
#
#
#
# Elastic Compliance Matrix: (Units=1/GPa)
#
#
# Indices 1 2 3 4 5 6 
#
# 1 0.020262 -0.006589 0.006709 -0.012712 0.008765 -0.010866
# 2 -0.006589 0.009938 -0.004122 0.001817 -0.003409 0.003462
# 3 0.006709 -0.004122 0.023435 -0.016826 0.006280 -0.006509
# 4 -0.012712 0.001817 -0.016826 0.066854 -0.022621 0.007772
# 5 0.008765 -0.003409 0.006280 -0.022621 0.035400 -0.009138
# 6 -0.010866 0.003462 -0.006509 0.007772 -0.009138 0.033134
#
#
# Mechanical properties :
#
#
# Convention : Reuss Voigt Hill
#
# Bulk Modulus (GPa) = 21.91379 44.19949 33.05664
# Shear Modulus (GPa) = 23.55851 34.60318 29.08085
#
# Velocity S-wave (km/s) = 3.17124 3.84338 3.52338
# Velocity P-wave (km/s) = 4.77113 6.20995 5.53747
#
# Compressibility (1/GPa) = 0.04563337
#
# Stress axis : x y z
#
# Youngs Moduli (GPa) = 49.35225 100.62870 42.67041
#
# Poissons Ratio (x) = 0.66302 -0.28629
# Poissons Ratio (y) = 0.32517 0.17587
# Poissons Ratio (z) = -0.33112 0.41476
#
# Static dielectric constant tensor:
#      x y z
#    x 1.883160 -0.014200 0.000720 
#    y -0.014200 1.880760 0.036800 
#    z 0.000720 0.036800 1.914130 
# 
# From -- ./inp_files/428975.got.cif
#   From: 2010.05.17/outbox.cif.g08.bks.cpg/sg2_215_cif.got.tgz:428975.got - 2010.06.03 11:33:40.
