data_PCOD9058092
_publ_section_title
;
Structure prediction by ZEFSAII (Michael W. Deem and Ramdas Pophale) SiO2 
 PCOD9058092
Probable space group: P -1
;
_chemical_formula_sum "Si O2"
_cell_formula_units_Z 16
_cell_length_a 7.597876
_cell_length_b 14.874320
_cell_length_c 12.987886
_cell_angle_alpha 129.768852
_cell_angle_beta 134.475479
_cell_angle_gamma 81.770173
_cell_volume 669.041515
_symmetry_space_group_name_H-M "P -1"
_symmetry_group_IT_number 2
_symmetry_cell_setting 'triclinic'
loop_
_space_group_symop_operation_xyz
x,y,z
-x,-y,-z
loop_
_atom_site_type_symbol
_atom_site_label
_atom_site_fract_x
_atom_site_fract_y
_atom_site_fract_z
Si Si1 0.929759 0.331559 0.280879
Si Si2 0.717773 0.840175 0.922491
Si Si3 0.646710 0.088792 0.817602
Si Si4 0.546991 0.432028 0.250058
Si Si5 0.991104 0.849060 0.678438
Si Si6 0.748442 0.598103 0.088894
Si Si7 0.569439 0.222469 0.461988
Si Si8 0.198562 0.138932 0.616437
O O1 0.284469 0.446816 0.506187
O O2 0.907014 0.253782 0.322503
O O3 0.800269 0.427627 0.287683
O O4 0.759698 0.200297 0.038836
O O5 0.608323 0.720299 0.874503
O O6 0.542665 0.778661 0.699394
O O7 0.056537 0.889936 0.085076
O O8 0.762783 0.988914 0.073710
O O9 0.486052 0.135041 0.708365
O O10 0.445539 0.923935 0.642385
O O11 0.358830 0.457722 0.111723
O O12 0.686288 0.796867 0.579159
O O13 0.928983 0.846710 0.531259
O O14 0.742669 0.736872 0.195380
O O15 0.088915 0.649634 0.286110
O O16 0.500000 0.500000 0.000000
O O17 0.000000 0.000000 0.500000
#
# Coordination Sequence:
#
# PCOD9058092 Si02
#       8
#     2   2   2   2   2   2   2   2
#     4  11  23  46  66  95 138 175 228 271 329 403
#     4  11  24  42  71 103 131 174 223 281 335 390
#     4  11  22  44  70  99 138 169 225 278 330 400
#     4  11  27  42  67  99 135 179 222 276 332 390
#     4  11  24  44  70 100 136 175 223 273 339 401
#     4  12  27  47  65  96 142 178 223 274 335 399
#     4  11  24  44  71 100 136 174 220 284 337 391
#     4  12  25  42  68 101 134 181 221 272 332 394
#
# _framework density 23.914809000000002
#
# number of rings (size 3 to 8) (size 9 to 14) (size 15 to 20)
#    0.000    0.750    5.000    2.250    7.000    2.000 
#    2.250    1.250    0.000    0.000    0.000    0.000 
#    0.000    0.000    0.000    0.000    0.000    0.000 
#
# Total GULP energy -89396.268840 kJ/mol
# GULP energy per Si atom -5587.266802 kJ/mol
# Density = 2.386038 g / cm^3
# Si number density = 23.914809 Si / 1000 Ang^3
#
#
#
# Elastic Constant Matrix: (Units=GPa)
#
#
# Indices 1 2 3 4 5 6 
#
# 1 49.2969 7.4800 15.1716 -5.6899 10.9969 3.4189
# 2 7.4800 93.1027 27.2666 0.7691 6.4735 5.8482
# 3 15.1716 27.2666 114.6190 -4.3763 19.6931 15.4343
# 4 -5.6899 0.7691 -4.3763 41.7652 -3.4765 -1.9940
# 5 10.9969 6.4735 19.6931 -3.4765 35.5710 2.1071
# 6 3.4189 5.8482 15.4343 -1.9940 2.1071 38.2767
#
#
#
# Elastic Compliance Matrix: (Units=1/GPa)
#
#
# Indices 1 2 3 4 5 6 
#
# 1 0.022503 -0.000920 -0.001595 0.002410 -0.005624 -0.000791
# 2 -0.000920 0.011628 -0.002494 -0.000674 -0.000475 -0.000697
# 3 -0.001595 -0.002494 0.010851 0.000395 -0.004810 -0.003566
# 4 0.002410 -0.000674 0.000395 0.024494 0.001498 0.000922
# 5 -0.005624 -0.000475 -0.004810 0.001498 0.032701 0.000793
# 6 -0.000791 -0.000697 -0.003566 0.000922 0.000793 0.027745
#
#
# Mechanical properties :
#
#
# Convention : Reuss Voigt Hill
#
# Bulk Modulus (GPa) = 28.60162 39.65056 34.12609
# Shear Modulus (GPa) = 32.98254 36.92926 34.95590
#
# Velocity S-wave (km/s) = 3.71774 3.93389 3.82735
# Velocity P-wave (km/s) = 5.51494 6.10327 5.81655
#
# Compressibility (1/GPa) = 0.03496306
#
# Stress axis : x y z
#
# Youngs Moduli (GPa) = 44.43794 86.00140 92.15819
#
# Poissons Ratio (x) = 0.07912 0.14699
# Poissons Ratio (y) = 0.04088 0.22989
# Poissons Ratio (z) = 0.07088 0.21453
#
# Static dielectric constant tensor:
#      x y z
#    x 1.983060 -0.049900 0.038250 
#    y -0.049900 1.858710 -0.019730 
#    z 0.038250 -0.019730 2.000550 
# 
# From -- ./inp_files/188666.got.cif
#   From: 2010.05.17/outbox.cif.g08.bks.cpg/sg2_95_cif.got.tgz:188666.got - 2010.06.03 11:33:40.
