data_PCOD9058193
_publ_section_title
;
Structure prediction by ZEFSAII (Michael W. Deem and Ramdas Pophale) SiO2 
 PCOD9058193
Probable space group: P -1
;
_chemical_formula_sum "Si O2"
_cell_formula_units_Z 14
_cell_length_a 11.195905
_cell_length_b 16.962768
_cell_length_c 8.511731
_cell_angle_alpha 72.879629
_cell_angle_beta 140.820593
_cell_angle_gamma 135.621855
_cell_volume 577.875083
_symmetry_space_group_name_H-M "P -1"
_symmetry_group_IT_number 2
_symmetry_cell_setting 'triclinic'
loop_
_space_group_symop_operation_xyz
x,y,z
-x,-y,-z
loop_
_atom_site_type_symbol
_atom_site_label
_atom_site_fract_x
_atom_site_fract_y
_atom_site_fract_z
Si Si1 0.278965 0.453576 0.660133
Si Si2 0.117748 0.797832 0.779647
Si Si3 0.260124 0.951716 0.150946
Si Si4 0.526140 0.706597 0.610657
Si Si5 0.397592 0.171169 0.666512
Si Si6 0.380068 0.752163 0.708870
Si Si7 0.046869 0.119215 0.636751
O O1 0.411962 0.578969 0.630705
O O2 0.217630 0.360922 0.521104
O O3 0.946628 0.359620 0.464417
O O4 0.500000 0.500000 0.000000
O O5 0.158737 0.874496 0.628077
O O6 0.169806 0.860749 0.963300
O O7 0.352431 0.802303 0.016695
O O8 0.500000 0.000000 0.500000
O O9 0.427389 0.094375 0.176841
O O10 0.913021 0.846968 0.935490
O O11 0.459845 0.706408 0.362827
O O12 0.342323 0.714096 0.512400
O O13 0.169913 0.131506 0.585611
O O14 0.178997 0.029265 0.430918
O O15 0.619903 0.762733 0.002398
#
# Coordination Sequence:
#
# PCOD9058193 Si02
#       7
#     2   2   2   2   2   2   2
#     4  12  29  51  75 110 157 211 256 308 387 464
#     4  12  26  45  78 111 156 199 252 313 385 459
#     4  12  26  45  76 118 150 193 257 329 385 441
#     4  12  26  49  74 110 162 200 256 317 375 463
#     4  11  23  44  71 113 150 195 247 317 380 448
#     4  12  25  48  78 110 154 203 258 319 386 449
#     4  11  22  44  73 110 153 190 251 311 388 447
#
# _framework density 24.226690000000001
#
# number of rings (size 3 to 8) (size 9 to 14) (size 15 to 20)
#    0.000    0.286    4.286    4.714    4.000    1.143 
#    0.000    0.000    0.000    0.000    0.000    0.000 
#    0.000    0.000    0.000    0.000    0.000    0.000 
#
# Total GULP energy -78226.754872 kJ/mol
# GULP energy per Si atom -5587.625348 kJ/mol
# Density = 2.417155 g / cm^3
# Si number density = 24.226690 Si / 1000 Ang^3
#
#
#
# Elastic Constant Matrix: (Units=GPa)
#
#
# Indices 1 2 3 4 5 6 
#
# 1 94.0156 48.9154 20.3797 5.4091 -6.8191 -0.2712
# 2 48.9154 196.9482 47.8123 -5.0160 -2.9597 13.2994
# 3 20.3797 47.8123 122.3958 -26.0149 2.7006 -0.1190
# 4 5.4091 -5.0160 -26.0149 41.0974 -10.5583 4.2543
# 5 -6.8191 -2.9597 2.7006 -10.5583 39.5094 11.0608
# 6 -0.2712 13.2994 -0.1190 4.2543 11.0608 32.5168
#
#
#
# Elastic Compliance Matrix: (Units=1/GPa)
#
#
# Indices 1 2 3 4 5 6 
#
# 1 0.012754 -0.002927 -0.001632 -0.002977 0.000913 0.001376
# 2 -0.002927 0.006529 -0.001973 0.000558 0.001155 -0.003168
# 3 -0.001632 -0.001973 0.010677 0.006976 0.000804 -0.000354
# 4 -0.002977 0.000558 0.006976 0.032584 0.009965 -0.007880
# 5 0.000913 0.001155 0.000804 0.009965 0.031673 -0.012539
# 6 0.001376 -0.003168 -0.000354 -0.007880 -0.012539 0.037355
#
#
# Mechanical properties :
#
#
# Convention : Reuss Voigt Hill
#
# Bulk Modulus (GPa) = 59.18168 71.95271 65.56720
# Shear Modulus (GPa) = 33.27375 42.37485 37.82430
#
# Velocity S-wave (km/s) = 3.71001 4.18676 3.95557
# Velocity P-wave (km/s) = 6.54473 7.28946 6.92711
#
# Compressibility (1/GPa) = 0.01689712
#
# Stress axis : x y z
#
# Youngs Moduli (GPa) = 78.40401 153.16702 93.65608
#
# Poissons Ratio (x) = 0.44826 0.15285
# Poissons Ratio (y) = 0.22946 0.18480
# Poissons Ratio (z) = 0.12795 0.30222
#
# Static dielectric constant tensor:
#      x y z
#    x 1.989740 -0.042850 -0.060750 
#    y -0.042850 1.946400 -0.012790 
#    z -0.060750 -0.012790 2.025150 
# 
# From -- ./inp_files/279336.got.cif
#   From: 2010.05.17/outbox.cif.g08.bks.cpg/sg2_140_cif.got.tgz:279336.got - 2010.06.03 11:33:40.
