data_PCOD9058689
_publ_section_title
;
Structure prediction by ZEFSAII (Michael W. Deem and Ramdas Pophale) SiO2 
 PCOD9058689
Probable space group: P -1
;
_chemical_formula_sum "Si O2"
_cell_formula_units_Z 16
_cell_length_a 10.393797
_cell_length_b 11.479735
_cell_length_c 7.720051
_cell_angle_alpha 97.833638
_cell_angle_beta 56.102404
_cell_angle_gamma 64.584173
_cell_volume 597.631531
_symmetry_space_group_name_H-M "P -1"
_symmetry_group_IT_number 2
_symmetry_cell_setting 'triclinic'
loop_
_space_group_symop_operation_xyz
x,y,z
-x,-y,-z
loop_
_atom_site_type_symbol
_atom_site_label
_atom_site_fract_x
_atom_site_fract_y
_atom_site_fract_z
Si Si1 0.652620 0.971299 0.632528
Si Si2 0.134559 0.421708 0.099529
Si Si3 0.699590 0.285014 0.980845
Si Si4 0.941281 0.779755 0.078845
Si Si5 0.304275 0.596934 0.373888
Si Si6 0.909766 0.689507 0.573440
Si Si7 0.461260 0.747146 0.412597
Si Si8 0.685976 0.050827 0.102311
O O1 0.458210 0.990862 0.833178
O O2 0.812980 0.856866 0.628720
O O3 0.615583 0.122645 0.644362
O O4 0.746553 0.876206 0.365168
O O5 0.050595 0.355100 0.031851
O O6 0.979039 0.587380 0.328419
O O7 0.216863 0.328464 0.201602
O O8 0.319745 0.385580 0.846068
O O9 0.485134 0.425977 0.232377
O O10 0.721358 0.134760 0.951469
O O11 0.874013 0.262631 0.957316
O O12 0.699758 0.337945 0.798186
O O13 0.884591 0.901745 0.998897
O O14 0.104207 0.620383 0.524781
O O15 0.333431 0.689479 0.501379
O O16 0.431037 0.824382 0.632966
#
# Coordination Sequence:
#
# PCOD9058689 Si02
#       8
#     2   2   2   2   2   2   2   2
#     4  11  23  46  70 105 138 181 230 288 338 410
#     4  11  24  44  70 100 140 181 232 287 338 410
#     4  11  25  44  72  98 141 185 229 284 343 407
#     4  11  22  47  70 103 140 181 230 284 347 404
#     4  11  26  48  63 100 144 183 230 282 342 411
#     4  11  27  44  67 102 142 181 236 281 338 414
#     4  11  24  45  72  99 143 180 225 284 348 407
#     4  11  24  44  72 108 139 174 235 286 339 417
#
# _framework density 26.772348999999998
#
# number of rings (size 3 to 8) (size 9 to 14) (size 15 to 20)
#    0.000    1.000    3.750    2.625    7.000    4.000 
#    0.000    0.000    0.000    0.000    0.000    0.000 
#    0.000    0.000    0.000    0.000    0.000    0.000 
#
# Total GULP energy -89689.922536 kJ/mol
# GULP energy per Si atom -5605.620159 kJ/mol
# Density = 2.671141 g / cm^3
# Si number density = 26.772349 Si / 1000 Ang^3
#
#
#
# Elastic Constant Matrix: (Units=GPa)
#
#
# Indices 1 2 3 4 5 6 
#
# 1 85.4139 20.8117 27.6641 11.5487 7.2759 -2.3300
# 2 20.8117 155.6657 9.9792 10.4624 -8.0439 -5.0299
# 3 27.6641 9.9792 116.7593 8.4730 13.9784 -1.2481
# 4 11.5487 10.4624 8.4730 37.0557 -0.0897 2.3744
# 5 7.2759 -8.0439 13.9784 -0.0897 32.0098 7.6759
# 6 -2.3300 -5.0299 -1.2481 2.3744 7.6759 42.3480
#
#
#
# Elastic Compliance Matrix: (Units=1/GPa)
#
#
# Indices 1 2 3 4 5 6 
#
# 1 0.013604 -0.001535 -0.002520 -0.003311 -0.002665 0.001161
# 2 -0.001535 0.006871 -0.000373 -0.001397 0.002136 0.000412
# 3 -0.002520 -0.000373 0.009787 -0.001415 -0.004018 0.000913
# 4 -0.003311 -0.001397 -0.001415 0.028888 0.001654 -0.002309
# 5 -0.002665 0.002136 -0.004018 0.001654 0.035720 -0.006579
# 6 0.001161 0.000412 0.000913 -0.002309 -0.006579 0.025075
#
#
# Mechanical properties :
#
#
# Convention : Reuss Voigt Hill
#
# Bulk Modulus (GPa) = 46.71866 52.74990 49.73428
# Shear Modulus (GPa) = 36.78138 42.24163 39.51150
#
# Velocity S-wave (km/s) = 3.71058 3.97647 3.84582
# Velocity P-wave (km/s) = 5.98716 6.38976 6.19173
#
# Compressibility (1/GPa) = 0.02140472
#
# Stress axis : x y z
#
# Youngs Moduli (GPa) = 73.50586 145.54410 102.17441
#
# Poissons Ratio (x) = 0.22340 0.25752
# Poissons Ratio (y) = 0.11283 0.03816
# Poissons Ratio (z) = 0.18526 0.05435
#
# Static dielectric constant tensor:
#      x y z
#    x 2.080810 -0.030790 0.047760 
#    y -0.030790 2.079190 -0.044650 
#    z 0.047760 -0.044650 2.121450 
# 
# From -- ./inp_files/262446.got.cif
#   From: 2010.05.17/outbox.cif.g08.bks.cpg/sg2_132_cif.got.tgz:262446.got - 2010.06.03 11:33:40.
