data_PCOD9058662
_publ_section_title
;
Structure prediction by ZEFSAII (Michael W. Deem and Ramdas Pophale) SiO2 
 PCOD9058662
Probable space group: P -1
;
_chemical_formula_sum "Si O2"
_cell_formula_units_Z 10
_cell_length_a 10.903960
_cell_length_b 10.620633
_cell_length_c 8.745825
_cell_angle_alpha 149.617584
_cell_angle_beta 128.593712
_cell_angle_gamma 56.491314
_cell_volume 400.125320
_symmetry_space_group_name_H-M "P -1"
_symmetry_group_IT_number 2
_symmetry_cell_setting 'triclinic'
loop_
_space_group_symop_operation_xyz
x,y,z
-x,-y,-z
loop_
_atom_site_type_symbol
_atom_site_label
_atom_site_fract_x
_atom_site_fract_y
_atom_site_fract_z
Si Si1 0.150741 0.101319 0.882701
Si Si2 0.620805 0.612951 0.093255
Si Si3 0.446299 0.242528 0.117082
Si Si4 0.141929 0.667291 0.232655
Si Si5 0.106322 0.242187 0.322252
O O1 0.964794 0.140518 0.754649
O O2 0.189330 0.813251 0.575395
O O3 0.257669 0.242089 0.992635
O O4 0.191955 0.202894 0.185596
O O5 0.473518 0.224117 0.937388
O O6 0.762196 0.739749 0.426055
O O7 0.500000 0.500000 0.000000
O O8 0.714202 0.412041 0.847046
O O9 0.500000 0.500000 0.500000
O O10 0.500000 0.000000 0.000000
O O11 0.000000 0.500000 0.000000
O O12 0.000000 0.500000 0.500000
O O13 0.000000 0.000000 0.000000
#
# Coordination Sequence:
#
# PCOD9058662 Si02
#       5
#     2   2   2   2   2
#     4  11  25  44  78 110 155 213 275 324 399 498
#     4  12  27  52  85 124 168 214 275 352 420 483
#     4  12  28  50  78 115 161 217 271 336 408 490
#     4  11  22  46  82 111 155 213 276 325 400 495
#     4  12  28  48  77 121 167 211 267 342 418 485
#
# _framework density 24.992166999999998
#
# number of rings (size 3 to 8) (size 9 to 14) (size 15 to 20)
#    0.000    0.400    4.000    3.600    2.800    3.200 
#    0.000    6.000    0.000    0.000    0.000    0.000 
#    0.000    0.000    0.000    0.000    0.000    0.000 
#
# Total GULP energy -55901.644400 kJ/mol
# GULP energy per Si atom -5590.164440 kJ/mol
# Density = 2.493528 g / cm^3
# Si number density = 24.992167 Si / 1000 Ang^3
#
#
#
# Elastic Constant Matrix: (Units=GPa)
#
#
# Indices 1 2 3 4 5 6 
#
# 1 152.2570 58.4471 45.1946 16.3460 -4.1862 15.3047
# 2 58.4471 157.1494 61.5154 -14.3023 2.2617 14.5970
# 3 45.1946 61.5154 180.5829 -4.4011 6.1463 10.3604
# 4 16.3460 -14.3023 -4.4011 48.1979 8.5472 -3.9658
# 5 -4.1862 2.2617 6.1463 8.5472 54.7137 -3.7115
# 6 15.3047 14.5970 10.3604 -3.9658 -3.7115 56.3632
#
#
#
# Elastic Compliance Matrix: (Units=1/GPa)
#
#
# Indices 1 2 3 4 5 6 
#
# 1 0.008778 -0.003062 -0.001222 -0.004395 0.001515 -0.001575
# 2 -0.003062 0.008715 -0.002033 0.003541 -0.000978 -0.000867
# 3 -0.001222 -0.002033 0.006600 0.000536 -0.000860 -0.000374
# 4 -0.004395 0.003541 0.000536 0.024218 -0.004217 0.001604
# 5 0.001515 -0.000978 -0.000860 -0.004217 0.019255 0.000971
# 6 -0.001575 -0.000867 -0.000374 0.001604 0.000971 0.018640
#
#
# Mechanical properties :
#
#
# Convention : Reuss Voigt Hill
#
# Bulk Modulus (GPa) = 87.27169 91.14483 89.20826
# Shear Modulus (GPa) = 48.70517 53.51045 51.10781
#
# Velocity S-wave (km/s) = 4.41933 4.63221 4.52702
# Velocity P-wave (km/s) = 7.81256 8.07207 7.94338
#
# Compressibility (1/GPa) = 0.01145847
#
# Stress axis : x y z
#
# Youngs Moduli (GPa) = 113.92328 114.74700 151.51921
#
# Poissons Ratio (x) = 0.35133 0.18518
# Poissons Ratio (y) = 0.34880 0.30805
# Poissons Ratio (z) = 0.13923 0.23329
#
# Static dielectric constant tensor:
#      x y z
#    x 2.080320 -0.273530 0.018400 
#    y -0.273530 2.820060 0.042350 
#    z 0.018400 0.042350 2.158640 
# 
# From -- ./inp_files/131039.got.cif
#   From: 2010.05.17/outbox.cif.g08.bks.cpg/sg2_66_cif.got.tgz:131039.got - 2010.06.03 11:33:40.
