data_PCOD9058861
_publ_section_title
;
Structure prediction by ZEFSAII (Michael W. Deem and Ramdas Pophale) SiO2 
 PCOD9058861
Probable space group: P -1
;
_chemical_formula_sum "Si O2"
_cell_formula_units_Z 14
_cell_length_a 7.127917
_cell_length_b 8.370460
_cell_length_c 14.107067
_cell_angle_alpha 93.784476
_cell_angle_beta 38.126385
_cell_angle_gamma 99.751988
_cell_volume 509.007991
_symmetry_space_group_name_H-M "P -1"
_symmetry_group_IT_number 2
_symmetry_cell_setting 'triclinic'
loop_
_space_group_symop_operation_xyz
x,y,z
-x,-y,-z
loop_
_atom_site_type_symbol
_atom_site_label
_atom_site_fract_x
_atom_site_fract_y
_atom_site_fract_z
Si Si1 0.737925 0.232595 0.658091
Si Si2 0.759164 0.619054 0.213189
Si Si3 0.596177 0.851138 0.898993
Si Si4 0.269631 0.911391 0.849815
Si Si5 0.090568 0.371890 0.140389
Si Si6 0.124120 0.129456 0.668309
Si Si7 0.742600 0.341034 0.462500
O O1 0.456375 0.335655 0.784184
O O2 0.086503 0.212842 0.789019
O O3 0.958198 0.219458 0.657144
O O4 0.550195 0.049533 0.709042
O O5 0.010713 0.507424 0.106643
O O6 0.490537 0.547841 0.395746
O O7 0.104989 0.705229 0.501589
O O8 0.403614 0.819304 0.878636
O O9 0.126941 0.787556 0.822417
O O10 0.602207 0.697487 0.958698
O O11 0.500000 0.000000 0.000000
O O12 0.000000 0.000000 0.000000
O O13 0.977604 0.412676 0.291629
O O14 0.056032 0.056601 0.267202
O O15 0.492188 0.187489 0.516010
#
# Coordination Sequence:
#
# PCOD9058861 Si02
#       7
#     2   2   2   2   2   2   2
#     4   8  18  37  58  81 117 148 181 230 286 325
#     4   8  20  36  60  85 115 148 178 236 283 333
#     4  11  23  38  60  78 114 153 192 234 274 329
#     4  11  23  38  60  78 114 153 192 234 274 329
#     4  12  21  39  58  90 111 150 191 225 289 331
#     4   8  18  37  58  81 117 148 181 230 286 325
#     4   8  20  35  61  84 118 145 179 236 281 337
#
# _framework density 27.504481999999999
#
# number of rings (size 3 to 8) (size 9 to 14) (size 15 to 20)
#    1.714    0.571    1.429    2.143    0.000    4.571 
#    0.000    5.714    0.000    0.000    0.000    0.000 
#    0.000    0.000    0.000    0.000    0.000    0.000 
#
# Total GULP energy -78184.180811 kJ/mol
# GULP energy per Si atom -5584.584344 kJ/mol
# Density = 2.744188 g / cm^3
# Si number density = 27.504482 Si / 1000 Ang^3
#
#
#
# Elastic Constant Matrix: (Units=GPa)
#
#
# Indices 1 2 3 4 5 6 
#
# 1 194.4618 35.0160 25.3408 4.1570 -18.2441 -50.4730
# 2 35.0160 83.0447 19.1557 10.6639 -4.2595 -30.2529
# 3 25.3408 19.1557 69.1815 5.4581 -4.4701 -9.3677
# 4 4.1570 10.6639 5.4581 33.4302 -7.2136 -12.0897
# 5 -18.2441 -4.2595 -4.4701 -7.2136 29.9945 -2.2278
# 6 -50.4730 -30.2529 -9.3677 -12.0897 -2.2278 60.9781
#
#
#
# Elastic Compliance Matrix: (Units=1/GPa)
#
#
# Indices 1 2 3 4 5 6 
#
# 1 0.007620 -0.000543 -0.001632 0.003075 0.005544 0.006600
# 2 -0.000543 0.015659 -0.003013 -0.001733 0.001515 0.006568
# 3 -0.001632 -0.003013 0.015952 -0.001575 0.000527 -0.000688
# 4 0.003075 -0.001733 -0.001575 0.035882 0.010684 0.008948
# 5 0.005544 0.001515 0.000527 0.010684 0.040244 0.009011
# 6 0.006600 0.006568 -0.000688 0.008948 0.009011 0.027118
#
#
# Mechanical properties :
#
#
# Convention : Reuss Voigt Hill
#
# Bulk Modulus (GPa) = 34.65504 56.19033 45.42268
# Shear Modulus (GPa) = 30.77524 42.69227 36.73375
#
# Velocity S-wave (km/s) = 3.34865 3.94406 3.65849
# Velocity P-wave (km/s) = 5.25152 6.41987 5.86486
#
# Compressibility (1/GPa) = 0.02885583
#
# Stress axis : x y z
#
# Youngs Moduli (GPa) = 131.23077 63.86249 62.68880
#
# Poissons Ratio (x) = 0.03468 0.10228
# Poissons Ratio (y) = 0.07126 0.18887
# Poissons Ratio (z) = 0.21412 0.19241
#
# Static dielectric constant tensor:
#      x y z
#    x 2.053700 -0.038530 -0.021830 
#    y -0.038530 2.180670 -0.012470 
#    z -0.021830 -0.012470 2.356950 
# 
# From -- ./inp_files/547201.got.cif
#   From: 2010.05.17/outbox.cif.g08.bks.cpg/sg2_274_cif.got.tgz:547201.got - 2010.06.03 11:33:40.
