data_PCOD9058820
_publ_section_title
;
Structure prediction by ZEFSAII (Michael W. Deem and Ramdas Pophale) SiO2 
 PCOD9058820
Probable space group: P -1
;
_chemical_formula_sum "Si O2"
_cell_formula_units_Z 16
_cell_length_a 8.441547
_cell_length_b 10.783363
_cell_length_c 21.733420
_cell_angle_alpha 152.191051
_cell_angle_beta 43.149901
_cell_angle_gamma 136.713316
_cell_volume 609.683366
_symmetry_space_group_name_H-M "P -1"
_symmetry_group_IT_number 2
_symmetry_cell_setting 'triclinic'
loop_
_space_group_symop_operation_xyz
x,y,z
-x,-y,-z
loop_
_atom_site_type_symbol
_atom_site_label
_atom_site_fract_x
_atom_site_fract_y
_atom_site_fract_z
Si Si1 0.628025 0.258296 0.477417
Si Si2 0.125347 0.895791 0.478578
Si Si3 0.785222 0.832374 0.666038
Si Si4 0.013048 0.848077 0.050424
Si Si5 0.364567 0.382672 0.169117
Si Si6 0.128503 0.254383 0.819356
Si Si7 0.710065 0.499660 0.892381
Si Si8 0.427205 0.900496 0.710927
O O1 0.762927 0.561143 0.594734
O O2 0.599159 0.283912 0.422898
O O3 0.369100 0.135047 0.526270
O O4 0.768601 0.020872 0.336309
O O5 0.218077 0.616044 0.324245
O O6 0.952515 0.844691 0.564023
O O7 0.000000 0.000000 0.500000
O O8 0.518419 0.797057 0.701281
O O9 0.880741 0.128714 0.799971
O O10 0.819439 0.026491 0.173635
O O11 0.253123 0.083342 0.096458
O O12 0.926767 0.698408 0.073400
O O13 0.960357 0.636725 0.915517
O O14 0.643168 0.508334 0.162449
O O15 0.330348 0.342184 0.087519
O O16 0.633878 0.177112 0.755507
O O17 0.500000 0.500000 0.000000
#
# Coordination Sequence:
#
# PCOD9058820 Si02
#       8
#     2   2   2   2   2   2   2   2
#     4  10  20  36  55  79 115 148 193 221 272 333
#     4  11  21  33  55  83 116 149 179 238 273 321
#     4  12  23  35  58  82 121 155 185 220 286 333
#     4  10  21  36  65  81 109 147 193 240 277 327
#     4  11  20  36  60  85 112 144 197 225 282 337
#     4  10  22  39  52  84 120 151 185 230 270 344
#     4  10  17  37  63  85 108 140 188 249 282 317
#     4  10  19  37  56  87 111 145 188 238 274 330
#
# _framework density 26.243127999999999
#
# number of rings (size 3 to 8) (size 9 to 14) (size 15 to 20)
#    0.000    1.500    6.250    2.625    1.750    3.000 
#    0.000    0.625    0.000    0.750    0.000    0.000 
#    0.000    0.000    0.000    0.000    0.000    0.000 
#
# Total GULP energy -89492.013757 kJ/mol
# GULP energy per Si atom -5593.250860 kJ/mol
# Density = 2.618340 g / cm^3
# Si number density = 26.243128 Si / 1000 Ang^3
#
#
#
# Elastic Constant Matrix: (Units=GPa)
#
#
# Indices 1 2 3 4 5 6 
#
# 1 61.4656 -0.1423 13.2693 8.1091 -0.8816 9.6467
# 2 -0.1423 114.5886 41.7744 40.5120 3.0245 13.8377
# 3 13.2693 41.7744 88.8393 25.8646 12.2880 10.9275
# 4 8.1091 40.5120 25.8646 57.7657 4.4386 8.5690
# 5 -0.8816 3.0245 12.2880 4.4386 37.2208 6.6365
# 6 9.6467 13.8377 10.9275 8.5690 6.6365 29.9870
#
#
#
# Elastic Compliance Matrix: (Units=1/GPa)
#
#
# Indices 1 2 3 4 5 6 
#
# 1 0.018156 0.002540 -0.002837 -0.002383 0.002487 -0.005848
# 2 0.002540 0.013295 -0.004302 -0.007353 0.001939 -0.003712
# 3 -0.002837 -0.004302 0.015260 -0.002961 -0.004246 -0.000877
# 4 -0.002383 -0.007353 -0.002961 0.024437 -0.001129 -0.001494
# 5 0.002487 0.001939 -0.004246 -0.001129 0.029435 -0.006339
# 6 -0.005848 -0.003712 -0.000877 -0.001494 -0.006339 0.039092
#
#
# Mechanical properties :
#
#
# Convention : Reuss Voigt Hill
#
# Bulk Modulus (GPa) = 26.65748 41.63294 34.14521
# Shear Modulus (GPa) = 30.98357 38.99418 34.98887
#
# Velocity S-wave (km/s) = 3.43977 3.85890 3.65534
# Velocity P-wave (km/s) = 5.09470 5.97942 5.55470
#
# Compressibility (1/GPa) = 0.03751293
#
# Stress axis : x y z
#
# Youngs Moduli (GPa) = 55.07964 75.21678 65.53014
#
# Poissons Ratio (x) = -0.19105 0.18590
# Poissons Ratio (y) = -0.13990 0.28190
# Poissons Ratio (z) = 0.15626 0.32357
#
# Static dielectric constant tensor:
#      x y z
#    x 2.209940 -0.006160 -0.032380 
#    y -0.006160 2.006490 0.043420 
#    z -0.032380 0.043420 2.117710 
# 
# From -- ./inp_files/255327.got.cif
#   From: 2010.05.17/outbox.cif.g08.bks.cpg/sg2_128_cif.got.tgz:255327.got - 2010.06.03 11:33:40.
