data_PCOD9058847
_publ_section_title
;
Structure prediction by ZEFSAII (Michael W. Deem and Ramdas Pophale) SiO2 
 PCOD9058847
Probable space group: P -1
;
_chemical_formula_sum "Si O2"
_cell_formula_units_Z 16
_cell_length_a 14.603912
_cell_length_b 14.306228
_cell_length_c 9.247485
_cell_angle_alpha 139.273730
_cell_angle_beta 44.472943
_cell_angle_gamma 150.781840
_cell_volume 607.012855
_symmetry_space_group_name_H-M "P -1"
_symmetry_group_IT_number 2
_symmetry_cell_setting 'triclinic'
loop_
_space_group_symop_operation_xyz
x,y,z
-x,-y,-z
loop_
_atom_site_type_symbol
_atom_site_label
_atom_site_fract_x
_atom_site_fract_y
_atom_site_fract_z
Si Si1 0.344313 0.422633 0.467909
Si Si2 0.429631 0.111321 0.621346
Si Si3 0.106047 0.325372 0.992864
Si Si4 0.878294 0.519318 0.567587
Si Si5 0.971594 0.285466 0.695139
Si Si6 0.306498 0.190988 0.620975
Si Si7 0.322266 0.761493 0.121873
Si Si8 0.692489 0.935578 0.970765
O O1 0.500000 0.500000 0.500000
O O2 0.160085 0.368895 0.654664
O O3 0.473460 0.623270 0.454434
O O4 0.286525 0.220303 0.233523
O O5 0.656503 0.301841 0.569442
O O6 0.324248 0.166484 0.740321
O O7 0.372642 0.062149 0.794842
O O8 0.358957 0.923994 0.380664
O O9 0.092728 0.319279 0.175093
O O10 0.226983 0.556522 0.076743
O O11 0.212571 0.264498 0.770286
O O12 0.896123 0.163845 0.975602
O O13 0.951043 0.607694 0.427967
O O14 0.000000 0.500000 0.500000
O O15 0.824386 0.299797 0.906909
O O16 0.826762 0.035827 0.562675
O O17 0.527181 0.861669 0.964612
#
# Coordination Sequence:
#
# PCOD9058847 Si02
#       8
#     2   2   2   2   2   2   2   2
#     4  12  27  48  72  97 130 181 238 289 333 387
#     4  11  23  37  66  99 143 175 213 273 340 414
#     4  12  23  36  65 100 142 177 216 265 340 411
#     4  12  21  36  62 101 141 180 213 261 342 414
#     4  11  24  43  66 101 137 178 224 280 336 402
#     4  11  24  43  66 100 136 175 223 281 341 404
#     4  11  23  40  64 102 139 178 214 267 339 416
#     4  12  24  42  66  98 138 178 224 273 335 406
#
# _framework density 26.358582999999999
#
# number of rings (size 3 to 8) (size 9 to 14) (size 15 to 20)
#    0.000    0.500    6.250    2.625    1.750    2.500 
#    0.000    0.625    0.000    3.750    0.000    0.000 
#    0.000    0.000    0.000    0.000    0.000    0.000 
#
# Total GULP energy -89601.173402 kJ/mol
# GULP energy per Si atom -5600.073338 kJ/mol
# Density = 2.629859 g / cm^3
# Si number density = 26.358583 Si / 1000 Ang^3
#
#
#
# Elastic Constant Matrix: (Units=GPa)
#
#
# Indices 1 2 3 4 5 6 
#
# 1 153.2644 36.1748 39.8314 -3.3618 -44.0585 26.5073
# 2 36.1748 173.5357 41.0531 -7.4113 -25.6327 38.6610
# 3 39.8314 41.0531 105.2786 -1.9184 -29.3589 6.4272
# 4 -3.3618 -7.4113 -1.9184 36.8709 6.1942 -9.8433
# 5 -44.0585 -25.6327 -29.3589 6.1942 54.2864 -10.6814
# 6 26.5073 38.6610 6.4272 -9.8433 -10.6814 49.0058
#
#
#
# Elastic Compliance Matrix: (Units=1/GPa)
#
#
# Indices 1 2 3 4 5 6 
#
# 1 0.009322 0.000165 -0.001671 -0.001266 0.006123 -0.003873
# 2 0.000165 0.007737 -0.002337 -0.000298 0.001449 -0.005630
# 3 -0.001671 -0.002337 0.012183 -0.000193 0.004566 0.002106
# 4 -0.001266 -0.000298 -0.000193 0.029124 -0.003405 0.006053
# 5 0.006123 0.001449 0.004566 -0.003405 0.026959 0.000138
# 6 -0.003873 -0.005630 0.002106 0.006053 0.000138 0.027912
#
#
# Mechanical properties :
#
#
# Convention : Reuss Voigt Hill
#
# Bulk Modulus (GPa) = 46.38804 74.02193 60.20499
# Shear Modulus (GPa) = 39.02960 49.03392 44.03176
#
# Velocity S-wave (km/s) = 3.85218 4.31776 4.09160
# Velocity P-wave (km/s) = 6.11742 7.28018 6.72398
#
# Compressibility (1/GPa) = 0.02155728
#
# Stress axis : x y z
#
# Youngs Moduli (GPa) = 107.27294 129.25579 82.08078
#
# Poissons Ratio (x) = -0.02135 0.13712
# Poissons Ratio (y) = -0.01772 0.19181
# Poissons Ratio (z) = 0.17920 0.30205
#
# Static dielectric constant tensor:
#      x y z
#    x 2.120430 0.009920 0.028960 
#    y 0.009920 2.093670 -0.033880 
#    z 0.028960 -0.033880 2.104410 
# 
# From -- ./inp_files/455060.got.cif
#   From: 2010.05.17/outbox.cif.g08.bks.cpg/sg2_228_cif.got.tgz:455060.got - 2010.06.03 11:33:40.
