data_PCOD9059511
_publ_section_title
;
Structure prediction by ZEFSAII (Michael W. Deem and Ramdas Pophale) SiO2 
 PCOD9059511
Probable space group: P -1
;
_chemical_formula_sum "Si O2"
_cell_formula_units_Z 15
_cell_length_a 4.898816
_cell_length_b 9.288409
_cell_length_c 14.236863
_cell_angle_alpha 79.300748
_cell_angle_beta 80.809480
_cell_angle_gamma 110.115891
_cell_volume 579.904865
_symmetry_space_group_name_H-M "P -1"
_symmetry_group_IT_number 2
_symmetry_cell_setting 'triclinic'
loop_
_space_group_symop_operation_xyz
x,y,z
-x,-y,-z
loop_
_atom_site_type_symbol
_atom_site_label
_atom_site_fract_x
_atom_site_fract_y
_atom_site_fract_z
Si Si1 0.127647 0.286238 0.539619
Si Si2 0.771916 0.560008 0.287281
Si Si3 0.404066 0.688119 0.157355
Si Si4 0.359084 0.225770 0.169784
Si Si5 0.554443 0.919607 0.390809
Si Si6 0.500000 0.500000 0.000000
Si Si7 0.748128 0.013928 0.167937
Si Si8 0.053997 0.724071 0.652549
O O1 0.798828 0.153595 0.596630
O O2 0.094820 0.345109 0.430663
O O3 0.225409 0.407852 0.605373
O O4 0.354593 0.198001 0.536082
O O5 0.517744 0.597825 0.242381
O O6 0.800869 0.390228 0.295962
O O7 0.082678 0.679956 0.210025
O O8 0.388155 0.599078 0.072149
O O9 0.624806 0.872475 0.118287
O O10 0.558188 0.393716 0.095082
O O11 0.538955 0.112880 0.181399
O O12 0.083451 0.140345 0.122553
O O13 0.184466 0.248606 0.268090
O O14 0.717034 0.925759 0.280799
O O15 0.698428 0.098909 0.397296
#
# Coordination Sequence:
#
# PCOD9059511 Si02
#       8
#     2   2   2   2   2   1   2   2
#     4  12  23  44  70 105 146 197 238 278 352 421
#     4  12  25  47  70 107 144 194 229 298 354 422
#     4  12  27  48  77 102 143 184 241 297 355 427
#     4  11  27  46  75 105 143 186 235 297 354 417
#     4  11  23  41  70 106 144 194 233 291 339 423
#     4  12  30  52  78 110 138 184 236 306 376 416
#     4  11  23  48  74 104 143 188 234 287 353 428
#     4  11  26  43  70 111 148 188 241 294 345 424
#
# _framework density 25.866309999999999
#
# number of rings (size 3 to 8) (size 9 to 14) (size 15 to 20)
#    0.000    0.533    4.000    3.600    3.733    7.467 
#    0.000    2.667    0.000    0.000    0.000    0.000 
#    0.000    0.000    0.000    0.000    0.000    0.000 
#
# Total GULP energy -83902.064657 kJ/mol
# GULP energy per Si atom -5593.470977 kJ/mol
# Density = 2.580744 g / cm^3
# Si number density = 25.866310 Si / 1000 Ang^3
#
#
#
# Elastic Constant Matrix: (Units=GPa)
#
#
# Indices 1 2 3 4 5 6 
#
# 1 107.0798 16.0399 4.6971 -6.5424 -2.6145 -5.2934
# 2 16.0399 64.0038 -9.4811 8.3097 0.9603 -3.0848
# 3 4.6971 -9.4811 97.4428 20.4755 -3.1096 -6.7568
# 4 -6.5424 8.3097 20.4755 29.3717 -16.8105 11.2196
# 5 -2.6145 0.9603 -3.1096 -16.8105 5.2529 -4.9984
# 6 -5.2934 -3.0848 -6.7568 11.2196 -4.9984 35.6077
#
#
#
# Elastic Compliance Matrix: (Units=1/GPa)
#
#
# Indices 1 2 3 4 5 6 
#
# 1 0.008867 -0.001118 0.000404 -0.006024 -0.013133 0.001352
# 2 -0.001118 0.014805 0.000812 0.007506 0.023311 0.002178
# 3 0.000404 0.000812 0.010510 0.003865 0.022513 0.004067
# 4 -0.006024 0.007506 0.003865 -0.031201 -0.106312 -0.004604
# 5 -0.013133 0.023311 0.022513 -0.106312 -0.128479 0.019802
# 6 0.001352 0.002178 0.004067 -0.004604 0.019802 0.033476
#
#
# Mechanical properties :
#
#
# Convention : Reuss Voigt Hill
#
# Bulk Modulus (GPa) = 29.08748 32.33757 30.71253
# Shear Modulus (GPa) = -61.91316 31.19783 -15.35767
#
# Velocity S-wave (km/s) = -4.89773 3.47669 -2.43931
# Velocity P-wave (km/s) = 4.55126 5.35214 1.99141
#
# Compressibility (1/GPa) = 0.03437905
#
# Stress axis : x y z
#
# Youngs Moduli (GPa) = 112.78107 67.54365 95.14443
#
# Poissons Ratio (x) = 0.07551 -0.03846
# Poissons Ratio (y) = 0.12608 -0.07727
# Poissons Ratio (z) = -0.04559 -0.05485
#
# Static dielectric constant tensor:
#      x y z
#    x 1.994010 0.094170 -0.019000 
#    y 0.094170 2.124190 0.067150 
#    z -0.019000 0.067150 2.207960 
# 
# From -- ./inp_files/480418.got.cif
#   From: 2010.05.17/outbox.cif.g08.bks.cpg/sg2_241_cif.got.tgz:480418.got - 2010.06.03 11:33:40.
