data_PCOD9059286
_publ_section_title
;
Structure prediction by ZEFSAII (Michael W. Deem and Ramdas Pophale) SiO2 
 PCOD9059286
Probable space group: P -1
;
_chemical_formula_sum "Si O2"
_cell_formula_units_Z 16
_cell_length_a 16.007443
_cell_length_b 9.232677
_cell_length_c 8.667527
_cell_angle_alpha 109.294668
_cell_angle_beta 79.435324
_cell_angle_gamma 140.497971
_cell_volume 763.584126
_symmetry_space_group_name_H-M "P -1"
_symmetry_group_IT_number 2
_symmetry_cell_setting 'triclinic'
loop_
_space_group_symop_operation_xyz
x,y,z
-x,-y,-z
loop_
_atom_site_type_symbol
_atom_site_label
_atom_site_fract_x
_atom_site_fract_y
_atom_site_fract_z
Si Si1 0.512172 0.076459 0.849215
Si Si2 0.224999 0.636125 0.656649
Si Si3 0.989035 0.515820 0.826711
Si Si4 0.090704 0.995677 0.895053
Si Si5 0.367222 0.296314 0.567864
Si Si6 0.717356 0.159764 0.615362
Si Si7 0.383944 0.444272 0.957810
Si Si8 0.860579 0.821317 0.403268
O O1 0.600184 0.081060 0.720443
O O2 0.364930 0.889557 0.764352
O O3 0.585511 0.340227 0.929576
O O4 0.500000 0.000000 0.000000
O O5 0.098143 0.559034 0.724068
O O6 0.235537 0.665162 0.478297
O O7 0.204905 0.437156 0.658791
O O8 0.027707 0.743725 0.854557
O O9 0.841313 0.291702 0.730462
O O10 0.000000 0.500000 0.000000
O O11 0.239428 0.200229 0.982719
O O12 0.108468 0.067210 0.736079
O O13 0.000000 0.000000 0.000000
O O14 0.500000 0.500000 0.500000
O O15 0.382569 0.409798 0.762628
O O16 0.242555 0.203732 0.494337
O O17 0.334248 0.071663 0.521223
O O18 0.500000 0.500000 0.000000
O O19 0.000000 0.000000 0.500000
#
# Coordination Sequence:
#
# PCOD9059286 Si02
#       8
#     2   2   2   2   2   2   2   2
#     4  12  24  43  67  97 134 177 222 273 329 394
#     4  12  24  42  66  98 134 175 224 276 332 397
#     4  12  25  43  67  98 133 176 221 275 336 399
#     4  11  23  42  63  92 128 167 215 267 320 389
#     4  11  24  43  65  94 130 170 217 269 324 390
#     4  12  25  44  68  99 134 176 222 277 334 395
#     4  11  24  42  64  93 128 170 215 266 324 386
#     4  11  23  41  64  93 127 169 213 267 325 388
#
# _framework density 20.953814000000001
#
# number of rings (size 3 to 8) (size 9 to 14) (size 15 to 20)
#    0.000    0.500    0.000   10.500    0.000    3.000 
#    0.000    0.000    0.000    0.000    0.000    0.000 
#    0.000    0.000    0.000    0.000    0.000    0.000 
#
# Total GULP energy -89530.241754 kJ/mol
# GULP energy per Si atom -5595.640110 kJ/mol
# Density = 2.090612 g / cm^3
# Si number density = 20.953814 Si / 1000 Ang^3
#
#
#
# Elastic Constant Matrix: (Units=GPa)
#
#
# Indices 1 2 3 4 5 6 
#
# 1 123.6616 29.5567 19.8151 -6.3828 -9.5927 9.5485
# 2 29.5567 97.9634 17.7544 3.3844 -3.1437 -5.3463
# 3 19.8151 17.7544 59.7951 -6.6145 9.6888 2.1793
# 4 -6.3828 3.3844 -6.6145 48.1500 -0.5564 -3.8884
# 5 -9.5927 -3.1437 9.6888 -0.5564 51.7966 5.1706
# 6 9.5485 -5.3463 2.1793 -3.8884 5.1706 60.9840
#
#
#
# Elastic Compliance Matrix: (Units=1/GPa)
#
#
# Indices 1 2 3 4 5 6 
#
# 1 0.009445 -0.002431 -0.002608 0.000951 0.002272 -0.001731
# 2 -0.002431 0.011622 -0.002959 -0.001428 0.000658 0.001358
# 3 -0.002608 -0.002959 0.019434 0.002481 -0.004269 -0.000026
# 4 0.000951 -0.001428 0.002481 0.021416 -0.000247 0.001024
# 5 0.002272 0.000658 -0.004269 -0.000247 0.020755 -0.001921
# 6 -0.001731 0.001358 -0.000026 0.001024 -0.001921 0.017017
#
#
# Mechanical properties :
#
#
# Convention : Reuss Voigt Hill
#
# Bulk Modulus (GPa) = 40.81011 46.18586 43.49799
# Shear Modulus (GPa) = 40.37066 46.47237 43.42151
#
# Velocity S-wave (km/s) = 4.39412 4.71451 4.55713
# Velocity P-wave (km/s) = 6.72777 7.19202 6.96376
#
# Compressibility (1/GPa) = 0.02450373
#
# Stress axis : x y z
#
# Youngs Moduli (GPa) = 105.88102 86.04089 51.45719
#
# Poissons Ratio (x) = 0.20919 0.13419
# Poissons Ratio (y) = 0.25743 0.15228
# Poissons Ratio (z) = 0.27611 0.25462
#
# Static dielectric constant tensor:
#      x y z
#    x 1.714330 -0.003500 -0.032360 
#    y -0.003500 1.734960 -0.001920 
#    z -0.032360 -0.001920 1.655540 
# 
# From -- ./inp_files/206805.got.cif
#   From: 2010.05.17/outbox.cif.g08.bks.cpg/sg2_104_cif.got.tgz:206805.got - 2010.06.03 11:33:40.
