data_PCOD9059131
_publ_section_title
;
Structure prediction by ZEFSAII (Michael W. Deem and Ramdas Pophale) SiO2 
 PCOD9059131
Probable space group: P -1
;
_chemical_formula_sum "Si O2"
_cell_formula_units_Z 15
_cell_length_a 14.830340
_cell_length_b 11.670700
_cell_length_c 9.169055
_cell_angle_alpha 112.197412
_cell_angle_beta 40.202013
_cell_angle_gamma 133.166870
_cell_volume 710.967409
_symmetry_space_group_name_H-M "P -1"
_symmetry_group_IT_number 2
_symmetry_cell_setting 'triclinic'
loop_
_space_group_symop_operation_xyz
x,y,z
-x,-y,-z
loop_
_atom_site_type_symbol
_atom_site_label
_atom_site_fract_x
_atom_site_fract_y
_atom_site_fract_z
Si Si1 0.991427 0.779095 0.889449
Si Si2 0.369392 0.179944 0.331906
Si Si3 0.304332 0.271735 0.167873
Si Si4 0.672051 0.461084 0.631056
Si Si5 0.638741 0.464820 0.331995
Si Si6 0.954145 0.991579 0.845183
Si Si7 0.818005 0.323252 0.575009
Si Si8 0.500000 0.000000 0.000000
O O1 0.910467 0.842456 0.920136
O O2 0.116597 0.760930 0.632523
O O3 0.825440 0.604342 0.081345
O O4 0.094041 0.915387 0.957684
O O5 0.402214 0.285416 0.201961
O O6 0.528444 0.288049 0.308444
O O7 0.361922 0.035132 0.221497
O O8 0.175027 0.114808 0.606363
O O9 0.220978 0.358032 0.344796
O O10 0.151508 0.084788 0.212940
O O11 0.459995 0.364110 0.895073
O O12 0.683757 0.468654 0.446731
O O13 0.733174 0.370322 0.585905
O O14 0.500000 0.500000 0.500000
O O15 0.658592 0.191712 0.824393
O O16 0.000000 0.500000 0.500000
#
# Coordination Sequence:
#
# PCOD9059131 Si02
#       8
#     2   2   2   2   2   2   2   1
#     4  11  24  42  68 100 142 186 230 290 362 416
#     4  12  24  45  71  98 140 187 234 292 360 419
#     4  11  23  41  69 104 136 178 244 292 349 424
#     4  11  25  42  71 105 138 187 237 291 359 422
#     4  12  23  45  70 100 142 186 238 293 349 425
#     4  11  23  40  68 102 136 179 236 295 349 420
#     4  12  26  49  74 104 148 189 238 296 362 430
#     4  12  26  48  68 108 140 192 234 288 366 422
#
# _framework density 21.098013000000002
#
# number of rings (size 3 to 8) (size 9 to 14) (size 15 to 20)
#    0.000    0.533    5.333    2.800    3.733    0.533 
#    2.400    1.333    0.000    0.000    0.000    0.000 
#    0.000    0.000    0.000    0.000    0.000    0.000 
#
# Total GULP energy -83597.957680 kJ/mol
# GULP energy per Si atom -5573.197179 kJ/mol
# Density = 2.104999 g / cm^3
# Si number density = 21.098013 Si / 1000 Ang^3
#
#
#
# Elastic Constant Matrix: (Units=GPa)
#
#
# Indices 1 2 3 4 5 6 
#
# 1 56.6769 34.6324 26.6265 -7.6806 5.2776 4.7958
# 2 34.6324 89.4178 37.9880 6.4345 -4.4906 3.0676
# 3 26.6265 37.9880 115.1061 -8.1995 14.8391 3.4080
# 4 -7.6806 6.4345 -8.1995 46.2048 -14.8544 0.2407
# 5 5.2776 -4.4906 14.8391 -14.8544 21.2190 3.3985
# 6 4.7958 3.0676 3.4080 0.2407 3.3985 37.9455
#
#
#
# Elastic Compliance Matrix: (Units=1/GPa)
#
#
# Indices 1 2 3 4 5 6 
#
# 1 0.025363 -0.009421 -0.001918 0.003949 -0.003884 -0.001949
# 2 -0.009421 0.017413 -0.004722 -0.002326 0.007778 -0.000475
# 3 -0.001918 -0.004722 0.011830 -0.000531 -0.009230 0.000392
# 4 0.003949 -0.002326 -0.000531 0.028774 0.019390 -0.002183
# 5 -0.003884 0.007778 -0.009230 0.019390 0.070692 -0.005763
# 6 -0.001949 -0.000475 0.000392 -0.002183 -0.005763 0.027133
#
#
# Mechanical properties :
#
#
# Convention : Reuss Voigt Hill
#
# Bulk Modulus (GPa) = 44.47536 51.07718 47.77627
# Shear Modulus (GPa) = 22.64275 31.87077 27.25676
#
# Velocity S-wave (km/s) = 3.27955 3.89087 3.59822
# Velocity P-wave (km/s) = 5.95540 6.66687 6.32115
#
# Compressibility (1/GPa) = 0.02248436
#
# Stress axis : x y z
#
# Youngs Moduli (GPa) = 39.42676 57.43000 84.53033
#
# Poissons Ratio (x) = 0.54105 0.16215
# Poissons Ratio (y) = 0.37144 0.39912
# Poissons Ratio (z) = 0.07563 0.27116
#
# Static dielectric constant tensor:
#      x y z
#    x 1.746040 0.022760 0.024890 
#    y 0.022760 1.843850 -0.011850 
#    z 0.024890 -0.011850 1.751700 
# 
# From -- ./inp_files/307888.got.cif
#   From: 2010.05.17/outbox.cif.g08.bks.cpg/sg2_154_cif.got.tgz:307888.got - 2010.06.03 11:33:40.
