data_PCOD9059226
_publ_section_title
;
Structure prediction by ZEFSAII (Michael W. Deem and Ramdas Pophale) SiO2 
 PCOD9059226
Probable space group: P -1
;
_chemical_formula_sum "Si O2"
_cell_formula_units_Z 16
_cell_length_a 8.895062
_cell_length_b 12.310042
_cell_length_c 9.888342
_cell_angle_alpha 108.363873
_cell_angle_beta 45.423146
_cell_angle_gamma 92.230545
_cell_volume 704.896996
_symmetry_space_group_name_H-M "P -1"
_symmetry_group_IT_number 2
_symmetry_cell_setting 'triclinic'
loop_
_space_group_symop_operation_xyz
x,y,z
-x,-y,-z
loop_
_atom_site_type_symbol
_atom_site_label
_atom_site_fract_x
_atom_site_fract_y
_atom_site_fract_z
Si Si1 0.223689 0.913784 0.175493
Si Si2 0.409908 0.936622 0.352205
Si Si3 0.957137 0.668278 0.745490
Si Si4 0.639284 0.684502 0.194895
Si Si5 0.895970 0.924574 0.934847
Si Si6 0.573175 0.502162 0.608874
Si Si7 0.647137 0.743533 0.720782
Si Si8 0.168166 0.190435 0.652341
O O1 0.254241 0.946321 0.323221
O O2 0.074715 0.822360 0.220547
O O3 0.116996 0.023307 0.187358
O O4 0.465055 0.853686 0.940791
O O5 0.446930 0.807316 0.344875
O O6 0.310731 0.056034 0.546025
O O7 0.649793 0.935297 0.144895
O O8 0.020516 0.785853 0.803985
O O9 0.844975 0.701610 0.684640
O O10 0.167239 0.558442 0.567860
O O11 0.770799 0.652008 0.959673
O O12 0.547688 0.578008 0.261326
O O13 0.800089 0.719602 0.217261
O O14 0.000000 0.000000 0.000000
O O15 0.500000 0.500000 0.500000
O O16 0.534692 0.636634 0.732712
O O17 0.732723 0.775234 0.535554
#
# Coordination Sequence:
#
# PCOD9059226 Si02
#       8
#     2   2   2   2   2   2   2   2
#     4  12  24  44  72 108 147 190 229 291 362 420
#     4  11  23  45  68 109 145 182 237 290 354 434
#     4  11  27  48  73 104 144 187 240 292 359 416
#     4  11  26  47  69 108 139 185 239 297 351 429
#     4  11  23  40  72 106 149 187 225 288 362 423
#     4  12  29  48  77 102 140 190 245 300 350 420
#     4  12  26  50  71 106 144 189 241 292 349 427
#     4  12  26  40  74 106 148 184 233 287 358 430
#
# _framework density 22.698353000000001
#
# number of rings (size 3 to 8) (size 9 to 14) (size 15 to 20)
#    0.000    0.500    5.000    3.750    8.750    2.000 
#    0.000    0.000    0.000    0.000    0.000    0.000 
#    0.000    0.000    0.000    0.000    0.000    0.000 
#
# Total GULP energy -89685.817486 kJ/mol
# GULP energy per Si atom -5605.363593 kJ/mol
# Density = 2.264669 g / cm^3
# Si number density = 22.698353 Si / 1000 Ang^3
#
#
#
# Elastic Constant Matrix: (Units=GPa)
#
#
# Indices 1 2 3 4 5 6 
#
# 1 82.8006 13.1727 7.5350 -13.1476 7.9317 -1.3931
# 2 13.1727 111.8954 17.7145 -25.5361 4.8575 4.8704
# 3 7.5350 17.7145 42.2492 -9.2074 -5.0764 -6.2968
# 4 -13.1476 -25.5361 -9.2074 36.3824 0.0940 3.8660
# 5 7.9317 4.8575 -5.0764 0.0940 32.8768 1.8218
# 6 -1.3931 4.8704 -6.2968 3.8660 1.8218 33.2236
#
#
#
# Elastic Compliance Matrix: (Units=1/GPa)
#
#
# Indices 1 2 3 4 5 6 
#
# 1 0.013271 -0.000154 -0.001803 0.004247 -0.003466 -0.000067
# 2 -0.000154 0.011482 -0.003910 0.007357 -0.002108 -0.003171
# 3 -0.001803 -0.003910 0.027655 0.003047 0.004991 0.005111
# 4 0.004247 0.007357 0.003047 0.035423 -0.001501 -0.004362
# 5 -0.003466 -0.002108 0.004991 -0.001501 0.032366 -0.000491
# 6 -0.000067 -0.003171 0.005111 -0.004362 -0.000491 0.032064
#
#
# Mechanical properties :
#
#
# Convention : Reuss Voigt Hill
#
# Bulk Modulus (GPa) = 24.58498 34.86552 29.72525
# Shear Modulus (GPa) = 28.16041 33.73144 30.94593
#
# Velocity S-wave (km/s) = 3.52609 3.85915 3.69637
# Velocity P-wave (km/s) = 5.23760 5.93726 5.59837
#
# Compressibility (1/GPa) = 0.04067524
#
# Stress axis : x y z
#
# Youngs Moduli (GPa) = 75.35172 87.08945 36.15939
#
# Poissons Ratio (x) = 0.01343 0.06519
# Poissons Ratio (y) = 0.01162 0.14137
# Poissons Ratio (z) = 0.13585 0.34049
#
# Static dielectric constant tensor:
#      x y z
#    x 1.833490 0.000390 -0.006450 
#    y 0.000390 1.836400 -0.004030 
#    z -0.006450 -0.004030 1.821560 
# 
# From -- ./inp_files/188151.got.cif
#   From: 2010.05.17/outbox.cif.g08.bks.cpg/sg2_95_cif.got.tgz:188151.got - 2010.06.03 11:33:40.
