data_PCOD9059948
_publ_section_title
;
Structure prediction by ZEFSAII (Michael W. Deem and Ramdas Pophale) SiO2 
 PCOD9059948
Probable space group: P -1
;
_chemical_formula_sum "Si O2"
_cell_formula_units_Z 15
_cell_length_a 8.802095
_cell_length_b 14.036329
_cell_length_c 7.753655
_cell_angle_alpha 121.356616
_cell_angle_beta 55.215710
_cell_angle_gamma 89.345816
_cell_volume 603.479540
_symmetry_space_group_name_H-M "P -1"
_symmetry_group_IT_number 2
_symmetry_cell_setting 'triclinic'
loop_
_space_group_symop_operation_xyz
x,y,z
-x,-y,-z
loop_
_atom_site_type_symbol
_atom_site_label
_atom_site_fract_x
_atom_site_fract_y
_atom_site_fract_z
Si Si1 0.164451 0.856241 0.739905
Si Si2 0.000000 0.500000 0.500000
Si Si3 0.424380 0.347973 0.781669
Si Si4 0.610150 0.534600 0.715840
Si Si5 0.413034 0.960190 0.185518
Si Si6 0.744575 0.228466 0.000876
Si Si7 0.843002 0.772761 0.241785
Si Si8 0.142700 0.234985 0.184685
O O1 0.386989 0.789577 0.440147
O O2 0.233627 0.802378 0.837914
O O3 0.025842 0.805946 0.677999
O O4 0.000000 0.000000 0.000000
O O5 0.155866 0.539221 0.561914
O O6 0.079772 0.369321 0.426359
O O7 0.510057 0.441360 0.736059
O O8 0.259996 0.321512 0.752725
O O9 0.334788 0.412331 0.087177
O O10 0.457406 0.648046 0.807222
O O11 0.307085 0.085833 0.478886
O O12 0.266668 0.892672 0.185582
O O13 0.623113 0.854474 0.019101
O O14 0.500000 0.000000 0.000000
O O15 0.938925 0.251755 0.841203
O O16 0.864702 0.773318 0.023719
#
# Coordination Sequence:
#
# PCOD9059948 Si02
#       8
#     2   1   2   2   2   2   2   2
#     4  11  24  43  67  99 136 175 219 273 334 397
#     4  12  20  48  70  96 126 178 228 268 336 396
#     4  11  23  45  66 101 129 177 227 270 333 389
#     4  11  25  44  74  94 133 175 227 278 323 404
#     4  12  24  43  67 100 134 171 222 281 331 392
#     4  11  25  44  65 103 131 181 217 272 338 387
#     4  11  24  43  65  97 138 173 219 271 333 401
#     4  11  23  42  71  93 127 183 220 265 337 399
#
# _framework density 24.855854999999998
#
# number of rings (size 3 to 8) (size 9 to 14) (size 15 to 20)
#    0.000    0.800    4.000    3.200    0.000    6.400 
#    0.000    0.000    0.000    0.000    0.000    0.000 
#    0.000    0.000    0.000    0.000    0.000    0.000 
#
# Total GULP energy -83583.255459 kJ/mol
# GULP energy per Si atom -5572.217031 kJ/mol
# Density = 2.479928 g / cm^3
# Si number density = 24.855855 Si / 1000 Ang^3
#
#
#
# Elastic Constant Matrix: (Units=GPa)
#
#
# Indices 1 2 3 4 5 6 
#
# 1 160.3513 57.5955 33.3741 20.8861 -9.0487 38.4109
# 2 57.5955 77.2876 12.4477 25.5688 8.3359 18.4787
# 3 33.3741 12.4477 106.1058 38.2963 5.6744 -7.1221
# 4 20.8861 25.5688 38.2963 24.9075 1.6227 -6.7123
# 5 -9.0487 8.3359 5.6744 1.6227 36.0917 9.8064
# 6 38.4109 18.4787 -7.1221 -6.7123 9.8064 53.4075
#
#
#
# Elastic Compliance Matrix: (Units=1/GPa)
#
#
# Indices 1 2 3 4 5 6 
#
# 1 0.012021 -0.008787 -0.005350 0.004753 0.007605 -0.007118
# 2 -0.008787 0.053880 0.032850 -0.102928 -0.010011 -0.019039
# 3 -0.005350 0.032850 0.041380 -0.095758 -0.007700 -0.012621
# 4 0.004753 -0.102928 -0.095758 0.303265 0.011316 0.055462
# 5 0.007605 -0.010011 -0.007700 0.011316 0.034802 -0.008000
# 6 -0.007118 -0.019039 -0.012621 0.055462 -0.008000 0.037187
#
#
# Mechanical properties :
#
#
# Convention : Reuss Voigt Hill
#
# Bulk Modulus (GPa) = 6.91058 61.17548 34.04303
# Shear Modulus (GPa) = 10.13489 38.90316 24.51903
#
# Velocity S-wave (km/s) = 2.02146 3.96049 3.14419
# Velocity P-wave (km/s) = 2.86962 6.75126 5.18721
#
# Compressibility (1/GPa) = 0.14470571
#
# Stress axis : x y z
#
# Youngs Moduli (GPa) = 83.18604 18.55984 24.16635
#
# Poissons Ratio (x) = 0.16309 0.12929
# Poissons Ratio (y) = 0.73099 -0.79386
# Poissons Ratio (z) = 0.44505 -0.60969
#
# Static dielectric constant tensor:
#      x y z
#    x 1.954860 0.042120 0.143490 
#    y 0.042120 2.054400 0.071830 
#    z 0.143490 0.071830 1.712300 
# 
# From -- ./inp_files/204032.got.cif
#   From: 2010.05.17/outbox.cif.g08.bks.cpg/sg2_103_cif.got.tgz:204032.got - 2010.06.03 11:33:40.
