data_PCOD9059649
_publ_section_title
;
Structure prediction by ZEFSAII (Michael W. Deem and Ramdas Pophale) SiO2 
 PCOD9059649
Probable space group: P -1
;
_chemical_formula_sum "Si O2"
_cell_formula_units_Z 14
_cell_length_a 5.515898
_cell_length_b 9.476978
_cell_length_c 16.820390
_cell_angle_alpha 134.875016
_cell_angle_beta 96.119172
_cell_angle_gamma 84.534474
_cell_volume 619.291707
_symmetry_space_group_name_H-M "P -1"
_symmetry_group_IT_number 2
_symmetry_cell_setting 'triclinic'
loop_
_space_group_symop_operation_xyz
x,y,z
-x,-y,-z
loop_
_atom_site_type_symbol
_atom_site_label
_atom_site_fract_x
_atom_site_fract_y
_atom_site_fract_z
Si Si1 0.250345 0.867188 0.458609
Si Si2 0.558301 0.344188 0.871288
Si Si3 0.803681 0.497456 0.807115
Si Si4 0.238483 0.626597 0.532543
Si Si5 0.966198 0.246888 0.965949
Si Si6 0.665679 0.008069 0.217616
Si Si7 0.325391 0.081535 0.096725
O O1 0.195416 0.698650 0.323078
O O2 0.256810 0.738875 0.491146
O O3 0.500000 0.000000 0.500000
O O4 0.000000 0.000000 0.500000
O O5 0.565626 0.467195 0.840609
O O6 0.810523 0.258906 0.884812
O O7 0.407370 0.147263 0.779167
O O8 0.500000 0.500000 0.000000
O O9 0.783381 0.701655 0.840422
O O10 0.998880 0.548329 0.903838
O O11 0.500000 0.500000 0.500000
O O12 0.207835 0.810060 0.666239
O O13 0.000000 0.500000 0.500000
O O14 0.856874 0.093240 0.962220
O O15 0.212059 0.140916 0.901791
O O16 0.451029 0.104184 0.195820
O O17 0.500000 0.000000 0.000000
#
# Coordination Sequence:
#
# PCOD9059649 Si02
#       7
#     2   2   2   2   2   2   2
#     4  12  30  53  75 111 154 205 255 314 376 436
#     4  11  23  42  65 105 140 181 229 282 370 442
#     4  12  24  43  73 102 144 181 237 300 360 439
#     4  12  29  51  80 109 145 205 265 306 367 449
#     4  11  24  40  68 105 135 180 228 290 371 431
#     4  11  25  43  72  95 145 179 233 298 354 438
#     4  11  23  42  65 107 142 174 225 295 376 430
#
# _framework density 22.606472
#
# number of rings (size 3 to 8) (size 9 to 14) (size 15 to 20)
#    0.000    0.571    2.857    4.286    8.000    2.286 
#    0.000    0.000    0.000    0.000    0.000    0.000 
#    0.000    0.000    0.000    0.000    0.000    0.000 
#
# Total GULP energy -77941.369953 kJ/mol
# GULP energy per Si atom -5567.240711 kJ/mol
# Density = 2.255502 g / cm^3
# Si number density = 22.606472 Si / 1000 Ang^3
#
#
#
# Elastic Constant Matrix: (Units=GPa)
#
#
# Indices 1 2 3 4 5 6 
#
# 1 92.9993 49.2399 41.5696 22.6713 11.4330 17.6851
# 2 49.2399 133.8820 28.0455 26.7976 6.5629 32.2582
# 3 41.5696 28.0455 184.7572 23.1230 26.8752 20.8694
# 4 22.6713 26.7976 23.1230 35.5131 10.7696 3.5881
# 5 11.4330 6.5629 26.8752 10.7696 39.4393 14.9155
# 6 17.6851 32.2582 20.8694 3.5881 14.9155 37.8283
#
#
#
# Elastic Compliance Matrix: (Units=1/GPa)
#
#
# Indices 1 2 3 4 5 6 
#
# 1 0.015323 -0.003481 -0.001916 -0.005634 -0.000040 -0.002588
# 2 -0.003481 0.012509 0.000344 -0.007835 0.004750 -0.010359
# 3 -0.001916 0.000344 0.006689 -0.002382 -0.002735 -0.001784
# 4 -0.005634 -0.007835 -0.002382 0.041415 -0.010910 0.011003
# 5 -0.000040 0.004750 -0.002735 -0.010910 0.035237 -0.015382
# 6 -0.002588 -0.010359 -0.001784 0.011003 -0.015382 0.042484
#
#
# Mechanical properties :
#
#
# Convention : Reuss Voigt Hill
#
# Bulk Modulus (GPa) = 40.95860 72.14983 56.55422
# Shear Modulus (GPa) = 29.08666 42.07503 35.58085
#
# Velocity S-wave (km/s) = 3.59088 4.31884 3.97157
# Velocity P-wave (km/s) = 5.94559 7.54020 6.78987
#
# Compressibility (1/GPa) = 0.02441490
#
# Stress axis : x y z
#
# Youngs Moduli (GPa) = 65.26259 79.94443 149.50475
#
# Poissons Ratio (x) = 0.27827 0.28643
# Poissons Ratio (y) = 0.22717 -0.05144
# Poissons Ratio (z) = 0.12504 -0.02751
#
# Static dielectric constant tensor:
#      x y z
#    x 2.501550 -0.247480 0.205580 
#    y -0.247480 1.989850 -0.136400 
#    z 0.205580 -0.136400 1.885430 
# 
# From -- ./inp_files/60920.got.cif
#   From: 2010.05.17/outbox.cif.g08.bks.cpg/sg2_31_cif.got.tgz:60920.got - 2010.06.03 11:33:40.
