data_PCOD9059430
_publ_section_title
;
Structure prediction by ZEFSAII (Michael W. Deem and Ramdas Pophale) SiO2 
 PCOD9059430
Probable space group: P -1
;
_chemical_formula_sum "Si O2"
_cell_formula_units_Z 16
_cell_length_a 13.367766
_cell_length_b 10.884457
_cell_length_c 7.621614
_cell_angle_alpha 40.575249
_cell_angle_beta 114.041058
_cell_angle_gamma 110.957032
_cell_volume 656.566918
_symmetry_space_group_name_H-M "P -1"
_symmetry_group_IT_number 2
_symmetry_cell_setting 'triclinic'
loop_
_space_group_symop_operation_xyz
x,y,z
-x,-y,-z
loop_
_atom_site_type_symbol
_atom_site_label
_atom_site_fract_x
_atom_site_fract_y
_atom_site_fract_z
Si Si1 0.669869 0.672805 0.891187
Si Si2 0.479185 0.917101 0.352517
Si Si3 0.083880 0.989824 0.809134
Si Si4 0.708933 0.264955 0.345432
Si Si5 0.256350 0.280599 0.723521
Si Si6 0.519216 0.725408 0.245360
Si Si7 0.888470 0.411747 0.604662
Si Si8 0.845812 0.982076 0.568585
O O1 0.576776 0.800105 0.619856
O O2 0.785755 0.784602 0.804533
O O3 0.657610 0.459135 0.041707
O O4 0.671747 0.664543 0.112397
O O5 0.378066 0.872649 0.458717
O O6 0.453732 0.817719 0.254989
O O7 0.506817 0.138512 0.085708
O O8 0.122514 0.043310 0.582738
O O9 0.173822 0.094187 0.887300
O O10 0.083718 0.767396 0.070383
O O11 0.959260 0.039708 0.689576
O O12 0.804066 0.341674 0.466509
O O13 0.764370 0.145314 0.366399
O O14 0.346935 0.244979 0.680796
O O15 0.174135 0.445263 0.472579
O O16 0.500000 0.500000 0.500000
O O17 0.000000 0.500000 0.500000
#
# Coordination Sequence:
#
# PCOD9059430 Si02
#       8
#     2   2   2   2   2   2   2   2
#     4  11  24  42  65  98 131 171 221 269 322 388
#     4  11  25  43  66  96 132 172 219 269 324 388
#     4  11  24  44  64  95 132 168 216 271 325 388
#     4  11  24  43  66  97 132 173 220 268 325 389
#     4  11  24  42  67  94 128 171 215 266 328 388
#     4  11  24  43  66  96 132 171 215 268 326 387
#     4  11  23  41  68  96 128 171 217 267 325 387
#     4  11  25  41  66  95 130 173 216 269 329 387
#
# _framework density 24.369183
#
# number of rings (size 3 to 8) (size 9 to 14) (size 15 to 20)
#    0.000    1.000    0.000    7.125    0.000    9.500 
#    0.000    3.125    0.000    0.000    0.000    0.000 
#    0.000    0.000    0.000    0.000    0.000    0.000 
#
# Total GULP energy -89574.445544 kJ/mol
# GULP energy per Si atom -5598.402846 kJ/mol
# Density = 2.431372 g / cm^3
# Si number density = 24.369183 Si / 1000 Ang^3
#
#
#
# Elastic Constant Matrix: (Units=GPa)
#
#
# Indices 1 2 3 4 5 6 
#
# 1 132.8116 21.1188 48.5967 -14.5253 10.6652 -1.6154
# 2 21.1188 51.8960 27.8274 -26.7085 -0.3897 -8.7878
# 3 48.5967 27.8274 128.7571 -37.3498 12.8577 4.3601
# 4 -14.5253 -26.7085 -37.3498 40.5617 -1.5872 5.1851
# 5 10.6652 -0.3897 12.8577 -1.5872 40.9777 -6.5597
# 6 -1.6154 -8.7878 4.3601 5.1851 -6.5597 40.8329
#
#
#
# Elastic Compliance Matrix: (Units=1/GPa)
#
#
# Indices 1 2 3 4 5 6 
#
# 1 0.009067 -0.002813 -0.003116 -0.001538 -0.001461 0.000046
# 2 -0.002813 0.031035 -0.000809 0.018179 0.002752 0.004788
# 3 -0.003116 -0.000809 0.012519 0.010192 -0.003283 -0.003456
# 4 -0.001538 0.018179 0.010192 0.045823 -0.001374 -0.003277
# 5 -0.001461 0.002752 -0.003283 -0.001374 0.026642 0.005340
# 6 0.000046 0.004788 -0.003456 -0.003277 0.005340 0.027165
#
#
# Mechanical properties :
#
#
# Convention : Reuss Voigt Hill
#
# Bulk Modulus (GPa) = 25.54681 56.50563 41.02622
# Shear Modulus (GPa) = 27.96796 38.86924 33.41860
#
# Velocity S-wave (km/s) = 3.39141 3.99810 3.70719
# Velocity P-wave (km/s) = 5.08346 6.67463 5.93263
#
# Compressibility (1/GPa) = 0.03914383
#
# Stress axis : x y z
#
# Youngs Moduli (GPa) = 110.29492 32.22130 79.87934
#
# Poissons Ratio (x) = 0.09065 0.24888
# Poissons Ratio (y) = 0.31031 0.06464
# Poissons Ratio (z) = 0.34365 0.02608
#
# Static dielectric constant tensor:
#      x y z
#    x 1.919510 -0.005000 0.018770 
#    y -0.005000 1.983070 0.036050 
#    z 0.018770 0.036050 1.940480 
# 
# From -- ./inp_files/256038.got.cif
#   From: 2010.05.17/outbox.cif.g08.bks.cpg/sg2_129_cif.got.tgz:256038.got - 2010.06.03 11:33:40.
