data_PCOD9059206
_publ_section_title
;
Structure prediction by ZEFSAII (Michael W. Deem and Ramdas Pophale) SiO2 
 PCOD9059206
Probable space group: P -1
;
_chemical_formula_sum "Si O2"
_cell_formula_units_Z 16
_cell_length_a 5.228311
_cell_length_b 11.463845
_cell_length_c 16.047576
_cell_angle_alpha 51.707931
_cell_angle_beta 121.469870
_cell_angle_gamma 116.016169
_cell_volume 634.279760
_symmetry_space_group_name_H-M "P -1"
_symmetry_group_IT_number 2
_symmetry_cell_setting 'triclinic'
loop_
_space_group_symop_operation_xyz
x,y,z
-x,-y,-z
loop_
_atom_site_type_symbol
_atom_site_label
_atom_site_fract_x
_atom_site_fract_y
_atom_site_fract_z
Si Si1 0.384616 0.155241 0.402943
Si Si2 0.792475 0.932125 0.105088
Si Si3 0.009191 0.507698 0.176211
Si Si4 0.194381 0.824495 0.777393
Si Si5 0.252810 0.207163 0.016714
Si Si6 0.296008 0.517861 0.695017
Si Si7 0.905382 0.724040 0.360983
Si Si8 0.623911 0.846601 0.416154
O O1 0.634734 0.302588 0.375455
O O2 0.229593 0.167939 0.461569
O O3 0.157325 0.155103 0.287093
O O4 0.500000 0.000000 0.500000
O O5 0.756269 0.833148 0.224787
O O6 0.842800 0.832086 0.077542
O O7 0.066535 0.070479 0.097920
O O8 0.500000 0.000000 0.000000
O O9 0.841063 0.339038 0.200498
O O10 0.952940 0.527935 0.255851
O O11 0.368027 0.523909 0.209267
O O12 0.849426 0.634974 0.049129
O O13 0.397658 0.803509 0.901074
O O14 0.329712 0.978721 0.683170
O O15 0.188065 0.438805 0.625105
O O16 0.770208 0.750395 0.415766
O O17 0.265835 0.782162 0.391556
#
# Coordination Sequence:
#
# PCOD9059206 Si02
#       8
#     2   2   2   2   2   2   2   2
#     4  11  26  50  77 106 144 198 251 312 365 434
#     4  11  23  40  71 103 151 191 239 300 361 444
#     4  11  24  45  71 109 153 196 237 296 367 447
#     4  11  24  47  72 106 148 194 245 306 357 447
#     4  11  23  43  71 110 143 198 239 293 374 440
#     4  11  25  47  75 106 151 191 242 306 372 434
#     4  12  25  45  73 105 149 183 243 306 365 436
#     4  12  26  45  74 106 140 194 248 303 367 424
#
# _framework density 25.225462
#
# number of rings (size 3 to 8) (size 9 to 14) (size 15 to 20)
#    0.000    0.750    2.500    4.500    1.750    5.000 
#    4.500    3.125    0.000    0.000    0.000    0.000 
#    0.000    0.000    0.000    0.000    0.000    0.000 
#
# Total GULP energy -89642.502934 kJ/mol
# GULP energy per Si atom -5602.656433 kJ/mol
# Density = 2.516805 g / cm^3
# Si number density = 25.225462 Si / 1000 Ang^3
#
#
#
# Elastic Constant Matrix: (Units=GPa)
#
#
# Indices 1 2 3 4 5 6 
#
# 1 83.6072 22.5597 -2.6441 11.0871 14.2884 -14.1860
# 2 22.5597 141.8167 24.6611 -11.4776 20.5930 2.1585
# 3 -2.6441 24.6611 102.2972 4.3301 27.7630 1.0236
# 4 11.0871 -11.4776 4.3301 43.9768 -5.0810 1.3840
# 5 14.2884 20.5930 27.7630 -5.0810 40.6810 4.5595
# 6 -14.1860 2.1585 1.0236 1.3840 4.5595 30.4573
#
#
#
# Elastic Compliance Matrix: (Units=1/GPa)
#
#
# Indices 1 2 3 4 5 6 
#
# 1 0.016849 -0.002706 0.003713 -0.006659 -0.008985 0.009563
# 2 -0.002706 0.008263 -0.001767 0.002896 -0.001475 -0.001697
# 3 0.003713 -0.001767 0.013226 -0.003986 -0.010284 0.003131
# 4 -0.006659 0.002896 -0.003986 0.026610 0.007534 -0.005510
# 5 -0.008985 -0.001475 -0.010284 0.007534 0.037530 -0.009696
# 6 0.009563 -0.001697 0.003131 -0.005510 -0.009696 0.039004
#
#
# Mechanical properties :
#
#
# Convention : Reuss Voigt Hill
#
# Bulk Modulus (GPa) = 27.16085 46.31941 36.74013
# Shear Modulus (GPa) = 32.20069 41.89933 37.05001
#
# Velocity S-wave (km/s) = 3.57671 4.07995 3.83659
# Velocity P-wave (km/s) = 5.27710 6.37155 5.84998
#
# Compressibility (1/GPa) = 0.03681770
#
# Stress axis : x y z
#
# Youngs Moduli (GPa) = 59.34967 121.01521 75.60888
#
# Poissons Ratio (x) = 0.32742 -0.28070
# Poissons Ratio (y) = 0.16058 0.13363
# Poissons Ratio (z) = -0.22034 0.21388
#
# Static dielectric constant tensor:
#      x y z
#    x 2.008200 -0.021460 0.006550 
#    y -0.021460 2.000010 0.007070 
#    z 0.006550 0.007070 2.001200 
# 
# From -- ./inp_files/549475.got.cif
#   From: 2010.05.17/outbox.cif.g08.bks.cpg/sg2_275_cif.got.tgz:549475.got - 2010.06.03 11:33:40.
