data_PCOD9059021
_publ_section_title
;
Structure prediction by ZEFSAII (Michael W. Deem and Ramdas Pophale) SiO2 
 PCOD9059021
Probable space group: P -1
;
_chemical_formula_sum "Si O2"
_cell_formula_units_Z 14
_cell_length_a 10.678352
_cell_length_b 9.312204
_cell_length_c 6.437788
_cell_angle_alpha 85.757034
_cell_angle_beta 108.745844
_cell_angle_gamma 78.149639
_cell_volume 586.481913
_symmetry_space_group_name_H-M "P -1"
_symmetry_group_IT_number 2
_symmetry_cell_setting 'triclinic'
loop_
_space_group_symop_operation_xyz
x,y,z
-x,-y,-z
loop_
_atom_site_type_symbol
_atom_site_label
_atom_site_fract_x
_atom_site_fract_y
_atom_site_fract_z
Si Si1 0.207680 0.122384 0.453256
Si Si2 0.657603 0.143187 0.130034
Si Si3 0.584520 0.376729 0.397651
Si Si4 0.010062 0.396840 0.819604
Si Si5 0.220697 0.417792 0.615729
Si Si6 0.601952 0.074467 0.678868
Si Si7 0.943981 0.149366 0.083056
O O1 0.261373 0.266880 0.519802
O O2 0.044654 0.160492 0.331162
O O3 0.271075 0.993712 0.665973
O O4 0.260596 0.052679 0.267314
O O5 0.562738 0.280345 0.191716
O O6 0.791372 0.179244 0.088839
O O7 0.572564 0.097628 0.901876
O O8 0.500000 0.500000 0.500000
O O9 0.675973 0.478376 0.332173
O O10 0.623125 0.230181 0.583543
O O11 0.159108 0.370025 0.800376
O O12 0.903296 0.477534 0.585642
O O13 0.000000 0.500000 0.000000
O O14 0.959222 0.262891 0.900254
O O15 0.500000 0.000000 0.500000
O O16 0.000000 0.000000 0.000000
#
# Coordination Sequence:
#
# PCOD9059021 Si02
#       7
#     2   2   2   2   2   2   2
#     4  11  24  41  68 107 144 190 233 290 362 438
#     4  11  25  44  72 108 145 188 240 303 359 427
#     4  11  26  47  71 103 142 192 242 299 350 430
#     4  11  23  40  62 100 143 190 229 286 348 430
#     4  11  24  41  66 101 145 188 236 283 360 426
#     4  11  25  49  74 102 137 184 251 302 358 426
#     4  12  22  41  71 109 150 189 233 289 367 433
#
# _framework density 23.871153
#
# number of rings (size 3 to 8) (size 9 to 14) (size 15 to 20)
#    0.000    0.857    2.857    3.857    4.000    2.857 
#    0.000    2.857    0.000    0.000    0.000    0.000 
#    0.000    0.000    0.000    0.000    0.000    0.000 
#
# Total GULP energy -78051.310915 kJ/mol
# GULP energy per Si atom -5575.093637 kJ/mol
# Density = 2.381682 g / cm^3
# Si number density = 23.871153 Si / 1000 Ang^3
#
#
#
# Elastic Constant Matrix: (Units=GPa)
#
#
# Indices 1 2 3 4 5 6 
#
# 1 63.2067 19.4624 21.2494 -3.1957 -12.1397 8.1208
# 2 19.4624 170.6190 41.8064 7.5104 -20.5952 9.6887
# 3 21.2494 41.8064 115.1494 19.5065 -9.0572 4.4441
# 4 -3.1957 7.5104 19.5065 48.5376 3.6616 -17.4394
# 5 -12.1397 -20.5952 -9.0572 3.6616 46.6171 2.6010
# 6 8.1208 9.6887 4.4441 -17.4394 2.6010 35.3804
#
#
#
# Elastic Compliance Matrix: (Units=1/GPa)
#
#
# Indices 1 2 3 4 5 6 
#
# 1 0.018255 -0.000755 -0.002795 0.000887 0.004002 -0.003489
# 2 -0.000755 0.006928 -0.001816 -0.001471 0.002762 -0.002424
# 3 -0.002795 -0.001816 0.011007 -0.005514 0.001212 -0.003051
# 4 0.000887 -0.001471 -0.005514 0.029041 -0.004639 0.015547
# 5 0.004002 0.002762 0.001212 -0.004639 0.024644 -0.005926
# 6 -0.003489 -0.002424 -0.003051 0.015547 -0.005926 0.038211
#
#
# Mechanical properties :
#
#
# Convention : Reuss Voigt Hill
#
# Bulk Modulus (GPa) = 39.28200 57.11240 48.19720
# Shear Modulus (GPa) = 33.94337 43.87083 38.90710
#
# Velocity S-wave (km/s) = 3.77495 4.29163 4.04156
# Velocity P-wave (km/s) = 5.95751 6.96668 6.48177
#
# Compressibility (1/GPa) = 0.02545695
#
# Stress axis : x y z
#
# Youngs Moduli (GPa) = 54.77890 144.34378 90.85475
#
# Poissons Ratio (x) = 0.10901 0.25397
# Poissons Ratio (y) = 0.04137 0.16498
# Poissons Ratio (z) = 0.15312 0.26211
#
# Static dielectric constant tensor:
#      x y z
#    x 2.102200 -0.043010 0.005480 
#    y -0.043010 1.888370 0.038830 
#    z 0.005480 0.038830 1.926990 
# 
# From -- ./inp_files/27098.got.cif
#   From: 2010.05.17/outbox.cif.g08.bks.cpg/sg2_14_cif.got.tgz:27098.got - 2010.06.03 11:33:40.
