data_PCOD9059228
_publ_section_title
;
Structure prediction by ZEFSAII (Michael W. Deem and Ramdas Pophale) SiO2 
 PCOD9059228
Probable space group: P -1
;
_chemical_formula_sum "Si O2"
_cell_formula_units_Z 16
_cell_length_a 8.386710
_cell_length_b 8.715298
_cell_length_c 14.421254
_cell_angle_alpha 46.917739
_cell_angle_beta 74.232653
_cell_angle_gamma 93.449682
_cell_volume 694.139592
_symmetry_space_group_name_H-M "P -1"
_symmetry_group_IT_number 2
_symmetry_cell_setting 'triclinic'
loop_
_space_group_symop_operation_xyz
x,y,z
-x,-y,-z
loop_
_atom_site_type_symbol
_atom_site_label
_atom_site_fract_x
_atom_site_fract_y
_atom_site_fract_z
Si Si1 0.583758 0.878640 0.273962
Si Si2 0.228822 0.491805 0.807658
Si Si3 0.122089 0.252773 0.392404
Si Si4 0.894959 0.551139 0.352270
Si Si5 0.648324 0.582560 0.544027
Si Si6 0.997500 0.960348 0.872247
Si Si7 0.584451 0.351078 0.109368
Si Si8 0.914262 0.656253 0.838884
O O1 0.573257 0.740894 0.428416
O O2 0.473031 0.674612 0.309671
O O3 0.791407 0.978339 0.173606
O O4 0.514923 0.085785 0.210442
O O5 0.242203 0.503485 0.690044
O O6 0.395360 0.589823 0.809001
O O7 0.096982 0.626948 0.795620
O O8 0.121517 0.235413 0.961668
O O9 0.271548 0.287005 0.430023
O O10 0.182954 0.338267 0.244142
O O11 0.000613 0.384432 0.397831
O O12 0.000000 0.000000 0.500000
O O13 0.798466 0.554538 0.462374
O O14 0.029047 0.804031 0.209321
O O15 0.950876 0.867601 0.813142
O O16 0.500000 0.500000 0.000000
O O17 0.789726 0.446590 0.003248
#
# Coordination Sequence:
#
# PCOD9059228 Si02
#       8
#     2   2   2   2   2   2   2   2
#     4  10  20  40  62  82 124 170 200 243 324 370
#     4  10  19  37  64  93 120 160 207 248 307 374
#     4  11  23  39  63  90 122 158 215 256 303 361
#     4  10  22  35  61  93 117 156 208 256 302 360
#     4  10  23  40  61  89 125 167 204 250 312 370
#     4  10  17  37  66  86 120 158 207 251 302 371
#     4  11  22  38  62  95 126 159 205 263 314 360
#     4  10  20  39  66  93 117 165 209 251 307 369
#
# _framework density 23.05012
#
# number of rings (size 3 to 8) (size 9 to 14) (size 15 to 20)
#    0.000    1.750    2.500    3.000    1.750    3.000 
#    6.750    1.250    0.000    0.000    0.000    0.000 
#    0.000    0.000    0.000    0.000    0.000    0.000 
#
# Total GULP energy -89417.516848 kJ/mol
# GULP energy per Si atom -5588.594803 kJ/mol
# Density = 2.299766 g / cm^3
# Si number density = 23.050120 Si / 1000 Ang^3
#
#
#
# Elastic Constant Matrix: (Units=GPa)
#
#
# Indices 1 2 3 4 5 6 
#
# 1 40.6667 25.8239 18.0028 -8.1001 11.8156 1.3691
# 2 25.8239 132.3777 42.2783 -14.0373 15.7537 14.7043
# 3 18.0028 42.2783 65.6048 -10.8291 2.1544 -6.8505
# 4 -8.1001 -14.0373 -10.8291 61.5541 -8.4845 10.5012
# 5 11.8156 15.7537 2.1544 -8.4845 34.2154 0.5213
# 6 1.3691 14.7043 -6.8505 10.5012 0.5213 43.2201
#
#
#
# Elastic Compliance Matrix: (Units=1/GPa)
#
#
# Indices 1 2 3 4 5 6 
#
# 1 0.032277 -0.002782 -0.006675 0.001422 -0.009071 -0.001370
# 2 -0.002782 0.011394 -0.006767 0.001453 -0.003420 -0.005173
# 3 -0.006675 -0.006767 0.022069 0.001069 0.004209 0.005701
# 4 0.001422 0.001453 0.001069 0.018243 0.003370 -0.004843
# 5 -0.009071 -0.003420 0.004209 0.003370 0.034491 0.000883
# 6 -0.001370 -0.005173 0.005701 -0.004843 0.000883 0.027010
#
#
# Mechanical properties :
#
#
# Convention : Reuss Voigt Hill
#
# Bulk Modulus (GPa) = 30.03779 45.65102 37.84440
# Shear Modulus (GPa) = 26.45099 37.96754 32.20927
#
# Velocity S-wave (km/s) = 3.39121 4.06294 3.74218
# Velocity P-wave (km/s) = 5.32856 6.46978 5.92671
#
# Compressibility (1/GPa) = 0.03329140
#
# Stress axis : x y z
#
# Youngs Moduli (GPa) = 30.98212 87.76734 45.31277
#
# Poissons Ratio (x) = 0.24419 0.30244
# Poissons Ratio (y) = 0.08620 0.30664
# Poissons Ratio (z) = 0.20679 0.59393
#
# Static dielectric constant tensor:
#      x y z
#    x 1.959540 0.038790 0.013560 
#    y 0.038790 1.897880 0.041280 
#    z 0.013560 0.041280 1.903410 
# 
# From -- ./inp_files/492057.got.cif
#   From: 2010.05.17/outbox.cif.g08.bks.cpg/sg2_247_cif.got.tgz:492057.got - 2010.06.03 11:33:40.
