data_PCOD9059121
_publ_section_title
;
Structure prediction by ZEFSAII (Michael W. Deem and Ramdas Pophale) SiO2 
 PCOD9059121
Probable space group: P -1
;
_chemical_formula_sum "Si O2"
_cell_formula_units_Z 14
_cell_length_a 7.018213
_cell_length_b 11.284187
_cell_length_c 14.430938
_cell_angle_alpha 30.407235
_cell_angle_beta 68.575043
_cell_angle_gamma 70.778108
_cell_volume 538.231150
_symmetry_space_group_name_H-M "P -1"
_symmetry_group_IT_number 2
_symmetry_cell_setting 'triclinic'
loop_
_space_group_symop_operation_xyz
x,y,z
-x,-y,-z
loop_
_atom_site_type_symbol
_atom_site_label
_atom_site_fract_x
_atom_site_fract_y
_atom_site_fract_z
Si Si1 0.993738 0.061554 0.567490
Si Si2 0.258172 0.839622 0.896699
Si Si3 0.571705 0.671973 0.098839
Si Si4 0.069166 0.426004 0.782770
Si Si5 0.683907 0.167378 0.707309
Si Si6 0.221304 0.324508 0.634681
Si Si7 0.388381 0.793098 0.716273
O O1 0.053822 0.331194 0.378815
O O2 0.789872 0.077523 0.653843
O O3 0.000000 0.000000 0.500000
O O4 0.151744 0.874772 0.706153
O O5 0.428908 0.788112 0.822431
O O6 0.182215 0.110654 0.717858
O O7 0.356442 0.776154 0.023680
O O8 0.058301 0.685626 0.037299
O O9 0.693024 0.538933 0.252164
O O10 0.596779 0.457286 0.165810
O O11 0.670922 0.927630 0.927505
O O12 0.088587 0.295427 0.770256
O O13 0.457045 0.261473 0.660650
O O14 0.789120 0.398441 0.575176
O O15 0.500000 0.000000 0.500000
#
# Coordination Sequence:
#
# PCOD9059121 Si02
#       7
#     2   2   2   2   2   2   2
#     4  11  23  40  67  97 131 174 224 273 323 402
#     4  11  25  43  67 101 139 174 225 279 332 401
#     4  11  24  42  70  98 138 176 221 282 332 399
#     4  11  23  44  70 104 131 180 226 271 341 392
#     4   9  21  39  66  98 126 176 222 268 330 384
#     4   9  21  43  68  97 139 175 222 274 329 406
#     4  12  27  43  65  99 137 182 221 276 343 399
#
# _framework density 26.011130999999999
#
# number of rings (size 3 to 8) (size 9 to 14) (size 15 to 20)
#    0.000    1.429    1.429    2.571    6.000    4.571 
#    0.000    9.286    0.000    0.000    0.000    0.000 
#    0.000    0.000    0.000    0.000    0.000    0.000 
#
# Total GULP energy -77948.111340 kJ/mol
# GULP energy per Si atom -5567.722239 kJ/mol
# Density = 2.595193 g / cm^3
# Si number density = 26.011131 Si / 1000 Ang^3
#
#
#
# Elastic Constant Matrix: (Units=GPa)
#
#
# Indices 1 2 3 4 5 6 
#
# 1 42.8308 4.8850 18.7728 -2.8805 16.0696 -8.3957
# 2 4.8850 154.4418 41.9267 -21.2734 -14.5721 -4.3617
# 3 18.7728 41.9267 99.2562 -24.7750 1.8792 -14.4381
# 4 -2.8805 -21.2734 -24.7750 59.9144 -6.7829 7.3942
# 5 16.0696 -14.5721 1.8792 -6.7829 33.9447 -6.8011
# 6 -8.3957 -4.3617 -14.4381 7.3942 -6.8011 34.1747
#
#
#
# Elastic Compliance Matrix: (Units=1/GPa)
#
#
# Indices 1 2 3 4 5 6 
#
# 1 0.032170 -0.001340 -0.005636 -0.003391 -0.015572 0.002986
# 2 -0.001340 0.007980 -0.002655 0.002195 0.004649 0.000018
# 3 -0.005636 -0.002655 0.013827 0.004320 0.002358 0.003653
# 4 -0.003391 0.002195 0.004320 0.019996 0.005929 -0.001874
# 5 -0.015572 0.004649 0.002358 0.005929 0.040803 0.004602
# 6 0.002986 0.000018 0.003653 -0.001874 0.004602 0.032862
#
#
# Mechanical properties :
#
#
# Convention : Reuss Voigt Hill
#
# Bulk Modulus (GPa) = 28.80453 47.52199 38.16326
# Shear Modulus (GPa) = 28.01580 41.00304 34.50942
#
# Velocity S-wave (km/s) = 3.28543 3.97465 3.64636
# Velocity P-wave (km/s) = 5.04877 6.27482 5.69489
#
# Compressibility (1/GPa) = 0.03471676
#
# Stress axis : x y z
#
# Youngs Moduli (GPa) = 31.08456 125.32110 72.32036
#
# Poissons Ratio (x) = 0.16788 0.40759
# Poissons Ratio (y) = 0.04164 0.19199
# Poissons Ratio (z) = 0.17519 0.33269
#
# Static dielectric constant tensor:
#      x y z
#    x 2.191680 0.087900 -0.002580 
#    y 0.087900 2.115700 0.036270 
#    z -0.002580 0.036270 2.115450 
# 
# From -- ./inp_files/450974.got.cif
#   From: 2010.05.17/outbox.cif.g08.bks.cpg/sg2_226_cif.got.tgz:450974.got - 2010.06.03 11:33:40.
