data_PCOD9059961
_publ_section_title
;
Structure prediction by ZEFSAII (Michael W. Deem and Ramdas Pophale) SiO2 
 PCOD9059961
Probable space group: P -1
;
_chemical_formula_sum "Si O2"
_cell_formula_units_Z 16
_cell_length_a 27.061178
_cell_length_b 8.102805
_cell_length_c 11.595712
_cell_angle_alpha 121.872256
_cell_angle_beta 147.408889
_cell_angle_gamma 37.688587
_cell_volume 759.399408
_symmetry_space_group_name_H-M "P -1"
_symmetry_group_IT_number 2
_symmetry_cell_setting 'triclinic'
loop_
_space_group_symop_operation_xyz
x,y,z
-x,-y,-z
loop_
_atom_site_type_symbol
_atom_site_label
_atom_site_fract_x
_atom_site_fract_y
_atom_site_fract_z
Si Si1 0.895223 0.556453 0.112431
Si Si2 0.629862 0.175271 0.480580
Si Si3 0.406962 0.567452 0.738064
Si Si4 0.111113 0.490555 0.187235
Si Si5 0.337152 0.554607 0.170547
Si Si6 0.120709 0.913268 0.428546
Si Si7 0.103129 0.015132 0.693008
Si Si8 0.599111 0.938188 0.768268
O O1 0.959350 0.669487 0.293544
O O2 0.888875 0.495989 0.946087
O O3 0.734004 0.827333 0.937989
O O4 0.988986 0.255210 0.256817
O O5 0.612354 0.254067 0.341235
O O6 0.484498 0.357447 0.324287
O O7 0.679741 0.287190 0.689794
O O8 0.740347 0.827546 0.592354
O O9 0.254629 0.745394 0.549696
O O10 0.497164 0.244616 0.747790
O O11 0.500000 0.500000 0.000000
O O12 0.082377 0.747418 0.279388
O O13 0.000000 0.500000 0.000000
O O14 0.337822 0.330909 0.126808
O O15 0.220137 0.801076 0.940898
O O16 0.158233 0.909335 0.631756
O O17 0.000000 0.000000 0.500000
O O18 0.500000 0.000000 0.500000
#
# Coordination Sequence:
#
# PCOD9059961 Si02
#       8
#     2   2   2   2   2   2   2   2
#     4  12  25  46  72 101 140 189 238 287 344 424
#     4  11  23  43  70 100 137 182 233 283 346 413
#     4  12  26  45  69 104 146 181 224 296 363 414
#     4  12  26  43  69 102 142 184 231 292 355 413
#     4  11  23  42  72 100 133 183 238 288 333 411
#     4  12  27  45  68 106 144 182 232 290 359 415
#     4  12  26  47  71 104 142 188 238 287 347 420
#     4  12  24  42  73 104 137 184 240 284 344 422
#
# _framework density 21.069281
#
# number of rings (size 3 to 8) (size 9 to 14) (size 15 to 20)
#    0.000    0.250    2.500    7.500    1.750    2.000 
#    0.000    2.500    0.000    0.000    0.000    0.000 
#    0.000    0.000    0.000    0.000    0.000    0.000 
#
# Total GULP energy -89606.925759 kJ/mol
# GULP energy per Si atom -5600.432860 kJ/mol
# Density = 2.102133 g / cm^3
# Si number density = 21.069281 Si / 1000 Ang^3
#
#
#
# Elastic Constant Matrix: (Units=GPa)
#
#
# Indices 1 2 3 4 5 6 
#
# 1 70.1343 -0.4394 31.8527 -1.2388 -22.0734 -1.5342
# 2 -0.4394 109.7312 44.0368 5.3347 -9.2198 9.8935
# 3 31.8527 44.0368 101.1465 4.7123 -8.6986 -0.6755
# 4 -1.2388 5.3347 4.7123 37.5129 -8.6703 -1.3135
# 5 -22.0734 -9.2198 -8.6986 -8.6703 41.5572 3.7489
# 6 -1.5342 9.8935 -0.6755 -1.3135 3.7489 39.0647
#
#
#
# Elastic Compliance Matrix: (Units=1/GPa)
#
#
# Indices 1 2 3 4 5 6 
#
# 1 0.021487 0.004103 -0.007738 0.003733 0.011601 -0.001317
# 2 0.004103 0.012313 -0.006340 -0.000041 0.003886 -0.003441
# 3 -0.007738 -0.006340 0.014929 -0.001846 -0.002937 0.001780
# 4 0.003733 -0.000041 -0.001846 0.028778 0.007558 0.000367
# 5 0.011601 0.003886 -0.002937 0.007558 0.032359 -0.003431
# 6 -0.001317 -0.003441 0.001780 0.000367 -0.003431 0.026791
#
#
# Mechanical properties :
#
#
# Convention : Reuss Voigt Hill
#
# Bulk Modulus (GPa) = 34.74677 47.99024 41.36850
# Shear Modulus (GPa) = 30.08450 37.33110 33.70780
#
# Velocity S-wave (km/s) = 3.78284 4.21387 4.00416
# Velocity P-wave (km/s) = 5.96718 6.81927 6.40741
#
# Compressibility (1/GPa) = 0.02877966
#
# Stress axis : x y z
#
# Youngs Moduli (GPa) = 46.54004 81.21749 66.98394
#
# Poissons Ratio (x) = -0.33327 0.51833
# Poissons Ratio (y) = -0.19098 0.42466
# Poissons Ratio (z) = 0.36013 0.51490
#
# Static dielectric constant tensor:
#      x y z
#    x 1.762260 0.008830 0.026380 
#    y 0.008830 1.720750 -0.006120 
#    z 0.026380 -0.006120 1.713750 
# 
# From -- ./inp_files/243874.got.cif
#   From: 2010.05.17/outbox.cif.g08.bks.cpg/sg2_122_cif.got.tgz:243874.got - 2010.06.03 11:33:40.
