data_PCOD9059146
_publ_section_title
;
Structure prediction by ZEFSAII (Michael W. Deem and Ramdas Pophale) SiO2 
 PCOD9059146
Probable space group: P -1
;
_chemical_formula_sum "Si O2"
_cell_formula_units_Z 16
_cell_length_a 25.127257
_cell_length_b 9.119131
_cell_length_c 9.777300
_cell_angle_alpha 57.587048
_cell_angle_beta 48.839388
_cell_angle_gamma 29.538224
_cell_volume 827.491741
_symmetry_space_group_name_H-M "P -1"
_symmetry_group_IT_number 2
_symmetry_cell_setting 'triclinic'
loop_
_space_group_symop_operation_xyz
x,y,z
-x,-y,-z
loop_
_atom_site_type_symbol
_atom_site_label
_atom_site_fract_x
_atom_site_fract_y
_atom_site_fract_z
Si Si1 0.774126 0.775733 0.797520
Si Si2 0.255360 0.841988 0.166176
Si Si3 0.046516 0.906916 0.121612
Si Si4 0.506156 0.790536 0.259850
Si Si5 0.774097 0.127880 0.121491
Si Si6 0.118925 0.762148 0.511904
Si Si7 0.744697 0.863334 0.481040
Si Si8 0.493829 0.815159 0.937322
O O1 0.871268 0.427165 0.820632
O O2 0.760861 0.853724 0.621441
O O3 0.801928 0.886626 0.787640
O O4 0.642469 0.969336 0.973450
O O5 0.193946 0.783320 0.339138
O O6 0.398311 0.529257 0.115950
O O7 0.239215 0.897075 0.003016
O O8 0.128735 0.912148 0.009785
O O9 0.930516 0.138855 0.300737
O O10 0.000000 0.000000 0.000000
O O11 0.642448 0.460890 0.227703
O O12 0.398261 0.877649 0.441827
O O13 0.483648 0.032722 0.226185
O O14 0.499997 0.808632 0.095686
O O15 0.801914 0.905822 0.278097
O O16 0.193848 0.440985 0.510596
O O17 0.000000 0.000000 0.500000
#
# Coordination Sequence:
#
# PCOD9059146 Si02
#       8
#     2   2   2   2   2   2   2   2
#     4  11  23  42  66  96 128 165 210 260 315 374
#     4  11  23  40  68  97 127 165 208 260 315 375
#     4  12  28  45  65  89 127 172 214 263 309 368
#     4   9  17  36  67  94 124 163 205 253 317 378
#     4  11  23  42  66  96 128 165 210 260 315 374
#     4  12  24  45  65  89 125 170 220 254 307 376
#     4  11  23  40  68  97 127 165 208 260 315 375
#     4   9  17  36  67  94 124 163 205 253 317 378
#
# _framework density 19.335540999999999
#
# number of rings (size 3 to 8) (size 9 to 14) (size 15 to 20)
#    0.000    1.250    5.000    0.750    3.500    2.000 
#    0.000    0.000    0.000    3.000    0.000    0.000 
#    0.000    0.000    0.000    0.000    0.000    0.000 
#
# Total GULP energy -89389.693921 kJ/mol
# GULP energy per Si atom -5586.855870 kJ/mol
# Density = 1.929153 g / cm^3
# Si number density = 19.335541 Si / 1000 Ang^3
#
#
#
# Elastic Constant Matrix: (Units=GPa)
#
#
# Indices 1 2 3 4 5 6 
#
# 1 66.7427 42.5195 29.5438 -9.8887 9.9129 18.9363
# 2 42.5195 43.4182 35.9464 -1.0353 -12.5204 10.2453
# 3 29.5438 35.9464 95.1056 -6.2623 7.2461 14.0189
# 4 -9.8887 -1.0353 -6.2623 29.5517 5.0967 -5.0126
# 5 9.9129 -12.5204 7.2461 5.0967 25.7157 -6.3752
# 6 18.9363 10.2453 14.0189 -5.0126 -6.3752 34.5999
#
#
#
# Elastic Compliance Matrix: (Units=1/GPa)
#
#
# Indices 1 2 3 4 5 6 
#
# 1 -0.037659 0.070857 -0.024228 -0.023398 0.064948 0.018024
# 2 0.070857 -0.082710 0.023644 0.035354 -0.090012 -0.035332
# 3 -0.024228 0.023644 0.005795 -0.008803 0.022651 0.006809
# 4 -0.023398 0.035354 -0.008803 0.023038 0.027703 0.014346
# 5 0.064948 -0.090012 0.022651 0.027703 -0.047502 -0.022809
# 6 0.018024 -0.035332 0.006809 0.014346 -0.022809 0.024616
#
#
# Mechanical properties :
#
#
# Convention : Reuss Voigt Hill
#
# Bulk Modulus (GPa) = 38.50433 46.80954 42.65694
# Shear Modulus (GPa) = -20.29971 24.45724 2.07876
#
# Velocity S-wave (km/s) = -3.24368 3.56038 1.03800
# Velocity P-wave (km/s) = 2.43483 6.41587 4.85241
#
# Compressibility (1/GPa) = 0.02597110
#
# Stress axis : x y z
#
# Youngs Moduli (GPa) = -26.55378 -12.09049 172.55300
#
# Poissons Ratio (x) = 0.85669 4.18069
# Poissons Ratio (y) = 1.88152 -4.07986
# Poissons Ratio (z) = -0.64336 0.28587
#
# Static dielectric constant tensor:
#      x y z
#    x 1.672890 -0.004740 0.003480 
#    y -0.004740 1.691270 0.028920 
#    z 0.003480 0.028920 1.711130 
# 
# From -- ./inp_files/184862.got.cif
#   From: 2010.05.17/outbox.cif.g08.bks.cpg/sg2_93_cif.got.tgz:184862.got - 2010.06.03 11:33:40.
