data_PCOD9059312
_publ_section_title
;
Structure prediction by ZEFSAII (Michael W. Deem and Ramdas Pophale) SiO2 
 PCOD9059312
Probable space group: P -1
;
_chemical_formula_sum "Si O2"
_cell_formula_units_Z 16
_cell_length_a 21.846496
_cell_length_b 8.882550
_cell_length_c 8.810822
_cell_angle_alpha 31.741256
_cell_angle_beta 60.483195
_cell_angle_gamma 51.024749
_cell_volume 695.533319
_symmetry_space_group_name_H-M "P -1"
_symmetry_group_IT_number 2
_symmetry_cell_setting 'triclinic'
loop_
_space_group_symop_operation_xyz
x,y,z
-x,-y,-z
loop_
_atom_site_type_symbol
_atom_site_label
_atom_site_fract_x
_atom_site_fract_y
_atom_site_fract_z
Si Si1 0.950125 0.887417 0.258577
Si Si2 0.445543 0.484052 0.359315
Si Si3 0.377132 0.068955 0.713049
Si Si4 0.192684 0.806317 0.047596
Si Si5 0.948328 0.300745 0.205226
Si Si6 0.201196 0.409082 0.654099
Si Si7 0.335803 0.137247 0.356405
Si Si8 0.396288 0.484068 0.762794
O O1 0.000000 0.500000 0.500000
O O2 0.939937 0.110181 0.229294
O O3 0.866971 0.007448 0.173064
O O4 0.000000 0.000000 0.000000
O O5 0.447026 0.166704 0.561052
O O6 0.409324 0.471561 0.578598
O O7 0.525914 0.505344 0.273696
O O8 0.395694 0.768805 0.057513
O O9 0.290202 0.356674 0.620608
O O10 0.371008 0.033468 0.571157
O O11 0.161371 0.680050 0.339035
O O12 0.260812 0.476852 0.182717
O O13 0.218516 0.061021 0.865856
O O14 0.860407 0.505711 0.206558
O O15 0.000000 0.000000 0.500000
O O16 0.000000 0.500000 0.000000
O O17 0.323338 0.835795 0.578788
O O18 0.384975 0.208605 0.102213
#
# Coordination Sequence:
#
# PCOD9059312 Si02
#       8
#     2   2   2   2   2   2   2   2
#     4  12  25  42  66  96 129 168 214 263 321 387
#     4  11  24  41  62  91 129 170 213 268 330 390
#     4  11  23  41  65  93 125 167 217 268 325 388
#     4  11  23  43  66  91 128 167 210 266 326 386
#     4  12  25  42  66  96 129 168 214 263 321 387
#     4  11  23  43  66  91 128 167 210 266 326 386
#     4  11  23  41  65  93 125 167 217 268 325 388
#     4  11  24  41  62  91 129 170 213 268 330 390
#
# _framework density 23.003931000000001
#
# number of rings (size 3 to 8) (size 9 to 14) (size 15 to 20)
#    0.000    0.750    0.000    9.750    0.000    7.000 
#    0.000    0.000    0.000    0.000    0.000    0.000 
#    0.000    0.000    0.000    0.000    0.000    0.000 
#
# Total GULP energy -89184.158603 kJ/mol
# GULP energy per Si atom -5574.009913 kJ/mol
# Density = 2.295157 g / cm^3
# Si number density = 23.003931 Si / 1000 Ang^3
#
#
#
# Elastic Constant Matrix: (Units=GPa)
#
#
# Indices 1 2 3 4 5 6 
#
# 1 79.1100 45.4542 33.1416 2.3284 5.2893 5.9086
# 2 45.4542 119.1651 38.1714 0.0684 14.6118 3.4674
# 3 33.1416 38.1714 166.8165 7.1294 2.8201 8.9973
# 4 2.3284 0.0684 7.1294 36.6218 4.3673 -7.9362
# 5 5.2893 14.6118 2.8201 4.3673 37.4889 -0.6158
# 6 5.9086 3.4674 8.9973 -7.9362 -0.6158 19.1089
#
#
#
# Elastic Compliance Matrix: (Units=1/GPa)
#
#
# Indices 1 2 3 4 5 6 
#
# 1 0.017084 -0.005845 -0.001770 -0.001625 0.000124 -0.004059
# 2 -0.005845 0.011534 -0.001515 0.001266 -0.003691 0.000835
# 3 -0.001770 -0.001515 0.006946 -0.002004 0.000497 -0.003264
# 4 -0.001625 0.001266 -0.002004 0.031271 -0.003525 0.014090
# 5 0.000124 -0.003691 0.000497 -0.003525 0.028466 -0.000149
# 6 -0.004059 0.000835 -0.003264 0.014090 -0.000149 0.060819
#
#
# Mechanical properties :
#
#
# Convention : Reuss Voigt Hill
#
# Bulk Modulus (GPa) = 57.79245 66.51402 62.15323
# Shear Modulus (GPa) = 27.75484 35.19886 31.47685
#
# Velocity S-wave (km/s) = 3.47728 3.91592 3.70310
# Velocity P-wave (km/s) = 6.42646 7.03014 6.73507
#
# Compressibility (1/GPa) = 0.01730330
#
# Stress axis : x y z
#
# Youngs Moduli (GPa) = 58.53593 86.69937 143.96414
#
# Poissons Ratio (x) = 0.50680 0.25484
# Poissons Ratio (y) = 0.34217 0.21806
# Poissons Ratio (z) = 0.10362 0.13132
#
# Static dielectric constant tensor:
#      x y z
#    x 1.917850 0.012950 0.038830 
#    y 0.012950 1.988010 0.036020 
#    z 0.038830 0.036020 1.830010 
# 
# From -- ./inp_files/226249.got.cif
#   From: 2010.05.17/outbox.cif.g08.bks.cpg/sg2_114_cif.got.tgz:226249.got - 2010.06.03 11:33:40.
