data_PCOD9059637
_publ_section_title
;
Structure prediction by ZEFSAII (Michael W. Deem and Ramdas Pophale) SiO2 
 PCOD9059637
Probable space group: P -1
;
_chemical_formula_sum "Si O2"
_cell_formula_units_Z 14
_cell_length_a 4.987320
_cell_length_b 19.227476
_cell_length_c 12.400544
_cell_angle_alpha 138.924716
_cell_angle_beta 83.640198
_cell_angle_gamma 119.636201
_cell_volume 603.428054
_symmetry_space_group_name_H-M "P -1"
_symmetry_group_IT_number 2
_symmetry_cell_setting 'triclinic'
loop_
_space_group_symop_operation_xyz
x,y,z
-x,-y,-z
loop_
_atom_site_type_symbol
_atom_site_label
_atom_site_fract_x
_atom_site_fract_y
_atom_site_fract_z
Si Si1 0.200084 0.138408 0.398102
Si Si2 0.701679 0.584844 0.486676
Si Si3 0.094496 0.902828 0.411960
Si Si4 0.893015 0.123623 0.160774
Si Si5 0.816818 0.842817 0.037052
Si Si6 0.938812 0.279045 0.978517
Si Si7 0.807515 0.432642 0.673232
O O1 0.587268 0.281881 0.557261
O O2 0.017060 0.145312 0.517056
O O3 0.008281 0.116911 0.267814
O O4 0.134920 0.996301 0.243270
O O5 0.500000 0.500000 0.500000
O O6 0.440912 0.594825 0.445551
O O7 0.045447 0.735523 0.677109
O O8 0.833484 0.523444 0.334732
O O9 0.984253 0.784508 0.195345
O O10 0.500000 0.000000 0.500000
O O11 0.000000 0.000000 0.500000
O O12 0.153297 0.145938 0.081401
O O13 0.500000 0.000000 0.000000
O O14 0.461853 0.798017 0.055551
O O15 0.895147 0.742498 0.952902
O O16 0.104963 0.433197 0.119949
#
# Coordination Sequence:
#
# PCOD9059637 Si02
#       7
#     2   2   2   2   2   2   2
#     4  11  25  45  69 103 142 179 233 286 351 401
#     4  11  23  42  64  95 141 187 224 270 339 414
#     4  12  25  47  74 100 135 180 235 290 343 412
#     4  11  24  41  69 105 142 181 230 285 345 404
#     4  12  24  43  70 100 139 183 231 280 336 417
#     4  12  24  45  71 103 134 183 234 279 341 412
#     4  11  25  41  66 100 139 176 227 285 343 403
#
# _framework density 23.200775
#
# number of rings (size 3 to 8) (size 9 to 14) (size 15 to 20)
#    0.000    0.571    2.857    5.143    0.000    8.571 
#    0.000    0.000    0.000    7.714    0.000    0.000 
#    0.000    0.000    0.000    0.000    0.000    0.000 
#
# Total GULP energy -78224.393822 kJ/mol
# GULP energy per Si atom -5587.456702 kJ/mol
# Density = 2.314797 g / cm^3
# Si number density = 23.200775 Si / 1000 Ang^3
#
#
#
# Elastic Constant Matrix: (Units=GPa)
#
#
# Indices 1 2 3 4 5 6 
#
# 1 142.7292 -71.6220 89.6979 -7.2613 -25.1887 21.0213
# 2 -71.6220 229.2265 -93.2125 24.6020 9.2877 -0.6339
# 3 89.6979 -93.2125 278.0846 -13.8145 -35.4189 21.2481
# 4 -7.2613 24.6020 -13.8145 69.2881 4.3846 -5.0617
# 5 -25.1887 9.2877 -35.4189 4.3846 37.1938 -4.5966
# 6 21.0213 -0.6339 21.2481 -5.0617 -4.5966 26.2996
#
#
#
# Elastic Compliance Matrix: (Units=1/GPa)
#
#
# Indices 1 2 3 4 5 6 
#
# 1 0.011180 0.002726 -0.001623 -0.000917 0.004597 -0.006932
# 2 0.002726 0.005941 0.001473 -0.001872 0.001577 -0.003311
# 3 -0.001623 0.001473 0.005196 -0.000028 0.003199 -0.002312
# 4 -0.000917 -0.001872 -0.000028 0.015342 -0.001571 0.003389
# 5 0.004597 0.001577 0.003199 -0.001571 0.032738 -0.000801
# 6 -0.006932 -0.003311 -0.002312 0.003389 -0.000801 0.045865
#
#
# Mechanical properties :
#
#
# Convention : Reuss Voigt Hill
#
# Bulk Modulus (GPa) = 36.40406 55.52966 45.96686
# Shear Modulus (GPa) = 41.57500 74.90143 58.23822
#
# Velocity S-wave (km/s) = 4.23775 5.68807 5.01561
# Velocity P-wave (km/s) = 6.29839 8.19299 7.30735
#
# Compressibility (1/GPa) = 0.02746947
#
# Stress axis : x y z
#
# Youngs Moduli (GPa) = 89.44847 168.31918 192.46474
#
# Poissons Ratio (x) = -0.45889 0.31230
# Poissons Ratio (y) = -0.24386 -0.28347
# Poissons Ratio (z) = 0.14514 -0.24791
#
# Static dielectric constant tensor:
#      x y z
#    x 1.853050 0.043090 -0.050330 
#    y 0.043090 2.146400 -0.135000 
#    z -0.050330 -0.135000 2.085560 
# 
# From -- ./inp_files/370103.got.cif
#   From: 2010.05.17/outbox.cif.g08.bks.cpg/sg2_186_cif.got.tgz:370103.got - 2010.06.03 11:33:40.
