data_PCOD9059126
_publ_section_title
;
Structure prediction by ZEFSAII (Michael W. Deem and Ramdas Pophale) SiO2 
 PCOD9059126
Probable space group: P -1
;
_chemical_formula_sum "Si O2"
_cell_formula_units_Z 16
_cell_length_a 9.111156
_cell_length_b 12.830931
_cell_length_c 10.737835
_cell_angle_alpha 88.215038
_cell_angle_beta 120.963990
_cell_angle_gamma 133.543051
_cell_volume 666.396885
_symmetry_space_group_name_H-M "P -1"
_symmetry_group_IT_number 2
_symmetry_cell_setting 'triclinic'
loop_
_space_group_symop_operation_xyz
x,y,z
-x,-y,-z
loop_
_atom_site_type_symbol
_atom_site_label
_atom_site_fract_x
_atom_site_fract_y
_atom_site_fract_z
Si Si1 0.624308 0.429595 0.993864
Si Si2 0.475844 0.096193 0.412058
Si Si3 0.096786 0.238994 0.905576
Si Si4 0.959368 0.071770 0.082379
Si Si5 0.258048 0.876429 0.708133
Si Si6 0.611925 0.190321 0.009768
Si Si7 0.657379 0.615997 0.377460
Si Si8 0.507681 0.342863 0.459154
O O1 0.391878 0.328108 0.003242
O O2 0.714244 0.354312 0.017873
O O3 0.465514 0.402785 0.805606
O O4 0.870045 0.625941 0.126554
O O5 0.613041 0.139758 0.336310
O O6 0.593882 0.262881 0.504394
O O7 0.500000 0.000000 0.500000
O O8 0.142763 0.938706 0.260305
O O9 0.019502 0.200750 0.017990
O O10 0.189389 0.183211 0.283460
O O11 0.663233 0.928380 0.020549
O O12 0.000000 0.000000 0.000000
O O13 0.983435 0.794547 0.531955
O O14 0.489338 0.071355 0.841772
O O15 0.196669 0.786098 0.815067
O O16 0.638261 0.483130 0.407532
O O17 0.487365 0.596088 0.410036
#
# Coordination Sequence:
#
# PCOD9059126 Si02
#       8
#     2   2   2   2   2   2   2   2
#     4  11  24  40  69 103 129 168 229 280 324 382
#     4  12  26  43  65  98 135 179 218 273 334 399
#     4  11  23  40  67  98 130 166 224 271 326 393
#     4  12  18  40  71  92 121 176 222 264 326 392
#     4  11  25  42  65  95 135 176 223 262 345 397
#     4  11  23  41  66  96 133 177 216 274 328 402
#     4  11  25  43  68 101 134 174 221 282 331 394
#     4  11  24  43  69  96 133 178 224 268 337 396
#
# _framework density 24.009716999999998
#
# number of rings (size 3 to 8) (size 9 to 14) (size 15 to 20)
#    0.000    0.750    6.250    0.750    1.750    2.000 
#    0.000    0.625    0.000    0.000    0.000    0.000 
#    0.000    0.000    0.000    0.000    0.000    0.000 
#
# Total GULP energy -89408.381958 kJ/mol
# GULP energy per Si atom -5588.023872 kJ/mol
# Density = 2.395507 g / cm^3
# Si number density = 24.009717 Si / 1000 Ang^3
#
#
#
# Elastic Constant Matrix: (Units=GPa)
#
#
# Indices 1 2 3 4 5 6 
#
# 1 74.4818 26.1758 -2.3615 7.4312 -18.5760 -13.4319
# 2 26.1758 117.5370 5.2141 -0.9699 -10.4186 -36.8576
# 3 -2.3615 5.2141 52.8470 -7.1845 -5.5727 -1.9187
# 4 7.4312 -0.9699 -7.1845 25.7806 -3.1001 -0.0439
# 5 -18.5760 -10.4186 -5.5727 -3.1001 24.9432 3.3543
# 6 -13.4319 -36.8576 -1.9187 -0.0439 3.3543 52.2709
#
#
#
# Elastic Compliance Matrix: (Units=1/GPa)
#
#
# Indices 1 2 3 4 5 6 
#
# 1 0.018101 -0.002346 0.001966 -0.003284 0.012224 0.002282
# 2 -0.002346 0.011575 -0.000591 0.001214 0.002111 0.007403
# 3 0.001966 -0.000591 0.020575 0.005926 0.006492 0.000432
# 4 -0.003284 0.001214 0.005926 0.041987 0.004608 -0.000031
# 5 0.012224 0.002111 0.006492 0.004608 0.051892 0.001542
# 6 0.002282 0.007403 0.000432 -0.000031 0.001542 0.024854
#
#
# Mechanical properties :
#
#
# Convention : Reuss Voigt Hill
#
# Bulk Modulus (GPa) = 20.70016 33.65806 27.17911
# Shear Modulus (GPa) = 26.73374 34.98810 30.86092
#
# Velocity S-wave (km/s) = 3.34047 3.82153 3.58907
# Velocity P-wave (km/s) = 4.84960 5.78974 5.34040
#
# Compressibility (1/GPa) = 0.04830880
#
# Stress axis : x y z
#
# Youngs Moduli (GPa) = 55.24556 86.39116 48.60350
#
# Poissons Ratio (x) = 0.20270 -0.09554
# Poissons Ratio (y) = 0.12962 0.02870
# Poissons Ratio (z) = -0.10860 0.05102
#
# Static dielectric constant tensor:
#      x y z
#    x 1.969740 -0.060900 0.038020 
#    y -0.060900 2.014120 -0.044940 
#    z 0.038020 -0.044940 1.954880 
# 
# From -- ./inp_files/262909.got.cif
#   From: 2010.05.17/outbox.cif.g08.bks.cpg/sg2_132_cif.got.tgz:262909.got - 2010.06.03 11:33:40.
