data_PCOD9059603
_publ_section_title
;
Structure prediction by ZEFSAII (Michael W. Deem and Ramdas Pophale) SiO2 
 PCOD9059603
Probable space group: P -1
;
_chemical_formula_sum "Si O2"
_cell_formula_units_Z 14
_cell_length_a 17.244362
_cell_length_b 5.079950
_cell_length_c 11.536134
_cell_angle_alpha 131.040851
_cell_angle_beta 45.517714
_cell_angle_gamma 119.987855
_cell_volume 542.329782
_symmetry_space_group_name_H-M "P -1"
_symmetry_group_IT_number 2
_symmetry_cell_setting 'triclinic'
loop_
_space_group_symop_operation_xyz
x,y,z
-x,-y,-z
loop_
_atom_site_type_symbol
_atom_site_label
_atom_site_fract_x
_atom_site_fract_y
_atom_site_fract_z
Si Si1 0.212039 0.423592 0.356057
Si Si2 0.862722 0.875650 0.424157
Si Si3 0.546735 0.256361 0.778852
Si Si4 0.233969 0.321737 0.039973
Si Si5 0.267891 0.539578 0.739526
Si Si6 0.430076 0.538254 0.768689
Si Si7 0.056003 0.382938 0.075307
O O1 0.166285 0.143970 0.415777
O O2 0.326879 0.621018 0.328513
O O3 0.230571 0.279725 0.167757
O O4 0.131120 0.735321 0.519123
O O5 0.760881 0.657353 0.405782
O O6 0.969854 0.670211 0.233763
O O7 0.494823 0.298753 0.717745
O O8 0.510127 0.872837 0.752806
O O9 0.500000 0.500000 0.000000
O O10 0.115514 0.387288 0.137267
O O11 0.326223 0.609163 0.980858
O O12 0.271254 0.957569 0.842402
O O13 0.369666 0.435806 0.680462
O O14 0.157947 0.446503 0.901179
O O15 0.000000 0.000000 0.000000
#
# Coordination Sequence:
#
# PCOD9059603 Si02
#       7
#     2   2   2   2   2   2   2
#     4  12  29  45  68 110 148 183 228 302 370 402
#     4  12  28  47  69 104 155 182 227 303 363 407
#     4  12  23  43  74 100 143 189 239 283 355 430
#     4  11  25  44  76 106 139 184 248 287 343 435
#     4  11  24  47  77 103 138 192 250 281 343 435
#     4  11  23  41  75 104 129 181 253 292 324 411
#     4  11  24  45  79 105 135 195 248 279 344 435
#
# _framework density 25.814553
#
# number of rings (size 3 to 8) (size 9 to 14) (size 15 to 20)
#    0.000    0.571    4.286    2.571   10.000    1.143 
#    0.000    4.286    0.000    0.000    0.000    0.000 
#    0.000    0.000    0.000    0.000    0.000    0.000 
#
# Total GULP energy -78502.331647 kJ/mol
# GULP energy per Si atom -5607.309403 kJ/mol
# Density = 2.575580 g / cm^3
# Si number density = 25.814553 Si / 1000 Ang^3
#
#
#
# Elastic Constant Matrix: (Units=GPa)
#
#
# Indices 1 2 3 4 5 6 
#
# 1 150.7520 24.7135 19.0673 -2.4611 -2.6708 -15.2818
# 2 24.7135 90.8733 12.0180 -18.4453 -8.4940 -0.3818
# 3 19.0673 12.0180 62.0516 -3.3915 -4.6084 -5.2788
# 4 -2.4611 -18.4453 -3.3915 35.4003 -1.0607 -6.4438
# 5 -2.6708 -8.4940 -4.6084 -1.0607 49.5301 -5.4822
# 6 -15.2818 -0.3818 -5.2788 -6.4438 -5.4822 36.8100
#
#
#
# Elastic Compliance Matrix: (Units=1/GPa)
#
#
# Indices 1 2 3 4 5 6 
#
# 1 0.007430 -0.001770 -0.001680 -0.000039 0.000256 0.002856
# 2 -0.001770 0.013283 -0.001421 0.006865 0.002279 0.000740
# 3 -0.001680 -0.001421 0.017278 0.001247 0.001545 0.002214
# 4 -0.000039 0.006865 0.001247 0.033197 0.002716 0.006450
# 5 0.000256 0.002279 0.001545 0.002716 0.021238 0.003990
# 6 0.002856 0.000740 0.002214 0.006450 0.003990 0.030401
#
#
# Mechanical properties :
#
#
# Convention : Reuss Voigt Hill
#
# Bulk Modulus (GPa) = 35.40104 46.14161 40.77132
# Shear Modulus (GPa) = 35.21441 40.87329 38.04385
#
# Velocity S-wave (km/s) = 3.69742 3.98344 3.84309
# Velocity P-wave (km/s) = 5.65431 6.25061 5.95992
#
# Compressibility (1/GPa) = 0.02824776
#
# Stress axis : x y z
#
# Youngs Moduli (GPa) = 134.59677 75.28213 57.87551
#
# Poissons Ratio (x) = 0.13328 0.09724
# Poissons Ratio (y) = 0.23828 0.08226
# Poissons Ratio (z) = 0.22615 0.10699
#
# Static dielectric constant tensor:
#      x y z
#    x 2.051930 -0.008090 0.008310 
#    y -0.008090 1.984650 0.037640 
#    z 0.008310 0.037640 2.062650 
# 
# From -- ./inp_files/291344.got.cif
#   From: 2010.05.17/outbox.cif.g08.bks.cpg/sg2_146_cif.got.tgz:291344.got - 2010.06.03 11:33:40.
