data_PCOD9059679
_publ_section_title
;
Structure prediction by ZEFSAII (Michael W. Deem and Ramdas Pophale) SiO2 
 PCOD9059679
Probable space group: P -1
;
_chemical_formula_sum "Si O2"
_cell_formula_units_Z 14
_cell_length_a 6.990351
_cell_length_b 12.299990
_cell_length_c 23.903271
_cell_angle_alpha 23.343006
_cell_angle_beta 53.508458
_cell_angle_gamma 51.183056
_cell_volume 633.281436
_symmetry_space_group_name_H-M "P -1"
_symmetry_group_IT_number 2
_symmetry_cell_setting 'triclinic'
loop_
_space_group_symop_operation_xyz
x,y,z
-x,-y,-z
loop_
_atom_site_type_symbol
_atom_site_label
_atom_site_fract_x
_atom_site_fract_y
_atom_site_fract_z
Si Si1 0.812890 0.129764 0.616103
Si Si2 0.370699 0.153394 0.506798
Si Si3 0.735915 0.731087 0.076479
Si Si4 0.496455 0.434651 0.626405
Si Si5 0.416356 0.410025 0.217607
Si Si6 0.737237 0.496851 0.923397
Si Si7 0.912788 0.727497 0.165703
O O1 0.711030 0.254860 0.635129
O O2 0.652504 0.316575 0.506490
O O3 0.086728 0.163104 0.546301
O O4 0.799075 0.803492 0.770752
O O5 0.413401 0.439566 0.391793
O O6 0.500000 0.000000 0.500000
O O7 0.491246 0.923037 0.641636
O O8 0.624092 0.527739 0.154497
O O9 0.820363 0.609202 0.180769
O O10 0.002015 0.739175 0.000259
O O11 0.500000 0.000000 0.000000
O O12 0.309615 0.245085 0.766183
O O13 0.352938 0.534458 0.108836
O O14 0.159522 0.515053 0.245970
O O15 0.500000 0.500000 0.000000
O O16 0.000000 0.000000 0.000000
#
# Coordination Sequence:
#
# PCOD9059679 Si02
#       7
#     2   2   2   2   2   2   2
#     4  11  25  47  69 100 142 183 237 286 352 425
#     4  12  24  44  72 101 136 182 238 286 349 425
#     4  11  23  43  67 102 141 179 237 289 347 421
#     4  11  26  45  69 100 141 188 228 293 355 415
#     4  11  23  42  66  99 136 175 235 289 342 419
#     4  11  26  44  71 101 141 190 230 291 360 417
#     4  11  24  42  69 101 136 177 232 288 353 415
#
# _framework density 22.107073
#
# number of rings (size 3 to 8) (size 9 to 14) (size 15 to 20)
#    0.000    0.857    4.286    2.143    6.000    1.714 
#    2.571    0.000    0.000    0.000    0.000    0.000 
#    0.000    0.000    0.000    0.000    0.000    0.000 
#
# Total GULP energy -78126.144505 kJ/mol
# GULP energy per Si atom -5580.438893 kJ/mol
# Density = 2.205676 g / cm^3
# Si number density = 22.107073 Si / 1000 Ang^3
#
#
#
# Elastic Constant Matrix: (Units=GPa)
#
#
# Indices 1 2 3 4 5 6 
#
# 1 121.2781 59.2484 24.9422 11.8395 -25.8556 -1.6951
# 2 59.2484 161.6056 43.0960 29.8181 -22.1271 -12.4256
# 3 24.9422 43.0960 75.4466 8.9554 -25.1273 -0.5980
# 4 11.8395 29.8181 8.9554 42.5283 -8.2563 -5.5208
# 5 -25.8556 -22.1271 -25.1273 -8.2563 30.7583 -4.4308
# 6 -1.6951 -12.4256 -0.5980 -5.5208 -4.4308 47.9846
#
#
#
# Elastic Compliance Matrix: (Units=1/GPa)
#
#
# Indices 1 2 3 4 5 6 
#
# 1 0.011381 -0.003369 0.000745 0.000630 0.007970 0.000347
# 2 -0.003369 0.009392 -0.003725 -0.004664 -0.000123 0.001719
# 3 0.000745 -0.003725 0.019868 0.001158 0.014602 0.000791
# 4 0.000630 -0.004664 0.001158 0.027859 0.005971 0.002586
# 5 0.007970 -0.000123 0.014602 0.005971 0.053528 0.006061
# 6 0.000347 0.001719 0.000791 0.002586 0.006061 0.022164
#
#
# Mechanical properties :
#
#
# Convention : Reuss Voigt Hill
#
# Bulk Modulus (GPa) = 35.78816 68.10039 51.94428
# Shear Modulus (GPa) = 30.08328 39.65716 34.87022
#
# Velocity S-wave (km/s) = 3.69290 4.24000 3.97587
# Velocity P-wave (km/s) = 5.86575 7.40553 6.68015
#
# Compressibility (1/GPa) = 0.02794220
#
# Stress axis : x y z
#
# Youngs Moduli (GPa) = 87.86574 106.47002 50.33286
#
# Poissons Ratio (x) = 0.35873 -0.03748
# Poissons Ratio (y) = 0.29604 0.18748
# Poissons Ratio (z) = -0.06543 0.39658
#
# Static dielectric constant tensor:
#      x y z
#    x 1.839300 0.011650 0.027370 
#    y 0.011650 1.885480 -0.001080 
#    z 0.027370 -0.001080 1.859860 
# 
# From -- ./inp_files/367457.got.cif
#   From: 2010.05.17/outbox.cif.g08.bks.cpg/sg2_184_cif.got.tgz:367457.got - 2010.06.03 11:33:40.
