data_PCOD9059873
_publ_section_title
;
Structure prediction by ZEFSAII (Michael W. Deem and Ramdas Pophale) SiO2 
 PCOD9059873
Probable space group: P -1
;
_chemical_formula_sum "Si O2"
_cell_formula_units_Z 15
_cell_length_a 14.052075
_cell_length_b 11.412788
_cell_length_c 9.107154
_cell_angle_alpha 58.590578
_cell_angle_beta 51.906300
_cell_angle_gamma 31.123451
_cell_volume 594.045764
_symmetry_space_group_name_H-M "P -1"
_symmetry_group_IT_number 2
_symmetry_cell_setting 'triclinic'
loop_
_space_group_symop_operation_xyz
x,y,z
-x,-y,-z
loop_
_atom_site_type_symbol
_atom_site_label
_atom_site_fract_x
_atom_site_fract_y
_atom_site_fract_z
Si Si1 0.860955 0.885136 0.221462
Si Si2 0.693458 0.131218 0.939997
Si Si3 0.073538 0.235514 0.274652
Si Si4 0.067659 0.987288 0.651628
Si Si5 0.637681 0.685658 0.280352
Si Si6 0.711803 0.812008 0.628727
Si Si7 0.500000 0.500000 0.500000
Si Si8 0.293459 0.438554 0.027522
O O1 0.891482 0.963125 0.273165
O O2 0.814523 0.779965 0.407235
O O3 0.071637 0.695459 0.059152
O O4 0.692326 0.085464 0.139034
O O5 0.858727 0.098831 0.793308
O O6 0.775489 0.929932 0.895383
O O7 0.482156 0.368906 0.916858
O O8 0.048597 0.109748 0.455823
O O9 0.167004 0.241835 0.309972
O O10 0.860062 0.480980 0.265480
O O11 0.257929 0.720084 0.616293
O O12 0.517906 0.649566 0.431982
O O13 0.504014 0.922751 0.327020
O O14 0.657462 0.687592 0.084849
O O15 0.703491 0.658702 0.766633
#
# Coordination Sequence:
#
# PCOD9059873 Si02
#       8
#     2   2   2   2   2   2   1   2
#     4  11  25  47  66 102 140 184 225 291 350 405
#     4  12  24  41  70 102 143 181 229 281 354 412
#     4  11  23  42  70 104 135 183 232 281 344 405
#     4  11  24  44  70 105 145 178 230 286 343 421
#     4  12  24  40  72 105 132 182 229 288 341 402
#     4  11  26  48  69 100 142 179 242 285 335 413
#     4  12  20  42  74  98 142 174 224 286 346 400
#     4  12  26  45  70 102 141 185 232 287 342 407
#
# _framework density 25.250581
#
# number of rings (size 3 to 8) (size 9 to 14) (size 15 to 20)
#    0.000    0.533    6.667    1.600    1.867    4.800 
#    0.000    0.000    0.000    0.000    0.000    0.000 
#    0.000    0.000    0.000    0.000    0.000    0.000 
#
# Total GULP energy -83883.193581 kJ/mol
# GULP energy per Si atom -5592.212905 kJ/mol
# Density = 2.519311 g / cm^3
# Si number density = 25.250581 Si / 1000 Ang^3
#
#
#
# Elastic Constant Matrix: (Units=GPa)
#
#
# Indices 1 2 3 4 5 6 
#
# 1 71.3028 7.9116 20.6127 -7.6849 2.4639 -28.5412
# 2 7.9116 89.6684 2.6335 15.5600 -2.4934 -27.2040
# 3 20.6127 2.6335 82.4847 5.7359 -1.5141 -12.3122
# 4 -7.6849 15.5600 5.7359 32.7203 -4.0965 -0.8583
# 5 2.4639 -2.4934 -1.5141 -4.0965 36.0743 -4.0206
# 6 -28.5412 -27.2040 -12.3122 -0.8583 -4.0206 43.5239
#
#
#
# Elastic Compliance Matrix: (Units=1/GPa)
#
#
# Indices 1 2 3 4 5 6 
#
# 1 0.020993 0.001579 -0.003574 0.005255 0.000672 0.013908
# 2 0.001579 0.015570 0.001268 -0.006777 0.001492 0.011130
# 3 -0.003574 0.001268 0.013587 -0.003671 0.000740 0.002289
# 4 0.005255 -0.006777 -0.003671 0.036018 0.003015 -0.000839
# 5 0.000672 0.001492 0.000740 0.003015 0.028629 0.004287
# 6 0.013908 0.011130 0.002289 -0.000839 0.004287 0.040080
#
#
# Mechanical properties :
#
#
# Convention : Reuss Voigt Hill
#
# Bulk Modulus (GPa) = 20.53530 33.97462 27.25496
# Shear Modulus (GPa) = 28.97527 36.61691 32.79609
#
# Velocity S-wave (km/s) = 3.39117 3.81220 3.60783
# Velocity P-wave (km/s) = 4.84599 5.73249 5.30778
#
# Compressibility (1/GPa) = 0.04869665
#
# Stress axis : x y z
#
# Youngs Moduli (GPa) = 47.63528 64.22683 73.60245
#
# Poissons Ratio (x) = -0.10141 0.26302
# Poissons Ratio (y) = -0.07522 -0.09335
# Poissons Ratio (z) = 0.17023 -0.08146
#
# Static dielectric constant tensor:
#      x y z
#    x 1.995670 0.017900 -0.036760 
#    y 0.017900 1.937820 -0.026520 
#    z -0.036760 -0.026520 2.038810 
# 
# From -- ./inp_files/187035.got.cif
#   From: 2010.05.17/outbox.cif.g08.bks.cpg/sg2_94_cif.got.tgz:187035.got - 2010.06.03 11:33:40.
