data_PCOD9059319
_publ_section_title
;
Structure prediction by ZEFSAII (Michael W. Deem and Ramdas Pophale) SiO2 
 PCOD9059319
Probable space group: P -1
;
_chemical_formula_sum "Si O2"
_cell_formula_units_Z 16
_cell_length_a 9.342268
_cell_length_b 8.676410
_cell_length_c 20.719351
_cell_angle_alpha 59.012421
_cell_angle_beta 60.514060
_cell_angle_gamma 31.693263
_cell_volume 750.925987
_symmetry_space_group_name_H-M "P -1"
_symmetry_group_IT_number 2
_symmetry_cell_setting 'triclinic'
loop_
_space_group_symop_operation_xyz
x,y,z
-x,-y,-z
loop_
_atom_site_type_symbol
_atom_site_label
_atom_site_fract_x
_atom_site_fract_y
_atom_site_fract_z
Si Si1 0.981757 0.804806 0.824063
Si Si2 0.538460 0.470505 0.420875
Si Si3 0.584071 0.740489 0.071779
Si Si4 0.270158 0.341746 0.298476
Si Si5 0.748435 0.274055 0.042197
Si Si6 0.168931 0.011737 0.788189
Si Si7 0.284438 0.331992 0.450268
Si Si8 0.892806 0.885930 0.674443
O O1 0.915722 0.839452 0.756176
O O2 0.175736 0.476362 0.880459
O O3 0.150677 0.843032 0.787572
O O4 0.701452 0.069643 0.871217
O O5 0.500000 0.500000 0.500000
O O6 0.386003 0.430553 0.435274
O O7 0.855878 0.212512 0.386103
O O8 0.386659 0.771635 0.357298
O O9 0.713794 0.489773 0.044160
O O10 0.500000 0.000000 0.000000
O O11 0.591616 0.066107 0.270704
O O12 0.257289 0.375272 0.370452
O O13 0.119070 0.294558 0.319448
O O14 0.120469 0.637143 0.232014
O O15 0.756020 0.115713 0.129443
O O16 0.500000 0.500000 0.000000
O O17 0.000000 0.000000 0.000000
O O18 0.000000 0.500000 0.500000
O O19 0.500000 0.000000 0.500000
#
# Coordination Sequence:
#
# PCOD9059319 Si02
#       8
#     2   2   2   2   2   2   2   2
#     4  11  23  43  65  93 130 173 219 269 331 398
#     4  12  24  43  66  93 131 172 212 267 326 387
#     4  11  24  42  66  97 132 173 219 275 333 397
#     4  12  24  41  64  94 127 165 215 268 318 385
#     4  11  23  41  65  94 129 170 217 269 329 395
#     4  11  23  42  63  90 125 169 211 262 322 383
#     4  12  24  42  66  95 126 166 212 261 315 381
#     4  12  25  42  64  96 128 168 215 267 326 388
#
# _framework density 21.307027000000001
#
# number of rings (size 3 to 8) (size 9 to 14) (size 15 to 20)
#    0.000    0.500    0.000   10.500    0.000    3.000 
#    0.000    0.000    0.000    0.000    0.000    0.000 
#    0.000    0.000    0.000    0.000    0.000    0.000 
#
# Total GULP energy -89455.483641 kJ/mol
# GULP energy per Si atom -5590.967728 kJ/mol
# Density = 2.125853 g / cm^3
# Si number density = 21.307027 Si / 1000 Ang^3
#
#
#
# Elastic Constant Matrix: (Units=GPa)
#
#
# Indices 1 2 3 4 5 6 
#
# 1 128.3744 15.1964 58.8168 9.6514 16.8578 3.5090
# 2 15.1964 117.0179 25.0778 -5.5900 5.4119 -12.7843
# 3 58.8168 25.0778 106.5122 -0.3778 27.4561 5.6778
# 4 9.6514 -5.5900 -0.3778 57.7136 -9.8904 -5.8408
# 5 16.8578 5.4119 27.4561 -9.8904 45.3635 -3.7149
# 6 3.5090 -12.7843 5.6778 -5.8408 -3.7149 36.3330
#
#
#
# Elastic Compliance Matrix: (Units=1/GPa)
#
#
# Indices 1 2 3 4 5 6 
#
# 1 0.010674 -0.000340 -0.005491 -0.002123 -0.001127 -0.000749
# 2 -0.000340 0.009632 -0.002625 0.001617 0.001264 0.004222
# 3 -0.005491 -0.002625 0.015104 -0.000851 -0.007271 -0.003634
# 4 -0.002123 0.001617 -0.000851 0.019272 0.005688 0.004587
# 5 -0.001127 0.001264 -0.007271 0.005688 0.028404 0.005509
# 6 -0.000749 0.004222 -0.003634 0.004587 0.005509 0.030949
#
#
# Mechanical properties :
#
#
# Convention : Reuss Voigt Hill
#
# Bulk Modulus (GPa) = 54.06409 61.12072 57.59240
# Shear Modulus (GPa) = 36.46579 44.73625 40.60102
#
# Velocity S-wave (km/s) = 4.14145 4.58711 4.36996
# Velocity P-wave (km/s) = 6.94966 7.53681 7.24918
#
# Compressibility (1/GPa) = 0.01849657
#
# Stress axis : x y z
#
# Youngs Moduli (GPa) = 93.68615 103.81548 66.20805
#
# Poissons Ratio (x) = 0.03535 0.36357
# Poissons Ratio (y) = 0.03190 0.17381
# Poissons Ratio (z) = 0.51445 0.27253
#
# Static dielectric constant tensor:
#      x y z
#    x 1.898380 0.135670 -0.039710 
#    y 0.135670 1.851120 -0.023070 
#    z -0.039710 -0.023070 1.733840 
# 
# From -- ./inp_files/587898.got.cif
#   From: 2010.05.17/outbox.cif.g08.bks.cpg/sg2_294_cif.got.tgz:587898.got - 2010.06.03 11:33:40.
