data_PCOD9059176
_publ_section_title
;
Structure prediction by ZEFSAII (Michael W. Deem and Ramdas Pophale) SiO2 
 PCOD9059176
Probable space group: P -1
;
_chemical_formula_sum "Si O2"
_cell_formula_units_Z 16
_cell_length_a 9.003537
_cell_length_b 13.809653
_cell_length_c 9.533162
_cell_angle_alpha 110.076163
_cell_angle_beta 39.324510
_cell_angle_gamma 100.939667
_cell_volume 699.765405
_symmetry_space_group_name_H-M "P -1"
_symmetry_group_IT_number 2
_symmetry_cell_setting 'triclinic'
loop_
_space_group_symop_operation_xyz
x,y,z
-x,-y,-z
loop_
_atom_site_type_symbol
_atom_site_label
_atom_site_fract_x
_atom_site_fract_y
_atom_site_fract_z
Si Si1 0.666097 0.908218 0.411259
Si Si2 0.155053 0.569449 0.829566
Si Si3 0.402377 0.510314 0.353509
Si Si4 0.933874 0.228352 0.570630
Si Si5 0.143566 0.790356 0.057986
Si Si6 0.158396 0.389680 0.292407
Si Si7 0.539667 0.720869 0.222279
Si Si8 0.597079 0.902926 0.787861
O O1 0.596256 0.802576 0.339289
O O2 0.610692 0.923998 0.623448
O O3 0.954935 0.887238 0.190519
O O4 0.500000 0.000000 0.500000
O O5 0.177513 0.534873 0.634535
O O6 0.403754 0.543336 0.710689
O O7 0.105426 0.692942 0.940641
O O8 0.000000 0.500000 0.000000
O O9 0.400286 0.427432 0.190084
O O10 0.460035 0.619601 0.306125
O O11 0.047058 0.315238 0.444395
O O12 0.139340 0.131753 0.364172
O O13 0.917292 0.244800 0.757870
O O14 0.677440 0.224840 0.687790
O O15 0.408855 0.819340 0.889098
O O16 0.000000 0.500000 0.500000
O O17 0.241903 0.324687 0.060178
O O18 0.500000 0.000000 0.000000
#
# Coordination Sequence:
#
# PCOD9059176 Si02
#       8
#     2   2   2   2   2   2   2   2
#     4  11  29  48  75 108 142 186 245 307 377 426
#     4  11  23  40  69  97 143 190 231 292 354 436
#     4  11  24  40  64 103 142 185 240 283 362 428
#     4  11  25  44  73 104 146 190 244 292 368 432
#     4  11  25  47  72 101 147 188 244 297 365 436
#     4  12  26  41  67 108 145 192 237 288 362 428
#     4  12  26  44  71 106 151 186 243 308 360 437
#     4  11  27  50  78 105 140 193 248 304 373 440
#
# _framework density 22.864803999999999
#
# number of rings (size 3 to 8) (size 9 to 14) (size 15 to 20)
#    0.000    0.750    1.250    4.875   10.500    6.500 
#    0.000    0.000    0.000    0.000    0.000    0.000 
#    0.000    0.000    0.000    0.000    0.000    0.000 
#
# Total GULP energy -89273.683222 kJ/mol
# GULP energy per Si atom -5579.605201 kJ/mol
# Density = 2.281276 g / cm^3
# Si number density = 22.864804 Si / 1000 Ang^3
#
#
#
# Elastic Constant Matrix: (Units=GPa)
#
#
# Indices 1 2 3 4 5 6 
#
# 1 113.0965 21.9576 44.1402 38.9766 0.4186 -10.1126
# 2 21.9576 47.8969 24.3834 15.1158 -2.9510 -9.7813
# 3 44.1402 24.3834 102.8357 25.9352 -5.8750 -19.1731
# 4 38.9766 15.1158 25.9352 38.1124 -0.5287 2.8160
# 5 0.4186 -2.9510 -5.8750 -0.5287 36.5533 9.9410
# 6 -10.1126 -9.7813 -19.1731 2.8160 9.9410 44.5818
#
#
#
# Elastic Compliance Matrix: (Units=1/GPa)
#
#
# Indices 1 2 3 4 5 6 
#
# 1 0.014898 -0.000770 -0.002194 -0.013722 -0.001742 0.003522
# 2 -0.000770 0.026241 -0.002994 -0.007930 0.000242 0.004742
# 3 -0.002194 -0.002994 0.013999 -0.006468 0.000538 0.005155
# 4 -0.013722 -0.007930 -0.006468 0.048676 0.002229 -0.011206
# 5 -0.001742 0.000242 0.000538 0.002229 0.029365 -0.006799
# 6 0.003522 0.004742 0.005155 -0.011206 -0.006799 0.028711
#
#
# Mechanical properties :
#
#
# Convention : Reuss Voigt Hill
#
# Bulk Modulus (GPa) = 23.13660 49.42127 36.27893
# Shear Modulus (GPa) = 26.56550 35.40603 30.98576
#
# Velocity S-wave (km/s) = 3.41229 3.93936 3.68526
# Velocity P-wave (km/s) = 5.06614 6.50791 5.83175
#
# Compressibility (1/GPa) = 0.04322157
#
# Stress axis : x y z
#
# Youngs Moduli (GPa) = 67.12182 38.10811 71.43369
#
# Poissons Ratio (x) = 0.02936 0.15675
# Poissons Ratio (y) = 0.05172 0.21384
# Poissons Ratio (z) = 0.14729 0.11408
#
# Static dielectric constant tensor:
#      x y z
#    x 1.814010 0.006610 -0.115450 
#    y 0.006610 1.814880 0.040350 
#    z -0.115450 0.040350 1.952860 
# 
# From -- ./inp_files/208110.got.cif
#   From: 2010.05.17/outbox.cif.g08.bks.cpg/sg2_105_cif.got.tgz:208110.got - 2010.06.03 11:33:40.
