data_PCOD9059042
_publ_section_title
;
Structure prediction by ZEFSAII (Michael W. Deem and Ramdas Pophale) SiO2 
 PCOD9059042
Probable space group: P -1
;
_chemical_formula_sum "Si O2"
_cell_formula_units_Z 14
_cell_length_a 11.202815
_cell_length_b 16.113382
_cell_length_c 15.951216
_cell_angle_alpha 139.217042
_cell_angle_beta 156.115281
_cell_angle_gamma 53.716075
_cell_volume 704.352619
_symmetry_space_group_name_H-M "P -1"
_symmetry_group_IT_number 2
_symmetry_cell_setting 'triclinic'
loop_
_space_group_symop_operation_xyz
x,y,z
-x,-y,-z
loop_
_atom_site_type_symbol
_atom_site_label
_atom_site_fract_x
_atom_site_fract_y
_atom_site_fract_z
Si Si1 0.651769 0.426304 0.606987
Si Si2 0.422760 0.849426 0.190317
Si Si3 0.768033 0.341901 0.237809
Si Si4 0.829909 0.833342 0.600633
Si Si5 0.284320 0.834850 0.371014
Si Si6 0.117553 0.145945 0.034640
Si Si7 0.786295 0.602735 0.987815
O O1 0.500000 0.500000 0.500000
O O2 0.459445 0.264875 0.348710
O O3 0.027722 0.452652 0.866155
O O4 0.616598 0.484585 0.720378
O O5 0.635495 0.828419 0.386720
O O6 0.583405 0.009811 0.389501
O O7 0.360948 0.739364 0.993657
O O8 0.087845 0.833618 0.004723
O O9 0.000000 0.500000 0.500000
O O10 0.981712 0.266040 0.356961
O O11 0.463733 0.339951 0.092483
O O12 0.578913 0.807388 0.496553
O O13 0.081575 0.989304 0.892660
O O14 0.065793 0.721315 0.207288
O O15 0.060659 0.835936 0.149680
#
# Coordination Sequence:
#
# PCOD9059042 Si02
#       7
#     2   2   2   2   2   2   2
#     4  11  23  40  64  90 122 160 200 253 304 352
#     4   9  21  40  64  92 122 161 201 251 300 356
#     4  12  27  41  59  90 127 164 200 244 313 369
#     4   9  22  41  66  89 121 161 205 251 296 358
#     4   9  19  41  67  93 120 151 214 257 288 354
#     4   9  18  40  67  93 115 163 210 245 296 359
#     4  11  26  39  60  97 123 155 206 254 299 361
#
# _framework density 19.876408999999999
#
# number of rings (size 3 to 8) (size 9 to 14) (size 15 to 20)
#    0.000    2.000    1.429    2.571    8.000    3.429 
#    0.000    1.429    0.000    0.000    0.000    0.000 
#    0.000    0.000    0.000    0.000    0.000    0.000 
#
# Total GULP energy -78190.100430 kJ/mol
# GULP energy per Si atom -5585.007174 kJ/mol
# Density = 1.983117 g / cm^3
# Si number density = 19.876409 Si / 1000 Ang^3
#
#
#
# Elastic Constant Matrix: (Units=GPa)
#
#
# Indices 1 2 3 4 5 6 
#
# 1 -133.0740 -155.7708 -171.8023 -9.0143 -11.9882 40.4593
# 2 -155.7708 -54.4127 -167.1813 -23.6578 -7.2017 35.6840
# 3 -171.8023 -167.1813 -109.2231 -5.5661 -25.7107 51.4749
# 4 -9.0143 -23.6578 -5.5661 34.7141 0.2381 -0.3330
# 5 -11.9882 -7.2017 -25.7107 0.2381 28.9030 7.8948
# 6 40.4593 35.6840 51.4749 -0.3330 7.8948 19.2255
#
#
#
# Elastic Compliance Matrix: (Units=1/GPa)
#
#
# Indices 1 2 3 4 5 6 
#
# 1 0.015283 -0.005480 -0.010271 -0.001291 -0.006364 0.008099
# 2 -0.005480 0.009925 -0.003613 0.004836 -0.004322 0.004643
# 3 -0.010271 -0.003613 0.010587 -0.003485 0.004853 -0.002077
# 4 -0.001291 0.004836 -0.003485 0.031288 -0.004141 0.005316
# 5 -0.006364 -0.004322 0.004853 -0.004141 0.037115 -0.006891
# 6 0.008099 0.004643 -0.002077 0.005316 -0.006891 0.034836
#
#
# Mechanical properties :
#
#
# Convention : Reuss Voigt Hill
#
# Bulk Modulus (GPa) = -340.95286 -142.91315 -241.93301
# Shear Modulus (GPa) = 28.28319 29.77150 29.02735
#
# Velocity S-wave (km/s) = 3.77630 3.87438 3.82565
# Velocity P-wave (km/s) = 12.36507 7.21405 10.12268
#
# Compressibility (1/GPa) = -0.00293296
#
# Stress axis : x y z
#
# Youngs Moduli (GPa) = 65.43179 100.75449 94.45963
#
# Poissons Ratio (x) = 0.55213 0.97018
# Poissons Ratio (y) = 0.35856 0.34129
# Poissons Ratio (z) = 0.67204 0.36404
#
# Static dielectric constant tensor:
#      x y z
#    x 1.693690 0.052700 -0.006440 
#    y 0.052700 1.721890 -0.005990 
#    z -0.006440 -0.005990 1.714860 
# 
# From -- ./inp_files/241473.got.cif
#   From: 2010.05.17/outbox.cif.g08.bks.cpg/sg2_121_cif.got.tgz:241473.got - 2010.06.03 11:33:40.
