data_PCOD9059044
_publ_section_title
;
Structure prediction by ZEFSAII (Michael W. Deem and Ramdas Pophale) SiO2 
 PCOD9059044
Probable space group: P -1
;
_chemical_formula_sum "Si O2"
_cell_formula_units_Z 12
_cell_length_a 8.855888
_cell_length_b 12.515451
_cell_length_c 16.189098
_cell_angle_alpha 154.343951
_cell_angle_beta 137.558343
_cell_angle_gamma 40.003239
_cell_volume 492.086015
_symmetry_space_group_name_H-M "P -1"
_symmetry_group_IT_number 2
_symmetry_cell_setting 'triclinic'
loop_
_space_group_symop_operation_xyz
x,y,z
-x,-y,-z
loop_
_atom_site_type_symbol
_atom_site_label
_atom_site_fract_x
_atom_site_fract_y
_atom_site_fract_z
Si Si1 0.825939 0.539644 0.097580
Si Si2 0.009969 0.260220 0.449057
Si Si3 0.170372 0.969286 0.626038
Si Si4 0.704974 0.849330 0.747823
Si Si5 0.250575 0.041741 0.972012
Si Si6 0.574906 0.139680 0.732783
O O1 0.830539 0.732804 0.160050
O O2 0.696197 0.719118 0.249410
O O3 0.667883 0.361179 0.888615
O O4 0.078183 0.335744 0.083491
O O5 0.914597 0.572451 0.630040
O O6 0.867750 0.161239 0.252285
O O7 0.929236 0.140957 0.414337
O O8 0.293045 0.122282 0.449359
O O9 0.449128 0.802336 0.607720
O O10 0.000000 0.000000 0.500000
O O11 0.691941 0.049333 0.808089
O O12 0.721980 0.970008 0.927099
O O13 0.500000 0.000000 0.000000
#
# Coordination Sequence:
#
# PCOD9059044 Si02
#       6
#     2   2   2   2   2   2
#     4   9  21  41  62  90 136 161 220 263 310 390
#     4  11  23  41  69  99 130 169 220 263 328 389
#     4  11  23  40  64  96 131 175 210 275 322 370
#     4  11  23  44  66  96 139 162 220 274 314 394
#     4  11  23  40  67  99 126 174 214 265 330 377
#     4   9  21  43  64  95 128 180 209 263 329 380
#
# _framework density 24.385981999999998
#
# number of rings (size 3 to 8) (size 9 to 14) (size 15 to 20)
#    0.000    1.667    1.667    2.000    2.333    5.333 
#    3.000   10.833    0.000    0.000    0.000    0.000 
#    0.000    0.000    0.000    0.000    0.000    0.000 
#
# Total GULP energy -67139.391738 kJ/mol
# GULP energy per Si atom -5594.949311 kJ/mol
# Density = 2.433048 g / cm^3
# Si number density = 24.385982 Si / 1000 Ang^3
#
#
#
# Elastic Constant Matrix: (Units=GPa)
#
#
# Indices 1 2 3 4 5 6 
#
# 1 57.5510 32.4810 24.9248 15.4586 -1.4219 -14.1013
# 2 32.4810 98.0511 27.6813 18.0947 -2.0699 -7.7483
# 3 24.9248 27.6813 84.5970 5.1534 -9.8960 1.7933
# 4 15.4586 18.0947 5.1534 44.9516 -3.4959 5.7881
# 5 -1.4219 -2.0699 -9.8960 -3.4959 36.9090 13.3381
# 6 -14.1013 -7.7483 1.7933 5.7881 13.3381 53.0202
#
#
#
# Elastic Compliance Matrix: (Units=1/GPa)
#
#
# Indices 1 2 3 4 5 6 
#
# 1 0.027390 -0.005084 -0.006686 -0.008145 -0.005017 0.008919
# 2 -0.005084 0.013429 -0.002827 -0.003588 -0.001031 0.001357
# 3 -0.006686 -0.002827 0.015292 0.002679 0.005524 -0.004391
# 4 -0.008145 -0.003588 0.002679 0.027523 0.005391 -0.007142
# 5 -0.005017 -0.001031 0.005524 0.005391 0.032616 -0.010466
# 6 0.008919 0.001357 -0.004391 -0.007142 -0.010466 0.024992
#
#
# Mechanical properties :
#
#
# Convention : Reuss Voigt Hill
#
# Bulk Modulus (GPa) = 37.15190 45.59704 41.37447
# Shear Modulus (GPa) = 27.86932 37.31697 32.59315
#
# Velocity S-wave (km/s) = 3.38426 3.91610 3.65986
# Velocity P-wave (km/s) = 5.52621 6.25991 5.90447
#
# Compressibility (1/GPa) = 0.02691653
#
# Stress axis : x y z
#
# Youngs Moduli (GPa) = 36.50945 74.46812 65.39430
#
# Poissons Ratio (x) = 0.37858 0.43724
# Poissons Ratio (y) = 0.18561 0.18487
# Poissons Ratio (z) = 0.24411 0.21052
#
# Static dielectric constant tensor:
#      x y z
#    x 1.943680 -0.052150 -0.011100 
#    y -0.052150 1.950290 -0.045870 
#    z -0.011100 -0.045870 2.005790 
# 
# From -- ./inp_files/254041.got.cif
#   From: 2010.05.17/outbox.cif.g08.bks.cpg/sg2_128_cif.got.tgz:254041.got - 2010.06.03 11:33:40.
