data_PCOD9060713
_publ_section_title
;
Structure prediction by ZEFSAII (Michael W. Deem and Ramdas Pophale) SiO2 
 PCOD9060713
Probable space group: P -1
;
_chemical_formula_sum "Si O2"
_cell_formula_units_Z 12
_cell_length_a 8.999058
_cell_length_b 16.289160
_cell_length_c 9.899471
_cell_angle_alpha 153.403182
_cell_angle_beta 57.447944
_cell_angle_gamma 121.815238
_cell_volume 543.529466
_symmetry_space_group_name_H-M "P -1"
_symmetry_group_IT_number 2
_symmetry_cell_setting 'triclinic'
loop_
_space_group_symop_operation_xyz
x,y,z
-x,-y,-z
loop_
_atom_site_type_symbol
_atom_site_label
_atom_site_fract_x
_atom_site_fract_y
_atom_site_fract_z
Si Si1 0.487977 0.855531 0.414555
Si Si2 0.432500 0.389917 0.208891
Si Si3 0.745313 0.668285 0.520356
Si Si4 0.897475 0.182294 0.341426
Si Si5 0.840530 0.333344 0.304206
Si Si6 0.669040 0.961881 0.768992
O O1 0.276891 0.827069 0.498304
O O2 0.591154 0.905211 0.576327
O O3 0.500000 0.000000 0.500000
O O4 0.575791 0.693253 0.058244
O O5 0.634911 0.471520 0.255833
O O6 0.351459 0.271122 0.203175
O O7 0.321532 0.562740 0.511173
O O8 0.739248 0.800946 0.589032
O O9 0.948142 0.666468 0.457698
O O10 0.825440 0.239679 0.318934
O O11 0.000000 0.000000 0.000000
O O12 0.000000 0.500000 0.500000
O O13 0.817361 0.142777 0.947638
O O14 0.500000 0.000000 0.000000
#
# Coordination Sequence:
#
# PCOD9060713 Si02
#       6
#     2   2   2   2   2   2
#     4  12  28  44  73 105 146 182 240 298 352 415
#     4  11  25  45  71 110 140 185 237 301 348 416
#     4  11  23  43  78  98 144 189 241 280 362 428
#     4  12  23  43  73 103 138 189 236 284 351 426
#     4  12  25  42  76 104 139 184 245 287 344 427
#     4  12  22  45  71  99 135 196 232 277 361 427
#
# _framework density 22.077921
#
# number of rings (size 3 to 8) (size 9 to 14) (size 15 to 20)
#    0.000    0.333    6.667    2.000    2.333    3.333 
#    0.000    3.333    0.000    0.000    0.000    0.000 
#    0.000    0.000    0.000    0.000    0.000    0.000 
#
# Total GULP energy -66873.101980 kJ/mol
# GULP energy per Si atom -5572.758498 kJ/mol
# Density = 2.202767 g / cm^3
# Si number density = 22.077921 Si / 1000 Ang^3
#
#
#
# Elastic Constant Matrix: (Units=GPa)
#
#
# Indices 1 2 3 4 5 6 
#
# 1 129.7622 57.1726 24.3675 -4.4944 38.9760 -9.2509
# 2 57.1726 110.3625 52.4526 -6.5324 18.0025 -0.6820
# 3 24.3675 52.4526 66.3179 -12.3374 31.2757 -11.4506
# 4 -4.4944 -6.5324 -12.3374 31.0868 -10.8839 11.6485
# 5 38.9760 18.0025 31.2757 -10.8839 45.0832 10.6971
# 6 -9.2509 -0.6820 -11.4506 11.6485 10.6971 48.5348
#
#
#
# Elastic Compliance Matrix: (Units=1/GPa)
#
#
# Indices 1 2 3 4 5 6 
#
# 1 0.025062 -0.020112 0.028027 -0.012855 -0.041731 0.023389
# 2 -0.020112 0.031888 -0.038722 0.011454 0.039997 -0.024085
# 3 0.028027 -0.038722 0.075219 -0.016735 -0.075226 0.043140
# 4 -0.012855 0.011454 -0.016735 0.048297 0.035918 -0.025745
# 5 -0.041731 0.039997 -0.075226 0.035918 0.117290 -0.059611
# 6 0.023389 -0.024085 0.043140 -0.025745 -0.059611 0.054219
#
#
# Mechanical properties :
#
#
# Convention : Reuss Voigt Hill
#
# Bulk Modulus (GPa) = 14.17356 63.82534 38.99945
# Shear Modulus (GPa) = 11.43883 36.43762 23.93822
#
# Velocity S-wave (km/s) = 2.27868 4.06693 3.29638
# Velocity P-wave (km/s) = 3.65471 7.14319 5.67371
#
# Compressibility (1/GPa) = 0.07055388
#
# Stress axis : x y z
#
# Youngs Moduli (GPa) = 39.90147 31.35930 13.29452
#
# Poissons Ratio (x) = 0.63071 -0.37260
# Poissons Ratio (y) = 0.80252 0.51479
# Poissons Ratio (z) = -1.11830 1.21429
#
# Static dielectric constant tensor:
#      x y z
#    x 1.796920 0.006370 0.123790 
#    y 0.006370 2.071070 0.092500 
#    z 0.123790 0.092500 0.574350 
# 
# From -- ./inp_files/148878.got.cif
#   From: 2010.05.17/outbox.cif.g08.bks.cpg/sg2_75_cif.got.tgz:148878.got - 2010.06.03 11:33:40.
