data_PCOD9060734
_publ_section_title
;
Structure prediction by ZEFSAII (Michael W. Deem and Ramdas Pophale) SiO2 
 PCOD9060734
Probable space group: P -1
;
_chemical_formula_sum "Si O2"
_cell_formula_units_Z 16
_cell_length_a 5.632613
_cell_length_b 13.866789
_cell_length_c 14.188275
_cell_angle_alpha 139.305212
_cell_angle_beta 93.897408
_cell_angle_gamma 101.393611
_cell_volume 665.964202
_symmetry_space_group_name_H-M "P -1"
_symmetry_group_IT_number 2
_symmetry_cell_setting 'triclinic'
loop_
_space_group_symop_operation_xyz
x,y,z
-x,-y,-z
loop_
_atom_site_type_symbol
_atom_site_label
_atom_site_fract_x
_atom_site_fract_y
_atom_site_fract_z
Si Si1 0.837928 0.016292 0.094456
Si Si2 0.562861 0.080437 0.460094
Si Si3 0.701333 0.230259 0.107298
Si Si4 0.427424 0.373202 0.988758
Si Si5 0.984958 0.159191 0.398072
Si Si6 0.177711 0.812513 0.127940
Si Si7 0.076658 0.535684 0.420689
Si Si8 0.476531 0.595236 0.332787
O O1 0.737224 0.147490 0.144417
O O2 0.985238 0.069792 0.235664
O O3 0.599219 0.851602 0.982469
O O4 0.000000 0.000000 0.000000
O O5 0.810460 0.060240 0.404772
O O6 0.625516 0.270531 0.612494
O O7 0.500000 0.000000 0.500000
O O8 0.326419 0.982397 0.310436
O O9 0.831317 0.418050 0.268622
O O10 0.828696 0.187050 0.986232
O O11 0.476331 0.475932 0.162457
O O12 0.500000 0.500000 0.000000
O O13 0.627730 0.282274 0.919807
O O14 0.116878 0.268823 0.903491
O O15 0.840153 0.275722 0.448807
O O16 0.250390 0.285745 0.534517
O O17 0.308255 0.505076 0.352220
O O18 0.000000 0.500000 0.500000
#
# Coordination Sequence:
#
# PCOD9060734 Si02
#       8
#     2   2   2   2   2   2   2   2
#     4  11  26  40  67  98 143 188 236 300 361 438
#     4  11  27  47  72 103 145 193 244 307 372 437
#     4  11  24  44  66  98 139 186 243 288 365 429
#     4  12  28  50  77 110 149 195 248 311 374 439
#     4  11  25  44  66 102 140 184 241 300 363 436
#     4  12  27  48  79 108 149 196 251 305 369 445
#     4  11  23  44  65  97 138 184 233 291 361 431
#     4  11  27  44  72 102 146 190 245 306 368 443
#
# _framework density 24.025317000000001
#
# number of rings (size 3 to 8) (size 9 to 14) (size 15 to 20)
#    0.000    0.750    3.750    1.875   10.500    2.000 
#    0.000    0.000    0.000    0.000    0.000    0.000 
#    0.000    0.000    0.000    0.000    0.000    0.000 
#
# Total GULP energy -89422.209888 kJ/mol
# GULP energy per Si atom -5588.888118 kJ/mol
# Density = 2.397063 g / cm^3
# Si number density = 24.025317 Si / 1000 Ang^3
#
#
#
# Elastic Constant Matrix: (Units=GPa)
#
#
# Indices 1 2 3 4 5 6 
#
# 1 108.3722 31.9504 39.5829 7.3073 8.8440 25.7568
# 2 31.9504 134.0748 28.3740 -15.1804 -2.5908 31.6202
# 3 39.5829 28.3740 151.5274 -0.0977 1.3160 11.8622
# 4 7.3073 -15.1804 -0.0977 39.5396 0.6127 -1.2378
# 5 8.8440 -2.5908 1.3160 0.6127 47.0799 11.6337
# 6 25.7568 31.6202 11.8622 -1.2378 11.6337 48.4455
#
#
#
# Elastic Compliance Matrix: (Units=1/GPa)
#
#
# Indices 1 2 3 4 5 6 
#
# 1 0.011968 -0.001626 -0.002461 -0.002966 -0.001117 -0.004507
# 2 -0.001626 0.009909 -0.000994 0.003885 0.002262 -0.005804
# 3 -0.002461 -0.000994 0.007419 0.000092 0.000174 0.000101
# 4 -0.002966 0.003885 0.000092 0.027310 0.000514 -0.000407
# 5 -0.001117 0.002262 0.000174 0.000514 0.023163 -0.006475
# 6 -0.004507 -0.005804 0.000101 -0.000407 -0.006475 0.028346
#
#
# Mechanical properties :
#
#
# Convention : Reuss Voigt Hill
#
# Bulk Modulus (GPa) = 52.26121 65.97657 59.11889
# Shear Modulus (GPa) = 40.11103 46.61746 43.36425
#
# Velocity S-wave (km/s) = 4.09042 4.40972 4.25307
# Velocity P-wave (km/s) = 6.64143 7.31084 6.98416
#
# Compressibility (1/GPa) = 0.01913465
#
# Stress axis : x y z
#
# Youngs Moduli (GPa) = 83.55630 100.92321 134.78683
#
# Poissons Ratio (x) = 0.16406 0.33176
# Poissons Ratio (y) = 0.13583 0.13392
# Poissons Ratio (z) = 0.20566 0.10027
#
# Static dielectric constant tensor:
#      x y z
#    x 2.122300 -0.111890 -0.076340 
#    y -0.111890 1.886780 0.079510 
#    z -0.076340 0.079510 1.871060 
# 
# From -- ./inp_files/38880.got.cif
#   From: 2010.05.17/outbox.cif.g08.bks.cpg/sg2_20_cif.got.tgz:38880.got - 2010.06.03 11:33:40.
