data_PCOD9060531
_publ_section_title
;
Structure prediction by ZEFSAII (Michael W. Deem and Ramdas Pophale) SiO2 
 PCOD9060531
Probable space group: P -1
;
_chemical_formula_sum "Si O2"
_cell_formula_units_Z 13
_cell_length_a 6.462172
_cell_length_b 7.707820
_cell_length_c 14.457358
_cell_angle_alpha 89.341758
_cell_angle_beta 122.387771
_cell_angle_gamma 108.121422
_cell_volume 567.032756
_symmetry_space_group_name_H-M "P -1"
_symmetry_group_IT_number 2
_symmetry_cell_setting 'triclinic'
loop_
_space_group_symop_operation_xyz
x,y,z
-x,-y,-z
loop_
_atom_site_type_symbol
_atom_site_label
_atom_site_fract_x
_atom_site_fract_y
_atom_site_fract_z
Si Si1 0.000000 0.500000 0.000000
Si Si2 0.911839 0.382734 0.218224
Si Si3 0.560602 0.990660 0.622626
Si Si4 0.751023 0.411180 0.377153
Si Si5 0.674086 0.762424 0.949465
Si Si6 0.037993 0.049682 0.162020
Si Si7 0.586129 0.327627 0.740422
O O1 0.143487 0.357800 0.010410
O O2 0.274656 0.635670 0.125998
O O3 0.857952 0.345188 0.312012
O O4 0.628780 0.365245 0.111350
O O5 0.987112 0.230357 0.182059
O O6 0.156867 0.569929 0.262377
O O7 0.464033 0.122705 0.666285
O O8 0.500000 0.000000 0.500000
O O9 0.442224 0.772534 0.619631
O O10 0.860617 0.038990 0.728040
O O11 0.607102 0.555505 0.316225
O O12 0.000000 0.500000 0.500000
O O13 0.745128 0.882663 0.869647
O O14 0.776220 0.907086 0.055664
#
# Coordination Sequence:
#
# PCOD9060531 Si02
#       7
#     1   2   2   2   2   2   2
#     4  12  20  46  66 104 148 178 234 300 356 428
#     4  12  22  46  72 104 140 194 238 290 377 424
#     4  12  26  49  73 106 144 191 244 303 361 427
#     4  12  28  52  73 102 145 194 245 301 362 429
#     4  11  23  43  72 104 145 191 238 293 369 431
#     4  11  23  45  69 103 147 190 234 304 360 428
#     4  12  27  48  75 106 150 191 236 309 362 431
#
# _framework density 22.926366000000002
#
# number of rings (size 3 to 8) (size 9 to 14) (size 15 to 20)
#    0.000    0.308    7.692    1.385    2.154    2.462 
#    5.538    0.000    0.000    0.000    0.000    0.000 
#    0.000    0.000    0.000    0.000    0.000    0.000 
#
# Total GULP energy -72396.293405 kJ/mol
# GULP energy per Si atom -5568.945647 kJ/mol
# Density = 2.287418 g / cm^3
# Si number density = 22.926366 Si / 1000 Ang^3
#
#
#
# Elastic Constant Matrix: (Units=GPa)
#
#
# Indices 1 2 3 4 5 6 
#
# 1 49.9408 10.6220 33.7225 -6.7407 7.9868 -12.5460
# 2 10.6220 70.3560 26.2683 11.0835 1.8098 -36.5534
# 3 33.7225 26.2683 178.3116 5.2633 4.4308 -14.3880
# 4 -6.7407 11.0835 5.2633 29.7846 -3.9758 -6.0822
# 5 7.9868 1.8098 4.4308 -3.9758 29.2816 -0.3411
# 6 -12.5460 -36.5534 -14.3880 -6.0822 -0.3411 29.5320
#
#
#
# Elastic Compliance Matrix: (Units=1/GPa)
#
#
# Indices 1 2 3 4 5 6 
#
# 1 0.029002 0.006521 -0.004951 0.008182 -0.006225 0.019593
# 2 0.006521 0.042822 -0.003024 -0.003503 -0.003820 0.053534
# 3 -0.004951 -0.003024 0.006803 -0.001756 0.000236 -0.002891
# 4 0.008182 -0.003503 -0.001756 0.038810 0.003594 0.006319
# 5 -0.006225 -0.003820 0.000236 0.003594 0.036466 -0.006096
# 6 0.019593 0.053534 -0.002891 0.006319 -0.006096 0.108271
#
#
# Mechanical properties :
#
#
# Convention : Reuss Voigt Hill
#
# Bulk Modulus (GPa) = 13.20687 48.87044 31.03866
# Shear Modulus (GPa) = 17.22228 32.91935 25.07081
#
# Velocity S-wave (km/s) = 2.74378 3.79340 3.31045
# Velocity P-wave (km/s) = 3.97628 6.36782 5.30848
#
# Compressibility (1/GPa) = 0.07571817
#
# Stress axis : x y z
#
# Youngs Moduli (GPa) = 34.48003 23.35270 146.99975
#
# Poissons Ratio (x) = -0.15228 0.72786
# Poissons Ratio (y) = -0.22484 0.44446
# Poissons Ratio (z) = 0.17073 0.07061
#
# Static dielectric constant tensor:
#      x y z
#    x 1.852690 0.062900 0.011890 
#    y 0.062900 1.905170 -0.012930 
#    z 0.011890 -0.012930 1.944270 
# 
# From -- ./inp_files/479265.got.cif
#   From: 2010.05.17/outbox.cif.g08.bks.cpg/sg2_240_cif.got.tgz:479265.got - 2010.06.03 11:33:40.
