data_PCOD9060387
_publ_section_title
;
Structure prediction by ZEFSAII (Michael W. Deem and Ramdas Pophale) SiO2 
 PCOD9060387
Probable space group: P -1
;
_chemical_formula_sum "Si O2"
_cell_formula_units_Z 16
_cell_length_a 9.089734
_cell_length_b 11.664728
_cell_length_c 14.621991
_cell_angle_alpha 99.260835
_cell_angle_beta 32.278014
_cell_angle_gamma 86.645558
_cell_volume 759.425068
_symmetry_space_group_name_H-M "P -1"
_symmetry_group_IT_number 2
_symmetry_cell_setting 'triclinic'
loop_
_space_group_symop_operation_xyz
x,y,z
-x,-y,-z
loop_
_atom_site_type_symbol
_atom_site_label
_atom_site_fract_x
_atom_site_fract_y
_atom_site_fract_z
Si Si1 0.218644 0.066993 0.428743
Si Si2 0.756456 0.323741 0.062659
Si Si3 0.300423 0.296744 0.065783
Si Si4 0.476111 0.397030 0.737218
Si Si5 0.953489 0.267681 0.748554
Si Si6 0.163296 0.286492 0.347991
Si Si7 0.760864 0.541996 0.332703
Si Si8 0.286536 0.180202 0.885533
O O1 0.219273 0.161246 0.359679
O O2 0.105253 0.145793 0.591254
O O3 0.536094 0.957246 0.262063
O O4 0.000000 0.000000 0.500000
O O5 0.717984 0.468952 0.100799
O O6 0.422716 0.331489 0.249029
O O7 0.912340 0.257623 0.878314
O O8 0.955853 0.245325 0.030060
O O9 0.212592 0.274457 0.211365
O O10 0.049216 0.416433 0.169581
O O11 0.608869 0.320005 0.905493
O O12 0.316132 0.181076 0.979166
O O13 0.357281 0.403492 0.697428
O O14 0.440064 0.276800 0.785472
O O15 0.823451 0.374655 0.554777
O O16 0.139264 0.357941 0.652095
O O17 0.500000 0.500000 0.500000
#
# Coordination Sequence:
#
# PCOD9060387 Si02
#       8
#     2   2   2   2   2   2   2   2
#     4  12  26  48  72  95 140 192 241 277 336 411
#     4  11  25  44  71 110 138 172 233 291 357 406
#     4  11  23  43  70 105 139 179 230 289 351 407
#     4  12  22  44  72 103 146 177 220 288 358 416
#     4  11  25  45  69 103 137 187 232 282 342 416
#     4  11  26  44  69 105 137 185 229 284 341 416
#     4  12  24  40  70 111 144 176 225 288 356 416
#     4  12  24  46  73  99 139 191 227 287 344 409
#
# _framework density 21.068570999999999
#
# number of rings (size 3 to 8) (size 9 to 14) (size 15 to 20)
#    0.000    0.500    6.250    1.875    1.750    4.500 
#    0.000    0.000    0.000    0.000    0.000    0.000 
#    0.000    0.000    0.000    0.000    0.000    0.000 
#
# Total GULP energy -89414.482955 kJ/mol
# GULP energy per Si atom -5588.405185 kJ/mol
# Density = 2.102062 g / cm^3
# Si number density = 21.068571 Si / 1000 Ang^3
#
#
#
# Elastic Constant Matrix: (Units=GPa)
#
#
# Indices 1 2 3 4 5 6 
#
# 1 101.5922 33.6136 50.6932 1.6570 -12.8493 2.9574
# 2 33.6136 97.2327 47.6755 14.3588 5.7830 0.7675
# 3 50.6932 47.6755 107.3129 8.8842 -20.9675 7.1581
# 4 1.6570 14.3588 8.8842 34.2389 1.8901 -0.2804
# 5 -12.8493 5.7830 -20.9675 1.8901 36.9406 1.1752
# 6 2.9574 0.7675 7.1581 -0.2804 1.1752 37.8928
#
#
#
# Elastic Compliance Matrix: (Units=1/GPa)
#
#
# Indices 1 2 3 4 5 6 
#
# 1 0.013389 -0.002618 -0.004846 0.001583 0.002240 -0.000134
# 2 -0.002618 0.015547 -0.006782 -0.004235 -0.007021 0.001357
# 3 -0.004846 -0.006782 0.016735 -0.001788 0.009060 -0.002940
# 4 0.001583 -0.004235 -0.001788 0.031454 -0.001429 0.000577
# 5 0.002240 -0.007021 0.009060 -0.001429 0.034254 -0.002817
# 6 -0.000134 0.001357 -0.002940 0.000577 -0.002817 0.027020
#
#
# Mechanical properties :
#
#
# Convention : Reuss Voigt Hill
#
# Bulk Modulus (GPa) = 58.21129 63.34471 60.77800
# Shear Modulus (GPa) = 28.96568 33.42482 31.19525
#
# Velocity S-wave (km/s) = 3.71189 3.98738 3.85210
# Velocity P-wave (km/s) = 6.78677 7.16451 6.97820
#
# Compressibility (1/GPa) = 0.01717880
#
# Stress axis : x y z
#
# Youngs Moduli (GPa) = 74.68750 64.31950 59.75498
#
# Poissons Ratio (x) = 0.16842 0.28957
# Poissons Ratio (y) = 0.19557 0.40525
# Poissons Ratio (z) = 0.36194 0.43621
#
# Static dielectric constant tensor:
#      x y z
#    x 1.775760 0.015680 0.013560 
#    y 0.015680 1.739060 -0.024040 
#    z 0.013560 -0.024040 1.793940 
# 
# From -- ./inp_files/274361.got.cif
#   From: 2010.05.17/outbox.cif.g08.bks.cpg/sg2_138_cif.got.tgz:274361.got - 2010.06.03 11:33:40.
