data_PCOD9060335
_publ_section_title
;
Structure prediction by ZEFSAII (Michael W. Deem and Ramdas Pophale) SiO2 
 PCOD9060335
Probable space group: P -1
;
_chemical_formula_sum "Si O2"
_cell_formula_units_Z 16
_cell_length_a 22.580785
_cell_length_b 6.921668
_cell_length_c 11.398195
_cell_angle_alpha 132.331059
_cell_angle_beta 31.823215
_cell_angle_gamma 117.321685
_cell_volume 664.529971
_symmetry_space_group_name_H-M "P -1"
_symmetry_group_IT_number 2
_symmetry_cell_setting 'triclinic'
loop_
_space_group_symop_operation_xyz
x,y,z
-x,-y,-z
loop_
_atom_site_type_symbol
_atom_site_label
_atom_site_fract_x
_atom_site_fract_y
_atom_site_fract_z
Si Si1 0.869977 0.863836 0.093316
Si Si2 0.544931 0.226678 0.628757
Si Si3 0.537867 0.274260 0.164481
Si Si4 0.076087 0.596105 0.812536
Si Si5 0.695552 0.807219 0.038247
Si Si6 0.622627 0.096758 0.686685
Si Si7 0.117500 0.568177 0.293729
Si Si8 0.784848 0.983456 0.747362
O O1 0.882964 0.135141 0.116022
O O2 0.762021 0.972445 0.408809
O O3 0.840171 0.638280 0.969937
O O4 0.989679 0.708770 0.894264
O O5 0.412448 0.218587 0.868714
O O6 0.596289 0.283573 0.690176
O O7 0.634183 0.949737 0.317485
O O8 0.531105 0.410189 0.608853
O O9 0.570698 0.213753 0.946592
O O10 0.660143 0.169381 0.983400
O O11 0.446449 0.127947 0.308676
O O12 0.178475 0.324645 0.491609
O O13 0.000000 0.500000 0.000000
O O14 0.787982 0.523645 0.799287
O O15 0.767626 0.967904 0.908930
O O16 0.000000 0.500000 0.500000
O O17 0.115219 0.872716 0.390822
#
# Coordination Sequence:
#
# PCOD9060335 Si02
#       8
#     2   2   2   2   2   2   2   2
#     4  11  26  46  73 102 142 183 237 289 351 418
#     4  11  23  43  69  97 141 184 234 283 353 416
#     4  11  25  42  69 104 141 184 233 293 352 420
#     4  11  26  48  73 102 140 189 234 294 352 415
#     4  11  25  42  69 101 140 190 228 289 352 419
#     4  11  24  43  68 105 138 184 235 295 345 425
#     4  12  26  47  71 104 141 186 238 296 349 420
#     4  12  26  45  74 104 146 183 238 289 358 424
#
# _framework density 24.077168
#
# number of rings (size 3 to 8) (size 9 to 14) (size 15 to 20)
#    0.000    0.750    3.750    2.625    3.500    8.500 
#    0.000    0.000    0.000    0.000    0.000    0.000 
#    0.000    0.000    0.000    0.000    0.000    0.000 
#
# Total GULP energy -89378.914757 kJ/mol
# GULP energy per Si atom -5586.182172 kJ/mol
# Density = 2.402237 g / cm^3
# Si number density = 24.077168 Si / 1000 Ang^3
#
#
#
# Elastic Constant Matrix: (Units=GPa)
#
#
# Indices 1 2 3 4 5 6 
#
# 1 45.9941 2.3251 -7.1886 8.5227 1.4452 -11.9792
# 2 2.3251 128.1996 13.0678 -7.9164 1.0362 -5.1394
# 3 -7.1886 13.0678 71.2268 -8.6965 -4.0957 -6.5620
# 4 8.5227 -7.9164 -8.6965 35.1531 -3.4444 1.1487
# 5 1.4452 1.0362 -4.0957 -3.4444 31.4026 2.0728
# 6 -11.9792 -5.1394 -6.5620 1.1487 2.0728 27.6276
#
#
#
# Elastic Compliance Matrix: (Units=1/GPa)
#
#
# Indices 1 2 3 4 5 6 
#
# 1 0.026850 -0.000676 0.003067 -0.006550 -0.002370 0.012695
# 2 -0.000676 0.008080 -0.001292 0.001608 -0.000284 0.000858
# 3 0.003067 -0.001292 0.015457 0.002832 0.001931 0.004498
# 4 -0.006550 0.001608 0.002832 0.031636 0.004319 -0.003508
# 5 -0.002370 -0.000284 0.001931 0.004319 0.032904 -0.003270
# 6 0.012695 0.000858 0.004498 -0.003508 -0.003270 0.043319
#
#
# Mechanical properties :
#
#
# Convention : Reuss Voigt Hill
#
# Bulk Modulus (GPa) = 19.01600 29.09212 24.05406
# Shear Modulus (GPa) = 28.80571 34.65108 31.72839
#
# Velocity S-wave (km/s) = 3.46264 3.79775 3.63406
# Velocity P-wave (km/s) = 4.88893 5.59818 5.25553
#
# Compressibility (1/GPa) = 0.05258730
#
# Stress axis : x y z
#
# Youngs Moduli (GPa) = 37.24376 123.75862 64.69382
#
# Poissons Ratio (x) = 0.08366 -0.19845
# Poissons Ratio (y) = 0.02518 0.08356
# Poissons Ratio (z) = -0.11424 0.15986
#
# Static dielectric constant tensor:
#      x y z
#    x 1.943220 0.069530 0.042050 
#    y 0.069530 2.140960 0.045300 
#    z 0.042050 0.045300 1.951300 
# 
# From -- ./inp_files/473469.got.cif
#   From: 2010.05.17/outbox.cif.g08.bks.cpg/sg2_237_cif.got.tgz:473469.got - 2010.06.03 11:33:40.
