data_PCOD9060776
_publ_section_title
;
Structure prediction by ZEFSAII (Michael W. Deem and Ramdas Pophale) SiO2 
 PCOD9060776
Probable space group: P -1
;
_chemical_formula_sum "Si O2"
_cell_formula_units_Z 14
_cell_length_a 9.152329
_cell_length_b 8.660717
_cell_length_c 24.748478
_cell_angle_alpha 37.977446
_cell_angle_beta 30.580910
_cell_angle_gamma 47.064872
_cell_volume 614.116752
_symmetry_space_group_name_H-M "P -1"
_symmetry_group_IT_number 2
_symmetry_cell_setting 'triclinic'
loop_
_space_group_symop_operation_xyz
x,y,z
-x,-y,-z
loop_
_atom_site_type_symbol
_atom_site_label
_atom_site_fract_x
_atom_site_fract_y
_atom_site_fract_z
Si Si1 0.571416 0.779424 0.204864
Si Si2 0.146998 0.537961 0.242044
Si Si3 0.833250 0.262461 0.235114
Si Si4 0.510509 0.730451 0.976236
Si Si5 0.663842 0.924051 0.631764
Si Si6 0.968060 0.731053 0.365311
Si Si7 0.439464 0.373283 0.636317
O O1 0.785567 0.547248 0.190190
O O2 0.605683 0.816915 0.247172
O O3 0.248138 0.684340 0.324436
O O4 0.586605 0.020998 0.094888
O O5 0.324724 0.287174 0.267312
O O6 0.074856 0.674530 0.284701
O O7 0.844086 0.472156 0.329327
O O8 0.312074 0.696173 0.101020
O O9 0.541868 0.204307 0.311229
O O10 0.160677 0.254984 0.110554
O O11 0.863332 0.016159 0.331094
O O12 0.500000 0.500000 0.000000
O O13 0.508606 0.188554 0.616547
O O14 0.000000 0.000000 0.500000
O O15 0.709327 0.548064 0.510586
#
# Coordination Sequence:
#
# PCOD9060776 Si02
#       7
#     2   2   2   2   2   2   2
#     4  11  25  45  70  99 137 183 227 282 349 404
#     4  12  24  42  70  99 135 181 227 285 332 403
#     4  11  24  44  69  99 141 179 229 282 339 404
#     4  11  27  48  68  99 140 180 238 282 335 412
#     4  12  23  42  70 105 138 175 226 281 344 409
#     4  11  23  44  67 105 136 173 235 284 343 408
#     4  12  24  42  72 100 141 180 224 285 347 404
#
# _framework density 22.796968
#
# number of rings (size 3 to 8) (size 9 to 14) (size 15 to 20)
#    0.000    0.571    4.286    3.429    0.000    8.000 
#    0.000    0.000    0.000    0.000    0.000    0.000 
#    0.000    0.000    0.000    0.000    0.000    0.000 
#
# Total GULP energy -78089.934681 kJ/mol
# GULP energy per Si atom -5577.852477 kJ/mol
# Density = 2.274508 g / cm^3
# Si number density = 22.796968 Si / 1000 Ang^3
#
#
#
# Elastic Constant Matrix: (Units=GPa)
#
#
# Indices 1 2 3 4 5 6 
#
# 1 71.7551 7.7278 17.5306 14.0610 1.2779 -12.4947
# 2 7.7278 121.2356 24.9666 -15.3114 9.3003 -26.4256
# 3 17.5306 24.9666 72.9939 -3.6673 -0.9990 2.2692
# 4 14.0610 -15.3114 -3.6673 23.7963 -4.4582 -4.9323
# 5 1.2779 9.3003 -0.9990 -4.4582 22.9936 -4.3245
# 6 -12.4947 -26.4256 2.2692 -4.9323 -4.3245 27.3495
#
#
#
# Elastic Compliance Matrix: (Units=1/GPa)
#
#
# Indices 1 2 3 4 5 6 
#
# 1 0.018515 0.000241 -0.005303 -0.010569 -0.002110 0.006892
# 2 0.000241 0.014311 -0.004889 0.011562 -0.000703 0.016317
# 3 -0.005303 -0.004889 0.016983 0.001262 0.001740 -0.008053
# 4 -0.010569 0.011562 0.001262 0.062075 0.011626 0.019271
# 5 -0.002110 -0.000703 0.001740 0.011626 0.047698 0.007851
# 6 0.006892 0.016317 -0.008053 0.019271 0.007851 0.060863
#
#
# Mechanical properties :
#
#
# Convention : Reuss Voigt Hill
#
# Bulk Modulus (GPa) = 33.43694 40.71497 37.07595
# Shear Modulus (GPa) = 19.97485 29.21186 24.59335
#
# Velocity S-wave (km/s) = 2.96329 3.58354 3.28807
# Velocity P-wave (km/s) = 5.13880 5.91785 5.54203
#
# Compressibility (1/GPa) = 0.02990704
#
# Stress axis : x y z
#
# Youngs Moduli (GPa) = 54.01115 69.87847 58.88209
#
# Poissons Ratio (x) = -0.01686 0.31226
# Poissons Ratio (y) = -0.01303 0.28785
# Poissons Ratio (z) = 0.28643 0.34161
#
# Static dielectric constant tensor:
#      x y z
#    x 1.907800 0.038100 -0.009930 
#    y 0.038100 1.863340 0.017530 
#    z -0.009930 0.017530 1.877860 
# 
# From -- ./inp_files/226699.got.cif
#   From: 2010.05.17/outbox.cif.g08.bks.cpg/sg2_114_cif.got.tgz:226699.got - 2010.06.03 11:33:40.
