data_PCOD9060788
_publ_section_title
;
Structure prediction by ZEFSAII (Michael W. Deem and Ramdas Pophale) SiO2 
 PCOD9060788
Probable space group: P -1
;
_chemical_formula_sum "Si O2"
_cell_formula_units_Z 16
_cell_length_a 21.576959
_cell_length_b 18.908455
_cell_length_c 6.695722
_cell_angle_alpha 124.684276
_cell_angle_beta 121.069288
_cell_angle_gamma 18.295623
_cell_volume 702.059492
_symmetry_space_group_name_H-M "P -1"
_symmetry_group_IT_number 2
_symmetry_cell_setting 'triclinic'
loop_
_space_group_symop_operation_xyz
x,y,z
-x,-y,-z
loop_
_atom_site_type_symbol
_atom_site_label
_atom_site_fract_x
_atom_site_fract_y
_atom_site_fract_z
Si Si1 0.888975 0.835730 0.193794
Si Si2 0.719625 0.110298 0.013778
Si Si3 0.232149 0.503802 0.531313
Si Si4 0.543745 0.279962 0.558459
Si Si5 0.537427 0.907432 0.615671
Si Si6 0.631117 0.439649 0.611693
Si Si7 0.226576 0.218773 0.924472
Si Si8 0.037119 0.885916 0.046525
O O1 0.789762 0.855621 0.117141
O O2 0.087182 0.627068 0.316880
O O3 0.741691 0.069606 0.419280
O O4 0.873832 0.873496 0.994362
O O5 0.633436 0.193076 0.784665
O O6 0.515789 0.330187 0.152693
O O7 0.843580 0.061653 0.119345
O O8 0.425303 0.322623 0.443428
O O9 0.313543 0.338921 0.545938
O O10 0.135964 0.691868 0.790570
O O11 0.375531 0.526445 0.576826
O O12 0.500000 0.000000 0.500000
O O13 0.333887 0.101721 0.698267
O O14 0.646636 0.855091 0.854576
O O15 0.500000 0.500000 0.500000
O O16 0.823734 0.229697 0.732117
O O17 0.000000 0.500000 0.000000
O O18 0.000000 0.000000 0.000000
#
# Coordination Sequence:
#
# PCOD9060788 Si02
#       8
#     2   2   2   2   2   2   2   2
#     4  11  24  43  71 100 139 182 231 286 354 415
#     4  11  25  44  69 100 133 181 236 287 347 423
#     4  12  24  46  70  99 143 186 226 292 351 412
#     4  11  23  44  67  98 137 178 234 283 349 417
#     4  11  27  45  72 107 146 186 238 287 356 429
#     4  11  26  43  68  96 133 183 225 296 355 401
#     4  11  24  46  69 107 142 183 233 295 350 427
#     4  12  27  44  72 105 139 186 242 286 351 421
#
# _framework density 22.790088999999998
#
# number of rings (size 3 to 8) (size 9 to 14) (size 15 to 20)
#    0.000    0.750    5.000    1.500    5.250    3.000 
#    0.000    0.000    0.000    0.000    0.000    0.000 
#    0.000    0.000    0.000    0.000    0.000    0.000 
#
# Total GULP energy -89203.906121 kJ/mol
# GULP energy per Si atom -5575.244133 kJ/mol
# Density = 2.273822 g / cm^3
# Si number density = 22.790089 Si / 1000 Ang^3
#
#
#
# Elastic Constant Matrix: (Units=GPa)
#
#
# Indices 1 2 3 4 5 6 
#
# 1 156.1447 67.8949 33.1396 -29.3941 -7.2305 21.0029
# 2 67.8949 138.6980 54.5652 -31.3914 -11.6089 10.7957
# 3 33.1396 54.5652 70.1384 -20.7769 -10.3867 15.6533
# 4 -29.3941 -31.3914 -20.7769 36.5422 4.4361 -2.6097
# 5 -7.2305 -11.6089 -10.3867 4.4361 37.5317 -13.0619
# 6 21.0029 10.7957 15.6533 -2.6097 -13.0619 56.2928
#
#
#
# Elastic Compliance Matrix: (Units=1/GPa)
#
#
# Indices 1 2 3 4 5 6 
#
# 1 0.008962 -0.003301 0.000115 0.004332 -0.000717 -0.002708
# 2 -0.003301 0.012533 -0.007103 0.004013 0.001246 0.001278
# 3 0.000115 -0.007103 0.022886 0.006466 0.001896 -0.004305
# 4 0.004332 0.004013 0.006466 0.037968 -0.001595 -0.002794
# 5 -0.000717 0.001246 0.001896 -0.001595 0.029813 0.006345
# 6 -0.002708 0.001278 -0.004305 -0.002794 0.006345 0.021069
#
#
# Mechanical properties :
#
#
# Convention : Reuss Voigt Hill
#
# Bulk Modulus (GPa) = 42.01049 75.13115 58.57082
# Shear Modulus (GPa) = 30.91344 40.03210 35.47277
#
# Velocity S-wave (km/s) = 3.68699 4.19568 3.94953
# Velocity P-wave (km/s) = 6.04970 7.51730 6.82307
#
# Compressibility (1/GPa) = 0.02380358
#
# Stress axis : x y z
#
# Youngs Moduli (GPa) = 111.58459 79.78890 43.69561
#
# Poissons Ratio (x) = 0.26338 -0.00504
# Poissons Ratio (y) = 0.36834 0.31036
# Poissons Ratio (z) = -0.01286 0.56672
#
# Static dielectric constant tensor:
#      x y z
#    x 1.906730 0.107700 -0.054830 
#    y 0.107700 2.034650 0.034320 
#    z -0.054830 0.034320 1.978850 
# 
# From -- ./inp_files/120124.got.cif
#   From: 2010.05.17/outbox.cif.g08.bks.cpg/sg2_61_cif.got.tgz:120124.got - 2010.06.03 11:33:40.
