data_PCOD9060147
_publ_section_title
;
Structure prediction by ZEFSAII (Michael W. Deem and Ramdas Pophale) SiO2 
 PCOD9060147
Probable space group: P -1
;
_chemical_formula_sum "Si O2"
_cell_formula_units_Z 16
_cell_length_a 9.246661
_cell_length_b 24.027440
_cell_length_c 7.954025
_cell_angle_alpha 45.197320
_cell_angle_beta 31.386151
_cell_angle_gamma 45.557098
_cell_volume 629.328194
_symmetry_space_group_name_H-M "P -1"
_symmetry_group_IT_number 2
_symmetry_cell_setting 'triclinic'
loop_
_space_group_symop_operation_xyz
x,y,z
-x,-y,-z
loop_
_atom_site_type_symbol
_atom_site_label
_atom_site_fract_x
_atom_site_fract_y
_atom_site_fract_z
Si Si1 0.879414 0.990172 0.823882
Si Si2 0.269472 0.082676 0.361946
Si Si3 0.633912 0.512212 0.518531
Si Si4 0.177745 0.760205 0.667626
Si Si5 0.768189 0.660289 0.222001
Si Si6 0.306118 0.740157 0.973953
Si Si7 0.252001 0.420204 0.222616
Si Si8 0.746312 0.837618 0.434525
O O1 0.116393 0.009031 0.674581
O O2 0.568572 0.052494 0.031624
O O3 0.000000 0.000000 0.500000
O O4 0.830245 0.902170 0.090018
O O5 0.320311 0.115861 0.422708
O O6 0.030992 0.154177 0.356382
O O7 0.500000 0.500000 0.500000
O O8 0.699794 0.599000 0.286510
O O9 0.940339 0.448747 0.387686
O O10 0.400293 0.494433 0.918482
O O11 0.504628 0.741837 0.320172
O O12 0.185968 0.749283 0.883378
O O13 0.052178 0.689963 0.862070
O O14 0.775138 0.614021 0.492119
O O15 0.528911 0.651800 0.943662
O O16 0.489200 0.804278 0.692864
O O17 0.031896 0.761733 0.322119
#
# Coordination Sequence:
#
# PCOD9060147 Si02
#       8
#     2   2   2   2   2   2   2   2
#     4  12  26  45  71 103 139 183 232 282 334 407
#     4  12  26  46  70 103 140 179 225 285 348 405
#     4  12  25  41  65  98 134 172 221 281 340 402
#     4  11  24  43  67  98 132 174 228 282 333 403
#     4  11  23  43  67  94 130 178 226 277 334 403
#     4  11  24  44  69  99 133 179 231 280 337 411
#     4  11  23  43  66  93 131 177 224 273 332 405
#     4  12  25  45  71 102 140 182 225 284 348 408
#
# _framework density 25.423938
#
# number of rings (size 3 to 8) (size 9 to 14) (size 15 to 20)
#    0.000    0.500    0.000    9.750    0.000    6.000 
#    0.000    0.000    0.000    0.000    0.000    0.000 
#    0.000    0.000    0.000    0.000    0.000    0.000 
#
# Total GULP energy -89821.157360 kJ/mol
# GULP energy per Si atom -5613.822335 kJ/mol
# Density = 2.536607 g / cm^3
# Si number density = 25.423938 Si / 1000 Ang^3
#
#
#
# Elastic Constant Matrix: (Units=GPa)
#
#
# Indices 1 2 3 4 5 6 
#
# 1 127.9341 42.0441 36.2507 5.8877 -20.6446 7.7169
# 2 42.0441 95.6223 8.3986 20.1055 -14.0288 2.3523
# 3 36.2507 8.3986 94.2008 2.4644 -30.4888 -4.6882
# 4 5.8877 20.1055 2.4644 51.7877 5.4233 -17.1898
# 5 -20.6446 -14.0288 -30.4888 5.4233 46.7917 -5.5692
# 6 7.7169 2.3523 -4.6882 -17.1898 -5.5692 40.4148
#
#
#
# Elastic Compliance Matrix: (Units=1/GPa)
#
#
# Indices 1 2 3 4 5 6 
#
# 1 0.010407 -0.004032 -0.003450 -0.000258 0.000910 -0.002137
# 2 -0.004032 0.013999 0.001656 -0.006102 0.003978 -0.001900
# 3 -0.003450 0.001656 0.014955 -0.000865 0.009199 0.003197
# 4 -0.000258 -0.006102 -0.000865 0.025732 -0.004220 0.010667
# 5 0.000910 0.003978 0.009199 -0.004220 0.029803 0.002974
# 6 -0.002137 -0.001900 0.003197 0.010667 0.002974 0.030580
#
#
# Mechanical properties :
#
#
# Convention : Reuss Voigt Hill
#
# Bulk Modulus (GPa) = 36.09084 54.57154 45.33119
# Shear Modulus (GPa) = 34.16124 43.20308 38.68216
#
# Velocity S-wave (km/s) = 3.66958 4.12674 3.90485
# Velocity P-wave (km/s) = 5.67282 6.64965 6.18056
#
# Compressibility (1/GPa) = 0.02770786
#
# Stress axis : x y z
#
# Youngs Moduli (GPa) = 96.08840 71.43431 66.86739
#
# Poissons Ratio (x) = 0.28806 0.23072
# Poissons Ratio (y) = 0.38748 -0.11076
# Poissons Ratio (z) = 0.33155 -0.11833
#
# Static dielectric constant tensor:
#      x y z
#    x 1.976920 -0.010920 0.029710 
#    y -0.010920 2.045840 -0.025620 
#    z 0.029710 -0.025620 1.956950 
# 
# From -- ./inp_files/226036.got.cif
#   From: 2010.05.17/outbox.cif.g08.bks.cpg/sg2_114_cif.got.tgz:226036.got - 2010.06.03 11:33:40.
