data_PCOD9060032
_publ_section_title
;
Structure prediction by ZEFSAII (Michael W. Deem and Ramdas Pophale) SiO2 
 PCOD9060032
Probable space group: P -1
;
_chemical_formula_sum "Si O2"
_cell_formula_units_Z 12
_cell_length_a 13.104938
_cell_length_b 8.444679
_cell_length_c 9.554981
_cell_angle_alpha 64.179149
_cell_angle_beta 34.971639
_cell_angle_gamma 80.933160
_cell_volume 503.213730
_symmetry_space_group_name_H-M "P -1"
_symmetry_group_IT_number 2
_symmetry_cell_setting 'triclinic'
loop_
_space_group_symop_operation_xyz
x,y,z
-x,-y,-z
loop_
_atom_site_type_symbol
_atom_site_label
_atom_site_fract_x
_atom_site_fract_y
_atom_site_fract_z
Si Si1 0.432678 0.775784 0.763450
Si Si2 0.807803 0.524401 0.659836
Si Si3 0.462182 0.151064 0.697506
Si Si4 0.132592 0.304319 0.004983
Si Si5 0.214567 0.616365 0.556110
Si Si6 0.130967 0.072914 0.687878
O O1 0.427224 0.766021 0.605639
O O2 0.654426 0.876314 0.519161
O O3 0.352286 0.926667 0.865936
O O4 0.342263 0.568662 0.012249
O O5 0.722081 0.403076 0.663249
O O6 0.862240 0.739621 0.469973
O O7 0.000000 0.500000 0.500000
O O8 0.314038 0.252229 0.862198
O O9 0.623314 0.206097 0.615751
O O10 0.196238 0.435746 0.743914
O O11 0.006484 0.395291 0.200798
O O12 0.962369 0.102901 0.241442
O O13 0.000000 0.000000 0.000000
#
# Coordination Sequence:
#
# PCOD9060032 Si02
#       6
#     2   2   2   2   2   2
#     4  11  25  43  74 107 142 184 240 296 352 421
#     4  12  28  46  70 108 146 184 235 299 360 415
#     4  11  23  44  75 103 140 190 242 283 355 426
#     4  11  23  42  74 103 136 189 239 288 342 427
#     4  11  25  44  71 103 144 186 239 291 350 421
#     4  12  22  47  73 104 142 192 238 285 355 430
#
# _framework density 23.846724999999999
#
# number of rings (size 3 to 8) (size 9 to 14) (size 15 to 20)
#    0.000    0.667    5.000    2.000    7.000    0.667 
#    3.000    1.667    0.000    0.000    0.000    0.000 
#    0.000    0.000    0.000    0.000    0.000    0.000 
#
# Total GULP energy -67097.005040 kJ/mol
# GULP energy per Si atom -5591.417087 kJ/mol
# Density = 2.379245 g / cm^3
# Si number density = 23.846725 Si / 1000 Ang^3
#
#
#
# Elastic Constant Matrix: (Units=GPa)
#
#
# Indices 1 2 3 4 5 6 
#
# 1 50.1143 7.0895 1.6589 4.5029 -18.1057 5.2105
# 2 7.0895 56.3900 0.6053 -4.1559 -6.0192 -18.3572
# 3 1.6589 0.6053 80.8324 -15.7346 -8.1097 -10.5496
# 4 4.5029 -4.1559 -15.7346 31.5137 -14.0353 -8.9941
# 5 -18.1057 -6.0192 -8.1097 -14.0353 39.6923 1.2027
# 6 5.2105 -18.3572 -10.5496 -8.9941 1.2027 43.4633
#
#
#
# Elastic Compliance Matrix: (Units=1/GPa)
#
#
# Indices 1 2 3 4 5 6 
#
# 1 0.024929 -0.003742 -0.000278 -0.000951 0.010566 -0.005126
# 2 -0.003742 0.024917 0.005407 0.014266 0.007766 0.015022
# 3 -0.000278 0.005407 0.017963 0.017049 0.010091 0.009926
# 4 -0.000951 0.014266 0.017049 0.060012 0.025767 0.021983
# 5 0.010566 0.007766 0.010091 0.025767 0.042103 0.008630
# 6 -0.005126 0.015022 0.009926 0.021983 0.008630 0.036687
#
#
# Mechanical properties :
#
#
# Convention : Reuss Voigt Hill
#
# Bulk Modulus (GPa) = 14.16772 22.89377 18.53074
# Shear Modulus (GPa) = 21.99136 34.79940 28.39538
#
# Velocity S-wave (km/s) = 3.04006 3.82422 3.45446
# Velocity P-wave (km/s) = 4.27513 5.39636 4.86813
#
# Compressibility (1/GPa) = 0.07058299
#
# Stress axis : x y z
#
# Youngs Moduli (GPa) = 40.11438 40.13390 55.67017
#
# Poissons Ratio (x) = 0.15018 0.01545
# Poissons Ratio (y) = 0.15011 -0.30100
# Poissons Ratio (z) = 0.01113 -0.21700
#
# Static dielectric constant tensor:
#      x y z
#    x 1.872090 -0.026630 -0.000450 
#    y -0.026630 2.056410 0.009430 
#    z -0.000450 0.009430 1.905130 
# 
# From -- ./inp_files/157767.got.cif
#   From: 2010.05.17/outbox.cif.g08.bks.cpg/sg2_79_cif.got.tgz:157767.got - 2010.06.03 11:33:40.
