data_PCOD9060258
_publ_section_title
;
Structure prediction by ZEFSAII (Michael W. Deem and Ramdas Pophale) SiO2 
 PCOD9060258
Probable space group: P -1
;
_chemical_formula_sum "Si O2"
_cell_formula_units_Z 12
_cell_length_a 14.548858
_cell_length_b 7.721021
_cell_length_c 10.257375
_cell_angle_alpha 78.881035
_cell_angle_beta 109.366562
_cell_angle_gamma 151.847435
_cell_volume 499.899114
_symmetry_space_group_name_H-M "P -1"
_symmetry_group_IT_number 2
_symmetry_cell_setting 'triclinic'
loop_
_space_group_symop_operation_xyz
x,y,z
-x,-y,-z
loop_
_atom_site_type_symbol
_atom_site_label
_atom_site_fract_x
_atom_site_fract_y
_atom_site_fract_z
Si Si1 0.104014 0.589796 0.668037
Si Si2 0.625549 0.324905 0.255429
Si Si3 0.103107 0.898166 0.800269
Si Si4 0.651167 0.828303 0.914789
Si Si5 0.324255 0.269391 0.343518
Si Si6 0.194852 0.375958 0.440653
O O1 0.275643 0.708992 0.720097
O O2 0.194233 0.891909 0.751537
O O3 0.000000 0.500000 0.500000
O O4 0.897822 0.182345 0.693924
O O5 0.410530 0.063640 0.140189
O O6 0.624619 0.329322 0.411344
O O7 0.786088 0.733346 0.218122
O O8 0.882092 0.572313 0.673690
O O9 0.127726 0.870410 0.962491
O O10 0.609191 0.667797 0.780596
O O11 0.500000 0.500000 0.000000
O O12 0.500000 0.500000 0.500000
O O13 0.259775 0.357092 0.354582
O O14 0.000000 0.000000 0.500000
#
# Coordination Sequence:
#
# PCOD9060258 Si02
#       6
#     2   2   2   2   2   2
#     4  12  23  39  74 100 129 180 227 273 335 397
#     4  10  19  42  67  96 136 177 217 274 331 399
#     4  10  21  39  66  96 134 173 221 267 341 385
#     4  10  24  42  67  99 141 177 215 282 340 388
#     4  12  24  40  72 101 131 180 230 269 334 407
#     4  10  17  38  66  92 130 168 219 270 317 394
#
# _framework density 24.004842
#
# number of rings (size 3 to 8) (size 9 to 14) (size 15 to 20)
#    0.000    1.333    6.667    1.000    2.333    2.000 
#    0.000    3.333    0.000    0.000    0.000    0.000 
#    0.000    0.000    0.000    0.000    0.000    0.000 
#
# Total GULP energy -66846.298822 kJ/mol
# GULP energy per Si atom -5570.524902 kJ/mol
# Density = 2.395021 g / cm^3
# Si number density = 24.004842 Si / 1000 Ang^3
#
#
#
# Elastic Constant Matrix: (Units=GPa)
#
#
# Indices 1 2 3 4 5 6 
#
# 1 208.9547 13.8132 86.4593 -1.9786 9.9355 -17.2844
# 2 13.8132 43.2434 10.5250 -5.8007 0.7310 13.5659
# 3 86.4593 10.5250 193.9350 15.3533 21.8324 11.5473
# 4 -1.9786 -5.8007 15.3533 26.3402 10.4000 -1.1583
# 5 9.9355 0.7310 21.8324 10.4000 60.3060 3.9007
# 6 -17.2844 13.5659 11.5473 -1.1583 3.9007 25.8099
#
#
#
# Elastic Compliance Matrix: (Units=1/GPa)
#
#
# Indices 1 2 3 4 5 6 
#
# 1 0.007381 -0.003879 -0.003720 0.002593 -0.000845 0.008890
# 2 -0.003879 0.030803 0.000744 0.005089 0.000344 -0.018945
# 3 -0.003720 0.000744 0.007614 -0.004447 -0.000976 -0.006341
# 4 0.002593 0.005089 -0.004447 0.044762 -0.006863 0.004097
# 5 -0.000845 0.000344 -0.000976 -0.006863 0.018474 -0.003410
# 6 0.008890 -0.018945 -0.006341 0.004097 -0.003410 0.058192
#
#
# Mechanical properties :
#
#
# Convention : Reuss Voigt Hill
#
# Bulk Modulus (GPa) = 31.16409 74.19203 52.67806
# Shear Modulus (GPa) = 26.09147 44.84692 35.46920
#
# Velocity S-wave (km/s) = 3.30043 4.32701 3.84811
# Velocity P-wave (km/s) = 5.24732 7.47919 6.46036
#
# Compressibility (1/GPa) = 0.03208822
#
# Stress axis : x y z
#
# Youngs Moduli (GPa) = 135.47530 32.46423 131.34183
#
# Poissons Ratio (x) = 0.12594 0.48856
# Poissons Ratio (y) = 0.52557 -0.09774
# Poissons Ratio (z) = 0.50393 -0.02416
#
# Static dielectric constant tensor:
#      x y z
#    x 2.752340 0.506750 -0.445140 
#    y 0.506750 2.427240 -0.219950 
#    z -0.445140 -0.219950 2.285100 
# 
# From -- ./inp_files/295280.got.cif
#   From: 2010.05.17/outbox.cif.g08.bks.cpg/sg2_148_cif.got.tgz:295280.got - 2010.06.03 11:33:40.
