data_PCOD9060705
_publ_section_title
;
Structure prediction by ZEFSAII (Michael W. Deem and Ramdas Pophale) SiO2 
 PCOD9060705
Probable space group: P -1
;
_chemical_formula_sum "Si O2"
_cell_formula_units_Z 14
_cell_length_a 5.242130
_cell_length_b 9.164943
_cell_length_c 17.173854
_cell_angle_alpha 130.410752
_cell_angle_beta 113.420339
_cell_angle_gamma 75.093557
_cell_volume 576.484264
_symmetry_space_group_name_H-M "P -1"
_symmetry_group_IT_number 2
_symmetry_cell_setting 'triclinic'
loop_
_space_group_symop_operation_xyz
x,y,z
-x,-y,-z
loop_
_atom_site_type_symbol
_atom_site_label
_atom_site_fract_x
_atom_site_fract_y
_atom_site_fract_z
Si Si1 0.669859 0.967223 0.089446
Si Si2 0.165917 0.572101 0.160410
Si Si3 0.582478 0.051660 0.440959
Si Si4 0.640898 0.399901 0.254078
Si Si5 0.305266 0.412564 0.511338
Si Si6 0.233425 0.732150 0.055965
Si Si7 0.029999 0.273331 0.658461
O O1 0.490269 0.830021 0.076958
O O2 0.971589 0.878298 0.078408
O O3 0.698631 0.179889 0.202584
O O4 0.500000 0.000000 0.000000
O O5 0.382801 0.424301 0.173177
O O6 0.276018 0.661566 0.124926
O O7 0.112449 0.725586 0.274690
O O8 0.884308 0.455300 0.067556
O O9 0.338080 0.184236 0.424955
O O10 0.849658 0.190318 0.536375
O O11 0.500000 0.000000 0.500000
O O12 0.701556 0.863548 0.350428
O O13 0.588934 0.523408 0.368281
O O14 0.888909 0.510729 0.278946
O O15 0.500000 0.500000 0.500000
O O16 0.000000 0.500000 0.500000
#
# Coordination Sequence:
#
# PCOD9060705 Si02
#       7
#     2   2   2   2   2   2   2
#     4  12  26  49  75 110 153 198 246 301 379 449
#     4  11  25  46  78 105 151 192 254 309 369 445
#     4  11  23  46  75 102 142 196 254 311 366 451
#     4  12  26  47  75 103 146 207 242 303 382 448
#     4  12  28  49  70 108 151 190 245 311 374 439
#     4  11  28  47  74 116 149 194 248 316 362 441
#     4  11  23  43  78 106 140 196 262 295 382 437
#
# _framework density 24.285139000000001
#
# number of rings (size 3 to 8) (size 9 to 14) (size 15 to 20)
#    0.000    0.571    4.286    2.143    6.000    2.286 
#    5.143    0.000    0.000    0.000    0.000    0.000 
#    0.000    0.000    0.000    0.000    0.000    0.000 
#
# Total GULP energy -78441.423032 kJ/mol
# GULP energy per Si atom -5602.958788 kJ/mol
# Density = 2.422986 g / cm^3
# Si number density = 24.285139 Si / 1000 Ang^3
#
#
#
# Elastic Constant Matrix: (Units=GPa)
#
#
# Indices 1 2 3 4 5 6 
#
# 1 109.7148 36.6403 2.2593 2.4492 -5.4266 0.2218
# 2 36.6403 125.4678 11.4448 5.5451 -6.0700 -5.6339
# 3 2.2593 11.4448 73.0245 -3.9018 4.7094 5.7556
# 4 2.4492 5.5451 -3.9018 41.9751 5.0792 -3.9429
# 5 -5.4266 -6.0700 4.7094 5.0792 35.9377 4.2870
# 6 0.2218 -5.6339 5.7556 -3.9429 4.2870 57.8966
#
#
#
# Elastic Compliance Matrix: (Units=1/GPa)
#
#
# Indices 1 2 3 4 5 6 
#
# 1 0.010154 -0.002921 0.000085 -0.000377 0.001135 -0.000441
# 2 -0.002921 0.009128 -0.001565 -0.001267 0.001381 0.000866
# 3 0.000085 -0.001565 0.014270 0.001673 -0.002204 -0.001294
# 4 -0.000377 -0.001267 0.001673 0.024838 -0.004205 0.001715
# 5 0.001135 0.001381 -0.002204 -0.004205 0.029366 -0.002112
# 6 -0.000441 0.000866 -0.001294 0.001715 -0.002112 0.017760
#
#
# Mechanical properties :
#
#
# Convention : Reuss Voigt Hill
#
# Bulk Modulus (GPa) = 40.40543 45.43287 42.91915
# Shear Modulus (GPa) = 40.79360 44.35272 42.57316
#
# Velocity S-wave (km/s) = 4.10295 4.27820 4.19149
# Velocity P-wave (km/s) = 6.25457 6.56907 6.41375
#
# Compressibility (1/GPa) = 0.02474915
#
# Stress axis : x y z
#
# Youngs Moduli (GPa) = 98.48536 109.55611 70.07590
#
# Poissons Ratio (x) = 0.32004 -0.00597
# Poissons Ratio (y) = 0.28770 0.10968
# Poissons Ratio (z) = -0.00838 0.17148
#
# Static dielectric constant tensor:
#      x y z
#    x 1.912880 -0.023520 0.074690 
#    y -0.023520 1.936490 0.017040 
#    z 0.074690 0.017040 1.984240 
# 
# From -- ./inp_files/131602.got.cif
#   From: 2010.05.17/outbox.cif.g08.bks.cpg/sg2_66_cif.got.tgz:131602.got - 2010.06.03 11:33:40.
