data_PCOD9060822
_publ_section_title
;
Structure prediction by ZEFSAII (Michael W. Deem and Ramdas Pophale) SiO2 
 PCOD9060822
Probable space group: P -1
;
_chemical_formula_sum "Si O2"
_cell_formula_units_Z 14
_cell_length_a 6.740611
_cell_length_b 17.847295
_cell_length_c 10.153024
_cell_angle_alpha 44.509609
_cell_angle_beta 114.627926
_cell_angle_gamma 134.012085
_cell_volume 608.250752
_symmetry_space_group_name_H-M "P -1"
_symmetry_group_IT_number 2
_symmetry_cell_setting 'triclinic'
loop_
_space_group_symop_operation_xyz
x,y,z
-x,-y,-z
loop_
_atom_site_type_symbol
_atom_site_label
_atom_site_fract_x
_atom_site_fract_y
_atom_site_fract_z
Si Si1 0.247885 0.199943 0.716334
Si Si2 0.855461 0.441486 0.676990
Si Si3 0.069306 0.349903 0.367216
Si Si4 0.820475 0.067346 0.994223
Si Si5 0.829419 0.595330 0.961488
Si Si6 0.544921 0.908757 0.535426
Si Si7 0.952688 0.852960 0.784654
O O1 0.547937 0.297079 0.749345
O O2 0.240900 0.291452 0.492606
O O3 0.180389 0.060792 0.822831
O O4 0.988508 0.143218 0.813605
O O5 0.836609 0.550125 0.608981
O O6 0.000000 0.500000 0.500000
O O7 0.030547 0.426825 0.852179
O O8 0.107365 0.420303 0.150298
O O9 0.744146 0.219552 0.443165
O O10 0.991782 0.176369 0.019806
O O11 0.500000 0.000000 0.000000
O O12 0.922282 0.746705 0.809944
O O13 0.500000 0.500000 0.000000
O O14 0.695293 0.855945 0.716794
O O15 0.500000 0.000000 0.500000
O O16 0.766202 0.002819 0.364965
#
# Coordination Sequence:
#
# PCOD9060822 Si02
#       7
#     2   2   2   2   2   2   2
#     4  11  27  46  73 107 145 187 244 291 365 427
#     4  12  29  48  75 103 145 194 244 300 361 429
#     4  12  26  47  75 103 146 189 239 299 356 429
#     4  11  25  45  73 105 146 189 235 297 358 431
#     4  12  27  47  72 107 146 188 244 296 361 428
#     4  11  23  44  68 108 142 183 232 292 357 418
#     4  11  25  40  74 102 142 184 237 292 353 425
#
# _framework density 23.016822000000001
#
# number of rings (size 3 to 8) (size 9 to 14) (size 15 to 20)
#    0.000    0.571    1.429    5.143   12.000    2.286 
#    0.000    0.000    0.000    0.000    0.000    0.000 
#    0.000    0.000    0.000    0.000    0.000    0.000 
#
# Total GULP energy -78311.426059 kJ/mol
# GULP energy per Si atom -5593.673290 kJ/mol
# Density = 2.296443 g / cm^3
# Si number density = 23.016822 Si / 1000 Ang^3
#
#
#
# Elastic Constant Matrix: (Units=GPa)
#
#
# Indices 1 2 3 4 5 6 
#
# 1 83.1329 19.9196 27.9390 18.5700 -9.2024 -0.8817
# 2 19.9196 86.1103 13.4553 8.8541 -21.1493 5.1470
# 3 27.9390 13.4553 95.5102 25.4209 0.0943 -1.3070
# 4 18.5700 8.8541 25.4209 43.5971 4.4037 -0.4906
# 5 -9.2024 -21.1493 0.0943 4.4037 31.1260 4.3891
# 6 -0.8817 5.1470 -1.3070 -0.4906 4.3891 55.3960
#
#
#
# Elastic Compliance Matrix: (Units=1/GPa)
#
#
# Indices 1 2 3 4 5 6 
#
# 1 0.014868 -0.001498 -0.002875 -0.004764 0.004069 -0.000057
# 2 -0.001498 0.015159 -0.000945 -0.002988 0.010610 -0.002322
# 3 -0.002875 -0.000945 0.013083 -0.006136 -0.000713 0.000353
# 4 -0.004764 -0.002988 -0.006136 0.029949 -0.007790 0.000939
# 5 0.004069 0.010610 -0.000713 -0.007790 0.042258 -0.004355
# 6 -0.000057 -0.002322 0.000353 0.000939 -0.004355 0.018628
#
#
# Mechanical properties :
#
#
# Convention : Reuss Voigt Hill
#
# Bulk Modulus (GPa) = 30.79229 43.04236 36.91732
# Shear Modulus (GPa) = 32.17410 39.58646 35.88028
#
# Velocity S-wave (km/s) = 3.74284 4.15166 3.95254
# Velocity P-wave (km/s) = 5.66442 6.45931 6.07488
#
# Compressibility (1/GPa) = 0.03247566
#
# Stress axis : x y z
#
# Youngs Moduli (GPa) = 67.25864 65.96740 76.43585
#
# Poissons Ratio (x) = 0.09879 0.21976
# Poissons Ratio (y) = 0.10072 0.07219
# Poissons Ratio (z) = 0.19337 0.06231
#
# Static dielectric constant tensor:
#      x y z
#    x 2.007590 0.085950 -0.126810 
#    y 0.085950 1.990210 -0.135110 
#    z -0.126810 -0.135110 2.096870 
# 
# From -- ./inp_files/369300.got.cif
#   From: 2010.05.17/outbox.cif.g08.bks.cpg/sg2_185_cif.got.tgz:369300.got - 2010.06.03 11:33:40.
