data_PCOD9060299
_publ_section_title
;
Structure prediction by ZEFSAII (Michael W. Deem and Ramdas Pophale) SiO2 
 PCOD9060299
Probable space group: P -1
;
_chemical_formula_sum "Si O2"
_cell_formula_units_Z 14
_cell_length_a 11.839927
_cell_length_b 8.878115
_cell_length_c 5.683583
_cell_angle_alpha 80.363047
_cell_angle_beta 93.172868
_cell_angle_gamma 103.837963
_cell_volume 571.837533
_symmetry_space_group_name_H-M "P -1"
_symmetry_group_IT_number 2
_symmetry_cell_setting 'triclinic'
loop_
_space_group_symop_operation_xyz
x,y,z
-x,-y,-z
loop_
_atom_site_type_symbol
_atom_site_label
_atom_site_fract_x
_atom_site_fract_y
_atom_site_fract_z
Si Si1 0.568117 0.157175 0.202066
Si Si2 0.069278 0.871550 0.103226
Si Si3 0.907482 0.539790 0.159555
Si Si4 0.725016 0.947018 0.151637
Si Si5 0.788188 0.274395 0.531452
Si Si6 0.666704 0.795705 0.681800
Si Si7 0.676047 0.452765 0.866908
O O1 0.676339 0.209525 0.378921
O O2 0.448949 0.136540 0.334139
O O3 0.607966 0.013582 0.116651
O O4 0.576823 0.312210 0.999222
O O5 0.153825 0.862460 0.334002
O O6 0.967932 0.717647 0.173550
O O7 0.165455 0.901233 0.896819
O O8 0.000000 0.000000 0.000000
O O9 0.886447 0.408493 0.389663
O O10 0.778553 0.520727 0.046469
O O11 0.000000 0.500000 0.000000
O O12 0.726042 0.853939 0.420959
O O13 0.725812 0.850804 0.931178
O O14 0.740808 0.363589 0.713901
O O15 0.638271 0.605192 0.724650
#
# Coordination Sequence:
#
# PCOD9060299 Si02
#       7
#     2   2   2   2   2   2   2
#     4  11  25  48  76 103 145 192 242 301 374 430
#     4  12  25  44  73 104 143 189 244 301 366 428
#     4  11  23  43  69 103 138 197 242 297 372 428
#     4  12  27  50  69 111 150 191 248 301 362 444
#     4  11  24  45  74 104 144 192 243 304 366 443
#     4  12  29  46  77 109 148 197 243 305 364 430
#     4  11  25  45  73 105 147 183 253 299 356 449
#
# _framework density 24.482479000000001
#
# number of rings (size 3 to 8) (size 9 to 14) (size 15 to 20)
#    0.000    0.571    2.857    4.286    8.000    0.571 
#    0.000    4.286    0.000    0.000    0.000    0.000 
#    0.000    0.000    0.000    0.000    0.000    0.000 
#
# Total GULP energy -78213.757621 kJ/mol
# GULP energy per Si atom -5586.696973 kJ/mol
# Density = 2.442676 g / cm^3
# Si number density = 24.482479 Si / 1000 Ang^3
#
#
#
# Elastic Constant Matrix: (Units=GPa)
#
#
# Indices 1 2 3 4 5 6 
#
# 1 69.9652 -1.9082 22.5484 -4.7845 -8.2948 -15.4627
# 2 -1.9082 93.4986 48.6381 -26.1546 12.5644 -13.4044
# 3 22.5484 48.6381 150.5223 -30.7294 -12.3617 2.9141
# 4 -4.7845 -26.1546 -30.7294 38.4521 9.8508 8.1261
# 5 -8.2948 12.5644 -12.3617 9.8508 34.6429 -19.2020
# 6 -15.4627 -13.4044 2.9141 8.1261 -19.2020 37.0779
#
#
#
# Elastic Compliance Matrix: (Units=1/GPa)
#
#
# Indices 1 2 3 4 5 6 
#
# 1 0.021726 0.000789 -0.004328 -0.009051 0.017412 0.020687
# 2 0.000789 0.017810 -0.004329 0.012391 -0.012489 -0.002076
# 3 -0.004328 -0.004329 0.009945 0.005940 -0.000882 -0.005910
# 4 -0.009051 0.012391 0.005940 0.054009 -0.036929 -0.030723
# 5 0.017412 -0.012489 -0.000882 -0.036929 0.075458 0.049987
# 6 0.020687 -0.002076 -0.005910 -0.030723 0.049987 0.067932
#
#
# Mechanical properties :
#
#
# Convention : Reuss Voigt Hill
#
# Bulk Modulus (GPa) = 29.63328 50.28252 39.95790
# Shear Modulus (GPa) = 18.25714 38.34843 28.30278
#
# Velocity S-wave (km/s) = 2.73375 3.96202 3.40375
# Velocity P-wave (km/s) = 4.70050 6.44305 5.63949
#
# Compressibility (1/GPa) = 0.03374585
#
# Stress axis : x y z
#
# Youngs Moduli (GPa) = 46.02697 56.14706 100.54995
#
# Poissons Ratio (x) = -0.04429 0.43517
# Poissons Ratio (y) = -0.03631 0.43528
# Poissons Ratio (z) = 0.19920 0.24306
#
# Static dielectric constant tensor:
#      x y z
#    x 1.936700 0.035320 0.039050 
#    y 0.035320 1.827350 0.111450 
#    z 0.039050 0.111450 1.971790 
# 
# From -- ./inp_files/27893.got.cif
#   From: 2010.05.17/outbox.cif.g08.bks.cpg/sg2_14_cif.got.tgz:27893.got - 2010.06.03 11:33:40.
