data_PCOD9060023
_publ_section_title
;
Structure prediction by ZEFSAII (Michael W. Deem and Ramdas Pophale) SiO2 
 PCOD9060023
Probable space group: P -1
;
_chemical_formula_sum "Si O2"
_cell_formula_units_Z 15
_cell_length_a 14.671547
_cell_length_b 10.864320
_cell_length_c 17.628125
_cell_angle_alpha 152.032173
_cell_angle_beta 151.030290
_cell_angle_gamma 48.009569
_cell_volume 567.865715
_symmetry_space_group_name_H-M "P -1"
_symmetry_group_IT_number 2
_symmetry_cell_setting 'triclinic'
loop_
_space_group_symop_operation_xyz
x,y,z
-x,-y,-z
loop_
_atom_site_type_symbol
_atom_site_label
_atom_site_fract_x
_atom_site_fract_y
_atom_site_fract_z
Si Si1 0.464223 0.962827 0.800505
Si Si2 0.912806 0.053535 0.226411
Si Si3 0.144440 0.257414 0.360501
Si Si4 0.198397 0.312847 0.265286
Si Si5 0.491960 0.002632 0.676231
Si Si6 0.423949 0.675654 0.236631
Si Si7 0.866307 0.933492 0.290953
Si Si8 0.000000 0.500000 0.000000
O O1 0.324493 0.624509 0.488299
O O2 0.505899 0.123763 0.837765
O O3 0.338469 0.048573 0.817063
O O4 0.671999 0.983113 0.001440
O O5 0.966190 0.121125 0.390962
O O6 0.937235 0.758497 0.071292
O O7 0.036426 0.274169 0.368542
O O8 0.139954 0.390582 0.348075
O O9 0.385212 0.378973 0.624378
O O10 0.014601 0.912143 0.053533
O O11 0.350565 0.153328 0.296854
O O12 0.252977 0.770364 0.351984
O O13 0.577485 0.273525 0.826216
O O14 0.500000 0.000000 0.500000
O O15 0.208677 0.415500 0.971324
O O16 0.000000 0.000000 0.500000
#
# Coordination Sequence:
#
# PCOD9060023 Si02
#       8
#     2   2   2   2   2   2   2   1
#     4  12  26  48  72 105 155 203 247 305 379 458
#     4  12  24  46  73 109 147 203 247 312 373 455
#     4  11  24  41  74 110 143 187 253 310 372 432
#     4  11  23  42  73 114 149 192 248 313 376 442
#     4  12  23  41  75 112 152 195 253 312 369 447
#     4  12  26  47  76 109 147 193 255 316 368 446
#     4  12  31  52  74 108 154 205 247 310 389 453
#     4  12  22  38  76 114 146 192 252 306 376 438
#
# _framework density 26.414695999999999
#
# number of rings (size 3 to 8) (size 9 to 14) (size 15 to 20)
#    0.000    0.267    5.333    4.000    1.867    0.533 
#    0.000    1.333    0.000    0.000    0.000    0.000 
#    0.000    0.000    0.000    0.000    0.000    0.000 
#
# Total GULP energy -83738.214189 kJ/mol
# GULP energy per Si atom -5582.547613 kJ/mol
# Density = 2.635457 g / cm^3
# Si number density = 26.414696 Si / 1000 Ang^3
#
#
#
# Elastic Constant Matrix: (Units=GPa)
#
#
# Indices 1 2 3 4 5 6 
#
# 1 156.8463 28.7456 3.1397 -8.3649 -24.1697 49.3316
# 2 28.7456 50.4297 28.9132 -18.9101 -14.2303 3.8543
# 3 3.1397 28.9132 95.4284 -9.5716 4.1919 1.7007
# 4 -8.3649 -18.9101 -9.5716 26.9418 -3.5508 -3.3669
# 5 -24.1697 -14.2303 4.1919 -3.5508 34.7200 -7.1777
# 6 49.3316 3.8543 1.7007 -3.3669 -7.1777 56.0651
#
#
#
# Elastic Compliance Matrix: (Units=1/GPa)
#
#
# Indices 1 2 3 4 5 6 
#
# 1 0.010461 -0.005477 0.001252 -0.000817 0.003040 -0.008526
# 2 -0.005477 0.046742 -0.011976 0.030469 0.021255 0.006520
# 3 0.001252 -0.011976 0.013969 -0.004136 -0.006515 -0.001784
# 4 -0.000817 0.030469 -0.004136 0.059964 0.019555 0.004854
# 5 0.003040 0.021255 -0.006515 0.019555 0.042982 0.002739
# 6 -0.008526 0.006520 -0.001784 0.004854 0.002739 0.025586
#
#
# Mechanical properties :
#
#
# Convention : Reuss Voigt Hill
#
# Bulk Modulus (GPa) = 25.79294 47.14458 36.46876
# Shear Modulus (GPa) = 20.40560 39.67245 30.03903
#
# Velocity S-wave (km/s) = 2.78242 3.87965 3.37591
# Velocity P-wave (km/s) = 4.48423 6.16081 5.38813
#
# Compressibility (1/GPa) = 0.03877030
#
# Stress axis : x y z
#
# Youngs Moduli (GPa) = 95.59387 21.39388 71.58458
#
# Poissons Ratio (x) = 0.11718 -0.08961
# Poissons Ratio (y) = 0.52361 0.85728
# Poissons Ratio (z) = -0.11967 0.25621
#
# Static dielectric constant tensor:
#      x y z
#    x 2.209990 -0.106990 -0.083720 
#    y -0.106990 2.154050 0.109510 
#    z -0.083720 0.109510 2.093610 
# 
# From -- ./inp_files/573656.got.cif
#   From: 2010.05.17/outbox.cif.g08.bks.cpg/sg2_287_cif.got.tgz:573656.got - 2010.06.03 11:33:40.
