data_PCOD9060369
_publ_section_title
;
Structure prediction by ZEFSAII (Michael W. Deem and Ramdas Pophale) SiO2 
 PCOD9060369
Probable space group: P -1
;
_chemical_formula_sum "Si O2"
_cell_formula_units_Z 14
_cell_length_a 10.230060
_cell_length_b 22.192826
_cell_length_c 9.187758
_cell_angle_alpha 45.907125
_cell_angle_beta 128.307567
_cell_angle_gamma 155.084150
_cell_volume 630.717176
_symmetry_space_group_name_H-M "P -1"
_symmetry_group_IT_number 2
_symmetry_cell_setting 'triclinic'
loop_
_space_group_symop_operation_xyz
x,y,z
-x,-y,-z
loop_
_atom_site_type_symbol
_atom_site_label
_atom_site_fract_x
_atom_site_fract_y
_atom_site_fract_z
Si Si1 0.395231 0.915366 0.919420
Si Si2 0.710303 0.341692 0.415726
Si Si3 0.331001 0.099063 0.052580
Si Si4 0.228658 0.358416 0.439492
Si Si5 0.231558 0.439679 0.991182
Si Si6 0.445840 0.876458 0.529547
Si Si7 0.422531 0.658408 0.370499
O O1 0.659675 0.966363 0.956306
O O2 0.084997 0.727841 0.020599
O O3 0.355127 0.970991 0.677602
O O4 0.500000 0.000000 0.000000
O O5 0.571414 0.214566 0.426023
O O6 0.538954 0.273466 0.567714
O O7 0.076445 0.474031 0.460164
O O8 0.710397 0.437292 0.198279
O O9 0.427554 0.095713 0.273210
O O10 0.562923 0.271956 0.872204
O O11 0.000000 0.000000 0.000000
O O12 0.500000 0.500000 0.500000
O O13 0.221653 0.413523 0.198817
O O14 0.324525 0.306175 0.539444
O O15 0.896485 0.229376 0.503777
O O16 0.500000 0.500000 0.000000
#
# Coordination Sequence:
#
# PCOD9060369 Si02
#       7
#     2   2   2   2   2   2   2
#     4  12  28  50  75 105 152 198 247 303 373 442
#     4  11  24  45  74 101 145 184 241 298 363 437
#     4  12  27  47  72 102 149 192 247 305 367 432
#     4  12  25  42  76 107 150 186 249 303 377 432
#     4  12  27  48  75 109 149 195 248 303 369 447
#     4  12  27  47  74 108 147 191 247 309 369 435
#     4  11  23  43  70 102 140 185 236 292 363 430
#
# _framework density 22.196954000000002
#
# number of rings (size 3 to 8) (size 9 to 14) (size 15 to 20)
#    0.000    0.286    5.714    2.143    8.000    2.286 
#    0.000    2.143    0.000    0.000    0.000    0.000 
#    0.000    0.000    0.000    0.000    0.000    0.000 
#
# Total GULP energy -78404.126811 kJ/mol
# GULP energy per Si atom -5600.294772 kJ/mol
# Density = 2.214643 g / cm^3
# Si number density = 22.196954 Si / 1000 Ang^3
#
#
#
# Elastic Constant Matrix: (Units=GPa)
#
#
# Indices 1 2 3 4 5 6 
#
# 1 176.4632 53.8194 27.0344 3.5482 11.4118 -2.9592
# 2 53.8194 70.9047 10.0869 8.7603 2.5171 1.3588
# 3 27.0344 10.0869 128.3131 -3.3052 11.9304 -6.7894
# 4 3.5482 8.7603 -3.3052 33.8838 -4.6363 -0.2749
# 5 11.4118 2.5171 11.9304 -4.6363 38.0441 6.9342
# 6 -2.9592 1.3588 -6.7894 -0.2749 6.9342 36.8145
#
#
#
# Elastic Compliance Matrix: (Units=1/GPa)
#
#
# Indices 1 2 3 4 5 6 
#
# 1 0.007669 -0.005686 -0.000944 0.000341 -0.001767 0.000988
# 2 -0.005686 0.019043 -0.000512 -0.004345 0.000322 -0.001347
# 3 -0.000944 -0.000512 0.008397 0.000712 -0.002591 0.001985
# 4 0.000341 -0.004345 0.000712 0.031187 0.003792 -0.000162
# 5 -0.001767 0.000322 -0.002591 0.003792 0.029181 -0.006100
# 6 0.000988 -0.001347 0.001985 -0.000162 -0.006100 0.028806
#
#
# Mechanical properties :
#
#
# Convention : Reuss Voigt Hill
#
# Bulk Modulus (GPa) = 48.01579 61.95138 54.98358
# Shear Modulus (GPa) = 34.36231 40.73116 37.54674
#
# Velocity S-wave (km/s) = 3.93881 4.28832 4.11728
# Velocity P-wave (km/s) = 6.50879 7.24500 6.88674
#
# Compressibility (1/GPa) = 0.02082648
#
# Stress axis : x y z
#
# Youngs Moduli (GPa) = 130.38727 52.51262 119.09267
#
# Poissons Ratio (x) = 0.29856 0.11238
# Poissons Ratio (y) = 0.74132 0.06101
# Poissons Ratio (z) = 0.12303 0.02690
#
# Static dielectric constant tensor:
#      x y z
#    x 1.795460 0.008450 -0.004120 
#    y 0.008450 1.810690 -0.019680 
#    z -0.004120 -0.019680 1.840410 
# 
# From -- ./inp_files/223275.got.cif
#   From: 2010.05.17/outbox.cif.g08.bks.cpg/sg2_112_cif.got.tgz:223275.got - 2010.06.03 11:33:40.
