data_PCOD9060449
_publ_section_title
;
Structure prediction by ZEFSAII (Michael W. Deem and Ramdas Pophale) SiO2 
 PCOD9060449
Probable space group: P -1
;
_chemical_formula_sum "Si O2"
_cell_formula_units_Z 12
_cell_length_a 12.219011
_cell_length_b 15.517380
_cell_length_c 9.037056
_cell_angle_alpha 141.499243
_cell_angle_beta 128.761390
_cell_angle_gamma 26.755210
_cell_volume 463.747098
_symmetry_space_group_name_H-M "P -1"
_symmetry_group_IT_number 2
_symmetry_cell_setting 'triclinic'
loop_
_space_group_symop_operation_xyz
x,y,z
-x,-y,-z
loop_
_atom_site_type_symbol
_atom_site_label
_atom_site_fract_x
_atom_site_fract_y
_atom_site_fract_z
Si Si1 0.111376 0.319804 0.178884
Si Si2 0.988058 0.186487 0.100007
Si Si3 0.605774 0.069400 0.359007
Si Si4 0.747449 0.251115 0.713916
Si Si5 0.539334 0.606992 0.772848
Si Si6 0.000293 0.313961 0.579997
O O1 0.964339 0.352215 0.218152
O O2 0.359020 0.181843 0.278082
O O3 0.972472 0.559726 0.304268
O O4 0.207494 0.134759 0.887129
O O5 0.945584 0.244238 0.314491
O O6 0.823927 0.218368 0.903538
O O7 0.279376 0.901521 0.950356
O O8 0.569754 0.262748 0.570261
O O9 0.751854 0.924562 0.439641
O O10 0.630525 0.477840 0.835911
O O11 0.000000 0.000000 0.500000
O O12 0.500000 0.500000 0.500000
O O13 0.761057 0.511330 0.752525
#
# Coordination Sequence:
#
# PCOD9060449 Si02
#       6
#     2   2   2   2   2   2
#     4  11  23  44  69  97 140 181 224 279 338 400
#     4  12  27  45  69 105 138 176 229 282 336 405
#     4  11  23  43  71 102 133 180 232 274 339 408
#     4  12  22  45  71 100 139 179 224 280 344 401
#     4  12  23  43  70  96 138 180 218 278 340 396
#     4  12  26  43  71 103 135 180 231 277 337 404
#
# _framework density 25.876173999999999
#
# number of rings (size 3 to 8) (size 9 to 14) (size 15 to 20)
#    0.000    0.333    5.000    4.000    0.000    6.000 
#    0.000    2.500    0.000    0.000    0.000    0.000 
#    0.000    0.000    0.000    0.000    0.000    0.000 
#
# Total GULP energy -67427.927135 kJ/mol
# GULP energy per Si atom -5618.993928 kJ/mol
# Density = 2.581728 g / cm^3
# Si number density = 25.876174 Si / 1000 Ang^3
#
#
#
# Elastic Constant Matrix: (Units=GPa)
#
#
# Indices 1 2 3 4 5 6 
#
# 1 99.3540 28.2353 28.9446 -6.1486 10.9875 13.6023
# 2 28.2353 125.1218 40.2053 -20.7831 -3.1369 38.7888
# 3 28.9446 40.2053 130.4386 -21.7865 -13.5477 13.0382
# 4 -6.1486 -20.7831 -21.7865 52.7774 0.6851 4.7189
# 5 10.9875 -3.1369 -13.5477 0.6851 39.4009 -3.6660
# 6 13.6023 38.7888 13.0382 4.7189 -3.6660 39.5296
#
#
#
# Elastic Compliance Matrix: (Units=1/GPa)
#
#
# Indices 1 2 3 4 5 6 
#
# 1 0.011992 -0.001190 -0.002473 0.000197 -0.004533 -0.002587
# 2 -0.001190 0.013953 -0.001773 0.005833 -0.000519 -0.013442
# 3 -0.002473 -0.001773 0.009724 0.003035 0.003781 -0.000628
# 4 0.000197 0.005833 0.003035 0.023374 0.000156 -0.009568
# 5 -0.004533 -0.000519 0.003781 0.000156 0.028219 0.003420
# 6 -0.002587 -0.013442 -0.000628 -0.009568 0.003420 0.041044
#
#
# Mechanical properties :
#
#
# Convention : Reuss Voigt Hill
#
# Bulk Modulus (GPa) = 40.32880 61.07610 50.70245
# Shear Modulus (GPa) = 33.91111 43.51018 38.71065
#
# Velocity S-wave (km/s) = 3.62403 4.10503 3.87201
# Velocity P-wave (km/s) = 5.75592 6.79138 6.29498
#
# Compressibility (1/GPa) = 0.02479617
#
# Stress axis : x y z
#
# Youngs Moduli (GPa) = 83.39229 71.66665 102.83676
#
# Poissons Ratio (x) = 0.08530 0.25436
# Poissons Ratio (y) = 0.09926 0.18231
# Poissons Ratio (z) = 0.20626 0.12705
#
# Static dielectric constant tensor:
#      x y z
#    x 2.007090 -0.011940 -0.025350 
#    y -0.011940 1.990940 0.012960 
#    z -0.025350 0.012960 2.030360 
# 
# From -- ./inp_files/269334.got.cif
#   From: 2010.05.17/outbox.cif.g08.bks.cpg/sg2_135_cif.got.tgz:269334.got - 2010.06.03 11:33:40.
