data_PCOD9060127
_publ_section_title
;
Structure prediction by ZEFSAII (Michael W. Deem and Ramdas Pophale) SiO2 
 PCOD9060127
Probable space group: P -1
;
_chemical_formula_sum "Si O2"
_cell_formula_units_Z 16
_cell_length_a 15.760636
_cell_length_b 13.184391
_cell_length_c 8.763651
_cell_angle_alpha 70.163001
_cell_angle_beta 107.239609
_cell_angle_gamma 46.400458
_cell_volume 778.443372
_symmetry_space_group_name_H-M "P -1"
_symmetry_group_IT_number 2
_symmetry_cell_setting 'triclinic'
loop_
_space_group_symop_operation_xyz
x,y,z
-x,-y,-z
loop_
_atom_site_type_symbol
_atom_site_label
_atom_site_fract_x
_atom_site_fract_y
_atom_site_fract_z
Si Si1 0.514398 0.364346 0.899252
Si Si2 0.758477 0.269781 0.888538
Si Si3 0.638134 0.644745 0.682050
Si Si4 0.194238 0.841500 0.378277
Si Si5 0.801221 0.678395 0.235662
Si Si6 0.947240 0.457005 0.102927
Si Si7 0.543394 0.796009 0.215565
Si Si8 0.305643 0.936301 0.555569
O O1 0.654807 0.299441 0.931168
O O2 0.316361 0.636938 0.660797
O O3 0.486919 0.292823 0.809532
O O4 0.593803 0.232808 0.165785
O O5 0.678601 0.475073 0.761848
O O6 0.736906 0.253414 0.710136
O O7 0.977763 0.041485 0.160509
O O8 0.593040 0.746040 0.444831
O O9 0.461154 0.839424 0.600041
O O10 0.815466 0.513585 0.916203
O O11 0.226421 0.929910 0.401378
O O12 0.836271 0.617674 0.108285
O O13 0.710788 0.671135 0.272933
O O14 0.000000 0.500000 0.500000
O O15 0.647169 0.935034 0.048405
O O16 0.136021 0.193008 0.386415
O O17 0.000000 0.500000 0.000000
#
# Coordination Sequence:
#
# PCOD9060127 Si02
#       8
#     2   2   2   2   2   2   2   2
#     4  12  24  42  67 101 139 178 219 275 335 401
#     4  11  24  42  68  96 137 181 225 269 329 400
#     4  12  24  45  69  97 135 179 225 278 333 398
#     4  11  23  43  65  99 134 178 225 269 328 402
#     4  11  25  48  70  99 135 172 229 284 340 396
#     4  12  27  47  70 101 135 177 227 281 338 401
#     4  11  25  44  73 100 130 179 227 280 337 397
#     4  12  26  42  68 102 140 177 222 275 341 398
#
# _framework density 20.553840000000001
#
# number of rings (size 3 to 8) (size 9 to 14) (size 15 to 20)
#    0.000    0.500    3.750    4.500    0.000    7.500 
#    0.000    0.000    0.000    0.000    0.000    0.000 
#    0.000    0.000    0.000    0.000    0.000    0.000 
#
# Total GULP energy -89587.555359 kJ/mol
# GULP energy per Si atom -5599.222210 kJ/mol
# Density = 2.050706 g / cm^3
# Si number density = 20.553840 Si / 1000 Ang^3
#
#
#
# Elastic Constant Matrix: (Units=GPa)
#
#
# Indices 1 2 3 4 5 6 
#
# 1 116.2074 21.8523 38.1795 1.2614 1.7951 -18.2523
# 2 21.8523 44.5522 5.3123 0.9687 12.7875 -3.6036
# 3 38.1795 5.3123 91.0165 2.4521 11.8407 -16.4555
# 4 1.2614 0.9687 2.4521 35.4341 -5.9955 -5.3533
# 5 1.7951 12.7875 11.8407 -5.9955 25.5126 -3.2601
# 6 -18.2523 -3.6036 -16.4555 -5.3533 -3.2601 31.5760
#
#
#
# Elastic Compliance Matrix: (Units=1/GPa)
#
#
# Indices 1 2 3 4 5 6 
#
# 1 0.011971 -0.006589 -0.004568 0.001717 0.005579 0.004655
# 2 -0.006589 0.030234 0.003133 -0.003896 -0.017208 -0.001163
# 3 -0.004568 0.003133 0.014546 -0.001620 -0.007842 0.004213
# 4 0.001717 -0.003896 -0.001620 0.031103 0.010670 0.006078
# 5 0.005579 -0.017208 -0.007842 0.010670 0.054161 0.004575
# 6 0.004655 -0.001163 0.004213 0.006078 0.004575 0.037926
#
#
# Mechanical properties :
#
#
# Convention : Reuss Voigt Hill
#
# Bulk Modulus (GPa) = 24.56826 42.49605 33.53215
# Shear Modulus (GPa) = 23.86002 30.93335 27.39668
#
# Velocity S-wave (km/s) = 3.41083 3.88363 3.65488
# Velocity P-wave (km/s) = 5.24316 6.38987 5.84471
#
# Compressibility (1/GPa) = 0.04070293
#
# Stress axis : x y z
#
# Youngs Moduli (GPa) = 83.53296 33.07559 68.74856
#
# Poissons Ratio (x) = 0.21794 0.31401
# Poissons Ratio (y) = 0.55041 -0.21537
# Poissons Ratio (z) = 0.38154 -0.10362
#
# Static dielectric constant tensor:
#      x y z
#    x 1.688400 0.003430 -0.004650 
#    y 0.003430 1.720120 0.001030 
#    z -0.004650 0.001030 1.733360 
# 
# From -- ./inp_files/273347.got.cif
#   From: 2010.05.17/outbox.cif.g08.bks.cpg/sg2_137_cif.got.tgz:273347.got - 2010.06.03 11:33:40.
