data_PCOD9060520
_publ_section_title
;
Structure prediction by ZEFSAII (Michael W. Deem and Ramdas Pophale) SiO2 
 PCOD9060520
Probable space group: P -1
;
_chemical_formula_sum "Si O2"
_cell_formula_units_Z 14
_cell_length_a 11.556233
_cell_length_b 14.695936
_cell_length_c 14.367905
_cell_angle_alpha 35.167842
_cell_angle_beta 151.669011
_cell_angle_gamma 139.038575
_cell_volume 661.286881
_symmetry_space_group_name_H-M "P -1"
_symmetry_group_IT_number 2
_symmetry_cell_setting 'triclinic'
loop_
_space_group_symop_operation_xyz
x,y,z
-x,-y,-z
loop_
_atom_site_type_symbol
_atom_site_label
_atom_site_fract_x
_atom_site_fract_y
_atom_site_fract_z
Si Si1 0.542638 0.354967 0.223429
Si Si2 0.052411 0.807894 0.446914
Si Si3 0.273698 0.526794 0.547278
Si Si4 0.662955 0.048545 0.980826
Si Si5 0.783887 0.083242 0.322421
Si Si6 0.010831 0.328818 0.926915
Si Si7 0.203750 0.563112 0.018737
O O1 0.698929 0.223098 0.403860
O O2 0.692022 0.434279 0.351992
O O3 0.500000 0.500000 0.000000
O O4 0.273077 0.274585 0.132613
O O5 0.141764 0.861991 0.567739
O O6 0.886280 0.639828 0.450972
O O7 0.860884 0.932921 0.187525
O O8 0.549674 0.512297 0.721877
O O9 0.140708 0.651211 0.290553
O O10 0.744759 0.247270 0.106333
O O11 0.461888 0.037533 0.765822
O O12 0.500000 0.000000 0.000000
O O13 0.000000 0.000000 0.500000
O O14 0.831252 0.218475 0.960787
O O15 0.098348 0.496179 0.900460
O O16 0.000000 0.500000 0.000000
#
# Coordination Sequence:
#
# PCOD9060520 Si02
#       7
#     2   2   2   2   2   2   2
#     4  11  24  45  75 105 137 176 244 297 341 417
#     4  12  24  43  73  98 139 190 225 284 363 409
#     4  11  23  43  72 103 136 182 236 291 347 412
#     4  12  27  46  68 102 146 185 229 284 357 419
#     4  12  25  42  65 101 138 180 229 283 347 419
#     4  11  26  44  69 106 137 182 239 290 341 421
#     4  11  24  40  67 100 136 180 237 282 344 418
#
# _framework density 21.170840999999999
#
# number of rings (size 3 to 8) (size 9 to 14) (size 15 to 20)
#    0.000    0.571    5.714    2.143    2.000    2.286 
#    0.000    1.429    0.000    0.000    0.000    0.000 
#    0.000    0.000    0.000    0.000    0.000    0.000 
#
# Total GULP energy -78133.152011 kJ/mol
# GULP energy per Si atom -5580.939429 kJ/mol
# Density = 2.112266 g / cm^3
# Si number density = 21.170841 Si / 1000 Ang^3
#
#
#
# Elastic Constant Matrix: (Units=GPa)
#
#
# Indices 1 2 3 4 5 6 
#
# 1 72.6899 38.7215 39.9979 17.9860 24.3215 -17.3668
# 2 38.7215 105.3452 40.5823 18.2888 18.2905 -12.5419
# 3 39.9979 40.5823 135.6966 19.7001 26.0648 -21.0389
# 4 17.9860 18.2888 19.7001 42.0926 -8.6924 2.1602
# 5 24.3215 18.2905 26.0648 -8.6924 32.6052 1.6550
# 6 -17.3668 -12.5419 -21.0389 2.1602 1.6550 43.5516
#
#
#
# Elastic Compliance Matrix: (Units=1/GPa)
#
#
# Indices 1 2 3 4 5 6 
#
# 1 0.034181 -0.001796 0.002943 -0.023063 -0.033851 0.016965
# 2 -0.001796 0.013191 -0.000483 -0.006480 -0.007576 0.003458
# 3 0.002943 -0.000483 0.012225 -0.010244 -0.014835 0.008012
# 4 -0.023063 -0.006480 -0.010244 0.051289 0.043727 -0.020217
# 5 -0.033851 -0.007576 -0.014835 0.043727 0.085122 -0.028250
# 6 0.016965 0.003458 0.008012 -0.020217 -0.028250 0.036669
#
#
# Mechanical properties :
#
#
# Convention : Reuss Voigt Hill
#
# Bulk Modulus (GPa) = 16.41395 61.37056 38.89225
# Shear Modulus (GPa) = 19.86818 36.61187 28.24003
#
# Velocity S-wave (km/s) = 3.06677 4.16306 3.65624
# Velocity P-wave (km/s) = 4.50666 7.22214 6.01952
#
# Compressibility (1/GPa) = 0.06092379
#
# Stress axis : x y z
#
# Youngs Moduli (GPa) = 29.25606 75.80815 81.79736
#
# Poissons Ratio (x) = 0.13618 -0.24072
# Poissons Ratio (y) = 0.05255 0.03954
# Poissons Ratio (z) = -0.08610 0.03664
#
# Static dielectric constant tensor:
#      x y z
#    x 1.409850 0.522930 -0.791760 
#    y 0.522930 1.039700 1.043840 
#    z -0.791760 1.043840 0.225700 
# 
# From -- ./inp_files/520212.got.cif
#   From: 2010.05.17/outbox.cif.g08.bks.cpg/sg2_261_cif.got.tgz:520212.got - 2010.06.03 11:33:40.
