data_PCOD9060458
_publ_section_title
;
Structure prediction by ZEFSAII (Michael W. Deem and Ramdas Pophale) SiO2 
 PCOD9060458
Probable space group: P -1
;
_chemical_formula_sum "Si O2"
_cell_formula_units_Z 16
_cell_length_a 17.744756
_cell_length_b 18.985755
_cell_length_c 9.745989
_cell_angle_alpha 27.484593
_cell_angle_beta 39.762650
_cell_angle_gamma 30.552593
_cell_volume 770.125574
_symmetry_space_group_name_H-M "P -1"
_symmetry_group_IT_number 2
_symmetry_cell_setting 'triclinic'
loop_
_space_group_symop_operation_xyz
x,y,z
-x,-y,-z
loop_
_atom_site_type_symbol
_atom_site_label
_atom_site_fract_x
_atom_site_fract_y
_atom_site_fract_z
Si Si1 0.898783 0.772683 0.248684
Si Si2 0.426660 0.952599 0.797070
Si Si3 0.851262 0.525565 0.130232
Si Si4 0.445017 0.435323 0.810615
Si Si5 0.395628 0.695138 0.893358
Si Si6 0.571795 0.975087 0.796823
Si Si7 0.908153 0.219368 0.799405
Si Si8 0.135023 0.557655 0.064319
O O1 0.854511 0.627953 0.578341
O O2 0.997503 0.756649 0.264001
O O3 0.991495 0.724951 0.061925
O O4 0.737960 0.976736 0.121559
O O5 0.439741 0.031996 0.781001
O O6 0.500000 0.000000 0.500000
O O7 0.541064 0.727601 0.016507
O O8 0.851791 0.380097 0.482747
O O9 0.713564 0.752428 0.954383
O O10 0.872542 0.449875 0.075909
O O11 0.000000 0.500000 0.000000
O O12 0.500000 0.500000 0.500000
O O13 0.551542 0.352020 0.939016
O O14 0.276850 0.555798 0.895266
O O15 0.395248 0.872520 0.540089
O O16 0.500000 0.500000 0.000000
O O17 0.237021 0.746477 0.998765
O O18 0.500000 0.000000 0.000000
O O19 0.000000 0.000000 0.000000
#
# Coordination Sequence:
#
# PCOD9060458 Si02
#       8
#     2   2   2   2   2   2   2   2
#     4  11  24  44  70 105 138 184 235 296 355 421
#     4  12  23  47  75 100 136 188 245 292 348 426
#     4  12  24  44  70 102 140 183 238 287 353 430
#     4  12  25  44  72 101 142 187 236 291 357 423
#     4  12  26  45  70 104 146 184 231 297 361 421
#     4  12  27  45  75 107 139 186 246 295 353 431
#     4  12  26  45  71 102 146 188 230 294 365 422
#     4  11  23  43  71 103 139 179 239 293 350 420
#
# _framework density 20.775832000000001
#
# number of rings (size 3 to 8) (size 9 to 14) (size 15 to 20)
#    0.000    0.250    5.000    3.750    3.500    1.000 
#    0.000    1.250    0.000    0.000    0.000    0.000 
#    0.000    0.000    0.000    0.000    0.000    0.000 
#
# Total GULP energy -89228.688605 kJ/mol
# GULP energy per Si atom -5576.793038 kJ/mol
# Density = 2.072855 g / cm^3
# Si number density = 20.775832 Si / 1000 Ang^3
#
#
#
# Elastic Constant Matrix: (Units=GPa)
#
#
# Indices 1 2 3 4 5 6 
#
# 1 112.2800 45.1756 35.2955 19.6949 11.0881 -4.4155
# 2 45.1756 151.8010 45.6744 13.7977 7.9368 -5.8028
# 3 35.2955 45.6744 150.5629 9.9931 0.8892 9.2592
# 4 19.6949 13.7977 9.9931 36.3535 4.1704 -3.9588
# 5 11.0881 7.9368 0.8892 4.1704 29.5583 9.0304
# 6 -4.4155 -5.8028 9.2592 -3.9588 9.0304 40.8933
#
#
#
# Elastic Compliance Matrix: (Units=1/GPa)
#
#
# Indices 1 2 3 4 5 6 
#
# 1 0.011563 -0.002246 -0.001828 -0.004310 -0.003598 0.001721
# 2 -0.002246 0.008076 -0.001950 -0.000950 -0.001626 0.001612
# 3 -0.001828 -0.001950 0.007886 -0.000965 0.001959 -0.002786
# 4 -0.004310 -0.000950 -0.000965 0.031250 -0.003556 0.003429
# 5 -0.003598 -0.001626 0.001959 -0.003556 0.039130 -0.010048
# 6 0.001721 0.001612 -0.002786 0.003429 -0.010048 0.028050
#
#
# Mechanical properties :
#
#
# Convention : Reuss Voigt Hill
#
# Bulk Modulus (GPa) = 64.60964 74.10387 69.35676
# Shear Modulus (GPa) = 34.92585 40.59425 37.76005
#
# Velocity S-wave (km/s) = 4.10455 4.42511 4.26784
# Velocity P-wave (km/s) = 7.32319 7.86476 7.59880
#
# Compressibility (1/GPa) = 0.01547757
#
# Stress axis : x y z
#
# Youngs Moduli (GPa) = 86.48001 123.83099 126.81374
#
# Poissons Ratio (x) = 0.27807 0.23182
# Poissons Ratio (y) = 0.19420 0.24726
# Poissons Ratio (z) = 0.15809 0.24145
#
# Static dielectric constant tensor:
#      x y z
#    x 1.838430 0.018880 -0.008980 
#    y 0.018880 1.638970 -0.032570 
#    z -0.008980 -0.032570 1.736290 
# 
# From -- ./inp_files/335624.got.cif
#   From: 2010.05.17/outbox.cif.g08.bks.cpg/sg2_168_cif.got.tgz:335624.got - 2010.06.03 11:33:40.
