data_PCOD9060781
_publ_section_title
;
Structure prediction by ZEFSAII (Michael W. Deem and Ramdas Pophale) SiO2 
 PCOD9060781
Probable space group: P -1
;
_chemical_formula_sum "Si O2"
_cell_formula_units_Z 16
_cell_length_a 9.992671
_cell_length_b 9.305268
_cell_length_c 7.839085
_cell_angle_alpha 114.053063
_cell_angle_beta 85.902711
_cell_angle_gamma 111.113946
_cell_volume 618.499495
_symmetry_space_group_name_H-M "P -1"
_symmetry_group_IT_number 2
_symmetry_cell_setting 'triclinic'
loop_
_space_group_symop_operation_xyz
x,y,z
-x,-y,-z
loop_
_atom_site_type_symbol
_atom_site_label
_atom_site_fract_x
_atom_site_fract_y
_atom_site_fract_z
Si Si1 0.590825 0.425907 0.330020
Si Si2 0.177071 0.923619 0.595877
Si Si3 0.333178 0.764873 0.254708
Si Si4 0.935401 0.305558 0.953036
Si Si5 0.184157 0.269416 0.710238
Si Si6 0.576886 0.056070 0.201612
Si Si7 0.342373 0.396054 0.114780
Si Si8 0.946696 0.821878 0.817584
O O1 0.500000 0.500000 0.500000
O O2 0.743662 0.571143 0.342158
O O3 0.594916 0.251327 0.314931
O O4 0.493577 0.384700 0.146461
O O5 0.236639 0.803137 0.428026
O O6 0.270125 0.960396 0.781697
O O7 0.013165 0.846885 0.636529
O O8 0.203242 0.095961 0.575137
O O9 0.354008 0.590715 0.210579
O O10 0.233035 0.751037 0.090466
O O11 0.474761 0.926092 0.285618
O O12 0.022661 0.230052 0.777414
O O13 0.000000 0.500000 0.000000
O O14 0.982492 0.285210 0.128276
O O15 0.278728 0.325471 0.903113
O O16 0.500000 0.000000 0.000000
O O17 0.222938 0.278083 0.200035
O O18 0.000000 0.000000 0.000000
#
# Coordination Sequence:
#
# PCOD9060781 Si02
#       8
#     2   2   2   2   2   2   2   2
#     4  12  26  42  64  98 132 164 214 272 320 378
#     4  12  25  43  67  98 134 169 212 273 327 377
#     4  12  25  43  67  98 134 169 212 273 327 377
#     4  11  23  44  69  96 127 171 222 261 315 393
#     4  11  23  44  67  90 130 175 211 259 323 386
#     4  12  26  42  70  98 126 174 222 266 314 396
#     4  11  23  44  67  90 130 175 211 259 323 386
#     4  11  23  44  69  96 127 171 222 261 315 393
#
# _framework density 25.869060000000001
#
# number of rings (size 3 to 8) (size 9 to 14) (size 15 to 20)
#    0.000    0.500    5.000    5.250    3.500    2.000 
#    0.000    0.000    0.000    0.000    0.000    0.000 
#    0.000    0.000    0.000    0.000    0.000    0.000 
#
# Total GULP energy -89695.182734 kJ/mol
# GULP energy per Si atom -5605.948921 kJ/mol
# Density = 2.581018 g / cm^3
# Si number density = 25.869060 Si / 1000 Ang^3
#
#
#
# Elastic Constant Matrix: (Units=GPa)
#
#
# Indices 1 2 3 4 5 6 
#
# 1 110.0300 44.8918 -12.1081 13.7499 8.8216 7.5539
# 2 44.8918 176.3321 18.4730 35.0211 -23.4786 10.1114
# 3 -12.1081 18.4730 63.4774 4.5340 -11.0901 -4.7362
# 4 13.7499 35.0211 4.5340 33.1820 -5.6080 -14.7582
# 5 8.8216 -23.4786 -11.0901 -5.6080 46.3047 -3.2444
# 6 7.5539 10.1114 -4.7362 -14.7582 -3.2444 62.7866
#
#
#
# Elastic Compliance Matrix: (Units=1/GPa)
#
#
# Indices 1 2 3 4 5 6 
#
# 1 0.011350 -0.002852 0.002492 -0.003387 -0.003541 -0.001697
# 2 -0.002852 0.009016 -0.002196 -0.008900 0.003287 -0.003197
# 3 0.002492 -0.002196 0.017451 0.000033 0.002702 0.001518
# 4 -0.003387 -0.008900 0.000033 0.047218 0.002776 0.013085
# 5 -0.003541 0.003287 0.002702 0.002776 0.025064 0.002048
# 6 -0.001697 -0.003197 0.001518 0.013085 0.002048 0.019942
#
#
# Mechanical properties :
#
#
# Convention : Reuss Voigt Hill
#
# Bulk Modulus (GPa) = 30.57813 50.26143 40.41978
# Shear Modulus (GPa) = 34.23365 48.36019 41.29692
#
# Velocity S-wave (km/s) = 3.64173 4.32837 3.99981
# Velocity P-wave (km/s) = 5.43405 6.66716 6.08194
#
# Compressibility (1/GPa) = 0.03270311
#
# Stress axis : x y z
#
# Youngs Moduli (GPa) = 88.10678 110.91590 57.30349
#
# Poissons Ratio (x) = 0.31634 -0.14278
# Poissons Ratio (y) = 0.25128 0.12586
# Poissons Ratio (z) = -0.21953 0.24361
#
# Static dielectric constant tensor:
#      x y z
#    x -12.473730 4.933870 -1.501240 
#    y 4.933870 0.348490 0.468200 
#    z -1.501240 0.468200 1.967450 
# 
# From -- ./inp_files/245481.got.cif
#   From: 2010.05.17/outbox.cif.g08.bks.cpg/sg2_123_cif.got.tgz:245481.got - 2010.06.03 11:33:40.
