data_PCOD9060651
_publ_section_title
;
Structure prediction by ZEFSAII (Michael W. Deem and Ramdas Pophale) SiO2 
 PCOD9060651
Probable space group: P -1
;
_chemical_formula_sum "Si O2"
_cell_formula_units_Z 16
_cell_length_a 8.371555
_cell_length_b 14.517079
_cell_length_c 8.540813
_cell_angle_alpha 94.801782
_cell_angle_beta 49.785163
_cell_angle_gamma 67.889255
_cell_volume 651.328943
_symmetry_space_group_name_H-M "P -1"
_symmetry_group_IT_number 2
_symmetry_cell_setting 'triclinic'
loop_
_space_group_symop_operation_xyz
x,y,z
-x,-y,-z
loop_
_atom_site_type_symbol
_atom_site_label
_atom_site_fract_x
_atom_site_fract_y
_atom_site_fract_z
Si Si1 0.368729 0.130707 0.580433
Si Si2 0.966010 0.421425 0.622653
Si Si3 0.947001 0.914194 0.426093
Si Si4 0.798559 0.281680 0.520289
Si Si5 0.517868 0.224422 0.257916
Si Si6 0.088865 0.720751 0.904348
Si Si7 0.378695 0.929621 0.098135
Si Si8 0.249938 0.488730 0.896552
O O1 0.564180 0.143593 0.361536
O O2 0.146018 0.155142 0.606175
O O3 0.500000 0.000000 0.500000
O O4 0.199103 0.213242 0.839314
O O5 0.870222 0.357491 0.577305
O O6 0.000000 0.500000 0.500000
O O7 0.250548 0.334951 0.492007
O O8 0.782363 0.484751 0.894049
O O9 0.116176 0.827538 0.446907
O O10 0.106538 0.948025 0.228996
O O11 0.704675 0.030197 0.664025
O O12 0.926091 0.251340 0.265042
O O13 0.498112 0.365718 0.694909
O O14 0.741242 0.242665 0.114841
O O15 0.463553 0.182664 0.122916
O O16 0.239958 0.588522 0.825257
O O17 0.500000 0.000000 0.000000
O O18 0.000000 0.500000 0.000000
#
# Coordination Sequence:
#
# PCOD9060651 Si02
#       8
#     2   2   2   2   2   2   2   2
#     4  12  27  48  76 106 152 199 245 305 372 436
#     4  12  25  44  75 115 145 190 248 307 373 436
#     4  11  25  48  69 113 141 189 254 303 358 447
#     4  12  26  46  78 106 147 196 246 306 370 433
#     4  12  25  47  76 107 151 193 246 309 369 442
#     4  12  27  50  72 109 150 194 248 303 371 445
#     4  11  23  43  75 100 150 186 240 308 364 425
#     4  12  26  51  75 110 153 194 243 305 372 449
#
# _framework density 24.565159999999999
#
# number of rings (size 3 to 8) (size 9 to 14) (size 15 to 20)
#    0.000    0.250    5.000    3.000    3.500    3.500 
#    2.250    0.000    0.000    0.000    0.000    0.000 
#    0.000    0.000    0.000    0.000    0.000    0.000 
#
# Total GULP energy -89307.909274 kJ/mol
# GULP energy per Si atom -5581.744330 kJ/mol
# Density = 2.450925 g / cm^3
# Si number density = 24.565160 Si / 1000 Ang^3
#
#
#
# Elastic Constant Matrix: (Units=GPa)
#
#
# Indices 1 2 3 4 5 6 
#
# 1 93.4737 29.9858 11.2542 -6.9944 2.0144 21.6179
# 2 29.9858 131.2184 3.4107 -9.1049 -13.1768 4.0892
# 3 11.2542 3.4107 108.1615 4.1331 -1.6768 -2.1010
# 4 -6.9944 -9.1049 4.1331 26.7947 14.3671 -12.5688
# 5 2.0144 -13.1768 -1.6768 14.3671 34.3917 2.4722
# 6 21.6179 4.0892 -2.1010 -12.5688 2.4722 52.1586
#
#
#
# Elastic Compliance Matrix: (Units=1/GPa)
#
#
# Indices 1 2 3 4 5 6 
#
# 1 0.013082 -0.002920 -0.001460 0.001662 -0.002310 -0.004742
# 2 -0.002920 0.008635 0.000062 0.000752 0.003127 0.000569
# 3 -0.001460 0.000062 0.009524 -0.002565 0.001624 0.000289
# 4 0.001662 0.000752 -0.002565 0.058981 -0.025621 0.014576
# 5 -0.002310 0.003127 0.001624 -0.025621 0.041723 -0.007374
# 6 -0.004742 0.000569 0.000289 0.014576 -0.007374 0.024967
#
#
# Mechanical properties :
#
#
# Convention : Reuss Voigt Hill
#
# Bulk Modulus (GPa) = 44.23969 46.90612 45.57291
# Shear Modulus (GPa) = 28.88787 41.88252 35.38520
#
# Velocity S-wave (km/s) = 3.43296 4.13359 3.79946
# Velocity P-wave (km/s) = 5.81049 6.47442 6.15142
#
# Compressibility (1/GPa) = 0.02260413
#
# Stress axis : x y z
#
# Youngs Moduli (GPa) = 76.44310 115.80622 104.99543
#
# Poissons Ratio (x) = 0.33819 0.15334
# Poissons Ratio (y) = 0.22324 -0.00655
# Poissons Ratio (z) = 0.11164 -0.00722
#
# Static dielectric constant tensor:
#      x y z
#    x 2.062210 -0.047500 0.043450 
#    y -0.047500 1.880640 -0.016750 
#    z 0.043450 -0.016750 2.004100 
# 
# From -- ./inp_files/207521.got.cif
#   From: 2010.05.17/outbox.cif.g08.bks.cpg/sg2_104_cif.got.tgz:207521.got - 2010.06.03 11:33:40.
