data_PCOD9060964
_publ_section_title
;
Structure prediction by ZEFSAII (Michael W. Deem and Ramdas Pophale) SiO2 
 PCOD9060964
Probable space group: P -1
;
_chemical_formula_sum "Si O2"
_cell_formula_units_Z 14
_cell_length_a 8.714946
_cell_length_b 19.136655
_cell_length_c 7.500602
_cell_angle_alpha 141.451768
_cell_angle_beta 126.265696
_cell_angle_gamma 40.400499
_cell_volume 505.211908
_symmetry_space_group_name_H-M "P -1"
_symmetry_group_IT_number 2
_symmetry_cell_setting 'triclinic'
loop_
_space_group_symop_operation_xyz
x,y,z
-x,-y,-z
loop_
_atom_site_type_symbol
_atom_site_label
_atom_site_fract_x
_atom_site_fract_y
_atom_site_fract_z
Si Si1 0.303261 0.705035 0.285876
Si Si2 0.905658 0.992074 0.111357
Si Si3 0.426667 0.100706 0.395569
Si Si4 0.843017 0.492980 0.728209
Si Si5 0.744823 0.662158 0.548214
Si Si6 0.804055 0.811993 0.204574
Si Si7 0.316606 0.688350 0.853801
O O1 0.565083 0.623623 0.380566
O O2 0.085244 0.712369 0.228440
O O3 0.201286 0.866665 0.573968
O O4 0.343724 0.650445 0.003822
O O5 0.712543 0.961011 0.894064
O O6 0.137421 0.853362 0.070994
O O7 0.000000 0.000000 0.000000
O O8 0.365505 0.223540 0.465488
O O9 0.321836 0.160533 0.639071
O O10 0.694689 0.964380 0.345301
O O11 0.571289 0.626893 0.824741
O O12 0.804589 0.370924 0.456191
O O13 0.997751 0.458306 0.589065
O O14 0.000000 0.500000 0.000000
O O15 0.747445 0.740636 0.875765
#
# Coordination Sequence:
#
# PCOD9060964 Si02
#       7
#     2   2   2   2   2   2   2
#     4  12  24  39  70 103 138 177 235 292 355 427
#     4  12  24  42  68 107 145 179 224 295 366 424
#     4  11  24  42  64 100 150 185 226 289 355 428
#     4  11  23  44  70  97 137 187 244 292 339 420
#     4  12  24  42  69  99 137 185 237 290 346 420
#     4  11  24  41  62 102 145 182 230 289 355 423
#     4  11  25  41  70 104 134 186 240 286 354 423
#
# _framework density 27.711141999999999
#
# number of rings (size 3 to 8) (size 9 to 14) (size 15 to 20)
#    0.000    0.571    7.143    0.857    4.000    0.000 
#    0.000    0.000    3.143    5.143    0.000    0.000 
#    0.000    0.000    0.000    0.000    0.000    0.000 
#
# Total GULP energy -78571.221864 kJ/mol
# GULP energy per Si atom -5612.230133 kJ/mol
# Density = 2.764807 g / cm^3
# Si number density = 27.711142 Si / 1000 Ang^3
#
#
#
# Elastic Constant Matrix: (Units=GPa)
#
#
# Indices 1 2 3 4 5 6 
#
# 1 123.9790 70.8138 57.1275 -8.7624 -18.5742 -24.4265
# 2 70.8138 127.9129 68.8169 4.9427 -1.9596 -40.6501
# 3 57.1275 68.8169 160.9394 -25.5874 -16.1666 17.3339
# 4 -8.7624 4.9427 -25.5874 55.0736 -0.6044 1.6389
# 5 -18.5742 -1.9596 -16.1666 -0.6044 59.2305 6.2601
# 6 -24.4265 -40.6501 17.3339 1.6389 6.2601 45.5164
#
#
#
# Elastic Compliance Matrix: (Units=1/GPa)
#
#
# Indices 1 2 3 4 5 6 
#
# 1 0.013186 -0.005319 -0.002135 0.001538 0.003111 0.002656
# 2 -0.005319 0.032607 -0.019019 -0.013766 -0.009655 0.035333
# 3 -0.002135 -0.019019 0.020689 0.011877 0.007371 -0.027451
# 4 0.001538 -0.013766 0.011877 0.025741 0.005398 -0.017661
# 5 0.003111 -0.009655 0.007371 0.005398 0.020963 -0.012838
# 6 0.002656 0.035333 -0.027451 -0.017661 -0.012838 0.067806
#
#
# Mechanical properties :
#
#
# Convention : Reuss Voigt Hill
#
# Bulk Modulus (GPa) = 73.87342 89.59419 81.73380
# Shear Modulus (GPa) = 20.96883 46.36897 33.66890
#
# Velocity S-wave (km/s) = 2.75379 4.09503 3.48946
# Velocity P-wave (km/s) = 6.06856 7.40005 6.76713
#
# Compressibility (1/GPa) = 0.01353667
#
# Stress axis : x y z
#
# Youngs Moduli (GPa) = 75.83910 30.66821 48.33509
#
# Poissons Ratio (x) = 0.16313 0.10319
# Poissons Ratio (y) = 0.40339 0.91926
# Poissons Ratio (z) = 0.16191 0.58326
#
# Static dielectric constant tensor:
#      x y z
#    x 2.186100 0.149880 0.039670 
#    y 0.149880 2.429020 -0.013460 
#    z 0.039670 -0.013460 2.092190 
# 
# From -- ./inp_files/226815.got.cif
#   From: 2010.05.17/outbox.cif.g08.bks.cpg/sg2_114_cif.got.tgz:226815.got - 2010.06.03 11:33:40.
