data_PCOD9060365
_publ_section_title
;
Structure prediction by ZEFSAII (Michael W. Deem and Ramdas Pophale) SiO2 
 PCOD9060365
Probable space group: P -1
;
_chemical_formula_sum "Si O2"
_cell_formula_units_Z 14
_cell_length_a 12.566168
_cell_length_b 6.669039
_cell_length_c 7.453167
_cell_angle_alpha 98.579957
_cell_angle_beta 106.508472
_cell_angle_gamma 54.397500
_cell_volume 486.812261
_symmetry_space_group_name_H-M "P -1"
_symmetry_group_IT_number 2
_symmetry_cell_setting 'triclinic'
loop_
_space_group_symop_operation_xyz
x,y,z
-x,-y,-z
loop_
_atom_site_type_symbol
_atom_site_label
_atom_site_fract_x
_atom_site_fract_y
_atom_site_fract_z
Si Si1 0.279310 0.908772 0.269031
Si Si2 0.957758 0.894526 0.351100
Si Si3 0.150332 0.645027 0.069778
Si Si4 0.581396 0.698181 0.980173
Si Si5 0.346743 0.803974 0.674720
Si Si6 0.539073 0.878892 0.306446
Si Si7 0.989195 0.654485 0.649784
O O1 0.199964 0.826958 0.100616
O O2 0.335605 0.733384 0.454307
O O3 0.397767 0.896688 0.219505
O O4 0.164717 0.178457 0.325158
O O5 0.055538 0.746846 0.210028
O O6 0.963058 0.638293 0.397712
O O7 0.795690 0.080652 0.285028
O O8 0.992380 0.124266 0.407322
O O9 0.297953 0.389193 0.111027
O O10 0.077155 0.620023 0.865113
O O11 0.629691 0.624263 0.198642
O O12 0.482321 0.640171 0.835731
O O13 0.500000 0.000000 0.000000
O O14 0.367771 0.021275 0.677521
O O15 0.500000 0.000000 0.500000
#
# Coordination Sequence:
#
# PCOD9060365 Si02
#       7
#     2   2   2   2   2   2   2
#     4  11  23  43  70 101 137 185 227 293 348 408
#     4  11  24  47  73 103 141 186 225 294 351 412
#     4  12  26  46  71 107 143 179 235 288 361 406
#     4   9  23  40  67 103 131 184 234 277 350 413
#     4   9  20  42  69  93 137 177 234 272 343 413
#     4   9  21  42  65  98 135 181 231 279 342 412
#     4  11  28  44  69 107 141 183 237 284 350 423
#
# _framework density 28.758520000000001
#
# number of rings (size 3 to 8) (size 9 to 14) (size 15 to 20)
#    0.857    0.857    2.857    0.857    8.000    1.714 
#    2.571    0.000    0.000    0.000    0.000    0.000 
#    0.000    0.000    0.000    0.000    0.000    0.000 
#
# Total GULP energy -77949.860604 kJ/mol
# GULP energy per Si atom -5567.847186 kJ/mol
# Density = 2.869306 g / cm^3
# Si number density = 28.758520 Si / 1000 Ang^3
#
#
#
# Elastic Constant Matrix: (Units=GPa)
#
#
# Indices 1 2 3 4 5 6 
#
# 1 235.7880 64.8539 92.1498 33.7230 -3.8440 -37.4828
# 2 64.8539 156.6876 61.4031 39.2051 -6.5496 -4.9460
# 3 92.1498 61.4031 208.5904 47.1708 23.2366 -3.1336
# 4 33.7230 39.2051 47.1708 48.4370 -0.8647 0.4515
# 5 -3.8440 -6.5496 23.2366 -0.8647 59.0266 16.3206
# 6 -37.4828 -4.9460 -3.1336 0.4515 16.3206 59.8878
#
#
#
# Elastic Compliance Matrix: (Units=1/GPa)
#
#
# Indices 1 2 3 4 5 6 
#
# 1 0.006144 -0.001325 -0.001971 -0.001319 0.000003 0.003642
# 2 -0.001325 0.008618 -0.000951 -0.005099 0.001304 -0.000484
# 3 -0.001971 -0.000951 0.007485 -0.005206 -0.003259 0.000007
# 4 -0.001319 -0.005099 -0.005206 0.030828 0.002524 -0.002439
# 5 0.000003 0.001304 -0.003259 0.002524 0.019930 -0.005511
# 6 0.003642 -0.000484 0.000007 -0.002439 -0.005511 0.020458
#
#
# Mechanical properties :
#
#
# Convention : Reuss Voigt Hill
#
# Bulk Modulus (GPa) = 72.71582 115.31996 94.01789
# Shear Modulus (GPa) = 46.92969 58.98089 52.95529
#
# Velocity S-wave (km/s) = 4.04400 4.53360 4.29578
# Velocity P-wave (km/s) = 6.86623 8.22139 7.57418
#
# Compressibility (1/GPa) = 0.01375217
#
# Stress axis : x y z
#
# Youngs Moduli (GPa) = 162.76981 116.03077 133.59725
#
# Poissons Ratio (x) = 0.15378 0.26337
# Poissons Ratio (y) = 0.21572 0.12703
# Poissons Ratio (z) = 0.32088 0.11033
#
# Static dielectric constant tensor:
#      x y z
#    x 2.164960 0.120790 -0.111190 
#    y 0.120790 2.292340 -0.038560 
#    z -0.111190 -0.038560 2.616020 
# 
# From -- ./inp_files/239801.got.cif
#   From: 2010.05.17/outbox.cif.g08.bks.cpg/sg2_120_cif.got.tgz:239801.got - 2010.06.03 11:33:40.
