data_PCOD9061011
_publ_section_title
;
Structure prediction by ZEFSAII (Michael W. Deem and Ramdas Pophale) SiO2 
 PCOD9061011
Probable space group: P -1
;
_chemical_formula_sum "Si O2"
_cell_formula_units_Z 16
_cell_length_a 17.156220
_cell_length_b 14.574352
_cell_length_c 11.029987
_cell_angle_alpha 133.072260
_cell_angle_beta 151.138371
_cell_angle_gamma 32.160365
_cell_volume 690.007827
_symmetry_space_group_name_H-M "P -1"
_symmetry_group_IT_number 2
_symmetry_cell_setting 'triclinic'
loop_
_space_group_symop_operation_xyz
x,y,z
-x,-y,-z
loop_
_atom_site_type_symbol
_atom_site_label
_atom_site_fract_x
_atom_site_fract_y
_atom_site_fract_z
Si Si1 0.926911 0.376480 0.441735
Si Si2 0.164602 0.727592 0.535135
Si Si3 0.527739 0.163720 0.473460
Si Si4 0.562783 0.898539 0.116521
Si Si5 0.964480 0.821376 0.829088
Si Si6 0.447358 0.588798 0.379542
Si Si7 0.355317 0.231359 0.562162
Si Si8 0.224124 0.976122 0.885607
O O1 0.888987 0.337135 0.486561
O O2 0.744210 0.584001 0.356329
O O3 0.935122 0.271907 0.249972
O O4 0.182391 0.291442 0.711059
O O5 0.411339 0.563362 0.668078
O O6 0.144995 0.876876 0.701134
O O7 0.985951 0.823501 0.265327
O O8 0.533044 0.030384 0.288562
O O9 0.478019 0.307498 0.448357
O O10 0.370630 0.238474 0.444842
O O11 0.784803 0.031965 0.756763
O O12 0.500000 0.000000 0.000000
O O13 0.389330 0.888918 0.914292
O O14 0.814276 0.786468 0.644450
O O15 0.177222 0.731009 0.121439
O O16 0.500000 0.500000 0.500000
O O17 0.609071 0.076472 0.824713
#
# Coordination Sequence:
#
# PCOD9061011 Si02
#       8
#     2   2   2   2   2   2   2   2
#     4  11  23  44  71 107 139 183 242 288 347 411
#     4  11  26  45  68 108 141 191 232 293 349 421
#     4  11  26  47  72 105 140 188 233 292 355 421
#     4  11  24  45  74 102 140 186 236 289 352 422
#     4  11  26  45  73 103 143 190 234 287 355 422
#     4  12  29  47  68 103 147 184 234 292 361 419
#     4  12  24  45  74 107 142 182 242 295 347 412
#     4  11  25  43  74 100 143 183 239 289 353 413
#
# _framework density 23.188141999999999
#
# number of rings (size 3 to 8) (size 9 to 14) (size 15 to 20)
#    0.000    0.750    5.000    1.875    7.000    2.000 
#    0.000    1.875    0.000    0.000    0.000    0.000 
#    0.000    0.000    0.000    0.000    0.000    0.000 
#
# Total GULP energy -89484.287398 kJ/mol
# GULP energy per Si atom -5592.767962 kJ/mol
# Density = 2.313536 g / cm^3
# Si number density = 23.188142 Si / 1000 Ang^3
#
#
#
# Elastic Constant Matrix: (Units=GPa)
#
#
# Indices 1 2 3 4 5 6 
#
# 1 134.4133 36.2246 12.7138 -0.6481 -4.8782 11.2264
# 2 36.2246 77.7487 -2.5033 -7.5887 -3.3856 15.4309
# 3 12.7138 -2.5033 65.3947 -12.4090 2.5259 11.0049
# 4 -0.6481 -7.5887 -12.4090 23.2041 7.0670 -3.1961
# 5 -4.8782 -3.3856 2.5259 7.0670 21.5165 0.2729
# 6 11.2264 15.4309 11.0049 -3.1961 0.2729 40.5345
#
#
#
# Elastic Compliance Matrix: (Units=1/GPa)
#
#
# Indices 1 2 3 4 5 6 
#
# 1 0.008997 -0.004419 -0.002627 -0.003508 0.002810 -0.000392
# 2 -0.004419 0.016798 0.003808 0.006937 -0.001012 -0.005651
# 3 -0.002627 0.003808 0.019472 0.012866 -0.006445 -0.004951
# 4 -0.003508 0.006937 0.012866 0.058286 -0.020353 -0.000429
# 5 0.002810 -0.001012 -0.006445 -0.020353 0.054403 -0.000614
# 6 -0.000392 -0.005651 -0.004951 -0.000429 -0.000614 0.028245
#
#
# Mechanical properties :
#
#
# Convention : Reuss Voigt Hill
#
# Bulk Modulus (GPa) = 25.77778 41.15854 33.46816
# Shear Modulus (GPa) = 24.31852 32.45915 28.38884
#
# Velocity S-wave (km/s) = 3.24195 3.74547 3.50277
# Velocity P-wave (km/s) = 5.01544 6.04095 5.55192
#
# Compressibility (1/GPa) = 0.03879310
#
# Stress axis : x y z
#
# Youngs Moduli (GPa) = 111.15051 59.53142 51.35652
#
# Poissons Ratio (x) = 0.26304 0.13489
# Poissons Ratio (y) = 0.49113 -0.19559
# Poissons Ratio (z) = 0.29194 -0.22672
#
# Static dielectric constant tensor:
#      x y z
#    x 1.860930 0.002080 -0.005140 
#    y 0.002080 1.840980 -0.002740 
#    z -0.005140 -0.002740 1.922630 
# 
# From -- ./inp_files/207318.got.cif
#   From: 2010.05.17/outbox.cif.g08.bks.cpg/sg2_104_cif.got.tgz:207318.got - 2010.06.03 11:33:40.
