data_PCOD9061220
_publ_section_title
;
Structure prediction by ZEFSAII (Michael W. Deem and Ramdas Pophale) SiO2 
 PCOD9061220
Probable space group: P -1
;
_chemical_formula_sum "Si O2"
_cell_formula_units_Z 14
_cell_length_a 5.979758
_cell_length_b 10.033816
_cell_length_c 11.212081
_cell_angle_alpha 57.049529
_cell_angle_beta 97.930365
_cell_angle_gamma 90.048306
_cell_volume 556.877729
_symmetry_space_group_name_H-M "P -1"
_symmetry_group_IT_number 2
_symmetry_cell_setting 'triclinic'
loop_
_space_group_symop_operation_xyz
x,y,z
-x,-y,-z
loop_
_atom_site_type_symbol
_atom_site_label
_atom_site_fract_x
_atom_site_fract_y
_atom_site_fract_z
Si Si1 0.867276 0.400107 0.446665
Si Si2 0.307510 0.108675 0.001183
Si Si3 0.379258 0.628236 0.014306
Si Si4 0.903920 0.177061 0.751622
Si Si5 0.099607 0.726908 0.739621
Si Si6 0.585025 0.820304 0.617878
Si Si7 0.629945 0.499824 0.667627
O O1 0.913159 0.219562 0.590395
O O2 0.926981 0.397536 0.311893
O O3 0.628958 0.502915 0.385808
O O4 0.000000 0.500000 0.500000
O O5 0.125100 0.171266 0.856272
O O6 0.443824 0.243464 0.005820
O O7 0.500000 0.000000 0.000000
O O8 0.198001 0.988660 0.143393
O O9 0.151069 0.688667 0.899997
O O10 0.500000 0.500000 0.000000
O O11 0.328620 0.534050 0.174197
O O12 0.750104 0.336570 0.702454
O O13 0.356100 0.774186 0.696067
O O14 0.847625 0.818928 0.681198
O O15 0.621233 0.695624 0.569283
O O16 0.500000 0.000000 0.500000
#
# Coordination Sequence:
#
# PCOD9061220 Si02
#       7
#     2   2   2   2   2   2   2
#     4  11  23  44  75 110 151 202 260 323 390 476
#     4  11  26  51  75 113 152 199 263 327 388 474
#     4  12  24  48  79 113 156 203 262 327 402 474
#     4  11  25  47  80 111 149 204 266 321 398 472
#     4  11  27  48  75 115 153 208 257 324 400 470
#     4  11  25  49  71 107 159 200 257 322 395 476
#     4  11  24  46  76 111 147 204 263 320 395 473
#
# _framework density 25.140166000000001
#
# number of rings (size 3 to 8) (size 9 to 14) (size 15 to 20)
#    0.000    0.857    4.286    2.571    2.000    5.143 
#    7.714    0.000    0.000    0.000    0.000    0.000 
#    0.000    0.000    0.000    0.000    0.000    0.000 
#
# Total GULP energy -77938.579657 kJ/mol
# GULP energy per Si atom -5567.041404 kJ/mol
# Density = 2.508295 g / cm^3
# Si number density = 25.140166 Si / 1000 Ang^3
#
#
#
# Elastic Constant Matrix: (Units=GPa)
#
#
# Indices 1 2 3 4 5 6 
#
# 1 167.2557 42.3806 70.7171 -12.3661 54.8405 -2.1486
# 2 42.3806 146.6739 49.6855 -12.5236 16.3517 10.1630
# 3 70.7171 49.6855 128.1444 -1.4022 33.1632 14.2190
# 4 -12.3661 -12.5236 -1.4022 37.9028 -2.2107 2.6556
# 5 54.8405 16.3517 33.1632 -2.2107 65.1327 -8.2127
# 6 -2.1486 10.1630 14.2190 2.6556 -8.2127 20.7297
#
#
#
# Elastic Compliance Matrix: (Units=1/GPa)
#
#
# Indices 1 2 3 4 5 6 
#
# 1 0.009924 -0.000823 -0.003720 0.002387 -0.006011 0.001297
# 2 -0.000823 0.008320 -0.002244 0.002587 -0.000566 -0.003181
# 3 -0.003720 -0.002244 0.012833 -0.001048 -0.004081 -0.009571
# 4 0.002387 0.002587 -0.001048 0.028199 -0.001750 -0.004608
# 5 -0.006011 -0.000566 -0.004081 -0.001750 0.024118 0.012233
# 6 0.001297 -0.003181 -0.009571 -0.004608 0.012233 0.061936
#
#
# Mechanical properties :
#
#
# Convention : Reuss Voigt Hill
#
# Bulk Modulus (GPa) = 57.12967 85.29339 71.21153
# Shear Modulus (GPa) = 30.35120 43.37244 36.86182
#
# Velocity S-wave (km/s) = 3.47836 4.15809 3.83332
# Velocity P-wave (km/s) = 6.23745 7.55339 6.92674
#
# Compressibility (1/GPa) = 0.01750404
#
# Stress axis : x y z
#
# Youngs Moduli (GPa) = 100.76388 120.18758 77.92353
#
# Poissons Ratio (x) = 0.09897 0.28984
# Poissons Ratio (y) = 0.08298 0.17484
# Poissons Ratio (z) = 0.37480 0.26967
#
# Static dielectric constant tensor:
#      x y z
#    x 2.255030 0.035490 -0.220810 
#    y 0.035490 1.979070 0.026260 
#    z -0.220810 0.026260 2.205290 
# 
# From -- ./inp_files/363742.got.cif
#   From: 2010.05.17/outbox.cif.g08.bks.cpg/sg2_182_cif.got.tgz:363742.got - 2010.06.03 11:33:40.
