data_PCOD9061709
_publ_section_title
;
Structure prediction by ZEFSAII (Michael W. Deem and Ramdas Pophale) SiO2 
 PCOD9061709
Probable space group: P -1
;
_chemical_formula_sum "Si O2"
_cell_formula_units_Z 16
_cell_length_a 9.027696
_cell_length_b 20.933422
_cell_length_c 17.927229
_cell_angle_alpha 20.312740
_cell_angle_beta 38.130805
_cell_angle_gamma 36.019044
_cell_volume 685.029572
_symmetry_space_group_name_H-M "P -1"
_symmetry_group_IT_number 2
_symmetry_cell_setting 'triclinic'
loop_
_space_group_symop_operation_xyz
x,y,z
-x,-y,-z
loop_
_atom_site_type_symbol
_atom_site_label
_atom_site_fract_x
_atom_site_fract_y
_atom_site_fract_z
Si Si1 0.198031 0.117548 0.295072
Si Si2 0.459409 0.570310 0.556717
Si Si3 0.421234 0.204642 0.261563
Si Si4 0.763452 0.817308 0.381823
Si Si5 0.993153 0.448024 0.889788
Si Si6 0.216978 0.221110 0.749027
Si Si7 0.148863 0.620288 0.139804
Si Si8 0.292019 0.811135 0.216041
O O1 0.487748 0.981089 0.311121
O O2 0.234927 0.194581 0.278479
O O3 0.000000 0.000000 0.500000
O O4 0.086381 0.287371 0.092940
O O5 0.184290 0.569991 0.685200
O O6 0.604819 0.647178 0.476591
O O7 0.433394 0.717118 0.337722
O O8 0.610447 0.357082 0.699916
O O9 0.280713 0.392155 0.162850
O O10 0.500000 0.000000 0.500000
O O11 0.658398 0.258947 0.075144
O O12 0.880456 0.795197 0.276641
O O13 0.732978 0.614575 0.642223
O O14 0.988106 0.857490 0.295938
O O15 0.003033 0.353999 0.906811
O O16 0.020884 0.314029 0.790877
O O17 0.354499 0.000344 0.961111
#
# Coordination Sequence:
#
# PCOD9061709 Si02
#       8
#     2   2   2   2   2   2   2   2
#     4  12  28  49  75 110 148 194 254 315 378 442
#     4  11  24  43  70 106 153 188 250 301 378 439
#     4  12  28  49  79 110 142 196 258 312 378 449
#     4  12  25  47  73 108 153 195 248 311 371 454
#     4  12  26  48  75 104 153 196 245 317 377 442
#     4  12  26  41  77 108 152 200 247 302 381 445
#     4  12  25  48  76 106 149 195 254 309 375 443
#     4  11  23  46  65 107 149 197 244 303 367 449
#
# _framework density 23.356656000000001
#
# number of rings (size 3 to 8) (size 9 to 14) (size 15 to 20)
#    0.000    0.250    2.500    6.375    5.250    1.000 
#    0.000    0.000    0.000    0.000    0.000    0.000 
#    0.000    0.000    0.000    0.000    0.000    0.000 
#
# Total GULP energy -89565.645121 kJ/mol
# GULP energy per Si atom -5597.852820 kJ/mol
# Density = 2.330349 g / cm^3
# Si number density = 23.356656 Si / 1000 Ang^3
#
#
#
# Elastic Constant Matrix: (Units=GPa)
#
#
# Indices 1 2 3 4 5 6 
#
# 1 121.3781 10.8958 68.0766 17.1538 47.2231 -15.5123
# 2 10.8958 106.2899 -22.2644 -16.2135 -24.4637 10.7197
# 3 68.0766 -22.2644 155.3077 9.7987 47.3579 -17.8084
# 4 17.1538 -16.2135 9.7987 46.6670 2.5238 -8.4853
# 5 47.2231 -24.4637 47.3579 2.5238 92.4098 -13.6940
# 6 -15.5123 10.7197 -17.8084 -8.4853 -13.6940 41.5445
#
#
#
# Elastic Compliance Matrix: (Units=1/GPa)
#
#
# Indices 1 2 3 4 5 6 
#
# 1 0.014637 -0.004860 -0.004776 -0.005454 -0.005932 0.001603
# 2 -0.004860 0.012268 0.002073 0.005083 0.004287 -0.001640
# 3 -0.004776 0.002073 0.009442 0.000829 -0.001672 0.001347
# 4 -0.005454 0.005083 0.000829 0.025447 0.003511 0.003362
# 5 -0.005932 0.004287 -0.001672 0.003511 0.016040 0.001966
# 6 0.001603 -0.001640 0.001347 0.003362 0.001966 0.027005
#
#
# Mechanical properties :
#
#
# Convention : Reuss Voigt Hill
#
# Bulk Modulus (GPa) = 47.12218 55.15464 51.13841
# Shear Modulus (GPa) = 39.35841 57.87544 48.61693
#
# Velocity S-wave (km/s) = 4.10946 4.98325 4.56730
# Velocity P-wave (km/s) = 6.53725 7.53497 7.05377
#
# Compressibility (1/GPa) = 0.02122143
#
# Stress axis : x y z
#
# Youngs Moduli (GPa) = 68.31897 81.51180 105.91531
#
# Poissons Ratio (x) = 0.39613 0.50583
# Poissons Ratio (y) = 0.33202 -0.21955
# Poissons Ratio (z) = 0.32628 -0.16897
#
# Static dielectric constant tensor:
#      x y z
#    x 1.887970 -0.017600 0.005860 
#    y -0.017600 1.934110 -0.000170 
#    z 0.005860 -0.000170 1.843580 
# 
# From -- ./inp_files/562876.got.cif
#   From: 2010.05.17/outbox.cif.g08.bks.cpg/sg2_282_cif.got.tgz:562876.got - 2010.06.03 11:33:40.
