data_PCOD9061489
_publ_section_title
;
Structure prediction by ZEFSAII (Michael W. Deem and Ramdas Pophale) SiO2 
 PCOD9061489
Probable space group: P -1
;
_chemical_formula_sum "Si O2"
_cell_formula_units_Z 14
_cell_length_a 12.833217
_cell_length_b 8.589433
_cell_length_c 12.616920
_cell_angle_alpha 51.310281
_cell_angle_beta 38.332478
_cell_angle_gamma 76.988234
_cell_volume 563.276833
_symmetry_space_group_name_H-M "P -1"
_symmetry_group_IT_number 2
_symmetry_cell_setting 'triclinic'
loop_
_space_group_symop_operation_xyz
x,y,z
-x,-y,-z
loop_
_atom_site_type_symbol
_atom_site_label
_atom_site_fract_x
_atom_site_fract_y
_atom_site_fract_z
Si Si1 0.187617 0.394089 0.170386
Si Si2 0.143859 0.058564 0.722951
Si Si3 0.192791 0.034745 0.453861
Si Si4 0.476955 0.505392 0.717748
Si Si5 0.545316 0.132620 0.745380
Si Si6 0.843733 0.542840 0.168630
Si Si7 0.092290 0.695267 0.248452
O O1 0.214218 0.278861 0.302529
O O2 0.107035 0.556261 0.196260
O O3 0.392356 0.528030 0.886441
O O4 0.028208 0.178022 0.314957
O O5 0.215340 0.020917 0.566871
O O6 0.332466 0.232973 0.571024
O O7 0.039524 0.198353 0.716620
O O8 0.986542 0.796763 0.003726
O O9 0.338789 0.000478 0.276596
O O10 0.534346 0.309585 0.760516
O O11 0.301515 0.427513 0.806307
O O12 0.687070 0.322374 0.460365
O O13 0.316943 0.921045 0.995583
O O14 0.000000 0.500000 0.000000
O O15 0.000000 0.500000 0.500000
#
# Coordination Sequence:
#
# PCOD9061489 Si02
#       7
#     2   2   2   2   2   2   2
#     4  11  24  44  73 105 151 189 249 295 368 435
#     4  12  25  48  73 109 148 188 247 302 362 432
#     4  11  23  45  71 107 146 195 238 309 359 431
#     4  12  27  46  75 110 144 199 242 296 373 427
#     4  12  26  48  73 105 151 192 244 301 366 427
#     4  12  26  52  76 104 151 188 247 306 356 438
#     4  12  26  45  74 108 147 193 243 301 364 430
#
# _framework density 24.854562000000001
#
# number of rings (size 3 to 8) (size 9 to 14) (size 15 to 20)
#    0.000    0.286    5.714    2.143    4.000    2.857 
#    2.571    0.000    0.000    0.000    0.000    0.000 
#    0.000    0.000    0.000    0.000    0.000    0.000 
#
# Total GULP energy -78396.569126 kJ/mol
# GULP energy per Si atom -5599.754938 kJ/mol
# Density = 2.479799 g / cm^3
# Si number density = 24.854562 Si / 1000 Ang^3
#
#
#
# Elastic Constant Matrix: (Units=GPa)
#
#
# Indices 1 2 3 4 5 6 
#
# 1 39.1488 9.7510 30.9627 -3.4609 -4.3716 -7.5683
# 2 9.7510 145.5712 45.6071 9.7430 7.9725 -22.9732
# 3 30.9627 45.6071 170.0122 -12.4151 -9.9041 4.3640
# 4 -3.4609 9.7430 -12.4151 52.3244 7.3789 -2.5156
# 5 -4.3716 7.9725 -9.9041 7.3789 38.0142 3.3679
# 6 -7.5683 -22.9732 4.3640 -2.5156 3.3679 30.0736
#
#
#
# Elastic Compliance Matrix: (Units=1/GPa)
#
#
# Indices 1 2 3 4 5 6 
#
# 1 0.032385 0.001344 -0.006420 0.000751 0.000730 0.010089
# 2 0.001344 0.009368 -0.003264 -0.001603 -0.003074 0.008179
# 3 -0.006420 -0.003264 0.008315 0.001572 0.002289 -0.005441
# 4 0.000751 -0.001603 0.001572 0.020319 -0.003182 0.000792
# 5 0.000730 -0.003074 0.002289 -0.003182 0.028779 -0.005986
# 6 0.010089 0.008179 -0.005441 0.000792 -0.005986 0.043565
#
#
# Mechanical properties :
#
#
# Convention : Reuss Voigt Hill
#
# Bulk Modulus (GPa) = 29.95113 58.59708 44.27411
# Shear Modulus (GPa) = 29.31861 41.97654 35.64757
#
# Velocity S-wave (km/s) = 3.43827 4.11407 3.79125
# Velocity P-wave (km/s) = 5.27626 6.79666 6.08414
#
# Compressibility (1/GPa) = 0.03338772
#
# Stress axis : x y z
#
# Youngs Moduli (GPa) = 30.87871 106.74145 120.27093
#
# Poissons Ratio (x) = -0.14348 0.77216
# Poissons Ratio (y) = -0.04151 0.39257
# Poissons Ratio (z) = 0.19825 0.34841
#
# Static dielectric constant tensor:
#      x y z
#    x 1.962830 0.003060 0.041000 
#    y 0.003060 1.951790 0.007360 
#    z 0.041000 0.007360 2.002960 
# 
# From -- ./inp_files/175556.got.cif
#   From: 2010.05.17/outbox.cif.g08.bks.cpg/sg2_88_cif.got.tgz:175556.got - 2010.06.03 11:33:40.
