data_PCOD9061912
_publ_section_title
;
Structure prediction by ZEFSAII (Michael W. Deem and Ramdas Pophale) SiO2 
 PCOD9061912
Probable space group: P -1
;
_chemical_formula_sum "Si O2"
_cell_formula_units_Z 12
_cell_length_a 16.004193
_cell_length_b 5.657308
_cell_length_c 9.106042
_cell_angle_alpha 63.234584
_cell_angle_beta 62.414833
_cell_angle_gamma 105.938873
_cell_volume 516.737288
_symmetry_space_group_name_H-M "P -1"
_symmetry_group_IT_number 2
_symmetry_cell_setting 'triclinic'
loop_
_space_group_symop_operation_xyz
x,y,z
-x,-y,-z
loop_
_atom_site_type_symbol
_atom_site_label
_atom_site_fract_x
_atom_site_fract_y
_atom_site_fract_z
Si Si1 0.762591 0.568220 0.023553
Si Si2 0.881845 0.236841 0.577558
Si Si3 0.516751 0.339252 0.393556
Si Si4 0.675324 0.189956 0.920488
Si Si5 0.438001 0.525603 0.181603
Si Si6 0.930139 0.604258 0.122813
O O1 0.705884 0.254858 0.048030
O O2 0.850635 0.882427 0.754338
O O3 0.655358 0.580766 0.158087
O O4 0.827494 0.546005 0.114823
O O5 0.771810 0.209835 0.741203
O O6 0.896391 0.378844 0.361117
O O7 0.000000 0.500000 0.500000
O O8 0.500000 0.500000 0.500000
O O9 0.413311 0.252310 0.389674
O O10 0.500000 0.000000 0.500000
O O11 0.667520 0.476532 0.785256
O O12 0.540945 0.861130 0.091793
O O13 0.500000 0.500000 0.000000
O O14 0.000000 0.500000 0.000000
O O15 0.000000 0.000000 0.000000
#
# Coordination Sequence:
#
# PCOD9061912 Si02
#       6
#     2   2   2   2   2   2
#     4  12  27  50  77 113 160 204 265 319 393 471
#     4  12  26  49  82 110 153 211 259 325 392 460
#     4  12  28  46  74 113 156 202 251 324 387 462
#     4  11  24  44  79 107 153 204 258 319 385 463
#     4  11  23  46  73 108 152 200 257 316 385 465
#     4  12  30  52  78 116 154 203 267 327 387 465
#
# _framework density 23.222629999999999
#
# number of rings (size 3 to 8) (size 9 to 14) (size 15 to 20)
#    0.000    0.333    5.000    2.000    7.000    2.667 
#    0.000    0.000    0.000    0.000    0.000    0.000 
#    0.000    0.000    0.000    0.000    0.000    0.000 
#
# Total GULP energy -66952.549218 kJ/mol
# GULP energy per Si atom -5579.379102 kJ/mol
# Density = 2.316977 g / cm^3
# Si number density = 23.222630 Si / 1000 Ang^3
#
#
#
# Elastic Constant Matrix: (Units=GPa)
#
#
# Indices 1 2 3 4 5 6 
#
# 1 141.6241 20.4562 42.7651 5.8080 33.3613 21.7624
# 2 20.4562 130.9786 59.2916 10.6168 11.6327 14.9133
# 3 42.7651 59.2916 141.0409 10.6826 21.7509 5.0978
# 4 5.8080 10.6168 10.6826 49.1289 3.0355 -1.4957
# 5 33.3613 11.6327 21.7509 3.0355 45.1717 7.1305
# 6 21.7624 14.9133 5.0978 -1.4957 7.1305 52.6648
#
#
#
# Elastic Compliance Matrix: (Units=1/GPa)
#
#
# Indices 1 2 3 4 5 6 
#
# 1 0.009413 0.000306 -0.001977 -0.000498 -0.005565 -0.003046
# 2 0.000306 0.009811 -0.003970 -0.001348 -0.000354 -0.002511
# 3 -0.001977 -0.003970 0.009738 -0.000841 -0.002355 0.001293
# 4 -0.000498 -0.001348 -0.000841 0.020959 -0.000499 0.001332
# 5 -0.005565 -0.000354 -0.002355 -0.000499 0.027685 -0.001135
# 6 -0.003046 -0.002511 0.001293 0.001332 -0.001135 0.021024
#
#
# Mechanical properties :
#
#
# Convention : Reuss Voigt Hill
#
# Bulk Modulus (GPa) = 56.55713 73.18549 64.87131
# Shear Modulus (GPa) = 43.17639 48.80179 45.98909
#
# Velocity S-wave (km/s) = 4.31657 4.58916 4.45495
# Velocity P-wave (km/s) = 7.01789 7.72422 7.37952
#
# Compressibility (1/GPa) = 0.01768124
#
# Stress axis : x y z
#
# Youngs Moduli (GPa) = 106.23734 101.93104 102.68650
#
# Poissons Ratio (x) = -0.03120 0.20299
# Poissons Ratio (y) = -0.03252 0.40762
# Poissons Ratio (z) = 0.21001 0.40463
#
# Static dielectric constant tensor:
#      x y z
#    x 1.917070 -0.017660 0.113450 
#    y -0.017660 1.916040 -0.141740 
#    z 0.113450 -0.141740 2.081850 
# 
# From -- ./inp_files/24784.got.cif
#   From: 2010.05.17/outbox.cif.g08.bks.cpg/sg2_13_cif.got.tgz:24784.got - 2010.06.03 11:33:40.
