data_PCOD9061364
_publ_section_title
;
Structure prediction by ZEFSAII (Michael W. Deem and Ramdas Pophale) SiO2 
 PCOD9061364
Probable space group: P -1
;
_chemical_formula_sum "Si O2"
_cell_formula_units_Z 14
_cell_length_a 15.019138
_cell_length_b 9.458151
_cell_length_c 8.665777
_cell_angle_alpha 67.887409
_cell_angle_beta 65.368310
_cell_angle_gamma 29.205637
_cell_volume 545.783797
_symmetry_space_group_name_H-M "P -1"
_symmetry_group_IT_number 2
_symmetry_cell_setting 'triclinic'
loop_
_space_group_symop_operation_xyz
x,y,z
-x,-y,-z
loop_
_atom_site_type_symbol
_atom_site_label
_atom_site_fract_x
_atom_site_fract_y
_atom_site_fract_z
Si Si1 0.200140 0.360085 0.121585
Si Si2 0.334816 0.336943 0.503909
Si Si3 0.876812 0.154978 0.763616
Si Si4 0.374732 0.622487 0.895186
Si Si5 0.930632 0.774351 0.694680
Si Si6 0.864559 0.920077 0.346775
Si Si7 0.424677 0.276697 0.791604
O O1 0.135456 0.281983 0.136389
O O2 0.038722 0.621816 0.248709
O O3 0.398046 0.070481 0.181469
O O4 0.247693 0.420795 0.932535
O O5 0.274593 0.528451 0.330868
O O6 0.383974 0.367581 0.607913
O O7 0.148803 0.487138 0.616046
O O8 0.500000 0.000000 0.500000
O O9 0.067071 0.998045 0.696820
O O10 0.888416 0.990743 0.716447
O O11 0.811146 0.193886 0.963624
O O12 0.460392 0.375311 0.831991
O O13 0.311142 0.840154 0.737085
O O14 0.500000 0.500000 0.000000
O O15 0.835418 0.884762 0.548837
#
# Coordination Sequence:
#
# PCOD9061364 Si02
#       7
#     2   2   2   2   2   2   2
#     4  11  25  43  71 102 141 186 233 284 357 415
#     4  11  25  44  75 107 141 182 232 293 360 416
#     4  11  23  45  69 102 138 183 235 279 354 428
#     4  12  26  43  71 104 138 185 242 291 345 416
#     4  11  24  44  72 106 137 184 239 283 350 431
#     4  11  23  46  71  97 140 184 232 291 352 415
#     4  11  24  47  69 101 150 183 228 296 359 405
#
# _framework density 25.651181999999999
#
# number of rings (size 3 to 8) (size 9 to 14) (size 15 to 20)
#    0.000    0.857    1.429    6.857    4.000    2.857 
#    0.000    2.857    0.000    0.000    0.000    0.000 
#    0.000    0.000    0.000    0.000    0.000    0.000 
#
# Total GULP energy -78520.941789 kJ/mol
# GULP energy per Si atom -5608.638699 kJ/mol
# Density = 2.559280 g / cm^3
# Si number density = 25.651182 Si / 1000 Ang^3
#
#
#
# Elastic Constant Matrix: (Units=GPa)
#
#
# Indices 1 2 3 4 5 6 
#
# 1 108.3370 31.7147 25.2014 -8.6401 9.3078 5.3503
# 2 31.7147 149.8335 31.3755 3.0476 17.2145 16.3346
# 3 25.2014 31.3755 98.9932 -6.5569 21.4364 -6.3277
# 4 -8.6401 3.0476 -6.5569 33.3783 -11.6941 10.0342
# 5 9.3078 17.2145 21.4364 -11.6941 51.5833 -1.4443
# 6 5.3503 16.3346 -6.3277 10.0342 -1.4443 37.1949
#
#
#
# Elastic Compliance Matrix: (Units=1/GPa)
#
#
# Indices 1 2 3 4 5 6 
#
# 1 0.010539 -0.001656 -0.002118 0.003124 0.000184 -0.001985
# 2 -0.001656 0.008062 -0.002014 -0.001215 -0.001925 -0.003392
# 3 -0.002118 -0.002014 0.012342 -0.000330 -0.004059 0.003220
# 4 0.003124 -0.001215 -0.000330 0.036466 0.007980 -0.009500
# 5 0.000184 -0.001925 -0.004059 0.007980 0.023460 -0.001113
# 6 -0.001985 -0.003392 0.003220 -0.009500 -0.001113 0.031728
#
#
# Mechanical properties :
#
#
# Convention : Reuss Voigt Hill
#
# Bulk Modulus (GPa) = 51.63156 59.30523 55.46839
# Shear Modulus (GPa) = 35.55448 42.35610 38.95529
#
# Velocity S-wave (km/s) = 3.72704 4.06795 3.90122
# Velocity P-wave (km/s) = 6.22038 6.72565 6.47794
#
# Compressibility (1/GPa) = 0.01936800
#
# Stress axis : x y z
#
# Youngs Moduli (GPa) = 94.88370 124.03952 81.02213
#
# Poissons Ratio (x) = 0.20535 0.17161
# Poissons Ratio (y) = 0.15708 0.16319
# Poissons Ratio (z) = 0.20097 0.24984
#
# Static dielectric constant tensor:
#      x y z
#    x 2.052660 -0.029960 -0.009600 
#    y -0.029960 2.040550 -0.012960 
#    z -0.009600 -0.012960 1.960140 
# 
# From -- ./inp_files/294781.got.cif
#   From: 2010.05.17/outbox.cif.g08.bks.cpg/sg2_148_cif.got.tgz:294781.got - 2010.06.03 11:33:40.
