data_PCOD9061987
_publ_section_title
;
Structure prediction by ZEFSAII (Michael W. Deem and Ramdas Pophale) SiO2 
 PCOD9061987
Probable space group: P -1
;
_chemical_formula_sum "Si O2"
_cell_formula_units_Z 16
_cell_length_a 13.606393
_cell_length_b 10.380764
_cell_length_c 8.326341
_cell_angle_alpha 116.685461
_cell_angle_beta 40.506033
_cell_angle_gamma 99.915728
_cell_volume 652.840543
_symmetry_space_group_name_H-M "P -1"
_symmetry_group_IT_number 2
_symmetry_cell_setting 'triclinic'
loop_
_space_group_symop_operation_xyz
x,y,z
-x,-y,-z
loop_
_atom_site_type_symbol
_atom_site_label
_atom_site_fract_x
_atom_site_fract_y
_atom_site_fract_z
Si Si1 0.257170 0.135019 0.831068
Si Si2 0.171087 0.406440 0.664704
Si Si3 0.636206 0.355091 0.801167
Si Si4 0.918341 0.870436 0.267637
Si Si5 0.728552 0.196371 0.280176
Si Si6 0.820488 0.560243 0.705452
Si Si7 0.538556 0.715585 0.542346
Si Si8 0.616882 0.102740 0.883924
O O1 0.111221 0.150648 0.897708
O O2 0.384117 0.163707 0.564690
O O3 0.297119 0.968773 0.760757
O O4 0.237952 0.269774 0.057349
O O5 0.152474 0.240081 0.602495
O O6 0.193163 0.445539 0.474785
O O7 0.319035 0.397414 0.597147
O O8 0.000000 0.500000 0.000000
O O9 0.742826 0.260924 0.474371
O O10 0.742033 0.439594 0.815800
O O11 0.554188 0.236518 0.909643
O O12 0.500000 0.500000 0.000000
O O13 0.796762 0.027343 0.562555
O O14 0.105380 0.832289 0.033730
O O15 0.570168 0.320275 0.481097
O O16 0.000000 0.500000 0.500000
O O17 0.398727 0.804899 0.882410
O O18 0.500000 0.000000 0.000000
#
# Coordination Sequence:
#
# PCOD9061987 Si02
#       8
#     2   2   2   2   2   2   2   2
#     4  11  23  46  76 110 150 205 258 315 388 461
#     4  11  24  48  73 104 154 204 250 312 399 460
#     4  12  27  47  76 113 155 203 261 324 390 457
#     4  11  25  45  79 109 155 202 258 325 387 455
#     4  12  25  45  74 116 153 200 264 323 380 465
#     4  12  27  46  76 111 152 197 257 321 387 465
#     4  11  25  43  72 105 148 198 252 310 381 461
#     4  12  24  48  78 111 153 207 258 322 396 467
#
# _framework density 24.508284
#
# number of rings (size 3 to 8) (size 9 to 14) (size 15 to 20)
#    0.000    0.500    3.750    5.250    3.500    1.500 
#    0.000    8.750    0.000    0.000    0.000    0.000 
#    0.000    0.000    0.000    0.000    0.000    0.000 
#
# Total GULP energy -89287.380146 kJ/mol
# GULP energy per Si atom -5580.461259 kJ/mol
# Density = 2.445250 g / cm^3
# Si number density = 24.508284 Si / 1000 Ang^3
#
#
#
# Elastic Constant Matrix: (Units=GPa)
#
#
# Indices 1 2 3 4 5 6 
#
# 1 113.2009 32.3337 42.3631 -9.4249 -34.4476 -3.9704
# 2 32.3337 142.1034 36.8845 2.1985 -7.4248 -3.9897
# 3 42.3631 36.8845 136.4964 -1.2327 -5.6244 4.2279
# 4 -9.4249 2.1985 -1.2327 32.8822 6.6577 6.6884
# 5 -34.4476 -7.4248 -5.6244 6.6577 48.2717 -0.5036
# 6 -3.9704 -3.9897 4.2279 6.6884 -0.5036 26.4874
#
#
#
# Elastic Compliance Matrix: (Units=1/GPa)
#
#
# Indices 1 2 3 4 5 6 
#
# 1 0.013463 -0.001689 -0.003410 0.001655 0.008744 0.002056
# 2 -0.001689 0.007924 -0.001677 -0.001400 0.000027 0.001562
# 3 -0.003410 -0.001677 0.008840 0.000278 -0.001724 -0.002278
# 4 0.001655 -0.001400 0.000278 0.033476 -0.003708 -0.008531
# 5 0.008744 0.000027 -0.001724 -0.003708 0.027302 0.003045
# 6 0.002056 0.001562 -0.002278 -0.008531 0.003045 0.040873
#
#
# Mechanical properties :
#
#
# Convention : Reuss Voigt Hill
#
# Bulk Modulus (GPa) = 59.97414 68.32925 64.15170
# Shear Modulus (GPa) = 33.11504 40.20956 36.66230
#
# Velocity S-wave (km/s) = 3.67982 4.05489 3.87190
# Velocity P-wave (km/s) = 6.52525 7.06140 6.79862
#
# Compressibility (1/GPa) = 0.01667385
#
# Stress axis : x y z
#
# Youngs Moduli (GPa) = 74.27587 126.20435 113.12442
#
# Poissons Ratio (x) = 0.21318 0.38581
# Poissons Ratio (y) = 0.12547 0.18969
# Poissons Ratio (z) = 0.25332 0.21162
#
# Static dielectric constant tensor:
#      x y z
#    x 2.131800 0.007370 0.015420 
#    y 0.007370 2.107550 0.001900 
#    z 0.015420 0.001900 2.078870 
# 
# From -- ./inp_files/308258.got.cif
#   From: 2010.05.17/outbox.cif.g08.bks.cpg/sg2_155_cif.got.tgz:308258.got - 2010.06.03 11:33:40.
