data_PCOD9061656
_publ_section_title
;
Structure prediction by ZEFSAII (Michael W. Deem and Ramdas Pophale) SiO2 
 PCOD9061656
Probable space group: P -1
;
_chemical_formula_sum "Si O2"
_cell_formula_units_Z 16
_cell_length_a 9.242268
_cell_length_b 9.881640
_cell_length_c 15.271628
_cell_angle_alpha 145.051342
_cell_angle_beta 101.311520
_cell_angle_gamma 70.892196
_cell_volume 748.204909
_symmetry_space_group_name_H-M "P -1"
_symmetry_group_IT_number 2
_symmetry_cell_setting 'triclinic'
loop_
_space_group_symop_operation_xyz
x,y,z
-x,-y,-z
loop_
_atom_site_type_symbol
_atom_site_label
_atom_site_fract_x
_atom_site_fract_y
_atom_site_fract_z
Si Si1 0.063183 0.218362 0.584899
Si Si2 0.034353 0.233234 0.078304
Si Si3 0.401727 0.038098 0.598508
Si Si4 0.763391 0.263051 0.935287
Si Si5 0.441948 0.442570 0.557106
Si Si6 0.369187 0.967697 0.901903
Si Si7 0.432800 0.262503 0.907496
Si Si8 0.137854 0.262120 0.419039
O O1 0.227757 0.180957 0.630633
O O2 0.098253 0.181406 0.466945
O O3 0.967986 0.509932 0.737885
O O4 0.000000 0.000000 0.500000
O O5 0.895563 0.317087 0.036788
O O6 0.201948 0.117220 0.995750
O O7 0.000000 0.000000 0.000000
O O8 0.451248 0.171534 0.759768
O O9 0.500000 0.000000 0.500000
O O10 0.420081 0.763778 0.490012
O O11 0.598262 0.280360 0.969404
O O12 0.834392 0.980752 0.764993
O O13 0.701003 0.475885 0.967672
O O14 0.500000 0.500000 0.500000
O O15 0.388183 0.680985 0.738316
O O16 0.296431 0.335506 0.475872
O O17 0.390082 0.069612 0.862402
O O18 0.500000 0.000000 0.000000
O O19 0.000000 0.500000 0.500000
#
# Coordination Sequence:
#
# PCOD9061656 Si02
#       8
#     2   2   2   2   2   2   2   2
#     4  12  29  47  71 110 146 196 247 304 368 437
#     4  12  27  48  71 103 150 195 243 304 364 445
#     4  12  24  48  76 105 146 188 246 305 369 440
#     4  11  23  45  75  98 140 182 239 293 371 429
#     4  12  25  46  75 106 143 190 243 304 365 438
#     4  12  28  45  72 106 145 192 247 297 365 436
#     4  11  24  45  73 107 138 189 240 302 361 441
#     4  12  26  46  71 105 144 191 237 299 373 435
#
# _framework density 21.384513999999999
#
# number of rings (size 3 to 8) (size 9 to 14) (size 15 to 20)
#    0.000    0.250    5.000    3.000    5.250    3.500 
#    0.000    0.000    0.000    0.000    0.000    0.000 
#    0.000    0.000    0.000    0.000    0.000    0.000 
#
# Total GULP energy -89406.038733 kJ/mol
# GULP energy per Si atom -5587.877421 kJ/mol
# Density = 2.133584 g / cm^3
# Si number density = 21.384514 Si / 1000 Ang^3
#
#
#
# Elastic Constant Matrix: (Units=GPa)
#
#
# Indices 1 2 3 4 5 6 
#
# 1 103.2677 36.0326 36.3028 -10.1740 -8.4902 -1.5686
# 2 36.0326 107.1839 22.7681 14.1299 -14.8119 7.6759
# 3 36.3028 22.7681 122.8264 24.5907 -7.4625 3.4050
# 4 -10.1740 14.1299 24.5907 42.1041 -6.3870 -5.6678
# 5 -8.4902 -14.8119 -7.4625 -6.3870 30.6639 8.9478
# 6 -1.5686 7.6759 3.4050 -5.6678 8.9478 48.5102
#
#
#
# Elastic Compliance Matrix: (Units=1/GPa)
#
#
# Indices 1 2 3 4 5 6 
#
# 1 0.014054 -0.004740 -0.004928 0.008395 0.001493 0.002256
# 2 -0.004740 0.012440 0.000573 -0.005425 0.004780 -0.003677
# 3 -0.004928 0.000573 0.011211 -0.008127 0.000558 -0.002089
# 4 0.008395 -0.005425 -0.008127 0.033514 0.003242 0.005018
# 5 0.001493 0.004780 0.000558 0.003242 0.038314 -0.007436
# 6 0.002256 -0.003677 -0.002089 0.005018 -0.007436 0.023373
#
#
# Mechanical properties :
#
#
# Convention : Reuss Voigt Hill
#
# Bulk Modulus (GPa) = 51.23832 58.16500 54.70166
# Shear Modulus (GPa) = 31.72590 40.13394 35.92992
#
# Velocity S-wave (km/s) = 3.85592 4.33688 4.10345
# Velocity P-wave (km/s) = 6.62093 7.23441 6.93445
#
# Compressibility (1/GPa) = 0.01951664
#
# Stress axis : x y z
#
# Youngs Moduli (GPa) = 71.15582 80.38353 89.20065
#
# Poissons Ratio (x) = 0.38099 0.43955
# Poissons Ratio (y) = 0.33725 -0.05114
# Poissons Ratio (z) = 0.35063 -0.04608
#
# Static dielectric constant tensor:
#      x y z
#    x 1.785870 -0.000150 0.050150 
#    y -0.000150 1.794090 0.006380 
#    z 0.050150 0.006380 1.863000 
# 
# From -- ./inp_files/495884.got.cif
#   From: 2010.05.17/outbox.cif.g08.bks.cpg/sg2_248_cif.got.tgz:495884.got - 2010.06.03 11:33:40.
