data_PCOD9061470
_publ_section_title
;
Structure prediction by ZEFSAII (Michael W. Deem and Ramdas Pophale) SiO2 
 PCOD9061470
Probable space group: P -1
;
_chemical_formula_sum "Si O2"
_cell_formula_units_Z 14
_cell_length_a 10.850234
_cell_length_b 14.671180
_cell_length_c 19.461640
_cell_angle_alpha 21.544069
_cell_angle_beta 33.730420
_cell_angle_gamma 31.743836
_cell_volume 585.131798
_symmetry_space_group_name_H-M "P -1"
_symmetry_group_IT_number 2
_symmetry_cell_setting 'triclinic'
loop_
_space_group_symop_operation_xyz
x,y,z
-x,-y,-z
loop_
_atom_site_type_symbol
_atom_site_label
_atom_site_fract_x
_atom_site_fract_y
_atom_site_fract_z
Si Si1 0.664276 0.386217 0.365924
Si Si2 0.436479 0.830282 0.768902
Si Si3 0.789305 0.214805 0.638668
Si Si4 0.914256 0.780996 0.632138
Si Si5 0.572449 0.350089 0.955387
Si Si6 0.153245 0.362314 0.459601
Si Si7 0.277816 0.306609 0.997018
O O1 0.443239 0.519842 0.424984
O O2 0.602279 0.535540 0.217498
O O3 0.906807 0.418845 0.257122
O O4 0.754145 0.067822 0.537715
O O5 0.722585 0.696841 0.741350
O O6 0.389757 0.628302 0.879055
O O7 0.373090 0.111658 0.564124
O O8 0.333887 0.836662 0.889241
O O9 0.903336 0.183441 0.532477
O O10 0.993757 0.237091 0.577631
O O11 0.714954 0.959948 0.857790
O O12 0.762923 0.436261 0.764716
O O13 0.425223 0.246467 0.042160
O O14 0.000000 0.500000 0.500000
O O15 0.000000 0.500000 0.000000
#
# Coordination Sequence:
#
# PCOD9061470 Si02
#       7
#     2   2   2   2   2   2   2
#     4  11  25  43  69 105 141 182 232 293 360 417
#     4  11  24  45  73 101 141 186 241 285 355 429
#     4  12  25  45  71 105 139 184 235 293 352 419
#     4  11  23  45  71 103 138 184 234 291 354 422
#     4  11  25  45  70 103 139 188 236 287 353 424
#     4  12  26  47  72 104 145 185 235 293 354 427
#     4  12  23  43  70 103 140 184 236 290 354 419
#
# _framework density 23.926231999999999
#
# number of rings (size 3 to 8) (size 9 to 14) (size 15 to 20)
#    0.000    0.571    2.857    5.571    2.000    1.714 
#    2.571    0.000    0.000    0.000    0.000    0.000 
#    0.000    0.000    0.000    0.000    0.000    0.000 
#
# Total GULP energy -78293.402655 kJ/mol
# GULP energy per Si atom -5592.385904 kJ/mol
# Density = 2.387178 g / cm^3
# Si number density = 23.926232 Si / 1000 Ang^3
#
#
#
# Elastic Constant Matrix: (Units=GPa)
#
#
# Indices 1 2 3 4 5 6 
#
# 1 126.2408 25.8864 28.5220 3.1159 -15.8232 10.0239
# 2 25.8864 120.4244 30.0841 8.4312 5.9761 12.1811
# 3 28.5220 30.0841 88.7773 20.1531 -0.1721 8.3619
# 4 3.1159 8.4312 20.1531 26.4546 6.3489 1.5838
# 5 -15.8232 5.9761 -0.1721 6.3489 39.6576 3.4953
# 6 10.0239 12.1811 8.3619 1.5838 3.4953 35.8428
#
#
#
# Elastic Compliance Matrix: (Units=1/GPa)
#
#
# Indices 1 2 3 4 5 6 
#
# 1 0.009427 -0.001447 -0.002418 0.000330 0.004092 -0.001994
# 2 -0.001447 0.009564 -0.002486 -0.000433 -0.001777 -0.002073
# 3 -0.002418 -0.002486 0.015548 -0.010996 0.001393 -0.001756
# 4 0.000330 -0.000433 -0.010996 0.048038 -0.007651 0.001244
# 5 0.004092 -0.001777 0.001393 -0.007651 0.028640 -0.003320
# 6 -0.001994 -0.002073 -0.001756 0.001244 -0.003320 0.029840
#
#
# Mechanical properties :
#
#
# Convention : Reuss Voigt Hill
#
# Bulk Modulus (GPa) = 45.79124 56.04752 50.91938
# Shear Modulus (GPa) = 31.04846 37.12101 34.08473
#
# Velocity S-wave (km/s) = 3.60623 3.94315 3.77845
# Velocity P-wave (km/s) = 6.04317 6.64885 6.35324
#
# Compressibility (1/GPa) = 0.02183824
#
# Stress axis : x y z
#
# Youngs Moduli (GPa) = 106.07373 104.55538 64.31863
#
# Poissons Ratio (x) = 0.15129 0.15549
# Poissons Ratio (y) = 0.15349 0.15990
# Poissons Ratio (z) = 0.25644 0.25992
#
# Static dielectric constant tensor:
#      x y z
#    x 2.026740 0.034300 -0.018260 
#    y 0.034300 1.883860 0.022780 
#    z -0.018260 0.022780 1.971030 
# 
# From -- ./inp_files/595566.got.cif
#   From: 2010.05.17/outbox.cif.g08.bks.cpg/sg2_298_cif.got.tgz:595566.got - 2010.06.03 11:33:40.
