data_PCOD9061575
_publ_section_title
;
Structure prediction by ZEFSAII (Michael W. Deem and Ramdas Pophale) SiO2 
 PCOD9061575
Probable space group: P -1
;
_chemical_formula_sum "Si O2"
_cell_formula_units_Z 13
_cell_length_a 11.525843
_cell_length_b 7.320286
_cell_length_c 9.223563
_cell_angle_alpha 66.881137
_cell_angle_beta 45.442091
_cell_angle_gamma 57.608055
_cell_volume 468.048490
_symmetry_space_group_name_H-M "P -1"
_symmetry_group_IT_number 2
_symmetry_cell_setting 'triclinic'
loop_
_space_group_symop_operation_xyz
x,y,z
-x,-y,-z
loop_
_atom_site_type_symbol
_atom_site_label
_atom_site_fract_x
_atom_site_fract_y
_atom_site_fract_z
Si Si1 0.168740 0.457973 0.525660
Si Si2 0.711075 0.021127 0.564859
Si Si3 0.656368 0.930636 0.097764
Si Si4 0.438673 0.710012 0.679513
Si Si5 0.845578 0.468903 0.995560
Si Si6 0.084509 0.887329 0.292734
Si Si7 0.000000 0.000000 0.000000
O O1 0.218928 0.226984 0.475062
O O2 0.350888 0.414817 0.467061
O O3 0.146720 0.646686 0.373412
O O4 0.984213 0.515952 0.754268
O O5 0.640058 0.185222 0.439171
O O6 0.884968 0.037385 0.475757
O O7 0.534465 0.049946 0.795229
O O8 0.621172 0.076972 0.229645
O O9 0.768775 0.677740 0.099959
O O10 0.763167 0.022012 0.869366
O O11 0.338073 0.563299 0.872541
O O12 0.047574 0.882510 0.152845
O O13 0.955868 0.235660 0.040280
#
# Coordination Sequence:
#
# PCOD9061575 Si02
#       7
#     2   2   2   2   2   2   1
#     4  11  25  42  79 101 144 198 232 290 366 418
#     4  11  23  45  73 110 144 190 241 293 359 422
#     4  11  26  42  75 106 142 190 243 293 357 421
#     4  11  24  49  71 111 146 186 244 296 348 436
#     4  12  25  48  74 107 144 190 237 300 356 421
#     4  12  24  47  73 107 143 191 243 288 355 432
#     4  12  24  48  74 106 146 186 240 298 352 432
#
# _framework density 27.774899999999999
#
# number of rings (size 3 to 8) (size 9 to 14) (size 15 to 20)
#    0.000    0.615    4.615    2.308    2.154    6.769 
#    0.000    1.538    0.000    0.000    0.000    0.000 
#    0.000    0.000    0.000    0.000    0.000    0.000 
#
# Total GULP energy -72577.539063 kJ/mol
# GULP energy per Si atom -5582.887620 kJ/mol
# Density = 2.771168 g / cm^3
# Si number density = 27.774900 Si / 1000 Ang^3
#
#
#
# Elastic Constant Matrix: (Units=GPa)
#
#
# Indices 1 2 3 4 5 6 
#
# 1 124.2814 75.6106 75.7026 -5.2777 -39.5922 -14.6120
# 2 75.6106 134.1235 102.7771 -18.7667 -13.9890 -22.1128
# 3 75.7026 102.7771 242.0278 -21.0281 -40.6860 -14.1827
# 4 -5.2777 -18.7667 -21.0281 49.7338 -1.6239 9.3723
# 5 -39.5922 -13.9890 -40.6860 -1.6239 57.0193 -4.9918
# 6 -14.6120 -22.1128 -14.1827 9.3723 -4.9918 46.1993
#
#
#
# Elastic Compliance Matrix: (Units=1/GPa)
#
#
# Indices 1 2 3 4 5 6 
#
# 1 0.016071 -0.007750 -0.000137 -0.001469 0.009349 0.002640
# 2 -0.007750 0.015680 -0.004625 0.002494 -0.004533 0.002638
# 3 -0.000137 -0.004625 0.006872 0.001268 0.003710 -0.000004
# 4 -0.001469 0.002494 0.001268 0.022071 0.000839 -0.003269
# 5 0.009349 -0.004533 0.003710 0.000839 0.025988 0.004564
# 6 0.002640 0.002638 -0.000004 -0.003269 0.004564 0.024898
#
#
# Mechanical properties :
#
#
# Convention : Reuss Voigt Hill
#
# Bulk Modulus (GPa) = 73.53563 112.06814 92.80188
# Shear Modulus (GPa) = 35.42607 47.01332 41.21969
#
# Velocity S-wave (km/s) = 3.57525 4.11865 3.85653
# Velocity P-wave (km/s) = 6.60123 7.94066 7.30172
#
# Compressibility (1/GPa) = 0.01359885
#
# Stress axis : x y z
#
# Youngs Moduli (GPa) = 62.22341 63.77451 145.51362
#
# Poissons Ratio (x) = 0.49426 0.01993
# Poissons Ratio (y) = 0.48224 0.67303
# Poissons Ratio (z) = 0.00852 0.29497
#
# Static dielectric constant tensor:
#      x y z
#    x 2.426410 0.057250 -0.070560 
#    y 0.057250 2.067190 0.080580 
#    z -0.070560 0.080580 2.319260 
# 
# From -- ./inp_files/254292.got.cif
#   From: 2010.05.17/outbox.cif.g08.bks.cpg/sg2_128_cif.got.tgz:254292.got - 2010.06.03 11:33:40.
