data_PCOD9061128
_publ_section_title
;
Structure prediction by ZEFSAII (Michael W. Deem and Ramdas Pophale) SiO2 
 PCOD9061128
Probable space group: P -1
;
_chemical_formula_sum "Si O2"
_cell_formula_units_Z 16
_cell_length_a 17.986602
_cell_length_b 9.719175
_cell_length_c 11.735363
_cell_angle_alpha 47.620104
_cell_angle_beta 131.655421
_cell_angle_gamma 151.523843
_cell_volume 707.225212
_symmetry_space_group_name_H-M "P -1"
_symmetry_group_IT_number 2
_symmetry_cell_setting 'triclinic'
loop_
_space_group_symop_operation_xyz
x,y,z
-x,-y,-z
loop_
_atom_site_type_symbol
_atom_site_label
_atom_site_fract_x
_atom_site_fract_y
_atom_site_fract_z
Si Si1 0.652370 0.166611 0.808740
Si Si2 0.607050 0.482781 0.653992
Si Si3 0.965925 0.115854 0.607477
Si Si4 0.017589 0.783293 0.839859
Si Si5 0.860337 0.228629 0.245972
Si Si6 0.514497 0.698805 0.121995
Si Si7 0.734233 0.956058 0.854500
Si Si8 0.015880 0.237476 0.841017
O O1 0.573856 0.254253 0.669159
O O2 0.834363 0.480848 0.856262
O O3 0.671885 0.064443 0.774690
O O4 0.560009 0.918500 0.951219
O O5 0.500000 0.500000 0.500000
O O6 0.580004 0.384838 0.812966
O O7 0.787204 0.810422 0.637332
O O8 0.952428 0.258789 0.423596
O O9 0.053390 0.291162 0.715878
O O10 0.030649 0.015380 0.681272
O O11 0.049336 0.687099 0.824688
O O12 0.150851 0.950484 0.978732
O O13 0.854161 0.438543 0.149403
O O14 0.685902 0.888543 0.240164
O O15 0.414813 0.393994 0.127300
O O16 0.851567 0.103311 0.783460
O O17 0.000000 0.000000 0.000000
#
# Coordination Sequence:
#
# PCOD9061128 Si02
#       8
#     2   2   2   2   2   2   2   2
#     4  11  24  43  72 101 132 183 235 284 346 398
#     4  11  24  46  67  97 141 184 226 281 347 415
#     4  11  24  45  73 100 138 183 227 284 344 409
#     4  11  23  44  73 102 138 178 231 287 342 404
#     4  12  25  44  71 100 141 183 229 275 352 414
#     4  12  25  41  71 101 137 184 229 285 340 416
#     4  12  23  43  67 106 140 172 232 289 338 400
#     4  12  25  43  71 103 137 180 228 290 339 398
#
# _framework density 22.623629000000001
#
# number of rings (size 3 to 8) (size 9 to 14) (size 15 to 20)
#    0.000    0.500    6.250    2.625    1.750    1.000 
#    0.000    0.625    2.750    0.000    0.000    0.000 
#    0.000    0.000    0.000    0.000    0.000    0.000 
#
# Total GULP energy -89436.956545 kJ/mol
# GULP energy per Si atom -5589.809784 kJ/mol
# Density = 2.257214 g / cm^3
# Si number density = 22.623629 Si / 1000 Ang^3
#
#
#
# Elastic Constant Matrix: (Units=GPa)
#
#
# Indices 1 2 3 4 5 6 
#
# 1 96.3251 34.4435 37.8087 -14.4349 27.2226 -31.0851
# 2 34.4435 134.9216 33.4574 -4.9735 7.5908 -24.4494
# 3 37.8087 33.4574 74.8557 -9.7251 9.3369 -20.5222
# 4 -14.4349 -4.9735 -9.7251 24.4444 -3.8140 -1.5631
# 5 27.2226 7.5908 9.3369 -3.8140 33.9295 -5.9566
# 6 -31.0851 -24.4494 -20.5222 -1.5631 -5.9566 39.9910
#
#
#
# Elastic Compliance Matrix: (Units=1/GPa)
#
#
# Indices 1 2 3 4 5 6 
#
# 1 0.021330 -0.001148 -0.004088 0.009572 -0.012498 0.012293
# 2 -0.001148 0.008925 -0.002468 0.000407 0.000237 0.003349
# 3 -0.004088 -0.002468 0.018506 0.004793 0.000160 0.005022
# 4 0.009572 0.000407 0.004793 0.049075 -0.001494 0.011844
# 5 -0.012498 0.000237 0.000160 -0.001494 0.038568 -0.003801
# 6 0.012293 0.003349 0.005022 0.011844 -0.003801 0.039082
#
#
# Mechanical properties :
#
#
# Convention : Reuss Voigt Hill
#
# Bulk Modulus (GPa) = 29.98117 57.50240 43.74178
# Shear Modulus (GPa) = 24.75094 33.03250 28.89172
#
# Velocity S-wave (km/s) = 3.31120 3.82526 3.57747
# Velocity P-wave (km/s) = 5.28201 6.70688 6.03663
#
# Compressibility (1/GPa) = 0.03335427
#
# Stress axis : x y z
#
# Youngs Moduli (GPa) = 46.88238 112.04061 54.03579
#
# Poissons Ratio (x) = 0.12862 0.22089
# Poissons Ratio (y) = 0.05382 0.13335
# Poissons Ratio (z) = 0.19165 0.27650
#
# Static dielectric constant tensor:
#      x y z
#    x 1.870280 0.003220 0.000450 
#    y 0.003220 1.870670 0.002910 
#    z 0.000450 0.002910 1.889310 
# 
# From -- ./inp_files/306441.got.cif
#   From: 2010.05.17/outbox.cif.g08.bks.cpg/sg2_154_cif.got.tgz:306441.got - 2010.06.03 11:33:40.
