data_PCOD9061568
_publ_section_title
;
Structure prediction by ZEFSAII (Michael W. Deem and Ramdas Pophale) SiO2 
 PCOD9061568
Probable space group: P -1
;
_chemical_formula_sum "Si O2"
_cell_formula_units_Z 14
_cell_length_a 9.566599
_cell_length_b 12.078303
_cell_length_c 8.319852
_cell_angle_alpha 125.449699
_cell_angle_beta 61.814572
_cell_angle_gamma 126.630733
_cell_volume 616.628841
_symmetry_space_group_name_H-M "P -1"
_symmetry_group_IT_number 2
_symmetry_cell_setting 'triclinic'
loop_
_space_group_symop_operation_xyz
x,y,z
-x,-y,-z
loop_
_atom_site_type_symbol
_atom_site_label
_atom_site_fract_x
_atom_site_fract_y
_atom_site_fract_z
Si Si1 0.309598 0.972543 0.650654
Si Si2 0.978168 0.145525 0.573387
Si Si3 0.922762 0.351695 0.026593
Si Si4 0.748352 0.495236 0.806817
Si Si5 0.425766 0.287559 0.008260
Si Si6 0.617398 0.682353 0.581173
Si Si7 0.673719 0.278835 0.374027
O O1 0.291975 0.863006 0.717266
O O2 0.152500 0.895314 0.542468
O O3 0.500000 0.000000 0.500000
O O4 0.325249 0.132877 0.834382
O O5 0.178223 0.271071 0.528594
O O6 0.901507 0.211063 0.810928
O O7 0.000000 0.000000 0.500000
O O8 0.069879 0.388732 0.115502
O O9 0.751621 0.332504 0.200872
O O10 0.000000 0.500000 0.000000
O O11 0.626813 0.372259 0.902778
O O12 0.764845 0.403108 0.567985
O O13 0.650032 0.592449 0.884107
O O14 0.397440 0.253347 0.182931
O O15 0.500000 0.500000 0.500000
O O16 0.529403 0.747000 0.549450
#
# Coordination Sequence:
#
# PCOD9061568 Si02
#       7
#     2   2   2   2   2   2   2
#     4  12  27  48  72 108 151 191 240 311 368 429
#     4  12  29  50  74 106 153 198 244 296 368 450
#     4  12  27  45  73 107 148 188 247 305 370 428
#     4  11  23  45  73 106 139 195 245 298 358 446
#     4  11  25  43  76  99 148 190 244 291 374 431
#     4  12  26  49  76 109 144 196 249 301 360 447
#     4  12  26  44  75 108 147 185 243 307 368 424
#
# _framework density 22.704094000000001
#
# number of rings (size 3 to 8) (size 9 to 14) (size 15 to 20)
#    0.000    0.286    2.857    5.571    8.000    1.143 
#    0.000    0.000    0.000    0.000    0.000    0.000 
#    0.000    0.000    0.000    0.000    0.000    0.000 
#
# Total GULP energy -78413.542130 kJ/mol
# GULP energy per Si atom -5600.967295 kJ/mol
# Density = 2.265242 g / cm^3
# Si number density = 22.704094 Si / 1000 Ang^3
#
#
#
# Elastic Constant Matrix: (Units=GPa)
#
#
# Indices 1 2 3 4 5 6 
#
# 1 97.2206 5.0000 -14.5457 -7.4804 8.2568 14.1793
# 2 5.0000 74.7988 17.2572 2.5237 -8.0355 -1.0717
# 3 -14.5457 17.2572 114.5232 2.8086 8.8195 7.2257
# 4 -7.4804 2.5237 2.8086 37.3065 -0.3102 -0.4738
# 5 8.2568 -8.0355 8.8195 -0.3102 31.2175 3.4884
# 6 14.1793 -1.0717 7.2257 -0.4738 3.4884 41.3667
#
#
#
# Elastic Compliance Matrix: (Units=1/GPa)
#
#
# Indices 1 2 3 4 5 6 
#
# 1 0.011820 -0.001855 0.002277 0.002240 -0.003761 -0.004155
# 2 -0.001855 0.014744 -0.002882 -0.001097 0.004967 0.001090
# 3 0.002277 -0.002882 0.009901 -0.000155 -0.003891 -0.002259
# 4 0.002240 -0.001097 -0.000155 0.027330 -0.000513 -0.000413
# 5 -0.003761 0.004967 -0.003891 -0.000513 0.035501 -0.000902
# 6 -0.004155 0.001090 -0.002259 -0.000413 -0.000902 0.026092
#
#
# Mechanical properties :
#
#
# Convention : Reuss Voigt Hill
#
# Bulk Modulus (GPa) = 31.69822 33.55172 32.62497
# Shear Modulus (GPa) = 35.50562 40.56688 38.03625
#
# Velocity S-wave (km/s) = 3.95883 4.23160 4.09749
# Velocity P-wave (km/s) = 5.90663 6.21974 6.06520
#
# Compressibility (1/GPa) = 0.03154751
#
# Stress axis : x y z
#
# Youngs Moduli (GPa) = 84.60481 67.82294 100.99717
#
# Poissons Ratio (x) = 0.12579 -0.23002
# Poissons Ratio (y) = 0.15691 0.29104
# Poissons Ratio (z) = -0.19269 0.19545
#
# Static dielectric constant tensor:
#      x y z
#    x 1.900230 0.004990 -0.026750 
#    y 0.004990 1.883560 -0.041330 
#    z -0.026750 -0.041330 1.813930 
# 
# From -- ./inp_files/190620.got.cif
#   From: 2010.05.17/outbox.cif.g08.bks.cpg/sg2_96_cif.got.tgz:190620.got - 2010.06.03 11:33:40.
