data_PCOD9061282
_publ_section_title
;
Structure prediction by ZEFSAII (Michael W. Deem and Ramdas Pophale) SiO2 
 PCOD9061282
Probable space group: P -1
;
_chemical_formula_sum "Si O2"
_cell_formula_units_Z 15
_cell_length_a 16.774870
_cell_length_b 9.651216
_cell_length_c 13.001518
_cell_angle_alpha 59.888834
_cell_angle_beta 24.472589
_cell_angle_gamma 69.040299
_cell_volume 725.014952
_symmetry_space_group_name_H-M "P -1"
_symmetry_group_IT_number 2
_symmetry_cell_setting 'triclinic'
loop_
_space_group_symop_operation_xyz
x,y,z
-x,-y,-z
loop_
_atom_site_type_symbol
_atom_site_label
_atom_site_fract_x
_atom_site_fract_y
_atom_site_fract_z
Si Si1 0.846236 0.335850 0.108929
Si Si2 0.063718 0.901918 0.055072
Si Si3 0.752164 0.755340 0.649875
Si Si4 0.184224 0.974274 0.359729
Si Si5 0.047024 0.279139 0.108425
Si Si6 0.000000 0.500000 0.500000
Si Si7 0.355049 0.815048 0.036486
Si Si8 0.603726 0.891099 0.281477
O O1 0.613074 0.238161 0.409860
O O2 0.945224 0.280388 0.115557
O O3 0.941102 0.279012 0.916730
O O4 0.885290 0.532270 0.000211
O O5 0.917864 0.873691 0.334771
O O6 0.285458 0.009117 0.786456
O O7 0.000000 0.000000 0.000000
O O8 0.824960 0.593483 0.644954
O O9 0.737564 0.853402 0.735552
O O10 0.537193 0.732782 0.859371
O O11 0.324445 0.907579 0.143358
O O12 0.106226 0.834399 0.590039
O O13 0.000000 0.000000 0.500000
O O14 0.238739 0.207953 0.902615
O O15 0.150318 0.681292 0.294692
O O16 0.407046 0.963477 0.837655
#
# Coordination Sequence:
#
# PCOD9061282 Si02
#       8
#     2   2   2   2   2   1   2   2
#     4  11  26  40  70  96 134 177 223 281 337 391
#     4  12  22  44  68  94 136 177 224 277 331 400
#     4  12  26  45  69 101 136 180 227 272 342 405
#     4  12  21  45  72  96 135 180 224 275 338 397
#     4  11  23  45  64 101 136 168 225 286 329 396
#     4  12  24  48  64 102 142 166 220 288 336 402
#     4  12  26  43  75  98 135 181 227 281 335 406
#     4  12  22  45  69  98 130 180 229 274 334 405
#
# _framework density 20.689229000000001
#
# number of rings (size 3 to 8) (size 9 to 14) (size 15 to 20)
#    0.000    0.267    6.667    3.200    1.867    0.000 
#    0.000    0.000    2.933    0.000    0.000    0.000 
#    0.000    0.000    0.000    0.000    0.000    0.000 
#
# Total GULP energy -83613.830732 kJ/mol
# GULP energy per Si atom -5574.255382 kJ/mol
# Density = 2.064214 g / cm^3
# Si number density = 20.689229 Si / 1000 Ang^3
#
#
#
# Elastic Constant Matrix: (Units=GPa)
#
#
# Indices 1 2 3 4 5 6 
#
# 1 75.4478 36.3457 18.7946 8.4214 -18.6101 -6.3908
# 2 36.3457 125.2344 12.0828 0.3187 -6.9800 -12.7900
# 3 18.7946 12.0828 41.6378 10.1545 -20.4716 -0.5710
# 4 8.4214 0.3187 10.1545 32.1504 -4.3477 -13.1177
# 5 -18.6101 -6.9800 -20.4716 -4.3477 32.0058 3.8908
# 6 -6.3908 -12.7900 -0.5710 -13.1177 3.8908 42.9347
#
#
#
# Elastic Compliance Matrix: (Units=1/GPa)
#
#
# Indices 1 2 3 4 5 6 
#
# 1 0.018327 -0.004688 -0.002347 -0.003108 0.007753 -0.000352
# 2 -0.004688 0.009791 -0.002466 0.002958 -0.002166 0.003286
# 3 -0.002347 -0.002466 0.039577 -0.011271 0.022616 -0.006051
# 4 -0.003108 0.002958 -0.011271 0.040117 -0.004494 0.012933
# 5 0.007753 -0.002166 0.022616 -0.004494 0.049752 -0.005072
# 6 -0.000352 0.003286 -0.006051 0.012933 -0.005072 0.028548
#
#
# Mechanical properties :
#
#
# Convention : Reuss Voigt Hill
#
# Bulk Modulus (GPa) = 20.53709 41.86292 31.20000
# Shear Modulus (GPa) = 22.58905 33.09131 27.84018
#
# Velocity S-wave (km/s) = 3.30786 4.00365 3.67227
# Velocity P-wave (km/s) = 4.95351 6.45371 5.75272
#
# Compressibility (1/GPa) = 0.04869240
#
# Stress axis : x y z
#
# Youngs Moduli (GPa) = 54.56460 102.13490 25.26721
#
# Poissons Ratio (x) = 0.47884 0.05930
# Poissons Ratio (y) = 0.25582 0.06231
# Poissons Ratio (z) = 0.12805 0.25188
#
# Static dielectric constant tensor:
#      x y z
#    x 1.774950 0.034230 0.031730 
#    y 0.034230 1.751940 0.054030 
#    z 0.031730 0.054030 1.786020 
# 
# From -- ./inp_files/391218.got.cif
#   From: 2010.05.17/outbox.cif.g08.bks.cpg/sg2_196_cif.got.tgz:391218.got - 2010.06.03 11:33:40.
