data_PCOD9061007
_publ_section_title
;
Structure prediction by ZEFSAII (Michael W. Deem and Ramdas Pophale) SiO2 
 PCOD9061007
Probable space group: P -1
;
_chemical_formula_sum "Si O2"
_cell_formula_units_Z 14
_cell_length_a 12.562396
_cell_length_b 11.877255
_cell_length_c 4.927380
_cell_angle_alpha 60.776291
_cell_angle_beta 130.122425
_cell_angle_gamma 119.134147
_cell_volume 474.006744
_symmetry_space_group_name_H-M "P -1"
_symmetry_group_IT_number 2
_symmetry_cell_setting 'triclinic'
loop_
_space_group_symop_operation_xyz
x,y,z
-x,-y,-z
loop_
_atom_site_type_symbol
_atom_site_label
_atom_site_fract_x
_atom_site_fract_y
_atom_site_fract_z
Si Si1 0.868255 0.343126 0.683222
Si Si2 0.626353 0.440001 0.404509
Si Si3 0.417808 0.043567 0.063285
Si Si4 0.103295 0.110739 0.717498
Si Si5 0.162509 0.834312 0.635139
Si Si6 0.624263 0.773536 0.827722
Si Si7 0.192163 0.353031 0.137634
O O1 0.761980 0.438439 0.437443
O O2 0.788816 0.227239 0.481116
O O3 0.870506 0.284177 0.057632
O O4 0.036116 0.386917 0.816126
O O5 0.532656 0.288081 0.483387
O O6 0.693447 0.525589 0.671335
O O7 0.500000 0.500000 0.000000
O O8 0.421721 0.196499 0.971618
O O9 0.500000 0.000000 0.500000
O O10 0.500000 0.000000 0.000000
O O11 0.260738 0.956528 0.818845
O O12 0.158012 0.234929 0.451786
O O13 0.992018 0.140407 0.718721
O O14 0.246067 0.088014 0.122801
O O15 0.000000 0.000000 0.500000
O O16 0.726038 0.693438 0.929453
#
# Coordination Sequence:
#
# PCOD9061007 Si02
#       7
#     2   2   2   2   2   2   2
#     4  11  26  48  76 108 149 196 250 310 373 445
#     4  12  26  48  74 108 149 198 250 309 375 445
#     4  12  27  44  70 107 151 195 240 305 379 444
#     4  11  23  44  71 106 143 189 244 305 368 438
#     4  11  23  46  72 107 147 192 247 304 375 443
#     4  12  25  45  73 107 145 192 248 306 366 443
#     4  11  26  47  75 108 146 199 252 309 371 442
#
# _framework density 29.535446
#
# number of rings (size 3 to 8) (size 9 to 14) (size 15 to 20)
#    0.000    0.571    4.286    3.429    2.000    5.143 
#    0.000    2.857    0.000    0.000    0.000    0.000 
#    0.000    0.000    0.000    0.000    0.000    0.000 
#
# Total GULP energy -78193.069539 kJ/mol
# GULP energy per Si atom -5585.219253 kJ/mol
# Density = 2.946822 g / cm^3
# Si number density = 29.535446 Si / 1000 Ang^3
#
#
#
# Elastic Constant Matrix: (Units=GPa)
#
#
# Indices 1 2 3 4 5 6 
#
# 1 202.0585 64.4437 80.6391 14.6153 27.6947 -39.5468
# 2 64.4437 145.7509 76.7743 42.6444 5.9321 -37.7935
# 3 80.6391 76.7743 181.0707 19.8281 19.1452 -13.1009
# 4 14.6153 42.6444 19.8281 68.8893 6.7180 1.1717
# 5 27.6947 5.9321 19.1452 6.7180 76.6961 12.4741
# 6 -39.5468 -37.7935 -13.1009 1.1717 12.4741 66.4657
#
#
#
# Elastic Compliance Matrix: (Units=1/GPa)
#
#
# Indices 1 2 3 4 5 6 
#
# 1 0.007265 -0.000832 -0.002307 -0.000174 -0.002600 0.003885
# 2 -0.000832 0.012865 -0.003880 -0.006762 -0.000142 0.006201
# 3 -0.002307 -0.003880 0.008052 0.000667 -0.000629 -0.001886
# 4 -0.000174 -0.006762 0.000667 0.018670 -0.000558 -0.004042
# 5 -0.002600 -0.000142 -0.000629 -0.000558 0.014933 -0.004544
# 6 0.003885 0.006201 -0.001886 -0.004042 -0.004544 0.021436
#
#
# Mechanical properties :
#
#
# Convention : Reuss Voigt Hill
#
# Bulk Modulus (GPa) = 70.70696 108.06605 89.38650
# Shear Modulus (GPa) = 49.03187 62.87842 55.95514
#
# Velocity S-wave (km/s) = 4.07886 4.61902 4.35732
# Velocity P-wave (km/s) = 6.79518 8.06940 7.45954
#
# Compressibility (1/GPa) = 0.01414288
#
# Stress axis : x y z
#
# Youngs Moduli (GPa) = 137.65163 77.73000 124.18775
#
# Poissons Ratio (x) = 0.06470 0.28654
# Poissons Ratio (y) = 0.11458 0.48184
# Poissons Ratio (z) = 0.31760 0.30158
#
# Static dielectric constant tensor:
#      x y z
#    x 2.104660 -0.134870 -0.071570 
#    y -0.134870 2.608390 -0.272610 
#    z -0.071570 -0.272610 2.308530 
# 
# From -- ./inp_files/70939.got.cif
#   From: 2010.05.17/outbox.cif.g08.bks.cpg/sg2_36_cif.got.tgz:70939.got - 2010.06.03 11:33:40.
