data_PCOD9061816
_publ_section_title
;
Structure prediction by ZEFSAII (Michael W. Deem and Ramdas Pophale) SiO2 
 PCOD9061816
Probable space group: P -1
;
_chemical_formula_sum "Si O2"
_cell_formula_units_Z 16
_cell_length_a 13.246334
_cell_length_b 9.091280
_cell_length_c 17.989914
_cell_angle_alpha 69.662435
_cell_angle_beta 144.555283
_cell_angle_gamma 135.695130
_cell_volume 714.048635
_symmetry_space_group_name_H-M "P -1"
_symmetry_group_IT_number 2
_symmetry_cell_setting 'triclinic'
loop_
_space_group_symop_operation_xyz
x,y,z
-x,-y,-z
loop_
_atom_site_type_symbol
_atom_site_label
_atom_site_fract_x
_atom_site_fract_y
_atom_site_fract_z
Si Si1 0.987373 0.377390 0.445162
Si Si2 0.428802 0.808946 0.544800
Si Si3 0.649908 0.781957 0.048198
Si Si4 0.684997 0.700874 0.360233
Si Si5 0.629254 0.053500 0.892457
Si Si6 0.655606 0.657972 0.641553
Si Si7 0.641229 0.345453 0.953945
Si Si8 0.115463 0.902871 0.104871
O O1 0.093804 0.552422 0.407235
O O2 0.219268 0.405555 0.586043
O O3 0.000000 0.500000 0.500000
O O4 0.665040 0.086155 0.292096
O O5 0.524178 0.728833 0.570471
O O6 0.500000 0.000000 0.500000
O O7 0.597436 0.915085 0.705985
O O8 0.547774 0.791417 0.061574
O O9 0.500000 0.500000 0.000000
O O10 0.549200 0.823370 0.914537
O O11 0.000247 0.060464 0.205670
O O12 0.475317 0.544158 0.334285
O O13 0.525181 0.675630 0.204302
O O14 0.000000 0.000000 0.500000
O O15 0.722334 0.237391 0.982701
O O16 0.847948 0.169902 0.936760
O O17 0.500000 0.500000 0.500000
O O18 0.900544 0.649811 0.071695
O O19 0.000000 0.000000 0.000000
#
# Coordination Sequence:
#
# PCOD9061816 Si02
#       8
#     2   2   2   2   2   2   2   2
#     4  11  24  43  70 102 139 181 231 293 355 431
#     4  11  26  43  69 103 140 178 233 294 355 427
#     4  12  28  47  72 105 145 195 243 297 364 435
#     4  11  23  46  71 104 143 183 236 293 367 428
#     4  12  26  46  71 102 143 184 243 296 359 432
#     4  11  26  46  70 103 142 188 234 295 356 433
#     4  12  26  44  74 102 142 188 240 296 357 433
#     4  12  25  49  72 103 142 191 238 297 368 439
#
# _framework density 22.407439
#
# number of rings (size 3 to 8) (size 9 to 14) (size 15 to 20)
#    0.000    0.500    2.500    6.000    7.000    3.000 
#    0.000    0.000    0.000    0.000    0.000    0.000 
#    0.000    0.000    0.000    0.000    0.000    0.000 
#
# Total GULP energy -89189.038267 kJ/mol
# GULP energy per Si atom -5574.314892 kJ/mol
# Density = 2.235644 g / cm^3
# Si number density = 22.407439 Si / 1000 Ang^3
#
#
#
# Elastic Constant Matrix: (Units=GPa)
#
#
# Indices 1 2 3 4 5 6 
#
# 1 142.6101 19.1078 7.4619 10.3468 14.9495 9.6214
# 2 19.1078 95.7924 4.8314 10.8059 10.6758 6.0120
# 3 7.4619 4.8314 80.4764 19.0751 13.6324 1.6944
# 4 10.3468 10.8059 19.0751 40.9412 9.7401 -2.5167
# 5 14.9495 10.6758 13.6324 9.7401 31.0179 10.6891
# 6 9.6214 6.0120 1.6944 -2.5167 10.6891 33.5640
#
#
#
# Elastic Compliance Matrix: (Units=1/GPa)
#
#
# Indices 1 2 3 4 5 6 
#
# 1 0.007581 -0.001023 0.000091 -0.001163 -0.002537 -0.001274
# 2 -0.001023 0.011234 0.000422 -0.002401 -0.002407 -0.001154
# 3 0.000091 0.000422 0.014576 -0.005744 -0.004891 0.000290
# 4 -0.001163 -0.002401 -0.005744 0.030172 -0.007533 0.005715
# 5 -0.002537 -0.002407 -0.004891 -0.007533 0.043264 -0.012938
# 6 -0.001274 -0.001154 0.000290 0.005715 -0.012938 0.034900
#
#
# Mechanical properties :
#
#
# Convention : Reuss Voigt Hill
#
# Bulk Modulus (GPa) = 30.89319 42.40902 36.65111
# Shear Modulus (GPa) = 32.56529 40.26981 36.41755
#
# Velocity S-wave (km/s) = 3.81639 4.24389 4.03580
# Velocity P-wave (km/s) = 5.76513 6.55603 6.17326
#
# Compressibility (1/GPa) = 0.03236959
#
# Stress axis : x y z
#
# Youngs Moduli (GPa) = 131.91394 89.01911 68.60488
#
# Poissons Ratio (x) = 0.09105 -0.00623
# Poissons Ratio (y) = 0.13492 -0.02893
# Poissons Ratio (z) = -0.01197 -0.03753
#
# Static dielectric constant tensor:
#      x y z
#    x 1.857620 -0.015430 -0.108100 
#    y -0.015430 1.474080 -0.707390 
#    z -0.108100 -0.707390 0.731270 
# 
# From -- ./inp_files/566748.got.cif
#   From: 2010.05.17/outbox.cif.g08.bks.cpg/sg2_284_cif.got.tgz:566748.got - 2010.06.03 11:33:40.
