data_PCOD9061072
_publ_section_title
;
Structure prediction by ZEFSAII (Michael W. Deem and Ramdas Pophale) SiO2 
 PCOD9061072
Probable space group: P -1
;
_chemical_formula_sum "Si O2"
_cell_formula_units_Z 14
_cell_length_a 8.740571
_cell_length_b 9.530768
_cell_length_c 9.573813
_cell_angle_alpha 82.204363
_cell_angle_beta 135.436346
_cell_angle_gamma 97.311211
_cell_volume 553.924953
_symmetry_space_group_name_H-M "P -1"
_symmetry_group_IT_number 2
_symmetry_cell_setting 'triclinic'
loop_
_space_group_symop_operation_xyz
x,y,z
-x,-y,-z
loop_
_atom_site_type_symbol
_atom_site_label
_atom_site_fract_x
_atom_site_fract_y
_atom_site_fract_z
Si Si1 0.928059 0.306659 0.327870
Si Si2 0.866962 0.401445 0.571267
Si Si3 0.408507 0.470155 0.286841
Si Si4 0.455176 0.892455 0.858738
Si Si5 0.286040 0.090462 0.501016
Si Si6 0.796220 0.842089 0.854186
Si Si7 0.749112 0.249516 0.796611
O O1 0.975329 0.328052 0.521470
O O2 0.680559 0.246499 0.157206
O O3 0.087539 0.191286 0.388226
O O4 0.736655 0.396931 0.853373
O O5 0.636957 0.458829 0.356612
O O6 0.008231 0.535065 0.705066
O O7 0.805877 0.292863 0.668582
O O8 0.500000 0.500000 0.500000
O O9 0.281266 0.320061 0.213205
O O10 0.674388 0.867414 0.917141
O O11 0.295027 0.959927 0.629842
O O12 0.500000 0.000000 0.000000
O O13 0.279716 0.061018 0.335557
O O14 0.511507 0.177961 0.665904
O O15 0.056137 0.845904 0.019911
#
# Coordination Sequence:
#
# PCOD9061072 Si02
#       7
#     2   2   2   2   2   2   2
#     4  11  23  45  75 102 147 193 235 298 374 421
#     4  10  20  42  76 108 144 186 232 306 377 428
#     4  10  17  41  69 109 144 174 230 298 370 426
#     4  12  30  51  69 104 149 202 249 287 353 435
#     4  12  25  48  76 100 148 193 246 298 351 427
#     4  12  25  47  77 106 145 189 242 305 357 429
#     4  11  23  42  77 112 141 180 246 297 374 432
#
# _framework density 25.274183000000001
#
# number of rings (size 3 to 8) (size 9 to 14) (size 15 to 20)
#    0.000    0.857    5.714    2.143    4.000    0.571 
#    2.571    0.714    0.000    0.000    0.000    0.000 
#    0.000    0.000    0.000    0.000    0.000    0.000 
#
# Total GULP energy -78436.704270 kJ/mol
# GULP energy per Si atom -5602.621734 kJ/mol
# Density = 2.521666 g / cm^3
# Si number density = 25.274183 Si / 1000 Ang^3
#
#
#
# Elastic Constant Matrix: (Units=GPa)
#
#
# Indices 1 2 3 4 5 6 
#
# 1 126.7822 27.2220 32.4075 5.8875 10.9893 -4.6207
# 2 27.2220 83.9935 20.6161 11.4260 0.7227 -0.9442
# 3 32.4075 20.6161 78.2404 7.3084 8.6604 -11.7142
# 4 5.8875 11.4260 7.3084 40.6292 0.9498 8.2417
# 5 10.9893 0.7227 8.6604 0.9498 32.7654 6.8160
# 6 -4.6207 -0.9442 -11.7142 8.2417 6.8160 50.9264
#
#
#
# Elastic Compliance Matrix: (Units=1/GPa)
#
#
# Indices 1 2 3 4 5 6 
#
# 1 0.009356 -0.002257 -0.002916 -0.000241 -0.002414 0.000498
# 2 -0.002257 0.013665 -0.002554 -0.003042 0.001264 -0.000216
# 3 -0.002916 -0.002554 0.015986 -0.002515 -0.004015 0.004310
# 4 -0.000241 -0.003042 -0.002515 0.026979 0.001106 -0.005171
# 5 -0.002414 0.001264 -0.004015 0.001106 0.033535 -0.005786
# 6 0.000498 -0.000216 0.004310 -0.005171 -0.005786 0.022280
#
#
# Mechanical properties :
#
#
# Convention : Reuss Voigt Hill
#
# Bulk Modulus (GPa) = 42.45745 49.94527 46.20136
# Shear Modulus (GPa) = 34.45754 38.78226 36.61990
#
# Velocity S-wave (km/s) = 3.69636 3.92147 3.81058
# Velocity P-wave (km/s) = 5.92053 6.34887 6.13844
#
# Compressibility (1/GPa) = 0.02355299
#
# Stress axis : x y z
#
# Youngs Moduli (GPa) = 106.88004 73.18180 62.55288
#
# Poissons Ratio (x) = 0.16520 0.18242
# Poissons Ratio (y) = 0.24127 0.15973
# Poissons Ratio (z) = 0.31169 0.18687
#
# Static dielectric constant tensor:
#      x y z
#    x 2.001700 -0.015020 -0.008090 
#    y -0.015020 2.048380 -0.008960 
#    z -0.008090 -0.008960 2.028280 
# 
# From -- ./inp_files/180861.got.cif
#   From: 2010.05.17/outbox.cif.g08.bks.cpg/sg2_91_cif.got.tgz:180861.got - 2010.06.03 11:33:40.
