data_PCOD9061233
_publ_section_title
;
Structure prediction by ZEFSAII (Michael W. Deem and Ramdas Pophale) SiO2 
 PCOD9061233
Probable space group: P -1
;
_chemical_formula_sum "Si O2"
_cell_formula_units_Z 12
_cell_length_a 9.674134
_cell_length_b 16.347035
_cell_length_c 15.497182
_cell_angle_alpha 154.176699
_cell_angle_beta 36.542148
_cell_angle_gamma 153.285254
_cell_volume 479.914147
_symmetry_space_group_name_H-M "P -1"
_symmetry_group_IT_number 2
_symmetry_cell_setting 'triclinic'
loop_
_space_group_symop_operation_xyz
x,y,z
-x,-y,-z
loop_
_atom_site_type_symbol
_atom_site_label
_atom_site_fract_x
_atom_site_fract_y
_atom_site_fract_z
Si Si1 0.100344 0.412609 0.235986
Si Si2 0.585365 0.189086 0.839803
Si Si3 0.594467 0.322482 0.493246
Si Si4 0.729718 0.953742 0.872721
Si Si5 0.269409 0.481373 0.752654
Si Si6 0.376410 0.144550 0.719844
O O1 0.264782 0.489336 0.318368
O O2 0.358920 0.588808 0.203077
O O3 0.858014 0.453027 0.412321
O O4 0.882895 0.131244 0.047935
O O5 0.378757 0.153424 0.831410
O O6 0.923453 0.350718 0.781947
O O7 0.482098 0.926956 0.672836
O O8 0.632700 0.347592 0.048865
O O9 0.305782 0.282122 0.565437
O O10 0.040310 0.033709 0.748341
O O11 0.504432 0.667203 0.738032
O O12 0.500000 0.000000 0.000000
O O13 0.500000 0.000000 0.500000
#
# Coordination Sequence:
#
# PCOD9061233 Si02
#       6
#     2   2   2   2   2   2
#     4  11  24  44  71 104 140 184 238 287 356 416
#     4  11  24  46  72 103 143 184 240 293 351 421
#     4  11  23  44  76 103 141 185 240 294 349 423
#     4  12  27  46  71 105 148 186 236 297 357 421
#     4  11  25  44  72 105 141 189 236 291 360 420
#     4  12  25  45  72 105 141 189 237 290 353 423
#
# _framework density 25.004473999999998
#
# number of rings (size 3 to 8) (size 9 to 14) (size 15 to 20)
#    0.000    0.667    3.333    4.000    2.333    5.333 
#    0.000    3.333    0.000    0.000    0.000    0.000 
#    0.000    0.000    0.000    0.000    0.000    0.000 
#
# Total GULP energy -67100.661508 kJ/mol
# GULP energy per Si atom -5591.721792 kJ/mol
# Density = 2.494756 g / cm^3
# Si number density = 25.004474 Si / 1000 Ang^3
#
#
#
# Elastic Constant Matrix: (Units=GPa)
#
#
# Indices 1 2 3 4 5 6 
#
# 1 116.2580 40.6846 51.2450 -12.2018 -20.9429 28.5282
# 2 40.6846 159.6932 30.9685 1.9174 -23.8171 6.9992
# 3 51.2450 30.9685 70.6328 -10.0341 -3.5406 12.2995
# 4 -12.2018 1.9174 -10.0341 27.6801 4.6240 -5.3536
# 5 -20.9429 -23.8171 -3.5406 4.6240 41.2599 -8.0188
# 6 28.5282 6.9992 12.2995 -5.3536 -8.0188 35.5642
#
#
#
# Elastic Compliance Matrix: (Units=1/GPa)
#
#
# Indices 1 2 3 4 5 6 
#
# 1 0.016202 -0.001236 -0.009334 0.001432 0.004957 -0.008192
# 2 -0.001236 0.007719 -0.002822 -0.002593 0.004066 0.000975
# 3 -0.009334 -0.002822 0.022669 0.005106 -0.005025 -0.000161
# 4 0.001432 -0.002593 0.005106 0.040020 -0.004302 0.002650
# 5 0.004957 0.004066 -0.005025 -0.004302 0.029737 0.003019
# 6 -0.008192 0.000975 -0.000161 0.002650 0.003019 0.035633
#
#
# Mechanical properties :
#
#
# Convention : Reuss Voigt Hill
#
# Bulk Modulus (GPa) = 50.49276 65.82001 58.15639
# Shear Modulus (GPa) = 26.97353 35.81323 31.39338
#
# Velocity S-wave (km/s) = 3.28799 3.78864 3.54716
# Velocity P-wave (km/s) = 5.88658 6.74677 6.33130
#
# Compressibility (1/GPa) = 0.01980482
#
# Stress axis : x y z
#
# Youngs Moduli (GPa) = 61.72034 129.54946 44.11381
#
# Poissons Ratio (x) = 0.16019 0.41177
# Poissons Ratio (y) = 0.07632 0.12447
# Poissons Ratio (z) = 0.57612 0.36554
#
# Static dielectric constant tensor:
#      x y z
#    x 1.951620 -0.000660 -0.008990 
#    y -0.000660 1.956960 -0.050740 
#    z -0.008990 -0.050740 2.040570 
# 
# From -- ./inp_files/155013.got.cif
#   From: 2010.05.17/outbox.cif.g08.bks.cpg/sg2_78_cif.got.tgz:155013.got - 2010.06.03 11:33:40.
