data_PCOD9061458
_publ_section_title
;
Structure prediction by ZEFSAII (Michael W. Deem and Ramdas Pophale) SiO2 
 PCOD9061458
Probable space group: P -1
;
_chemical_formula_sum "Si O2"
_cell_formula_units_Z 16
_cell_length_a 9.042175
_cell_length_b 14.210334
_cell_length_c 13.598278
_cell_angle_alpha 148.466324
_cell_angle_beta 46.491631
_cell_angle_gamma 131.542046
_cell_volume 649.199843
_symmetry_space_group_name_H-M "P -1"
_symmetry_group_IT_number 2
_symmetry_cell_setting 'triclinic'
loop_
_space_group_symop_operation_xyz
x,y,z
-x,-y,-z
loop_
_atom_site_type_symbol
_atom_site_label
_atom_site_fract_x
_atom_site_fract_y
_atom_site_fract_z
Si Si1 0.587166 0.522275 0.151822
Si Si2 0.503038 0.299960 0.358636
Si Si3 0.076980 0.076526 0.902935
Si Si4 0.077912 0.115480 0.663494
Si Si5 0.358414 0.785767 0.992993
Si Si6 0.042971 0.204366 0.442069
Si Si7 0.306859 0.899846 0.775996
Si Si8 0.795006 0.511478 0.842481
O O1 0.726449 0.719909 0.290573
O O2 0.593959 0.386183 0.118889
O O3 0.363777 0.532682 0.216240
O O4 0.694878 0.452297 0.942327
O O5 0.500000 0.500000 0.500000
O O6 0.608207 0.221611 0.146207
O O7 0.260192 0.214605 0.405471
O O8 0.620570 0.286753 0.395453
O O9 0.280704 0.002936 0.779067
O O10 0.141235 0.267307 0.985508
O O11 0.935896 0.894534 0.758393
O O12 0.927610 0.132490 0.104436
O O13 0.000000 0.000000 0.500000
O O14 0.123999 0.957141 0.574449
O O15 0.878728 0.197631 0.862940
O O16 0.522372 0.958843 0.114505
O O17 0.975526 0.397625 0.642616
#
# Coordination Sequence:
#
# PCOD9061458 Si02
#       8
#     2   2   2   2   2   2   2   2
#     4  11  26  47  70 102 143 192 240 293 355 414
#     4  12  27  44  71 107 142 184 236 295 365 429
#     4  11  23  46  73 104 142 188 235 294 357 424
#     4  12  27  44  70 104 144 191 244 289 354 426
#     4  12  24  45  72  99 144 184 231 297 356 420
#     4  12  25  45  74 106 143 186 238 294 360 430
#     4  11  23  45  71 101 141 185 231 290 363 420
#     4  11  25  47  72 105 144 187 240 297 350 426
#
# _framework density 24.645723
#
# number of rings (size 3 to 8) (size 9 to 14) (size 15 to 20)
#    0.000    0.500    5.000    3.000    3.500    2.500 
#    0.000    2.500    0.000    0.000    0.000    0.000 
#    0.000    0.000    0.000    0.000    0.000    0.000 
#
# Total GULP energy -89418.563033 kJ/mol
# GULP energy per Si atom -5588.660190 kJ/mol
# Density = 2.458963 g / cm^3
# Si number density = 24.645723 Si / 1000 Ang^3
#
#
#
# Elastic Constant Matrix: (Units=GPa)
#
#
# Indices 1 2 3 4 5 6 
#
# 1 141.9899 27.3107 43.4447 9.0116 -28.4845 -6.4681
# 2 27.3107 88.2839 12.4273 13.2816 -15.4457 -17.6392
# 3 43.4447 12.4273 84.8228 10.0912 -26.6639 -10.9285
# 4 9.0116 13.2816 10.0912 38.0842 -3.2300 -7.0570
# 5 -28.4845 -15.4457 -26.6639 -3.2300 44.5424 10.0184
# 6 -6.4681 -17.6392 -10.9285 -7.0570 10.0184 38.0518
#
#
#
# Elastic Compliance Matrix: (Units=1/GPa)
#
#
# Indices 1 2 3 4 5 6 
#
# 1 0.009113 -0.001931 -0.003435 -0.000532 0.003359 -0.001316
# 2 -0.001931 0.013782 0.000865 -0.003430 0.002697 0.004963
# 3 -0.003435 0.000865 0.016280 -0.002808 0.007177 0.002082
# 4 -0.000532 -0.003430 -0.002808 0.028785 -0.001876 0.003345
# 5 0.003359 0.002697 0.007177 -0.001876 0.030718 -0.004553
# 6 -0.001316 0.004963 0.002082 0.003345 -0.004553 0.030774
#
#
# Mechanical properties :
#
#
# Convention : Reuss Voigt Hill
#
# Bulk Modulus (GPa) = 33.14068 53.49578 43.31823
# Shear Modulus (GPa) = 33.66752 39.59661 36.63207
#
# Velocity S-wave (km/s) = 3.70003 4.01263 3.85950
# Velocity P-wave (km/s) = 5.63291 6.57429 6.12172
#
# Compressibility (1/GPa) = 0.03017440
#
# Stress axis : x y z
#
# Youngs Moduli (GPa) = 109.73623 72.55766 61.42406
#
# Poissons Ratio (x) = 0.14009 0.21098
# Poissons Ratio (y) = 0.21186 -0.05314
# Poissons Ratio (z) = 0.37692 -0.06277
#
# Static dielectric constant tensor:
#      x y z
#    x 2.066170 -0.108940 0.052380 
#    y -0.108940 2.057340 -0.024450 
#    z 0.052380 -0.024450 2.109160 
# 
# From -- ./inp_files/398501.got.cif
#   From: 2010.05.17/outbox.cif.g08.bks.cpg/sg2_200_cif.got.tgz:398501.got - 2010.06.03 11:33:40.
