data_PCOD9061434
_publ_section_title
;
Structure prediction by ZEFSAII (Michael W. Deem and Ramdas Pophale) SiO2 
 PCOD9061434
Probable space group: P -1
;
_chemical_formula_sum "Si O2"
_cell_formula_units_Z 14
_cell_length_a 9.221786
_cell_length_b 18.733138
_cell_length_c 15.757233
_cell_angle_alpha 18.928918
_cell_angle_beta 45.824927
_cell_angle_gamma 49.520261
_cell_volume 632.743237
_symmetry_space_group_name_H-M "P -1"
_symmetry_group_IT_number 2
_symmetry_cell_setting 'triclinic'
loop_
_space_group_symop_operation_xyz
x,y,z
-x,-y,-z
loop_
_atom_site_type_symbol
_atom_site_label
_atom_site_fract_x
_atom_site_fract_y
_atom_site_fract_z
Si Si1 0.636753 0.956278 0.912796
Si Si2 0.326085 0.086831 0.757196
Si Si3 0.051651 0.344047 0.885367
Si Si4 0.449086 0.270755 0.334644
Si Si5 0.030516 0.741658 0.179052
Si Si6 0.059119 0.228988 0.446590
Si Si7 0.151394 0.005142 0.511616
O O1 0.526399 0.025120 0.794753
O O2 0.842628 0.101249 0.680171
O O3 0.500000 0.000000 0.000000
O O4 0.710740 0.706820 0.156337
O O5 0.368410 0.285434 0.448758
O O6 0.162682 0.136622 0.840943
O O7 0.225048 0.880178 0.979136
O O8 0.974217 0.296358 0.876351
O O9 0.988713 0.565503 0.705664
O O10 0.949600 0.165571 0.189440
O O11 0.264099 0.150082 0.495288
O O12 0.629857 0.100762 0.465769
O O13 0.500000 0.500000 0.000000
O O14 0.000000 0.500000 0.500000
O O15 0.131441 0.237627 0.308522
O O16 0.000000 0.000000 0.500000
#
# Coordination Sequence:
#
# PCOD9061434 Si02
#       7
#     2   2   2   2   2   2   2
#     4  11  24  44  71 102 150 199 236 309 382 437
#     4  11  25  47  69 108 149 193 249 312 376 440
#     4  11  23  45  70 110 142 187 250 302 377 447
#     4  12  24  47  78 110 148 199 253 307 372 442
#     4  11  25  43  77 104 144 190 254 314 374 448
#     4  11  25  44  74 102 149 190 250 299 376 437
#     4  11  25  48  73 108 150 197 242 309 372 443
#
# _framework density 22.125879999999999
#
# number of rings (size 3 to 8) (size 9 to 14) (size 15 to 20)
#    0.000    0.857    2.857    4.714    4.000    2.286 
#    2.571    1.429    0.000    0.000    0.000    0.000 
#    0.000    0.000    0.000    0.000    0.000    0.000 
#
# Total GULP energy -77969.382057 kJ/mol
# GULP energy per Si atom -5569.241576 kJ/mol
# Density = 2.207552 g / cm^3
# Si number density = 22.125880 Si / 1000 Ang^3
#
#
#
# Elastic Constant Matrix: (Units=GPa)
#
#
# Indices 1 2 3 4 5 6 
#
# 1 191.1243 68.7370 64.8521 2.5103 14.4105 10.4350
# 2 68.7370 129.9532 24.3295 -5.7972 -0.1019 12.5615
# 3 64.8521 24.3295 89.4125 10.0184 4.6888 11.0699
# 4 2.5103 -5.7972 10.0184 35.8065 3.7822 0.8270
# 5 14.4105 -0.1019 4.6888 3.7822 29.3881 10.5689
# 6 10.4350 12.5615 11.0699 0.8270 10.5689 50.6099
#
#
#
# Elastic Compliance Matrix: (Units=1/GPa)
#
#
# Indices 1 2 3 4 5 6 
#
# 1 0.008516 -0.003608 -0.005199 0.000653 -0.003826 0.001065
# 2 -0.003608 0.009918 -0.000123 0.001690 0.002404 -0.002221
# 3 -0.005199 -0.000123 0.015693 -0.004146 0.001505 -0.002577
# 4 0.000653 0.001690 -0.004146 0.029692 -0.003705 0.000641
# 5 -0.003826 0.002404 0.001505 -0.003705 0.039113 -0.008245
# 6 0.001065 -0.002221 -0.002577 0.000641 -0.008245 0.022365
#
#
# Mechanical properties :
#
#
# Convention : Reuss Voigt Hill
#
# Bulk Modulus (GPa) = 61.47077 80.70302 71.08690
# Shear Modulus (GPa) = 33.65197 39.99899 36.82548
#
# Velocity S-wave (km/s) = 3.90414 4.25643 4.08409
# Velocity P-wave (km/s) = 6.94015 7.79166 7.37820
#
# Compressibility (1/GPa) = 0.01626789
#
# Stress axis : x y z
#
# Youngs Moduli (GPa) = 117.43152 100.82467 63.72200
#
# Poissons Ratio (x) = 0.36374 0.33131
# Poissons Ratio (y) = 0.42365 0.00781
# Poissons Ratio (z) = 0.61056 0.01236
#
# Static dielectric constant tensor:
#      x y z
#    x 1.762890 -0.001750 0.059300 
#    y -0.001750 2.185320 -0.124680 
#    z 0.059300 -0.124680 1.924450 
# 
# From -- ./inp_files/507211.got.cif
#   From: 2010.05.17/outbox.cif.g08.bks.cpg/sg2_254_cif.got.tgz:507211.got - 2010.06.03 11:33:40.
