data_PCOD9061529
_publ_section_title
;
Structure prediction by ZEFSAII (Michael W. Deem and Ramdas Pophale) SiO2 
 PCOD9061529
Probable space group: P -1
;
_chemical_formula_sum "Si O2"
_cell_formula_units_Z 14
_cell_length_a 7.686452
_cell_length_b 15.864911
_cell_length_c 6.002645
_cell_angle_alpha 99.988024
_cell_angle_beta 96.012654
_cell_angle_gamma 59.504048
_cell_volume 621.051651
_symmetry_space_group_name_H-M "P -1"
_symmetry_group_IT_number 2
_symmetry_cell_setting 'triclinic'
loop_
_space_group_symop_operation_xyz
x,y,z
-x,-y,-z
loop_
_atom_site_type_symbol
_atom_site_label
_atom_site_fract_x
_atom_site_fract_y
_atom_site_fract_z
Si Si1 0.335758 0.059723 0.309916
Si Si2 0.921822 0.455854 0.780283
Si Si3 0.289083 0.591915 0.935122
Si Si4 0.617350 0.261105 0.832940
Si Si5 0.915185 0.110323 0.449903
Si Si6 0.577799 0.123339 0.074369
Si Si7 0.282817 0.432205 0.571938
O O1 0.410240 0.126293 0.220742
O O2 0.108392 0.117382 0.398347
O O3 0.500000 0.000000 0.500000
O O4 0.343692 0.978085 0.100327
O O5 0.860981 0.385760 0.866274
O O6 0.728285 0.548363 0.682265
O O7 0.102098 0.412931 0.609017
O O8 0.000000 0.500000 0.000000
O O9 0.310169 0.686900 0.952427
O O10 0.500000 0.500000 0.000000
O O11 0.236850 0.539656 0.707086
O O12 0.798782 0.180674 0.673308
O O13 0.508692 0.210531 0.924688
O O14 0.475511 0.345950 0.677363
O O15 0.755762 0.124026 0.241747
O O16 0.000000 0.000000 0.500000
#
# Coordination Sequence:
#
# PCOD9061529 Si02
#       7
#     2   2   2   2   2   2   2
#     4  11  23  45  72  94 131 186 226 276 347 402
#     4   9  18  38  66  90 126 174 216 264 331 393
#     4   9  20  38  61  89 124 167 212 263 328 383
#     4  11  24  40  65 101 131 168 226 278 328 401
#     4  12  24  44  68  99 139 177 226 281 342 397
#     4  11  24  43  70  96 134 179 228 281 340 402
#     4   9  20  40  66  91 130 171 216 271 328 389
#
# _framework density 22.542408999999999
#
# number of rings (size 3 to 8) (size 9 to 14) (size 15 to 20)
#    0.000    1.714    2.857    0.429    0.000    6.857 
#    7.714    0.000    0.000    0.000    0.000    0.000 
#    0.000    0.000    0.000    0.000    0.000    0.000 
#
# Total GULP energy -78158.740855 kJ/mol
# GULP energy per Si atom -5582.767204 kJ/mol
# Density = 2.249110 g / cm^3
# Si number density = 22.542409 Si / 1000 Ang^3
#
#
#
# Elastic Constant Matrix: (Units=GPa)
#
#
# Indices 1 2 3 4 5 6 
#
# 1 142.7822 40.2442 47.5593 3.7582 -11.9592 15.9451
# 2 40.2442 97.5347 40.3709 2.0745 -2.4526 17.7027
# 3 47.5593 40.3709 85.4217 -7.1916 1.4055 0.9708
# 4 3.7582 2.0745 -7.1916 31.7672 -2.5100 -4.4212
# 5 -11.9592 -2.4526 1.4055 -2.5100 39.0264 -9.8588
# 6 15.9451 17.7027 0.9708 -4.4212 -9.8588 29.6137
#
#
#
# Elastic Compliance Matrix: (Units=1/GPa)
#
#
# Indices 1 2 3 4 5 6 
#
# 1 0.009695 -0.001003 -0.005132 -0.002687 0.001849 -0.004237
# 2 -0.001003 0.015270 -0.006849 -0.003894 -0.001759 -0.009531
# 3 -0.005132 -0.006849 0.018244 0.006121 -0.000496 0.007008
# 4 -0.002687 -0.003894 0.006121 0.035101 0.003489 0.009976
# 5 0.001849 -0.001759 -0.000496 0.003489 0.028903 0.010215
# 6 -0.004237 -0.009531 0.007008 0.009976 0.010215 0.046407
#
#
# Mechanical properties :
#
#
# Convention : Reuss Voigt Hill
#
# Bulk Modulus (GPa) = 58.00038 64.67637 61.33837
# Shear Modulus (GPa) = 26.97824 33.25242 30.11533
#
# Velocity S-wave (km/s) = 3.46320 3.84488 3.65902
# Velocity P-wave (km/s) = 6.46351 6.96161 6.71718
#
# Compressibility (1/GPa) = 0.01724127
#
# Stress axis : x y z
#
# Youngs Moduli (GPa) = 103.14950 65.48848 54.81122
#
# Poissons Ratio (x) = 0.06570 0.28129
# Poissons Ratio (y) = 0.10348 0.37539
# Poissons Ratio (z) = 0.52936 0.44851
#
# Static dielectric constant tensor:
#      x y z
#    x 1.807820 -0.041470 -0.014170 
#    y -0.041470 1.805280 -0.034970 
#    z -0.014170 -0.034970 1.914410 
# 
# From -- ./inp_files/52009.got.cif
#   From: 2010.05.17/outbox.cif.g08.bks.cpg/sg2_27_cif.got.tgz:52009.got - 2010.06.03 11:33:40.
