data_PCOD9061355
_publ_section_title
;
Structure prediction by ZEFSAII (Michael W. Deem and Ramdas Pophale) SiO2 
 PCOD9061355
Probable space group: P -1
;
_chemical_formula_sum "Si O2"
_cell_formula_units_Z 14
_cell_length_a 16.227920
_cell_length_b 15.829997
_cell_length_c 9.490919
_cell_angle_alpha 29.364341
_cell_angle_beta 145.960971
_cell_angle_gamma 141.377733
_cell_volume 653.528825
_symmetry_space_group_name_H-M "P -1"
_symmetry_group_IT_number 2
_symmetry_cell_setting 'triclinic'
loop_
_space_group_symop_operation_xyz
x,y,z
-x,-y,-z
loop_
_atom_site_type_symbol
_atom_site_label
_atom_site_fract_x
_atom_site_fract_y
_atom_site_fract_z
Si Si1 0.184451 0.688047 0.105525
Si Si2 0.531976 0.480137 0.237526
Si Si3 0.244949 0.818822 0.689478
Si Si4 0.982969 0.570787 0.529509
Si Si5 0.539424 0.692440 0.204121
Si Si6 0.757483 0.797992 0.787723
Si Si7 0.825674 0.939081 0.378528
O O1 0.309832 0.572765 0.442750
O O2 0.055233 0.577660 0.185445
O O3 0.166715 0.739161 0.842541
O O4 0.238267 0.881646 0.968452
O O5 0.522527 0.645457 0.082292
O O6 0.402093 0.311228 0.335123
O O7 0.500000 0.500000 0.000000
O O8 0.136046 0.709305 0.579228
O O9 0.252288 0.026936 0.395812
O O10 0.412722 0.788452 0.946484
O O11 0.000000 0.500000 0.500000
O O12 0.846981 0.674388 0.177796
O O13 0.500000 0.500000 0.500000
O O14 0.708295 0.797622 0.326882
O O15 0.837306 0.862727 0.661263
O O16 0.000000 0.000000 0.500000
#
# Coordination Sequence:
#
# PCOD9061355 Si02
#       7
#     2   2   2   2   2   2   2
#     4  11  24  43  70  98 138 183 234 281 350 407
#     4  12  24  44  70 101 140 179 231 288 347 415
#     4  11  25  44  70 101 137 185 238 283 348 416
#     4  12  25  42  69 101 144 188 230 287 350 410
#     4  12  24  44  75 101 134 186 239 284 345 414
#     4  11  23  45  69 100 144 184 225 294 350 405
#     4  11  25  45  72 105 140 178 236 290 341 415
#
# _framework density 21.422162
#
# number of rings (size 3 to 8) (size 9 to 14) (size 15 to 20)
#    0.000    0.571    4.286    3.429    2.000    4.571 
#    5.143    1.429    0.000    0.000    0.000    0.000 
#    0.000    0.000    0.000    0.000    0.000    0.000 
#
# Total GULP energy -78179.174583 kJ/mol
# GULP energy per Si atom -5584.226756 kJ/mol
# Density = 2.137340 g / cm^3
# Si number density = 21.422162 Si / 1000 Ang^3
#
#
#
# Elastic Constant Matrix: (Units=GPa)
#
#
# Indices 1 2 3 4 5 6 
#
# 1 104.1433 49.0790 20.4250 -7.6768 -2.2332 -1.7661
# 2 49.0790 166.0752 20.7383 -4.0412 4.9067 -8.7743
# 3 20.4250 20.7383 65.4357 -16.3343 8.4579 -14.7610
# 4 -7.6768 -4.0412 -16.3343 27.7003 0.8900 0.6028
# 5 -2.2332 4.9067 8.4579 0.8900 21.3396 3.0957
# 6 -1.7661 -8.7743 -14.7610 0.6028 3.0957 40.1127
#
#
#
# Elastic Compliance Matrix: (Units=1/GPa)
#
#
# Indices 1 2 3 4 5 6 
#
# 1 0.011903 -0.003278 -0.003319 0.000787 0.003529 -0.001699
# 2 -0.003278 0.007206 -0.000807 -0.000301 -0.001854 0.001283
# 3 -0.003319 -0.000807 0.023230 0.012827 -0.011194 0.008897
# 4 0.000787 -0.000301 0.012827 0.043977 -0.007434 0.004602
# 5 0.003529 -0.001854 -0.011194 -0.007434 0.053622 -0.008396
# 6 -0.001699 0.001283 0.008897 0.004602 -0.008396 0.028988
#
#
# Mechanical properties :
#
#
# Convention : Reuss Voigt Hill
#
# Bulk Modulus (GPa) = 36.32373 57.34877 46.83625
# Shear Modulus (GPa) = 25.91877 34.19132 30.05505
#
# Velocity S-wave (km/s) = 3.48214 3.99942 3.74971
# Velocity P-wave (km/s) = 5.75848 6.93946 6.37637
#
# Compressibility (1/GPa) = 0.02753021
#
# Stress axis : x y z
#
# Youngs Moduli (GPa) = 84.01412 138.77290 43.04832
#
# Poissons Ratio (x) = 0.45488 0.14289
# Poissons Ratio (y) = 0.27539 0.03474
# Poissons Ratio (z) = 0.27887 0.11198
#
# Static dielectric constant tensor:
#      x y z
#    x 2.156900 0.152850 -0.122650 
#    y 0.152850 1.832900 -0.062780 
#    z -0.122650 -0.062780 1.824000 
# 
# From -- ./inp_files/216976.got.cif
#   From: 2010.05.17/outbox.cif.g08.bks.cpg/sg2_109_cif.got.tgz:216976.got - 2010.06.03 11:33:40.
