data_PCOD9061565
_publ_section_title
;
Structure prediction by ZEFSAII (Michael W. Deem and Ramdas Pophale) SiO2 
 PCOD9061565
Probable space group: P -1
;
_chemical_formula_sum "Si O2"
_cell_formula_units_Z 16
_cell_length_a 11.076039
_cell_length_b 5.592164
_cell_length_c 10.961738
_cell_angle_alpha 107.510231
_cell_angle_beta 90.677198
_cell_angle_gamma 76.527595
_cell_volume 628.436441
_symmetry_space_group_name_H-M "P -1"
_symmetry_group_IT_number 2
_symmetry_cell_setting 'triclinic'
loop_
_space_group_symop_operation_xyz
x,y,z
-x,-y,-z
loop_
_atom_site_type_symbol
_atom_site_label
_atom_site_fract_x
_atom_site_fract_y
_atom_site_fract_z
Si Si1 0.802519 0.526908 0.080022
Si Si2 0.929844 0.087927 0.883219
Si Si3 0.473091 0.715179 0.422456
Si Si4 0.863201 0.661227 0.493370
Si Si5 0.302054 0.984755 0.274019
Si Si6 0.293292 0.636629 0.723351
Si Si7 0.525321 0.786097 0.071650
Si Si8 0.873050 0.925704 0.304635
O O1 0.759399 0.318231 0.134273
O O2 0.673748 0.720144 0.077319
O O3 0.879952 0.662513 0.191413
O O4 0.882200 0.397067 0.948208
O O5 0.798088 0.035366 0.834062
O O6 0.021278 0.980541 0.754941
O O7 0.000000 0.000000 0.000000
O O8 0.500000 0.500000 0.500000
O O9 0.341731 0.783725 0.358812
O O10 0.573297 0.553139 0.303432
O O11 0.500000 0.000000 0.500000
O O12 0.789319 0.507990 0.382140
O O13 0.886010 0.889765 0.441807
O O14 0.000000 0.500000 0.500000
O O15 0.769812 0.757601 0.617840
O O16 0.434057 0.935202 0.200044
O O17 0.266463 0.906022 0.695534
O O18 0.500000 0.500000 0.000000
O O19 0.500000 0.000000 0.000000
#
# Coordination Sequence:
#
# PCOD9061565 Si02
#       8
#     2   2   2   2   2   2   2   2
#     4  11  25  46  75 108 151 207 265 327 398 473
#     4  12  26  48  77 111 161 213 274 328 399 486
#     4  12  27  49  78 116 160 203 263 330 406 487
#     4  11  26  47  72 113 152 201 266 329 406 480
#     4  12  27  49  81 121 160 211 269 338 413 485
#     4  11  23  45  73 103 153 193 257 330 394 471
#     4  12  29  51  78 117 163 206 269 336 399 485
#     4  11  26  46  78 107 153 212 263 336 400 480
#
# _framework density 25.460013
#
# number of rings (size 3 to 8) (size 9 to 14) (size 15 to 20)
#    0.000    0.500    5.000    1.875    7.000    5.000 
#    2.250    0.000    0.000    0.000    0.000    0.000 
#    0.000    0.000    0.000    0.000    0.000    0.000 
#
# Total GULP energy -89226.884002 kJ/mol
# GULP energy per Si atom -5576.680250 kJ/mol
# Density = 2.540206 g / cm^3
# Si number density = 25.460013 Si / 1000 Ang^3
#
#
#
# Elastic Constant Matrix: (Units=GPa)
#
#
# Indices 1 2 3 4 5 6 
#
# 1 103.0051 39.4911 44.9027 -2.0958 -9.7434 -41.1537
# 2 39.4911 120.0027 40.4217 -19.3607 -13.9309 -28.2205
# 3 44.9027 40.4217 128.2430 10.3714 -24.9787 -16.4790
# 4 -2.0958 -19.3607 10.3714 49.9108 -15.2083 4.3404
# 5 -9.7434 -13.9309 -24.9787 -15.2083 52.3951 9.8598
# 6 -41.1537 -28.2205 -16.4790 4.3404 9.8598 49.7286
#
#
#
# Elastic Compliance Matrix: (Units=1/GPa)
#
#
# Indices 1 2 3 4 5 6 
#
# 1 0.016709 -0.001611 -0.004087 -0.000632 -0.001702 0.011952
# 2 -0.001611 0.011753 -0.002650 0.005502 0.002504 0.003482
# 3 -0.004087 -0.002650 0.010657 -0.002250 0.003304 -0.001814
# 4 -0.000632 0.005502 -0.002250 0.025200 0.007949 -0.001922
# 5 -0.001702 0.002504 0.003304 0.007949 0.024140 -0.004373
# 6 0.011952 0.003482 -0.001814 -0.001922 -0.004373 0.032410
#
#
# Mechanical properties :
#
#
# Convention : Reuss Voigt Hill
#
# Bulk Modulus (GPa) = 44.60013 66.76465 55.68239
# Shear Modulus (GPa) = 34.47323 45.50259 39.98791
#
# Velocity S-wave (km/s) = 3.68369 4.23214 3.96740
# Velocity P-wave (km/s) = 5.97063 7.08248 6.55019
#
# Compressibility (1/GPa) = 0.02242146
#
# Stress axis : x y z
#
# Youngs Moduli (GPa) = 59.84865 85.08323 93.83828
#
# Poissons Ratio (x) = 0.13705 0.38355
# Poissons Ratio (y) = 0.09640 0.24872
# Poissons Ratio (z) = 0.24462 0.22551
#
# Static dielectric constant tensor:
#      x y z
#    x 2.018200 0.006930 -0.097200 
#    y 0.006930 2.099300 -0.135130 
#    z -0.097200 -0.135130 1.968700 
# 
# From -- ./inp_files/411070.got.cif
#   From: 2010.05.17/outbox.cif.g08.bks.cpg/sg2_206_cif.got.tgz:411070.got - 2010.06.03 11:33:40.
