data_PCOD9061236
_publ_section_title
;
Structure prediction by ZEFSAII (Michael W. Deem and Ramdas Pophale) SiO2 
 PCOD9061236
Probable space group: P -1
;
_chemical_formula_sum "Si O2"
_cell_formula_units_Z 16
_cell_length_a 14.552897
_cell_length_b 9.154341
_cell_length_c 14.264118
_cell_angle_alpha 41.673144
_cell_angle_beta 39.931507
_cell_angle_gamma 39.111473
_cell_volume 713.208606
_symmetry_space_group_name_H-M "P -1"
_symmetry_group_IT_number 2
_symmetry_cell_setting 'triclinic'
loop_
_space_group_symop_operation_xyz
x,y,z
-x,-y,-z
loop_
_atom_site_type_symbol
_atom_site_label
_atom_site_fract_x
_atom_site_fract_y
_atom_site_fract_z
Si Si1 0.506772 0.745619 0.845741
Si Si2 0.012896 0.096175 0.842024
Si Si3 0.032013 0.224548 0.137087
Si Si4 0.854932 0.613113 0.634045
Si Si5 0.242540 0.829619 0.521579
Si Si6 0.463730 0.506396 0.666247
Si Si7 0.611293 0.919146 0.043149
Si Si8 0.377716 0.908365 0.678793
O O1 0.680893 0.673686 0.698967
O O2 0.374576 0.906222 0.794466
O O3 0.482846 0.905269 0.880601
O O4 0.500000 0.500000 0.000000
O O5 0.894477 0.390300 0.782921
O O6 0.196696 0.053185 0.710325
O O7 0.981629 0.936985 0.862118
O O8 0.000000 0.000000 0.000000
O O9 0.900222 0.234761 0.309972
O O10 0.215821 0.088405 0.097869
O O11 0.000000 0.500000 0.000000
O O12 0.000000 0.500000 0.500000
O O13 0.832903 0.872746 0.567918
O O14 0.374487 0.725272 0.554272
O O15 0.352802 0.677191 0.420953
O O16 0.365072 0.352501 0.818530
O O17 0.449641 0.626279 0.720448
O O18 0.500000 0.000000 0.000000
O O19 0.500000 0.000000 0.500000
#
# Coordination Sequence:
#
# PCOD9061236 Si02
#       8
#     2   2   2   2   2   2   2   2
#     4  12  26  45  72 108 146 195 247 304 373 441
#     4  12  26  46  73 111 152 189 242 312 373 447
#     4  12  24  46  75 105 142 199 245 304 373 442
#     4  12  23  45  74 104 145 194 247 301 369 439
#     4  11  23  44  76 103 145 200 244 307 367 441
#     4  11  23  46  73 104 148 193 253 303 374 444
#     4  12  26  47  72 105 146 195 248 310 373 446
#     4  12  25  45  74 111 143 195 246 301 372 448
#
# _framework density 22.43383
#
# number of rings (size 3 to 8) (size 9 to 14) (size 15 to 20)
#    0.000    0.250    5.000    4.500    1.750    2.000 
#    2.250    1.875    0.000    0.000    0.000    0.000 
#    0.000    0.000    0.000    0.000    0.000    0.000 
#
# Total GULP energy -89580.393651 kJ/mol
# GULP energy per Si atom -5598.774603 kJ/mol
# Density = 2.238277 g / cm^3
# Si number density = 22.433830 Si / 1000 Ang^3
#
#
#
# Elastic Constant Matrix: (Units=GPa)
#
#
# Indices 1 2 3 4 5 6 
#
# 1 129.7507 42.1647 30.6984 2.3706 -9.7616 -3.9201
# 2 42.1647 111.0094 30.9621 -7.8530 -9.2481 -2.9384
# 3 30.6984 30.9621 98.6660 -7.3111 -26.7956 -6.8389
# 4 2.3706 -7.8530 -7.3111 56.3255 -10.5577 -5.5982
# 5 -9.7616 -9.2481 -26.7956 -10.5577 46.9395 5.5613
# 6 -3.9201 -2.9384 -6.8389 -5.5982 5.5613 36.6939
#
#
#
# Elastic Compliance Matrix: (Units=1/GPa)
#
#
# Indices 1 2 3 4 5 6 
#
# 1 0.009176 -0.003004 -0.002000 -0.001060 -0.000090 0.000219
# 2 -0.003004 0.010926 -0.002208 0.001498 0.000571 0.000285
# 3 -0.002000 -0.002208 0.013848 0.003146 0.007582 0.001521
# 4 -0.001060 0.001498 0.003146 0.019810 0.006006 0.002705
# 5 -0.000090 0.000571 0.007582 0.006006 0.027286 -0.001770
# 6 0.000219 0.000285 0.001521 0.002705 -0.001770 0.028263
#
#
# Mechanical properties :
#
#
# Convention : Reuss Voigt Hill
#
# Bulk Modulus (GPa) = 51.21517 60.78628 56.00072
# Shear Modulus (GPa) = 38.38977 43.69850 41.04413
#
# Velocity S-wave (km/s) = 4.14121 4.41827 4.28198
# Velocity P-wave (km/s) = 6.76351 7.29265 7.03306
#
# Compressibility (1/GPa) = 0.01952547
#
# Stress axis : x y z
#
# Youngs Moduli (GPa) = 108.98359 91.52241 72.21266
#
# Poissons Ratio (x) = 0.27494 0.14442
# Poissons Ratio (y) = 0.32739 0.15947
# Poissons Ratio (z) = 0.21795 0.20211
#
# Static dielectric constant tensor:
#      x y z
#    x 1.874640 -0.046180 0.018660 
#    y -0.046180 1.849550 0.007670 
#    z 0.018660 0.007670 1.821660 
# 
# From -- ./inp_files/529277.got.cif
#   From: 2010.05.17/outbox.cif.g08.bks.cpg/sg2_265_cif.got.tgz:529277.got - 2010.06.03 11:33:40.
