data_PCOD9061941
_publ_section_title
;
Structure prediction by ZEFSAII (Michael W. Deem and Ramdas Pophale) SiO2 
 PCOD9061941
Probable space group: P -1
;
_chemical_formula_sum "Si O2"
_cell_formula_units_Z 12
_cell_length_a 10.781578
_cell_length_b 7.698852
_cell_length_c 16.227923
_cell_angle_alpha 144.125030
_cell_angle_beta 39.064738
_cell_angle_gamma 119.766420
_cell_volume 464.249721
_symmetry_space_group_name_H-M "P -1"
_symmetry_group_IT_number 2
_symmetry_cell_setting 'triclinic'
loop_
_space_group_symop_operation_xyz
x,y,z
-x,-y,-z
loop_
_atom_site_type_symbol
_atom_site_label
_atom_site_fract_x
_atom_site_fract_y
_atom_site_fract_z
Si Si1 0.116217 0.769865 0.606420
Si Si2 0.876227 0.681432 0.843075
Si Si3 0.225446 0.702871 0.109369
Si Si4 0.625424 0.888683 0.308737
Si Si5 0.450270 0.140153 0.203417
Si Si6 0.676431 0.656791 0.476803
O O1 0.325387 0.480710 0.358599
O O2 0.957781 0.638675 0.689343
O O3 0.195485 0.957591 0.708403
O O4 0.988356 0.005818 0.692119
O O5 0.777881 0.462522 0.863673
O O6 0.091014 0.596395 0.753594
O O7 0.693328 0.027675 0.061942
O O8 0.405912 0.855947 0.072736
O O9 0.259715 0.453274 0.921445
O O10 0.500000 0.000000 0.500000
O O11 0.426753 0.044371 0.411564
O O12 0.328872 0.196582 0.374585
O O13 0.500000 0.500000 0.500000
#
# Coordination Sequence:
#
# PCOD9061941 Si02
#       6
#     2   2   2   2   2   2
#     4  11  27  49  75 112 150 200 251 303 380 446
#     4  11  25  46  78 109 151 197 245 305 380 436
#     4  12  27  49  77 113 155 195 253 310 373 447
#     4  12  26  48  74 109 151 194 255 313 366 444
#     4  11  25  49  76 114 151 198 249 305 379 445
#     4  11  23  46  74 108 146 194 249 302 367 452
#
# _framework density 25.848158000000002
#
# number of rings (size 3 to 8) (size 9 to 14) (size 15 to 20)
#    0.000    0.667    5.000    2.500    2.333    6.000 
#    6.000    0.000    0.000    0.000    0.000    0.000 
#    0.000    0.000    0.000    0.000    0.000    0.000 
#
# Total GULP energy -66904.004659 kJ/mol
# GULP energy per Si atom -5575.333722 kJ/mol
# Density = 2.578933 g / cm^3
# Si number density = 25.848158 Si / 1000 Ang^3
#
#
#
# Elastic Constant Matrix: (Units=GPa)
#
#
# Indices 1 2 3 4 5 6 
#
# 1 97.5937 4.7042 57.6878 22.6349 -28.0987 3.7367
# 2 4.7042 71.9054 43.3705 8.3478 -1.2245 -0.0201
# 3 57.6878 43.3705 163.2740 19.9690 -32.0787 4.0554
# 4 22.6349 8.3478 19.9690 28.8946 4.6380 -1.9334
# 5 -28.0987 -1.2245 -32.0787 4.6380 66.5207 21.8554
# 6 3.7367 -0.0201 4.0554 -1.9334 21.8554 50.2737
#
#
#
# Elastic Compliance Matrix: (Units=1/GPa)
#
#
# Indices 1 2 3 4 5 6 
#
# 1 0.018366 0.002785 -0.003564 -0.014528 0.008914 -0.005510
# 2 0.002785 0.017355 -0.005427 -0.003231 -0.001089 0.000587
# 3 -0.003564 -0.005427 0.010196 -0.003572 0.004421 -0.002619
# 4 -0.014528 -0.003231 -0.003572 0.052423 -0.014799 0.009816
# 5 0.008914 -0.001089 0.004421 -0.014799 0.026207 -0.012982
# 6 -0.005510 0.000587 -0.002619 0.009816 -0.012982 0.026533
#
#
# Mechanical properties :
#
#
# Convention : Reuss Voigt Hill
#
# Bulk Modulus (GPa) = 29.84675 60.47757 45.16216
# Shear Modulus (GPa) = 28.62674 44.27183 36.44929
#
# Velocity S-wave (km/s) = 3.33152 4.14305 3.75924
# Velocity P-wave (km/s) = 5.13524 6.80694 6.02931
#
# Compressibility (1/GPa) = 0.03350449
#
# Stress axis : x y z
#
# Youngs Moduli (GPa) = 54.44911 57.61939 98.07742
#
# Poissons Ratio (x) = -0.16046 0.34951
# Poissons Ratio (y) = -0.15163 0.53231
# Poissons Ratio (z) = 0.19404 0.31273
#
# Static dielectric constant tensor:
#      x y z
#    x 2.106480 -0.029640 -0.068340 
#    y -0.029640 2.234350 0.032460 
#    z -0.068340 0.032460 2.036260 
# 
# From -- ./inp_files/565608.got.cif
#   From: 2010.05.17/outbox.cif.g08.bks.cpg/sg2_283_cif.got.tgz:565608.got - 2010.06.03 11:33:40.
