data_PCOD9061679
_publ_section_title
;
Structure prediction by ZEFSAII (Michael W. Deem and Ramdas Pophale) SiO2 
 PCOD9061679
Probable space group: P -1
;
_chemical_formula_sum "Si O2"
_cell_formula_units_Z 16
_cell_length_a 5.509923
_cell_length_b 11.853732
_cell_length_c 12.647955
_cell_angle_alpha 111.382908
_cell_angle_beta 69.844877
_cell_angle_gamma 119.055377
_cell_volume 658.019776
_symmetry_space_group_name_H-M "P -1"
_symmetry_group_IT_number 2
_symmetry_cell_setting 'triclinic'
loop_
_space_group_symop_operation_xyz
x,y,z
-x,-y,-z
loop_
_atom_site_type_symbol
_atom_site_label
_atom_site_fract_x
_atom_site_fract_y
_atom_site_fract_z
Si Si1 0.508880 0.361866 0.682290
Si Si2 0.205441 0.756272 0.855967
Si Si3 0.860878 0.516117 0.134541
Si Si4 0.644177 0.216083 0.776021
Si Si5 0.236982 0.031599 0.268324
Si Si6 0.007242 0.374301 0.358141
Si Si7 0.912273 0.895180 0.071675
Si Si8 0.670721 0.715893 0.542832
O O1 0.390559 0.434166 0.811091
O O2 0.516841 0.232088 0.688423
O O3 0.814519 0.471498 0.640367
O O4 0.314810 0.322460 0.593366
O O5 0.242718 0.623160 0.835575
O O6 0.484967 0.875862 0.810541
O O7 0.985972 0.712062 0.775249
O O8 0.080509 0.804766 0.990570
O O9 0.107869 0.640087 0.195383
O O10 0.000000 0.500000 0.000000
O O11 0.418702 0.192390 0.896357
O O12 0.728318 0.093089 0.728294
O O13 0.203207 0.128669 0.393735
O O14 0.997637 0.973185 0.195595
O O15 0.169435 0.342181 0.420018
O O16 0.671888 0.337459 0.407087
O O17 0.000000 0.000000 0.000000
#
# Coordination Sequence:
#
# PCOD9061679 Si02
#       8
#     2   2   2   2   2   2   2   2
#     4  12  26  47  74 107 154 202 246 320 390 449
#     4  11  23  45  77 108 146 196 250 315 386 455
#     4  12  28  47  72 112 155 197 252 320 392 462
#     4  12  27  46  70 107 154 191 256 308 393 459
#     4  11  25  47  69 110 143 197 256 312 377 459
#     4  11  24  47  76 118 150 199 259 318 383 455
#     4  12  25  44  75 107 147 200 252 317 379 459
#     4  11  27  46  82 109 153 202 266 315 377 459
#
# _framework density 24.315377999999999
#
# number of rings (size 3 to 8) (size 9 to 14) (size 15 to 20)
#    0.000    0.500    2.500    5.625    7.000    1.500 
#    0.000    2.500    0.000    0.000    0.000    0.000 
#    0.000    0.000    0.000    0.000    0.000    0.000 
#
# Total GULP energy -89609.641357 kJ/mol
# GULP energy per Si atom -5600.602585 kJ/mol
# Density = 2.426004 g / cm^3
# Si number density = 24.315378 Si / 1000 Ang^3
#
#
#
# Elastic Constant Matrix: (Units=GPa)
#
#
# Indices 1 2 3 4 5 6 
#
# 1 103.0097 43.9790 29.0337 -12.2200 12.4016 -10.3339
# 2 43.9790 142.7652 28.3079 -4.0336 17.0386 -25.2385
# 3 29.0337 28.3079 97.8553 10.8823 6.7430 -3.1640
# 4 -12.2200 -4.0336 10.8823 36.7377 -14.4575 11.6247
# 5 12.4016 17.0386 6.7430 -14.4575 32.4018 0.2162
# 6 -10.3339 -25.2385 -3.1640 11.6247 0.2162 42.1386
#
#
#
# Elastic Compliance Matrix: (Units=1/GPa)
#
#
# Indices 1 2 3 4 5 6 
#
# 1 0.012546 -0.003086 -0.003352 0.004805 -0.000335 -0.000347
# 2 -0.003086 0.009761 -0.000914 -0.003768 -0.005483 0.006088
# 3 -0.003352 -0.000914 0.012580 -0.006992 -0.003984 0.001524
# 4 0.004805 -0.003768 -0.006992 0.042980 0.020865 -0.013567
# 5 -0.000335 -0.005483 -0.003984 0.020865 0.044078 -0.009648
# 6 -0.000347 0.006088 0.001524 -0.013567 -0.009648 0.031199
#
#
# Mechanical properties :
#
#
# Convention : Reuss Voigt Hill
#
# Bulk Modulus (GPa) = 49.54992 60.69683 55.12338
# Shear Modulus (GPa) = 28.64116 38.40960 33.52538
#
# Velocity S-wave (km/s) = 3.43578 3.97878 3.71721
# Velocity P-wave (km/s) = 6.01346 6.79148 6.41428
#
# Compressibility (1/GPa) = 0.02018167
#
# Stress axis : x y z
#
# Youngs Moduli (GPa) = 79.70945 102.45276 79.49388
#
# Poissons Ratio (x) = 0.31612 0.26647
# Poissons Ratio (y) = 0.24595 0.07268
# Poissons Ratio (z) = 0.26720 0.09368
#
# Static dielectric constant tensor:
#      x y z
#    x 2.017610 0.027290 -0.006900 
#    y 0.027290 1.912100 -0.003340 
#    z -0.006900 -0.003340 1.963930 
# 
# From -- ./inp_files/364756.got.cif
#   From: 2010.05.17/outbox.cif.g08.bks.cpg/sg2_183_cif.got.tgz:364756.got - 2010.06.03 11:33:40.
