data_PCOD9061675
_publ_section_title
;
Structure prediction by ZEFSAII (Michael W. Deem and Ramdas Pophale) SiO2 
 PCOD9061675
Probable space group: P -1
;
_chemical_formula_sum "Si O2"
_cell_formula_units_Z 16
_cell_length_a 13.342453
_cell_length_b 8.682468
_cell_length_c 7.381725
_cell_angle_alpha 73.756568
_cell_angle_beta 59.132121
_cell_angle_gamma 60.756797
_cell_volume 639.981156
_symmetry_space_group_name_H-M "P -1"
_symmetry_group_IT_number 2
_symmetry_cell_setting 'triclinic'
loop_
_space_group_symop_operation_xyz
x,y,z
-x,-y,-z
loop_
_atom_site_type_symbol
_atom_site_label
_atom_site_fract_x
_atom_site_fract_y
_atom_site_fract_z
Si Si1 0.597061 0.273317 0.549668
Si Si2 0.279419 0.659685 0.238043
Si Si3 0.410777 0.097743 0.257299
Si Si4 0.327898 0.907024 0.838913
Si Si5 0.647784 0.610967 0.052980
Si Si6 0.834894 0.790880 0.352314
Si Si7 0.934133 0.550971 0.850844
Si Si8 0.014519 0.168890 0.504450
O O1 0.670566 0.342573 0.603638
O O2 0.643606 0.229002 0.313506
O O3 0.611665 0.078527 0.661326
O O4 0.445484 0.388838 0.697614
O O5 0.360229 0.497137 0.082802
O O6 0.131352 0.692991 0.364700
O O7 0.287870 0.825785 0.073728
O O8 0.540503 0.076027 0.243896
O O9 0.398148 0.189703 0.045688
O O10 0.287173 0.228926 0.443908
O O11 0.218985 0.096092 0.815992
O O12 0.796080 0.545630 0.987959
O O13 0.957373 0.606279 0.308516
O O14 0.889738 0.899839 0.392348
O O15 0.925123 0.734032 0.717934
O O16 0.000000 0.500000 0.000000
O O17 0.000000 0.000000 0.500000
#
# Coordination Sequence:
#
# PCOD9061675 Si02
#       8
#     2   2   2   2   2   2   2   2
#     4  11  25  45  72 108 141 191 251 304 366 435
#     4  12  27  47  72 105 154 197 241 307 384 423
#     4  11  23  45  77 101 143 192 254 306 368 434
#     4  11  27  44  76 112 143 198 250 308 368 439
#     4  12  25  47  74 104 145 196 244 306 372 443
#     4  11  23  48  71 100 150 186 253 301 357 446
#     4  12  29  46  76 112 144 197 246 303 372 443
#     4  12  26  47  76 106 148 197 241 304 372 442
#
# _framework density 25.000736
#
# number of rings (size 3 to 8) (size 9 to 14) (size 15 to 20)
#    0.000    0.500    3.750    4.875    5.250    3.000 
#    0.000    0.000    0.000    0.000    0.000    0.000 
#    0.000    0.000    0.000    0.000    0.000    0.000 
#
# Total GULP energy -89583.697282 kJ/mol
# GULP energy per Si atom -5598.981080 kJ/mol
# Density = 2.494383 g / cm^3
# Si number density = 25.000736 Si / 1000 Ang^3
#
#
#
# Elastic Constant Matrix: (Units=GPa)
#
#
# Indices 1 2 3 4 5 6 
#
# 1 188.5510 20.2887 33.2179 10.4563 -9.3329 -17.9217
# 2 20.2887 71.8088 -7.7791 12.0826 -2.0384 -9.8539
# 3 33.2179 -7.7791 84.8369 13.0686 -5.3549 -6.9075
# 4 10.4563 12.0826 13.0686 33.5477 -4.9569 -1.0595
# 5 -9.3329 -2.0384 -5.3549 -4.9569 44.8853 5.9586
# 6 -17.9217 -9.8539 -6.9075 -1.0595 5.9586 37.6742
#
#
#
# Elastic Compliance Matrix: (Units=1/GPa)
#
#
# Indices 1 2 3 4 5 6 
#
# 1 0.006119 -0.001650 -0.002309 -0.000258 0.000635 0.001948
# 2 -0.001650 0.016439 0.003486 -0.006704 -0.000457 0.004038
# 3 -0.002309 0.003486 0.014124 -0.005907 0.000423 0.002170
# 4 -0.000258 -0.006704 -0.005907 0.034989 0.003129 -0.002470
# 5 0.000635 -0.000457 0.000423 0.003129 0.023228 -0.003326
# 6 0.001948 0.004038 0.002170 -0.002470 -0.003326 0.029381
#
#
# Mechanical properties :
#
#
# Convention : Reuss Voigt Hill
#
# Bulk Modulus (GPa) = 27.98239 48.51686 38.24963
# Shear Modulus (GPa) = 36.45995 43.18606 39.82301
#
# Velocity S-wave (km/s) = 3.82298 4.16070 3.99541
# Velocity P-wave (km/s) = 5.54111 6.52152 6.05120
#
# Compressibility (1/GPa) = 0.03573676
#
# Stress axis : x y z
#
# Youngs Moduli (GPa) = 163.43078 60.83127 70.80002
#
# Poissons Ratio (x) = 0.10038 0.16345
# Poissons Ratio (y) = 0.26968 -0.24682
# Poissons Ratio (z) = 0.37731 -0.21207
#
# Static dielectric constant tensor:
#      x y z
#    x 2.062650 0.308190 0.339220 
#    y 0.308190 2.608890 0.628230 
#    z 0.339220 0.628230 2.585490 
# 
# From -- ./inp_files/243405.got.cif
#   From: 2010.05.17/outbox.cif.g08.bks.cpg/sg2_122_cif.got.tgz:243405.got - 2010.06.03 11:33:40.
