data_PCOD9061864
_publ_section_title
;
Structure prediction by ZEFSAII (Michael W. Deem and Ramdas Pophale) SiO2 
 PCOD9061864
Probable space group: P -1
;
_chemical_formula_sum "Si O2"
_cell_formula_units_Z 10
_cell_length_a 7.433890
_cell_length_b 6.785946
_cell_length_c 11.323678
_cell_angle_alpha 117.938396
_cell_angle_beta 63.710884
_cell_angle_gamma 90.969258
_cell_volume 439.167221
_symmetry_space_group_name_H-M "P -1"
_symmetry_group_IT_number 2
_symmetry_cell_setting 'triclinic'
loop_
_space_group_symop_operation_xyz
x,y,z
-x,-y,-z
loop_
_atom_site_type_symbol
_atom_site_label
_atom_site_fract_x
_atom_site_fract_y
_atom_site_fract_z
Si Si1 0.885996 0.049692 0.421268
Si Si2 0.186678 0.357278 0.827510
Si Si3 0.571670 0.736571 0.044038
Si Si4 0.470043 0.526643 0.377080
Si Si5 0.767286 0.806256 0.774435
O O1 0.659367 0.216018 0.544465
O O2 0.987251 0.814563 0.661453
O O3 0.879695 0.813430 0.293028
O O4 0.000000 0.000000 0.500000
O O5 0.312454 0.513523 0.765127
O O6 0.343042 0.217085 0.840809
O O7 0.000000 0.500000 0.000000
O O8 0.748487 0.727247 0.891757
O O9 0.500000 0.500000 0.000000
O O10 0.375629 0.936697 0.122215
O O11 0.500000 0.500000 0.500000
O O12 0.339013 0.355584 0.318435
#
# Coordination Sequence:
#
# PCOD9061864 Si02
#       5
#     2   2   2   2   2
#     4  12  27  47  74 107 151 198 243 301 377 440
#     4  12  27  44  76 106 148 193 246 304 361 435
#     4  11  23  46  72 107 149 184 246 308 363 424
#     4  12  26  47  71 107 151 191 248 304 368 441
#     4  11  25  43  77 103 140 197 242 298 368 437
#
# _framework density 22.770372999999999
#
# number of rings (size 3 to 8) (size 9 to 14) (size 15 to 20)
#    0.000    0.400    2.000    6.000    8.400    0.800 
#    0.000    0.000    0.000    0.000    0.000    0.000 
#    0.000    0.000    0.000    0.000    0.000    0.000 
#
# Total GULP energy -56052.029122 kJ/mol
# GULP energy per Si atom -5605.202912 kJ/mol
# Density = 2.271855 g / cm^3
# Si number density = 22.770373 Si / 1000 Ang^3
#
#
#
# Elastic Constant Matrix: (Units=GPa)
#
#
# Indices 1 2 3 4 5 6 
#
# 1 69.4312 9.8297 29.0930 -7.8804 14.6949 -3.6536
# 2 9.8297 58.5230 13.6579 -2.8075 -3.1659 -7.3184
# 3 29.0930 13.6579 92.4247 -5.4793 -1.9332 -7.7290
# 4 -7.8804 -2.8075 -5.4793 63.5108 6.1186 5.7125
# 5 14.6949 -3.1659 -1.9332 6.1186 61.7406 -9.8938
# 6 -3.6536 -7.3184 -7.7290 5.7125 -9.8938 46.5031
#
#
#
# Elastic Compliance Matrix: (Units=1/GPa)
#
#
# Indices 1 2 3 4 5 6 
#
# 1 0.018274 -0.002092 -0.005510 0.002290 -0.005042 -0.001163
# 2 -0.002092 0.018303 -0.001774 -0.000034 0.001835 0.002816
# 3 -0.005510 -0.001774 0.013012 0.000008 0.001925 0.001859
# 4 0.002290 -0.000034 0.000008 0.016491 -0.002565 -0.002396
# 5 -0.005042 0.001835 0.001925 -0.002565 0.018522 0.004468
# 6 -0.001163 0.002816 0.001859 -0.002396 0.004468 0.023410
#
#
# Mechanical properties :
#
#
# Convention : Reuss Voigt Hill
#
# Bulk Modulus (GPa) = 32.42925 36.17113 34.30019
# Shear Modulus (GPa) = 36.48521 45.53746 41.01133
#
# Velocity S-wave (km/s) = 4.00723 4.47683 4.24852
# Velocity P-wave (km/s) = 5.97355 6.53011 6.25802
#
# Compressibility (1/GPa) = 0.03083636
#
# Stress axis : x y z
#
# Youngs Moduli (GPa) = 54.72375 54.63732 76.84962
#
# Poissons Ratio (x) = 0.11429 0.42344
# Poissons Ratio (y) = 0.11447 0.13636
# Poissons Ratio (z) = 0.30153 0.09694
#
# Static dielectric constant tensor:
#      x y z
#    x 1.875850 -0.021860 -0.068980 
#    y -0.021860 1.827660 -0.006590 
#    z -0.068980 -0.006590 1.864410 
# 
# From -- ./inp_files/371989.got.cif
#   From: 2010.05.17/outbox.cif.g08.bks.cpg/sg2_186_cif.got.tgz:371989.got - 2010.06.03 11:33:40.
