data_PCOD9061104
_publ_section_title
;
Structure prediction by ZEFSAII (Michael W. Deem and Ramdas Pophale) SiO2 
 PCOD9061104
Probable space group: P -1
;
_chemical_formula_sum "Si O2"
_cell_formula_units_Z 16
_cell_length_a 9.616709
_cell_length_b 9.451149
_cell_length_c 12.220147
_cell_angle_alpha 85.248145
_cell_angle_beta 132.231333
_cell_angle_gamma 103.946772
_cell_volume 793.285311
_symmetry_space_group_name_H-M "P -1"
_symmetry_group_IT_number 2
_symmetry_cell_setting 'triclinic'
loop_
_space_group_symop_operation_xyz
x,y,z
-x,-y,-z
loop_
_atom_site_type_symbol
_atom_site_label
_atom_site_fract_x
_atom_site_fract_y
_atom_site_fract_z
Si Si1 0.332580 0.750462 0.847508
Si Si2 0.367995 0.088214 0.363651
Si Si3 0.635651 0.403167 0.533884
Si Si4 0.383019 0.972761 0.135956
Si Si5 0.181539 0.490932 0.168538
Si Si6 0.003413 0.823692 0.805473
Si Si7 0.780885 0.505200 0.370894
Si Si8 0.500776 0.683002 0.172741
O O1 0.124621 0.780134 0.770716
O O2 0.312920 0.628163 0.751750
O O3 0.478110 0.900080 0.871662
O O4 0.416460 0.693542 0.005946
O O5 0.503053 0.250157 0.437363
O O6 0.156993 0.084690 0.303538
O O7 0.500000 0.000000 0.500000
O O8 0.347285 0.036442 0.230392
O O9 0.500000 0.500000 0.500000
O O10 0.782923 0.405005 0.711798
O O11 0.723492 0.482522 0.467317
O O12 0.483622 0.836169 0.207788
O O13 0.176987 0.908940 0.971003
O O14 0.363788 0.551375 0.180273
O O15 0.121744 0.325072 0.193188
O O16 0.000000 0.500000 0.000000
O O17 0.709513 0.646421 0.283560
O O18 0.000000 0.500000 0.500000
#
# Coordination Sequence:
#
# PCOD9061104 Si02
#       8
#     2   2   2   2   2   2   2   2
#     4  11  24  46  68 102 140 180 228 281 343 403
#     4  12  26  44  67 101 136 181 229 278 338 410
#     4  12  24  46  68  92 140 175 221 298 338 381
#     4  11  24  46  68 102 140 180 228 281 343 403
#     4  12  22  40  76 102 122 176 239 284 341 394
#     4  11  23  44  72  98 138 181 227 285 335 404
#     4  12  26  44  67 101 136 181 229 278 338 410
#     4  11  23  44  72  98 138 181 227 285 335 404
#
# _framework density 20.169288000000002
#
# number of rings (size 3 to 8) (size 9 to 14) (size 15 to 20)
#    0.000    0.500    6.250    3.750    0.000    0.000 
#    4.500    1.250    0.000    0.000    0.000    0.000 
#    0.000    0.000    0.000    0.000    0.000    0.000 
#
# Total GULP energy -89280.312217 kJ/mol
# GULP energy per Si atom -5580.019514 kJ/mol
# Density = 2.012338 g / cm^3
# Si number density = 20.169288 Si / 1000 Ang^3
#
#
#
# Elastic Constant Matrix: (Units=GPa)
#
#
# Indices 1 2 3 4 5 6 
#
# 1 115.0600 31.0624 38.3865 -23.2396 -2.6652 -6.4244
# 2 31.0624 63.9096 10.8792 -0.1162 16.2317 -0.1179
# 3 38.3865 10.8792 98.4758 -1.6355 4.4659 -15.2576
# 4 -23.2396 -0.1162 -1.6355 34.9932 -15.6526 0.9444
# 5 -2.6652 16.2317 4.4659 -15.6526 44.2837 -2.5504
# 6 -6.4244 -0.1179 -15.2576 0.9444 -2.5504 40.0381
#
#
#
# Elastic Compliance Matrix: (Units=1/GPa)
#
#
# Indices 1 2 3 4 5 6 
#
# 1 0.016586 -0.009808 -0.005475 0.015474 0.010664 0.000860
# 2 -0.009808 0.023695 0.001386 -0.012567 -0.013947 -0.001568
# 3 -0.005475 0.001386 0.012823 -0.004739 -0.003582 0.003896
# 4 0.015474 -0.012567 -0.004739 0.049032 0.023402 0.000974
# 5 0.010664 -0.013947 -0.003582 0.023402 0.037091 0.002116
# 6 0.000860 -0.001568 0.003896 0.000974 0.002116 0.026706
#
#
# Mechanical properties :
#
#
# Convention : Reuss Voigt Hill
#
# Bulk Modulus (GPa) = 39.50944 48.67796 44.09370
# Shear Modulus (GPa) = 24.73259 37.00417 30.86838
#
# Velocity S-wave (km/s) = 3.50558 4.28796 3.91636
# Velocity P-wave (km/s) = 6.00141 6.97872 6.50844
#
# Compressibility (1/GPa) = 0.02531040
#
# Stress axis : x y z
#
# Youngs Moduli (GPa) = 60.29190 42.20333 77.98388
#
# Poissons Ratio (x) = 0.41394 0.42697
# Poissons Ratio (y) = 0.59135 -0.10812
# Poissons Ratio (z) = 0.33010 -0.05851
#
# Static dielectric constant tensor:
#      x y z
#    x 1.739190 -0.042690 0.028610 
#    y -0.042690 1.730860 -0.000870 
#    z 0.028610 -0.000870 1.763840 
# 
# From -- ./inp_files/382463.got.cif
#   From: 2010.05.17/outbox.cif.g08.bks.cpg/sg2_192_cif.got.tgz:382463.got - 2010.06.03 11:33:40.
