data_PCOD9062815
_publ_section_title
;
Structure prediction by ZEFSAII (Michael W. Deem and Ramdas Pophale) SiO2 
 PCOD9062815
Probable space group: P -1
;
_chemical_formula_sum "Si O2"
_cell_formula_units_Z 14
_cell_length_a 10.703745
_cell_length_b 14.447838
_cell_length_c 20.243186
_cell_angle_alpha 158.576576
_cell_angle_beta 32.221137
_cell_angle_gamma 151.080882
_cell_volume 544.263791
_symmetry_space_group_name_H-M "P -1"
_symmetry_group_IT_number 2
_symmetry_cell_setting 'triclinic'
loop_
_space_group_symop_operation_xyz
x,y,z
-x,-y,-z
loop_
_atom_site_type_symbol
_atom_site_label
_atom_site_fract_x
_atom_site_fract_y
_atom_site_fract_z
Si Si1 0.927140 0.145143 0.302048
Si Si2 0.882513 0.297282 0.635224
Si Si3 0.771977 0.283086 0.004075
Si Si4 0.696457 0.675138 0.617056
Si Si5 0.772093 0.522048 0.970008
Si Si6 0.477743 0.325957 0.593286
Si Si7 0.774994 0.727789 0.884276
O O1 0.731563 0.285438 0.472649
O O2 0.077529 0.220798 0.355697
O O3 0.116566 0.215034 0.200509
O O4 0.745933 0.806476 0.154415
O O5 0.801297 0.372331 0.791639
O O6 0.794398 0.453910 0.723141
O O7 0.185886 0.389126 0.544096
O O8 0.753605 0.958194 0.463980
O O9 0.570533 0.412693 0.187160
O O10 0.940661 0.342969 0.035381
O O11 0.000000 0.500000 0.000000
O O12 0.648550 0.953559 0.819678
O O13 0.485027 0.382112 0.548759
O O14 0.520168 0.327599 0.999275
O O15 0.000000 0.000000 0.000000
#
# Coordination Sequence:
#
# PCOD9062815 Si02
#       7
#     2   2   2   2   2   2   2
#     4  11  24  42  72 106 134 183 229 288 343 406
#     4  12  24  41  71 104 138 175 228 289 347 401
#     4  11  26  49  69  97 140 191 228 283 345 410
#     4  11  26  44  69 103 140 180 237 282 345 408
#     4  11  26  45  70 104 142 179 228 285 349 413
#     4  12  24  44  70 100 140 181 232 285 340 408
#     4  12  23  42  72 108 140 178 228 285 351 406
#
# _framework density 25.722821
#
# number of rings (size 3 to 8) (size 9 to 14) (size 15 to 20)
#    0.000    0.571    5.714    2.143    2.000    1.143 
#    0.000    0.714    0.000    0.000    0.000    0.000 
#    0.000    0.000    0.000    0.000    0.000    0.000 
#
# Total GULP energy -78279.013806 kJ/mol
# GULP energy per Si atom -5591.358129 kJ/mol
# Density = 2.566427 g / cm^3
# Si number density = 25.722821 Si / 1000 Ang^3
#
#
#
# Elastic Constant Matrix: (Units=GPa)
#
#
# Indices 1 2 3 4 5 6 
#
# 1 52.3209 12.7781 35.2866 -6.9481 -3.7902 -3.6551
# 2 12.7781 154.9623 30.9315 -11.2505 -8.5088 -19.2299
# 3 35.2866 30.9315 136.4255 -4.5313 -17.5211 -1.3110
# 4 -6.9481 -11.2505 -4.5313 54.3823 -15.0483 -8.4899
# 5 -3.7902 -8.5088 -17.5211 -15.0483 35.8300 -7.5892
# 6 -3.6551 -19.2299 -1.3110 -8.4899 -7.5892 31.7705
#
#
#
# Elastic Compliance Matrix: (Units=1/GPa)
#
#
# Indices 1 2 3 4 5 6 
#
# 1 0.023937 0.000092 -0.005757 0.003863 0.002238 0.004139
# 2 0.000092 0.008060 -0.001072 0.003932 0.004529 0.006977
# 3 -0.005757 -0.001072 0.009676 0.001152 0.004449 0.000459
# 4 0.003863 0.003932 0.001152 0.026318 0.015859 0.013693
# 5 0.002238 0.004529 0.004449 0.015859 0.041742 0.017392
# 6 0.004139 0.006977 0.000459 0.013693 0.017392 0.044008
#
#
# Mechanical properties :
#
#
# Convention : Reuss Voigt Hill
#
# Bulk Modulus (GPa) = 35.46093 55.74456 45.60274
# Shear Modulus (GPa) = 28.31055 42.04407 35.17731
#
# Velocity S-wave (km/s) = 3.32113 4.04729 3.70206
# Velocity P-wave (km/s) = 5.34062 6.59992 6.00338
#
# Compressibility (1/GPa) = 0.02820005
#
# Stress axis : x y z
#
# Youngs Moduli (GPa) = 41.77620 124.07646 103.34788
#
# Poissons Ratio (x) = -0.01145 0.59494
# Poissons Ratio (y) = -0.00385 0.11078
# Poissons Ratio (z) = 0.24049 0.13299
#
# Static dielectric constant tensor:
#      x y z
#    x 2.152540 0.002490 0.006750 
#    y 0.002490 2.108840 -0.005720 
#    z 0.006750 -0.005720 2.026100 
# 
# From -- ./inp_files/392875.got.cif
#   From: 2010.05.17/outbox.cif.g08.bks.cpg/sg2_197_cif.got.tgz:392875.got - 2010.06.03 11:33:40.
