data_PCOD9062314
_publ_section_title
;
Structure prediction by ZEFSAII (Michael W. Deem and Ramdas Pophale) SiO2 
 PCOD9062314
Probable space group: P -1
;
_chemical_formula_sum "Si O2"
_cell_formula_units_Z 13
_cell_length_a 7.461600
_cell_length_b 9.247853
_cell_length_c 10.555705
_cell_angle_alpha 72.190786
_cell_angle_beta 132.199392
_cell_angle_gamma 92.968315
_cell_volume 501.397947
_symmetry_space_group_name_H-M "P -1"
_symmetry_group_IT_number 2
_symmetry_cell_setting 'triclinic'
loop_
_space_group_symop_operation_xyz
x,y,z
-x,-y,-z
loop_
_atom_site_type_symbol
_atom_site_label
_atom_site_fract_x
_atom_site_fract_y
_atom_site_fract_z
Si Si1 0.909471 0.748459 0.219619
Si Si2 0.000000 0.000000 0.000000
Si Si3 0.820433 0.373351 0.946603
Si Si4 0.446624 0.056802 0.318186
Si Si5 0.008977 0.592212 0.719883
Si Si6 0.648592 0.350792 0.360246
Si Si7 0.572445 0.759160 0.306054
O O1 0.711788 0.745062 0.240133
O O2 0.868597 0.901152 0.076561
O O3 0.927186 0.594704 0.182275
O O4 0.181294 0.713832 0.422841
O O5 0.161107 0.065204 0.164852
O O6 0.554757 0.491482 0.762285
O O7 0.727015 0.237032 0.852978
O O8 0.000000 0.500000 0.000000
O O9 0.886264 0.323172 0.136532
O O10 0.586054 0.926794 0.323430
O O11 0.500000 0.000000 0.500000
O O12 0.511543 0.220551 0.284911
O O13 0.726008 0.648719 0.519708
O O14 0.163323 0.619280 0.664046
#
# Coordination Sequence:
#
# PCOD9062314 Si02
#       7
#     2   1   2   2   2   2   2
#     4  11  23  50  78 111 148 199 246 311 376 436
#     4  12  28  46  72 106 156 194 240 298 382 440
#     4  12  27  42  76 114 145 195 253 306 370 443
#     4  12  29  48  69 108 156 199 242 307 379 439
#     4  11  24  47  81 107 146 190 254 312 372 433
#     4  11  23  50  75 104 149 199 245 309 372 436
#     4  11  27  49  74 112 149 195 253 311 365 451
#
# _framework density 25.927508
#
# number of rings (size 3 to 8) (size 9 to 14) (size 15 to 20)
#    0.000    0.615    4.615    2.308    8.615    3.692 
#    0.000    0.000    0.000    0.000    0.000    0.000 
#    0.000    0.000    0.000    0.000    0.000    0.000 
#
# Total GULP energy -72439.373561 kJ/mol
# GULP energy per Si atom -5572.259505 kJ/mol
# Density = 2.586850 g / cm^3
# Si number density = 25.927508 Si / 1000 Ang^3
#
#
#
# Elastic Constant Matrix: (Units=GPa)
#
#
# Indices 1 2 3 4 5 6 
#
# 1 48.0378 -1.3685 16.2102 4.0123 2.3003 12.2247
# 2 -1.3685 88.3475 -5.7903 23.5393 -15.5293 28.2569
# 3 16.2102 -5.7903 164.4143 23.8348 3.6317 12.0569
# 4 4.0123 23.5393 23.8348 55.1408 3.3954 -6.4847
# 5 2.3003 -15.5293 3.6317 3.3954 39.2348 2.3623
# 6 12.2247 28.2569 12.0569 -6.4847 2.3623 48.2891
#
#
#
# Elastic Compliance Matrix: (Units=1/GPa)
#
#
# Indices 1 2 3 4 5 6 
#
# 1 0.023937 0.004801 -0.000871 -0.004609 0.001539 -0.009346
# 2 0.004801 0.023297 0.003568 -0.014659 0.010977 -0.018245
# 3 -0.000871 0.003568 0.007351 -0.005257 0.001508 -0.004482
# 4 -0.004609 -0.014659 -0.005257 0.029338 -0.008512 0.015413
# 5 0.001539 0.010977 0.001508 -0.008512 0.030932 -0.009845
# 6 -0.009346 -0.018245 -0.004482 0.015413 -0.009845 0.037421
#
#
# Mechanical properties :
#
#
# Convention : Reuss Voigt Hill
#
# Bulk Modulus (GPa) = 14.37170 35.43360 24.90265
# Shear Modulus (GPa) = 31.15743 47.98284 39.57014
#
# Velocity S-wave (km/s) = 3.47033 4.30659 3.91088
# Velocity P-wave (km/s) = 4.64895 6.19879 5.47895
#
# Compressibility (1/GPa) = 0.06958117
#
# Stress axis : x y z
#
# Youngs Moduli (GPa) = 41.77553 42.92318 136.03102
#
# Poissons Ratio (x) = -0.20609 0.11855
# Poissons Ratio (y) = -0.20058 -0.48530
# Poissons Ratio (z) = 0.03641 -0.15313
#
# Static dielectric constant tensor:
#      x y z
#    x 4.884730 2.803530 -0.519200 
#    y 2.803530 3.289800 -0.113350 
#    z -0.519200 -0.113350 1.987500 
# 
# From -- ./inp_files/378507.got.cif
#   From: 2010.05.17/outbox.cif.g08.bks.cpg/sg2_190_cif.got.tgz:378507.got - 2010.06.03 11:33:40.
