data_PCOD9062621
_publ_section_title
;
Structure prediction by ZEFSAII (Michael W. Deem and Ramdas Pophale) SiO2 
 PCOD9062621
Probable space group: P -1
;
_chemical_formula_sum "Si O2"
_cell_formula_units_Z 16
_cell_length_a 9.483947
_cell_length_b 12.648079
_cell_length_c 9.565847
_cell_angle_alpha 44.905149
_cell_angle_beta 109.333745
_cell_angle_gamma 126.194232
_cell_volume 646.011357
_symmetry_space_group_name_H-M "P -1"
_symmetry_group_IT_number 2
_symmetry_cell_setting 'triclinic'
loop_
_space_group_symop_operation_xyz
x,y,z
-x,-y,-z
loop_
_atom_site_type_symbol
_atom_site_label
_atom_site_fract_x
_atom_site_fract_y
_atom_site_fract_z
Si Si1 0.766094 0.742682 0.909973
Si Si2 0.572646 0.367523 0.281674
Si Si3 0.373413 0.847863 0.711058
Si Si4 0.398138 0.040278 0.044491
Si Si5 0.981958 0.172120 0.309162
Si Si6 0.779250 0.595944 0.588487
Si Si7 0.072649 0.907072 0.206882
Si Si8 0.502236 0.700835 0.381041
O O1 0.614391 0.683122 0.799057
O O2 0.945812 0.774034 0.874123
O O3 0.809593 0.931915 0.798497
O O4 0.686219 0.579764 0.144421
O O5 0.670612 0.323562 0.234517
O O6 0.537745 0.257612 0.516232
O O7 0.209426 0.864220 0.686229
O O8 0.500000 0.000000 0.500000
O O9 0.475868 0.861381 0.874359
O O10 0.363696 0.163413 0.817671
O O11 0.500000 0.000000 0.000000
O O12 0.212046 0.884143 0.187591
O O13 0.114355 0.339206 0.293664
O O14 0.000000 0.000000 0.500000
O O15 0.605573 0.605353 0.546066
O O16 0.683562 0.405973 0.661609
O O17 0.921855 0.737306 0.394482
O O18 0.000000 0.000000 0.000000
#
# Coordination Sequence:
#
# PCOD9062621 Si02
#       8
#     2   2   2   2   2   2   2   2
#     4  11  24  41  74 106 141 188 244 293 347 427
#     4  11  24  46  72 104 143 190 238 290 361 424
#     4  12  27  47  72 102 145 186 237 296 361 424
#     4  12  28  46  70 105 146 190 232 291 367 428
#     4  12  25  44  74 104 136 183 243 296 349 421
#     4  11  24  42  73 106 140 182 241 295 347 424
#     4  12  23  42  70 107 140 185 245 288 346 423
#     4  11  25  46  71 104 145 187 232 296 365 419
#
# _framework density 24.767364000000001
#
# number of rings (size 3 to 8) (size 9 to 14) (size 15 to 20)
#    0.000    0.500    5.000    3.000    7.000    0.500 
#    0.000    1.250    0.000    0.000    0.000    0.000 
#    0.000    0.000    0.000    0.000    0.000    0.000 
#
# Total GULP energy -89388.949221 kJ/mol
# GULP energy per Si atom -5586.809326 kJ/mol
# Density = 2.471099 g / cm^3
# Si number density = 24.767364 Si / 1000 Ang^3
#
#
#
# Elastic Constant Matrix: (Units=GPa)
#
#
# Indices 1 2 3 4 5 6 
#
# 1 173.4873 19.1369 25.8343 5.6739 -35.8038 -8.1658
# 2 19.1369 61.3746 12.3843 7.2704 -22.4811 -0.3270
# 3 25.8343 12.3843 86.5584 13.3144 -29.5576 -1.0564
# 4 5.6739 7.2704 13.3144 43.1339 5.6532 -7.5553
# 5 -35.8038 -22.4811 -29.5576 5.6532 43.1147 -0.2178
# 6 -8.1658 -0.3270 -1.0564 -7.5553 -0.2178 29.5584
#
#
#
# Elastic Compliance Matrix: (Units=1/GPa)
#
#
# Indices 1 2 3 4 5 6 
#
# 1 0.007167 0.000313 0.000340 -0.001680 0.006576 0.001615
# 2 0.000313 0.021644 0.002668 -0.006580 0.014231 -0.001156
# 3 0.000340 0.002668 0.017232 -0.007923 0.014520 -0.001179
# 4 -0.001680 -0.006580 -0.007923 0.029996 -0.014157 0.006743
# 5 0.006576 0.014231 0.014520 -0.014157 0.047882 -0.000772
# 6 0.001615 -0.001156 -0.001179 0.006743 -0.000772 0.035940
#
#
# Mechanical properties :
#
#
# Convention : Reuss Voigt Hill
#
# Bulk Modulus (GPa) = 18.98097 48.45903 33.72000
# Shear Modulus (GPa) = 29.27714 40.76573 35.02143
#
# Velocity S-wave (km/s) = 3.44188 4.06143 3.76442
# Velocity P-wave (km/s) = 4.84517 6.44994 5.70427
#
# Compressibility (1/GPa) = 0.05268436
#
# Stress axis : x y z
#
# Youngs Moduli (GPa) = 139.52607 46.20289 58.03056
#
# Poissons Ratio (x) = -0.01447 -0.01972
# Poissons Ratio (y) = -0.04369 -0.15480
# Poissons Ratio (z) = -0.04742 -0.12325
#
# Static dielectric constant tensor:
#      x y z
#    x 2.088980 -0.170760 0.309350 
#    y -0.170760 2.223340 -0.119290 
#    z 0.309350 -0.119290 2.694480 
# 
# From -- ./inp_files/185129.got.cif
#   From: 2010.05.17/outbox.cif.g08.bks.cpg/sg2_93_cif.got.tgz:185129.got - 2010.06.03 11:33:40.
