data_PCOD9062419
_publ_section_title
;
Structure prediction by ZEFSAII (Michael W. Deem and Ramdas Pophale) SiO2 
 PCOD9062419
Probable space group: P -1
;
_chemical_formula_sum "Si O2"
_cell_formula_units_Z 14
_cell_length_a 9.917682
_cell_length_b 6.694067
_cell_length_c 19.477654
_cell_angle_alpha 130.375816
_cell_angle_beta 40.673927
_cell_angle_gamma 128.758571
_cell_volume 617.959026
_symmetry_space_group_name_H-M "P -1"
_symmetry_group_IT_number 2
_symmetry_cell_setting 'triclinic'
loop_
_space_group_symop_operation_xyz
x,y,z
-x,-y,-z
loop_
_atom_site_type_symbol
_atom_site_label
_atom_site_fract_x
_atom_site_fract_y
_atom_site_fract_z
Si Si1 0.803627 0.135723 0.775347
Si Si2 0.561651 0.319205 0.534143
Si Si3 0.104388 0.083358 0.903670
Si Si4 0.749449 0.013777 0.915424
Si Si5 0.798996 0.421461 0.328939
Si Si6 0.418449 0.620586 0.187446
Si Si7 0.785652 0.515088 0.625376
O O1 0.596937 0.185057 0.827701
O O2 0.992763 0.329681 0.703419
O O3 0.842267 0.198157 0.854384
O O4 0.806560 0.826049 0.703552
O O5 0.751811 0.362974 0.414469
O O6 0.389443 0.459162 0.600808
O O7 0.611067 0.440145 0.616928
O O8 0.500000 0.000000 0.500000
O O9 0.328425 0.322650 0.879150
O O10 0.175724 0.837577 0.781933
O O11 0.910103 0.126551 0.940828
O O12 0.000000 0.000000 0.000000
O O13 0.714074 0.684909 0.851956
O O14 0.500000 0.000000 0.000000
O O15 0.297934 0.664394 0.314561
O O16 0.000000 0.500000 0.500000
#
# Coordination Sequence:
#
# PCOD9062419 Si02
#       7
#     2   2   2   2   2   2   2
#     4  11  24  44  71  97 147 182 233 298 354 425
#     4  11  24  42  69 103 148 185 239 295 356 434
#     4  12  27  47  76 105 144 192 248 300 364 435
#     4  11  27  47  71 102 140 190 239 299 363 421
#     4  11  25  43  69 105 143 191 235 299 363 421
#     4  11  25  47  70 103 144 184 238 296 358 430
#     4  11  24  40  69 105 141 189 236 285 363 431
#
# _framework density 22.655225000000002
#
# number of rings (size 3 to 8) (size 9 to 14) (size 15 to 20)
#    0.000    0.857    1.429    4.286    8.000    7.429 
#    0.000    0.000    0.000    0.000    0.000    0.000 
#    0.000    0.000    0.000    0.000    0.000    0.000 
#
# Total GULP energy -78132.901250 kJ/mol
# GULP energy per Si atom -5580.921518 kJ/mol
# Density = 2.260366 g / cm^3
# Si number density = 22.655225 Si / 1000 Ang^3
#
#
#
# Elastic Constant Matrix: (Units=GPa)
#
#
# Indices 1 2 3 4 5 6 
#
# 1 168.1275 21.5353 29.9754 -22.7475 14.2927 -15.0492
# 2 21.5353 71.1954 4.6363 -23.5752 6.0346 -6.8112
# 3 29.9754 4.6363 61.3285 -17.4695 7.9785 -17.4645
# 4 -22.7475 -23.5752 -17.4695 39.8212 -7.1101 -0.2304
# 5 14.2927 6.0346 7.9785 -7.1101 35.1460 -5.2884
# 6 -15.0492 -6.8112 -17.4645 -0.2304 -5.2884 45.1773
#
#
#
# Elastic Compliance Matrix: (Units=1/GPa)
#
#
# Indices 1 2 3 4 5 6 
#
# 1 0.006998 -0.001015 -0.002195 0.002162 -0.001562 0.001158
# 2 -0.001015 0.018465 0.003656 0.011870 -0.000607 0.003849
# 3 -0.002195 0.003656 0.022756 0.010682 -0.001461 0.008500
# 4 0.002162 0.011870 0.010682 0.038743 0.003588 0.007257
# 5 -0.001562 -0.000607 -0.001461 0.003588 0.030615 0.002425
# 6 0.001158 0.003849 0.008500 0.007257 0.002425 0.026708
#
#
# Mechanical properties :
#
#
# Convention : Reuss Voigt Hill
#
# Bulk Modulus (GPa) = 20.36204 45.88283 33.12243
# Shear Modulus (GPa) = 31.29661 40.32919 35.81290
#
# Velocity S-wave (km/s) = 3.72079 4.22373 3.98021
# Velocity P-wave (km/s) = 5.24084 6.63952 5.98120
#
# Compressibility (1/GPa) = 0.04911100
#
# Stress axis : x y z
#
# Youngs Moduli (GPa) = 142.89597 54.15677 43.94541
#
# Poissons Ratio (x) = 0.05497 0.09646
# Poissons Ratio (y) = 0.14503 -0.16068
# Poissons Ratio (z) = 0.31367 -0.19801
#
# Static dielectric constant tensor:
#      x y z
#    x 2.115710 0.025620 0.042290 
#    y 0.025620 1.751910 0.037750 
#    z 0.042290 0.037750 1.852690 
# 
# From -- ./inp_files/60649.got.cif
#   From: 2010.05.17/outbox.cif.g08.bks.cpg/sg2_31_cif.got.tgz:60649.got - 2010.06.03 11:33:40.
