data_PCOD9062993
_publ_section_title
;
Structure prediction by ZEFSAII (Michael W. Deem and Ramdas Pophale) SiO2 
 PCOD9062993
Probable space group: P -1
;
_chemical_formula_sum "Si O2"
_cell_formula_units_Z 14
_cell_length_a 5.557523
_cell_length_b 11.652387
_cell_length_c 9.940724
_cell_angle_alpha 79.824757
_cell_angle_beta 70.852272
_cell_angle_gamma 88.469480
_cell_volume 598.228395
_symmetry_space_group_name_H-M "P -1"
_symmetry_group_IT_number 2
_symmetry_cell_setting 'triclinic'
loop_
_space_group_symop_operation_xyz
x,y,z
-x,-y,-z
loop_
_atom_site_type_symbol
_atom_site_label
_atom_site_fract_x
_atom_site_fract_y
_atom_site_fract_z
Si Si1 0.114533 0.699808 0.741766
Si Si2 0.435499 0.086390 0.191301
Si Si3 0.733013 0.480005 0.861283
Si Si4 0.855645 0.233362 0.982913
Si Si5 0.409756 0.440839 0.392661
Si Si6 0.074090 0.056257 0.773551
Si Si7 0.138393 0.203334 0.462298
O O1 0.364140 0.625778 0.707374
O O2 0.890977 0.601517 0.801671
O O3 0.104263 0.780050 0.594613
O O4 0.082710 0.768689 0.870061
O O5 0.337948 0.153140 0.328321
O O6 0.670066 0.006486 0.211338
O O7 0.564480 0.181042 0.045991
O O8 0.193118 0.017889 0.184435
O O9 0.875686 0.367932 0.909160
O O10 0.666176 0.462268 0.720603
O O11 0.500000 0.500000 0.000000
O O12 0.018018 0.152589 0.876500
O O13 0.500000 0.500000 0.500000
O O14 0.206849 0.334372 0.474596
O O15 0.115846 0.117670 0.608734
#
# Coordination Sequence:
#
# PCOD9062993 Si02
#       7
#     2   2   2   2   2   2   2
#     4  11  24  46  71 104 147 190 233 296 376 448
#     4  12  26  52  71 110 147 195 249 309 367 427
#     4  11  24  43  68 108 140 190 239 288 371 450
#     4  12  25  47  74 106 147 194 241 306 369 430
#     4  11  26  43  72 106 146 183 239 299 364 450
#     4  12  30  46  79 110 143 193 260 310 354 432
#     4  11  26  47  75 104 144 195 238 305 374 434
#
# _framework density 23.402432999999998
#
# number of rings (size 3 to 8) (size 9 to 14) (size 15 to 20)
#    0.000    0.571    2.857    3.857    6.000    3.429 
#    0.000    0.000    0.000    0.000    0.000    0.000 
#    0.000    0.000    0.000    0.000    0.000    0.000 
#
# Total GULP energy -78328.536579 kJ/mol
# GULP energy per Si atom -5594.895470 kJ/mol
# Density = 2.334917 g / cm^3
# Si number density = 23.402433 Si / 1000 Ang^3
#
#
#
# Elastic Constant Matrix: (Units=GPa)
#
#
# Indices 1 2 3 4 5 6 
#
# 1 67.8510 20.7732 5.2797 -0.8905 16.5725 -5.5701
# 2 20.7732 97.9390 28.4640 21.5330 14.9965 -10.6253
# 3 5.2797 28.4640 71.1857 21.9278 13.4569 -9.1079
# 4 -0.8905 21.5330 21.9278 42.0574 6.1081 8.7711
# 5 16.5725 14.9965 13.4569 6.1081 36.2999 -0.1905
# 6 -5.5701 -10.6253 -9.1079 8.7711 -0.1905 26.8107
#
#
#
# Elastic Compliance Matrix: (Units=1/GPa)
#
#
# Indices 1 2 3 4 5 6 
#
# 1 0.017637 -0.003131 0.000945 0.002153 -0.007461 0.001987
# 2 -0.003131 0.014138 -0.001811 -0.007410 -0.002458 0.006744
# 3 0.000945 -0.001811 0.020361 -0.010968 -0.005334 0.009946
# 4 0.002153 -0.007410 -0.010968 0.037201 -0.000211 -0.018387
# 5 -0.007461 -0.002458 -0.005334 -0.000211 0.033962 -0.004026
# 6 0.001987 0.006744 0.009946 -0.018387 -0.004026 0.049750
#
#
# Mechanical properties :
#
#
# Convention : Reuss Voigt Hill
#
# Bulk Modulus (GPa) = 22.65335 38.44551 30.54943
# Shear Modulus (GPa) = 25.54209 33.19752 29.36980
#
# Velocity S-wave (km/s) = 3.30726 3.77045 3.54643
# Velocity P-wave (km/s) = 4.92797 5.95136 5.46368
#
# Compressibility (1/GPa) = 0.04414357
#
# Stress axis : x y z
#
# Youngs Moduli (GPa) = 56.69950 70.73122 49.11294
#
# Poissons Ratio (x) = 0.22145 -0.04643
# Poissons Ratio (y) = 0.17752 0.08893
# Poissons Ratio (z) = -0.05360 0.12808
#
# Static dielectric constant tensor:
#      x y z
#    x 1.973050 0.040410 0.028730 
#    y 0.040410 1.859740 -0.007400 
#    z 0.028730 -0.007400 1.844660 
# 
# From -- ./inp_files/46568.got.cif
#   From: 2010.05.17/outbox.cif.g08.bks.cpg/sg2_24_cif.got.tgz:46568.got - 2010.06.03 11:33:40.
