data_PCOD9062135
_publ_section_title
;
Structure prediction by ZEFSAII (Michael W. Deem and Ramdas Pophale) SiO2 
 PCOD9062135
Probable space group: P -1
;
_chemical_formula_sum "Si O2"
_cell_formula_units_Z 14
_cell_length_a 20.292214
_cell_length_b 5.378664
_cell_length_c 15.139674
_cell_angle_alpha 58.895043
_cell_angle_beta 156.587575
_cell_angle_gamma 111.679325
_cell_volume 534.918422
_symmetry_space_group_name_H-M "P -1"
_symmetry_group_IT_number 2
_symmetry_cell_setting 'triclinic'
loop_
_space_group_symop_operation_xyz
x,y,z
-x,-y,-z
loop_
_atom_site_type_symbol
_atom_site_label
_atom_site_fract_x
_atom_site_fract_y
_atom_site_fract_z
Si Si1 0.459292 0.829549 0.785096
Si Si2 0.131471 0.835831 0.088482
Si Si3 0.171684 0.548030 0.743114
Si Si4 0.545843 0.664592 0.431428
Si Si5 0.323290 0.246350 0.164313
Si Si6 0.185528 0.671901 0.387051
Si Si7 0.701312 0.975329 0.276380
O O1 0.381466 0.679554 0.638337
O O2 0.426151 0.176671 0.654020
O O3 0.345138 0.814496 0.731773
O O4 0.663804 0.676328 0.066544
O O5 0.266590 0.540533 0.264898
O O6 0.127986 0.720302 0.205592
O O7 0.218942 0.105411 0.131900
O O8 0.939523 0.006065 0.785679
O O9 0.201877 0.446240 0.901055
O O10 0.000000 0.500000 0.500000
O O11 0.198663 0.876218 0.697173
O O12 0.432216 0.445140 0.306475
O O13 0.445334 0.946264 0.317952
O O14 0.186743 0.363822 0.494160
O O15 0.500000 0.000000 0.000000
#
# Coordination Sequence:
#
# PCOD9062135 Si02
#       7
#     2   2   2   2   2   2   2
#     4  11  24  46  74 101 152 192 257 309 389 456
#     4  11  24  47  73 108 152 190 262 317 373 466
#     4  11  26  45  75 113 147 199 259 322 384 458
#     4  11  23  47  75 108 148 202 245 317 389 461
#     4  11  26  47  75 108 158 199 249 316 401 454
#     4  11  26  46  73 110 141 204 256 316 378 456
#     4  12  24  47  78 103 148 204 256 311 388 462
#
# _framework density 26.172217
#
# number of rings (size 3 to 8) (size 9 to 14) (size 15 to 20)
#    0.000    0.857    2.857    3.857    2.000    4.000 
#    2.571    4.286    0.000    0.000    0.000    0.000 
#    0.000    0.000    0.000    0.000    0.000    0.000 
#
# Total GULP energy -78333.285005 kJ/mol
# GULP energy per Si atom -5595.234643 kJ/mol
# Density = 2.611265 g / cm^3
# Si number density = 26.172217 Si / 1000 Ang^3
#
#
#
# Elastic Constant Matrix: (Units=GPa)
#
#
# Indices 1 2 3 4 5 6 
#
# 1 74.0494 48.4085 46.5218 -15.0972 -15.2128 23.3330
# 2 48.4085 145.0899 67.1828 -19.9437 -7.5706 22.9692
# 3 46.5218 67.1828 186.1224 -26.3285 -7.0172 15.9363
# 4 -15.0972 -19.9437 -26.3285 43.1987 11.5822 -10.5685
# 5 -15.2128 -7.5706 -7.0172 11.5822 37.6222 -14.1860
# 6 23.3330 22.9692 15.9363 -10.5685 -14.1860 58.8637
#
#
#
# Elastic Compliance Matrix: (Units=1/GPa)
#
#
# Indices 1 2 3 4 5 6 
#
# 1 0.020896 -0.004551 -0.002873 0.001040 0.005047 -0.004327
# 2 -0.004551 0.009762 -0.002078 0.001646 -0.001323 -0.001466
# 3 -0.002873 -0.002078 0.007168 0.002734 -0.000986 0.000262
# 4 0.001040 0.001646 0.002734 0.028157 -0.006795 0.001623
# 5 0.005047 -0.001323 -0.000986 -0.006795 0.032276 0.005341
# 6 -0.004327 -0.001466 0.000262 0.001623 0.005341 0.020783
#
#
# Mechanical properties :
#
#
# Convention : Reuss Voigt Hill
#
# Bulk Modulus (GPa) = 53.12316 81.05420 67.08868
# Shear Modulus (GPa) = 34.64526 44.14682 39.39604
#
# Velocity S-wave (km/s) = 3.64227 4.11150 3.88398
# Velocity P-wave (km/s) = 6.16683 7.31957 6.76779
#
# Compressibility (1/GPa) = 0.01882418
#
# Stress axis : x y z
#
# Youngs Moduli (GPa) = 47.85555 102.43812 139.50984
#
# Poissons Ratio (x) = 0.46615 0.40077
# Poissons Ratio (y) = 0.21777 0.28987
# Poissons Ratio (z) = 0.13748 0.21284
#
# Static dielectric constant tensor:
#      x y z
#    x 2.187770 -0.022700 0.009560 
#    y -0.022700 2.064140 -0.017600 
#    z 0.009560 -0.017600 2.072110 
# 
# From -- ./inp_files/578668.got.cif
#   From: 2010.05.17/outbox.cif.g08.bks.cpg/sg2_290_cif.got.tgz:578668.got - 2010.06.03 11:33:40.
