data_PCOD9062261
_publ_section_title
;
Structure prediction by ZEFSAII (Michael W. Deem and Ramdas Pophale) SiO2 
 PCOD9062261
Probable space group: P -1
;
_chemical_formula_sum "Si O2"
_cell_formula_units_Z 14
_cell_length_a 6.245055
_cell_length_b 10.639514
_cell_length_c 13.379992
_cell_angle_alpha 37.972358
_cell_angle_beta 104.780376
_cell_angle_gamma 106.712335
_cell_volume 523.285593
_symmetry_space_group_name_H-M "P -1"
_symmetry_group_IT_number 2
_symmetry_cell_setting 'triclinic'
loop_
_space_group_symop_operation_xyz
x,y,z
-x,-y,-z
loop_
_atom_site_type_symbol
_atom_site_label
_atom_site_fract_x
_atom_site_fract_y
_atom_site_fract_z
Si Si1 0.043455 0.709671 0.806398
Si Si2 0.388485 0.877203 0.882582
Si Si3 0.092003 0.809521 0.079191
Si Si4 0.699929 0.226072 0.602565
Si Si5 0.622073 0.731762 0.604205
Si Si6 0.327513 0.456992 0.878621
Si Si7 0.832198 0.573230 0.533667
O O1 0.169570 0.881892 0.785752
O O2 0.224800 0.655429 0.781154
O O3 0.820824 0.763069 0.690345
O O4 0.000000 0.500000 0.000000
O O5 0.581493 0.069885 0.769760
O O6 0.303534 0.855579 0.000660
O O7 0.488323 0.677090 0.974368
O O8 0.102302 0.627786 0.274487
O O9 0.890253 0.709348 0.047884
O O10 0.000000 0.000000 0.000000
O O11 0.564259 0.135787 0.542815
O O12 0.690319 0.461082 0.495134
O O13 0.962615 0.265998 0.585054
O O14 0.453950 0.533232 0.745218
O O15 0.730401 0.685216 0.541746
#
# Coordination Sequence:
#
# PCOD9062261 Si02
#       7
#     2   2   2   2   2   2   2
#     4  12  23  45  73 105 140 189 245 288 348 427
#     4  12  27  45  71 113 141 182 246 293 351 414
#     4  12  25  42  73 110 142 179 241 297 344 431
#     4  11  27  43  71 103 144 191 227 297 359 421
#     4  12  23  44  73  97 140 194 233 279 363 420
#     4  12  22  44  75  99 140 189 236 294 351 415
#     4  11  23  49  66 102 145 188 239 280 362 434
#
# _framework density 26.754034000000001
#
# number of rings (size 3 to 8) (size 9 to 14) (size 15 to 20)
#    0.000    0.286    7.143    1.714    2.000    5.143 
#    0.000    2.857    0.000    0.000    0.000    0.000 
#    0.000    0.000    0.000    0.000    0.000    0.000 
#
# Total GULP energy -78066.308472 kJ/mol
# GULP energy per Si atom -5576.164891 kJ/mol
# Density = 2.669314 g / cm^3
# Si number density = 26.754034 Si / 1000 Ang^3
#
#
#
# Elastic Constant Matrix: (Units=GPa)
#
#
# Indices 1 2 3 4 5 6 
#
# 1 120.8843 53.5928 77.1162 3.3746 -37.3790 6.3043
# 2 53.5928 71.6866 28.8725 11.1653 -6.2621 11.2266
# 3 77.1162 28.8725 109.8511 -3.0528 -32.5852 10.4395
# 4 3.3746 11.1653 -3.0528 41.6798 7.3038 8.1267
# 5 -37.3790 -6.2621 -32.5852 7.3038 68.4702 -1.6327
# 6 6.3043 11.2266 10.4395 8.1267 -1.6327 46.4781
#
#
#
# Elastic Compliance Matrix: (Units=1/GPa)
#
#
# Indices 1 2 3 4 5 6 
#
# 1 0.022442 -0.012063 -0.011079 -0.000992 0.006047 0.002744
# 2 -0.012063 0.023203 0.001623 -0.003790 -0.003377 -0.003789
# 3 -0.011079 0.001623 0.017427 0.001968 0.002111 -0.003073
# 4 -0.000992 -0.003790 0.001968 0.026543 -0.002881 -0.004134
# 5 0.006047 -0.003377 0.002111 -0.002881 0.018926 0.000690
# 6 0.002744 -0.003789 -0.003073 -0.004134 0.000690 0.023496
#
#
# Mechanical properties :
#
#
# Convention : Reuss Voigt Hill
#
# Bulk Modulus (GPa) = 49.91397 69.06501 59.48949
# Shear Modulus (GPa) = 27.51010 40.84832 34.17921
#
# Velocity S-wave (km/s) = 3.21013 3.91168 3.57814
# Velocity P-wave (km/s) = 5.69535 6.80239 6.27334
#
# Compressibility (1/GPa) = 0.02003447
#
# Stress axis : x y z
#
# Youngs Moduli (GPa) = 44.55925 43.09849 57.38275
#
# Poissons Ratio (x) = 0.51988 0.63572
# Poissons Ratio (y) = 0.53750 -0.09311
# Poissons Ratio (z) = 0.49365 -0.06993
#
# Static dielectric constant tensor:
#      x y z
#    x 2.184460 -0.006740 0.118430 
#    y -0.006740 2.124940 0.073780 
#    z 0.118430 0.073780 2.198590 
# 
# From -- ./inp_files/67813.got.cif
#   From: 2010.05.17/outbox.cif.g08.bks.cpg/sg2_34_cif.got.tgz:67813.got - 2010.06.03 11:33:40.
