data_PCOD9062846
_publ_section_title
;
Structure prediction by ZEFSAII (Michael W. Deem and Ramdas Pophale) SiO2 
 PCOD9062846
Probable space group: P -1
;
_chemical_formula_sum "Si O2"
_cell_formula_units_Z 16
_cell_length_a 9.524376
_cell_length_b 8.683855
_cell_length_c 12.578635
_cell_angle_alpha 52.039973
_cell_angle_beta 97.035566
_cell_angle_gamma 79.522480
_cell_volume 768.854360
_symmetry_space_group_name_H-M "P -1"
_symmetry_group_IT_number 2
_symmetry_cell_setting 'triclinic'
loop_
_space_group_symop_operation_xyz
x,y,z
-x,-y,-z
loop_
_atom_site_type_symbol
_atom_site_label
_atom_site_fract_x
_atom_site_fract_y
_atom_site_fract_z
Si Si1 0.376080 0.654919 0.715814
Si Si2 0.102539 0.442464 0.138859
Si Si3 0.101405 0.191661 0.932196
Si Si4 0.576223 0.869676 0.751828
Si Si5 0.635238 0.308735 0.549913
Si Si6 0.953889 0.140110 0.331896
Si Si7 0.426667 0.207507 0.973874
Si Si8 0.066991 0.888159 0.233181
O O1 0.464891 0.812584 0.684917
O O2 0.341924 0.662551 0.584613
O O3 0.221663 0.737312 0.731351
O O4 0.460868 0.414651 0.855246
O O5 0.267257 0.313269 0.174651
O O6 0.059527 0.655368 0.107174
O O7 0.044716 0.299314 0.271259
O O8 0.000000 0.500000 0.000000
O O9 0.245827 0.263321 0.923911
O O10 0.068272 0.153331 0.824033
O O11 0.130047 0.007623 0.098153
O O12 0.601029 0.091063 0.649188
O O13 0.527311 0.846799 0.877159
O O14 0.500000 0.500000 0.500000
O O15 0.786913 0.290552 0.635666
O O16 0.000000 0.000000 0.500000
O O17 0.001858 0.018976 0.277068
O O18 0.500000 0.000000 0.000000
#
# Coordination Sequence:
#
# PCOD9062846 Si02
#       8
#     2   2   2   2   2   2   2   2
#     4  12  27  42  70 103 135 181 222 283 349 395
#     4  12  20  43  72  92 129 176 232 278 321 396
#     4  11  24  42  73  99 131 179 235 277 337 403
#     4  12  25  46  68  99 134 184 232 274 332 415
#     4  12  25  48  67  97 142 184 225 274 340 418
#     4  12  22  44  67  95 135 170 221 286 334 391
#     4  12  25  44  64 102 141 174 221 288 343 397
#     4  11  24  44  69 101 131 184 228 278 337 411
#
# _framework density 20.810182999999999
#
# number of rings (size 3 to 8) (size 9 to 14) (size 15 to 20)
#    0.000    0.250    7.500    1.500    3.500    1.000 
#    0.000    1.250    0.000    0.000    0.000    0.000 
#    0.000    0.000    0.000    0.000    0.000    0.000 
#
# Total GULP energy -89371.548252 kJ/mol
# GULP energy per Si atom -5585.721766 kJ/mol
# Density = 2.076282 g / cm^3
# Si number density = 20.810183 Si / 1000 Ang^3
#
#
#
# Elastic Constant Matrix: (Units=GPa)
#
#
# Indices 1 2 3 4 5 6 
#
# 1 47.7910 19.8605 -1.9212 10.4306 11.2390 -12.6758
# 2 19.8605 73.0949 8.2823 -0.4189 16.6417 -21.4676
# 3 -1.9212 8.2823 94.3195 8.1141 -2.7093 -2.0579
# 4 10.4306 -0.4189 8.1141 31.0738 3.4036 5.2038
# 5 11.2390 16.6417 -2.7093 3.4036 24.5425 -6.9636
# 6 -12.6758 -21.4676 -2.0579 5.2038 -6.9636 40.6661
#
#
#
# Elastic Compliance Matrix: (Units=1/GPa)
#
#
# Indices 1 2 3 4 5 6 
#
# 1 0.028508 -0.004563 0.001857 -0.010565 -0.006351 0.006835
# 2 -0.004563 0.019356 -0.002119 0.002277 -0.009672 0.006741
# 3 0.001857 -0.002119 0.011274 -0.004058 0.002680 0.001009
# 4 -0.010565 0.002277 -0.004058 0.038697 -0.004811 -0.008072
# 5 -0.006351 -0.009672 0.002680 -0.004811 0.051900 0.002553
# 6 0.006835 0.006741 0.001009 -0.008072 0.002553 0.031801
#
#
# Mechanical properties :
#
#
# Convention : Reuss Voigt Hill
#
# Bulk Modulus (GPa) = 20.20750 29.73875 24.97312
# Shear Modulus (GPa) = 24.07529 31.85541 27.96535
#
# Velocity S-wave (km/s) = 3.40501 3.91674 3.66981
# Velocity P-wave (km/s) = 5.01899 5.89711 5.47568
#
# Compressibility (1/GPa) = 0.04948658
#
# Stress axis : x y z
#
# Youngs Moduli (GPa) = 35.07814 51.66456 88.69719
#
# Poissons Ratio (x) = 0.23576 -0.16471
# Poissons Ratio (y) = 0.16007 0.18797
# Poissons Ratio (z) = -0.06514 0.10949
#
# Static dielectric constant tensor:
#      x y z
#    x 1.841350 0.018060 0.128460 
#    y 0.018060 1.835930 -0.017890 
#    z 0.128460 -0.017890 1.888090 
# 
# From -- ./inp_files/208426.got.cif
#   From: 2010.05.17/outbox.cif.g08.bks.cpg/sg2_105_cif.got.tgz:208426.got - 2010.06.03 11:33:40.
