data_PCOD9062287
_publ_section_title
;
Structure prediction by ZEFSAII (Michael W. Deem and Ramdas Pophale) SiO2 
 PCOD9062287
Probable space group: P -1
;
_chemical_formula_sum "Si O2"
_cell_formula_units_Z 16
_cell_length_a 4.962891
_cell_length_b 23.873459
_cell_length_c 11.832929
_cell_angle_alpha 146.769473
_cell_angle_beta 85.880288
_cell_angle_gamma 113.853625
_cell_volume 595.166175
_symmetry_space_group_name_H-M "P -1"
_symmetry_group_IT_number 2
_symmetry_cell_setting 'triclinic'
loop_
_space_group_symop_operation_xyz
x,y,z
-x,-y,-z
loop_
_atom_site_type_symbol
_atom_site_label
_atom_site_fract_x
_atom_site_fract_y
_atom_site_fract_z
Si Si1 0.070979 0.710196 0.924389
Si Si2 0.031584 0.126994 0.242549
Si Si3 0.707848 0.233439 0.538805
Si Si4 0.134040 0.029642 0.673976
Si Si5 0.629977 0.522036 0.197565
Si Si6 0.951901 0.758126 0.255788
Si Si7 0.869764 0.455151 0.608749
Si Si8 0.177816 0.220906 0.149245
O O1 0.460822 0.845551 0.133283
O O2 0.933520 0.732986 0.080499
O O3 0.021004 0.579993 0.736078
O O4 0.871387 0.698269 0.799140
O O5 0.384950 0.209360 0.445949
O O6 0.037279 0.187154 0.223533
O O7 0.741864 0.122322 0.310086
O O8 0.000000 0.000000 0.000000
O O9 0.066034 0.369198 0.710625
O O10 0.750668 0.235597 0.676730
O O11 0.006653 0.085355 0.859062
O O12 0.000000 0.000000 0.500000
O O13 0.044855 0.897912 0.501844
O O14 0.345055 0.537389 0.271853
O O15 0.826696 0.535421 0.327627
O O16 0.413183 0.372949 0.909157
O O17 0.590831 0.316187 0.321698
#
# Coordination Sequence:
#
# PCOD9062287 Si02
#       8
#     2   2   2   2   2   2   2   2
#     4  11  27  45  73 106 147 194 245 305 368 438
#     4  12  28  47  75 111 150 194 246 298 372 434
#     4  12  25  49  76 109 147 193 249 302 363 440
#     4  12  26  46  69 108 148 194 244 296 373 442
#     4  11  23  49  74 111 144 193 246 306 362 437
#     4  11  26  47  74 107 149 194 248 304 367 434
#     4  11  25  46  75 109 148 187 248 304 371 432
#     4  12  26  46  75 104 148 192 240 312 361 447
#
# _framework density 26.883247000000001
#
# number of rings (size 3 to 8) (size 9 to 14) (size 15 to 20)
#    0.000    0.500    3.750    3.000    7.000    3.500 
#    0.000    4.375    0.000    0.000    0.000    0.000 
#    0.000    0.000    0.000    0.000    0.000    0.000 
#
# Total GULP energy -89713.191638 kJ/mol
# GULP energy per Si atom -5607.074477 kJ/mol
# Density = 2.682206 g / cm^3
# Si number density = 26.883247 Si / 1000 Ang^3
#
#
#
# Elastic Constant Matrix: (Units=GPa)
#
#
# Indices 1 2 3 4 5 6 
#
# 1 80.0097 24.2987 23.8958 -16.7111 8.2731 -11.3688
# 2 24.2987 142.0827 45.8247 -29.2812 4.4092 -26.2525
# 3 23.8958 45.8247 162.2909 1.0312 3.7694 -12.5232
# 4 -16.7111 -29.2812 1.0312 58.4916 -14.2557 11.3454
# 5 8.2731 4.4092 3.7694 -14.2557 49.8871 1.5491
# 6 -11.3688 -26.2525 -12.5232 11.3454 1.5491 49.0790
#
#
#
# Elastic Compliance Matrix: (Units=1/GPa)
#
#
# Indices 1 2 3 4 5 6 
#
# 1 0.014296 -0.000918 -0.001699 0.002985 -0.001362 0.001740
# 2 -0.000918 0.009332 -0.002285 0.003944 0.000526 0.003268
# 3 -0.001699 -0.002285 0.007140 -0.002053 -0.000664 0.000702
# 4 0.002985 0.003944 -0.002053 0.021917 0.005667 -0.002968
# 5 -0.001362 0.000526 -0.000664 0.005667 0.021963 -0.002207
# 6 0.001740 0.003268 0.000702 -0.002968 -0.002207 0.023461
#
#
# Mechanical properties :
#
#
# Convention : Reuss Voigt Hill
#
# Bulk Modulus (GPa) = 47.69933 63.60240 55.65087
# Shear Modulus (GPa) = 43.51567 50.84913 47.18240
#
# Velocity S-wave (km/s) = 4.02766 4.35383 4.19392
# Velocity P-wave (km/s) = 6.27782 6.99890 6.64814
#
# Compressibility (1/GPa) = 0.02096466
#
# Stress axis : x y z
#
# Youngs Moduli (GPa) = 69.94826 107.15291 140.06117
#
# Poissons Ratio (x) = 0.09837 0.23794
# Poissons Ratio (y) = 0.06421 0.32005
# Poissons Ratio (z) = 0.11883 0.24485
#
# Static dielectric constant tensor:
#      x y z
#    x 2.118070 0.069430 -0.066060 
#    y 0.069430 2.100480 -0.002900 
#    z -0.066060 -0.002900 2.100830 
# 
# From -- ./inp_files/371063.got.cif
#   From: 2010.05.17/outbox.cif.g08.bks.cpg/sg2_186_cif.got.tgz:371063.got - 2010.06.03 11:33:40.
