data_PCOD9062886
_publ_section_title
;
Structure prediction by ZEFSAII (Michael W. Deem and Ramdas Pophale) SiO2 
 PCOD9062886
Probable space group: P -1
;
_chemical_formula_sum "Si O2"
_cell_formula_units_Z 14
_cell_length_a 5.321454
_cell_length_b 5.534316
_cell_length_c 22.883988
_cell_angle_alpha 71.211570
_cell_angle_beta 121.809010
_cell_angle_gamma 85.716836
_cell_volume 516.574900
_symmetry_space_group_name_H-M "P -1"
_symmetry_group_IT_number 2
_symmetry_cell_setting 'triclinic'
loop_
_space_group_symop_operation_xyz
x,y,z
-x,-y,-z
loop_
_atom_site_type_symbol
_atom_site_label
_atom_site_fract_x
_atom_site_fract_y
_atom_site_fract_z
Si Si1 0.696437 0.789779 0.751746
Si Si2 0.288223 0.399663 0.115641
Si Si3 0.886381 0.593273 0.662275
Si Si4 0.825530 0.676163 0.379942
Si Si5 0.833796 0.918198 0.191035
Si Si6 0.331151 0.291310 0.931237
Si Si7 0.251337 0.759316 0.514506
O O1 0.602567 0.599410 0.802608
O O2 0.821464 0.721726 0.707191
O O3 0.974347 0.873195 0.810234
O O4 0.406545 0.048924 0.689137
O O5 0.475808 0.090680 0.146179
O O6 0.423982 0.570399 0.074423
O O7 0.919923 0.540599 0.065756
O O8 0.595313 0.756240 0.573773
O O9 0.155653 0.544564 0.651113
O O10 0.980003 0.279089 0.719585
O O11 0.726478 0.533908 0.433582
O O12 0.134431 0.741184 0.435611
O O13 0.840146 0.754649 0.145621
O O14 0.500000 0.000000 0.000000
O O15 0.000000 0.000000 0.500000
#
# Coordination Sequence:
#
# PCOD9062886 Si02
#       7
#     2   2   2   2   2   2   2
#     4  12  25  45  73 112 142 196 260 310 369 450
#     4  12  26  50  78 116 150 197 256 301 377 453
#     4  12  24  42  71 101 144 191 251 312 379 438
#     4  11  25  43  68  99 144 194 250 310 380 436
#     4  12  26  46  79 107 150 196 254 309 380 448
#     4  12  30  52  79 116 159 197 244 308 378 458
#     4  11  24  43  64  99 144 194 250 311 376 452
#
# _framework density 27.101589000000001
#
# number of rings (size 3 to 8) (size 9 to 14) (size 15 to 20)
#    0.000    0.286    7.143    0.857    2.000    6.286 
#    0.000    0.000    0.000    0.000    0.000    0.000 
#    0.000    0.000    0.000    0.000    0.000    0.000 
#
# Total GULP energy -78209.445301 kJ/mol
# GULP energy per Si atom -5586.388950 kJ/mol
# Density = 2.703990 g / cm^3
# Si number density = 27.101589 Si / 1000 Ang^3
#
#
#
# Elastic Constant Matrix: (Units=GPa)
#
#
# Indices 1 2 3 4 5 6 
#
# 1 132.8731 51.7653 48.1097 -6.7656 -7.4447 -31.5077
# 2 51.7653 101.7823 27.9990 4.6656 3.4674 -39.6490
# 3 48.1097 27.9990 144.5198 -22.9634 3.1939 -16.6464
# 4 -6.7656 4.6656 -22.9634 61.5946 -3.0377 2.2569
# 5 -7.4447 3.4674 3.1939 -3.0377 21.4031 -12.4339
# 6 -31.5077 -39.6490 -16.6464 2.2569 -12.4339 41.9975
#
#
#
# Elastic Compliance Matrix: (Units=1/GPa)
#
#
# Indices 1 2 3 4 5 6 
#
# 1 0.012103 -0.002398 -0.002673 0.000696 0.010167 0.008730
# 2 -0.002398 0.017556 -0.001256 -0.002378 0.005483 0.016029
# 3 -0.002673 -0.001256 0.008492 0.002894 -0.001898 -0.000543
# 4 0.000696 -0.002378 0.002894 0.017711 0.002200 -0.000877
# 5 0.010167 0.005483 -0.001898 0.002200 0.068718 0.032279
# 6 0.008730 0.016029 -0.000543 -0.000877 0.032279 0.054881
#
#
# Mechanical properties :
#
#
# Convention : Reuss Voigt Hill
#
# Bulk Modulus (GPa) = 39.21958 70.54703 54.88331
# Shear Modulus (GPa) = 24.92345 41.75247 33.33796
#
# Velocity S-wave (km/s) = 3.03583 3.92929 3.51110
# Velocity P-wave (km/s) = 5.17601 6.83176 6.06069
#
# Compressibility (1/GPa) = 0.02549747
#
# Stress axis : x y z
#
# Youngs Moduli (GPa) = 82.62333 56.96026 117.75983
#
# Poissons Ratio (x) = 0.13658 0.31478
# Poissons Ratio (y) = 0.19812 0.14789
# Poissons Ratio (z) = 0.22086 0.07153
#
# Static dielectric constant tensor:
#      x y z
#    x 2.368700 0.129920 0.061930 
#    y 0.129920 2.276810 0.068900 
#    z 0.061930 0.068900 2.172150 
# 
# From -- ./inp_files/10210.got.cif
#   From: 2010.05.17/outbox.cif.g08.bks.cpg/sg2_6_cif.got.tgz:10210.got - 2010.06.03 11:33:40.
