data_PCOD9062394
_publ_section_title
;
Structure prediction by ZEFSAII (Michael W. Deem and Ramdas Pophale) SiO2 
 PCOD9062394
Probable space group: P -1
;
_chemical_formula_sum "Si O2"
_cell_formula_units_Z 16
_cell_length_a 25.889875
_cell_length_b 13.763936
_cell_length_c 17.247215
_cell_angle_alpha 23.195507
_cell_angle_beta 22.353629
_cell_angle_gamma 22.368155
_cell_volume 798.142985
_symmetry_space_group_name_H-M "P -1"
_symmetry_group_IT_number 2
_symmetry_cell_setting 'triclinic'
loop_
_space_group_symop_operation_xyz
x,y,z
-x,-y,-z
loop_
_atom_site_type_symbol
_atom_site_label
_atom_site_fract_x
_atom_site_fract_y
_atom_site_fract_z
Si Si1 0.083649 0.599983 0.749154
Si Si2 0.435736 0.840419 0.986499
Si Si3 0.689012 0.836446 0.840294
Si Si4 0.185980 0.819438 0.878064
Si Si5 0.359803 0.824901 0.777976
Si Si6 0.389345 0.036284 0.735410
Si Si7 0.611450 0.176653 0.552304
Si Si8 0.119287 0.128456 0.306724
O O1 0.016755 0.620708 0.739492
O O2 0.060806 0.909426 0.571835
O O3 0.264985 0.367592 0.676178
O O4 0.000000 0.500000 0.000000
O O5 0.427010 0.866073 0.887310
O O6 0.508228 0.031996 0.776718
O O7 0.535637 0.517223 0.113136
O O8 0.260834 0.968074 0.166989
O O9 0.796320 0.814745 0.780307
O O10 0.709041 0.007439 0.616337
O O11 0.747549 0.517662 0.966346
O O12 0.500000 0.000000 0.000000
O O13 0.229078 0.903024 0.838502
O O14 0.278707 0.854024 0.650571
O O15 0.000000 0.000000 0.000000
O O16 0.317227 0.924147 0.852540
O O17 0.456661 0.971807 0.504778
O O18 0.500000 0.500000 0.500000
#
# Coordination Sequence:
#
# PCOD9062394 Si02
#       8
#     2   2   2   2   2   2   2   2
#     4  11  24  42  64  97 137 173 212 282 340 393
#     4  12  21  42  69  97 132 169 234 280 326 405
#     4  12  24  45  74 103 135 182 238 288 337 416
#     4  12  27  47  68 103 146 181 226 293 356 409
#     4  11  24  45  66  94 132 176 227 275 331 410
#     4  11  24  41  70  93 127 181 228 268 331 408
#     4  12  25  42  73 103 131 185 237 279 346 414
#     4  11  24  40  65 102 136 168 221 285 337 395
#
# _framework density 20.046534000000001
#
# number of rings (size 3 to 8) (size 9 to 14) (size 15 to 20)
#    0.000    0.500    7.500    0.375    3.500    1.500 
#    0.000    0.000    0.000    0.000    0.000    0.000 
#    0.000    0.000    0.000    0.000    0.000    0.000 
#
# Total GULP energy -89366.999055 kJ/mol
# GULP energy per Si atom -5585.437441 kJ/mol
# Density = 2.000091 g / cm^3
# Si number density = 20.046534 Si / 1000 Ang^3
#
#
#
# Elastic Constant Matrix: (Units=GPa)
#
#
# Indices 1 2 3 4 5 6 
#
# 1 151.5015 -0.1922 35.0525 5.0456 -1.2129 -13.9187
# 2 -0.1922 44.1826 7.0174 1.0805 -1.6216 -8.1936
# 3 35.0525 7.0174 89.3274 -5.5698 9.8208 -0.4780
# 4 5.0456 1.0805 -5.5698 19.4549 -2.9096 -3.9286
# 5 -1.2129 -1.6216 9.8208 -2.9096 34.7510 -3.0788
# 6 -13.9187 -8.1936 -0.4780 -3.9286 -3.0788 34.4192
#
#
#
# Elastic Compliance Matrix: (Units=1/GPa)
#
#
# Indices 1 2 3 4 5 6 
#
# 1 0.007782 0.001293 -0.003429 -0.002199 0.001408 0.003282
# 2 0.001293 0.024368 -0.002706 -0.000802 0.002448 0.006413
# 3 -0.003429 -0.002706 0.013415 0.003952 -0.003860 -0.001739
# 4 -0.002199 -0.000802 0.003952 0.054851 0.003856 0.005580
# 5 0.001408 0.002448 -0.003860 0.003856 0.030733 0.004288
# 6 0.003282 0.006413 -0.001739 0.005580 0.004288 0.032904
#
#
# Mechanical properties :
#
#
# Convention : Reuss Voigt Hill
#
# Bulk Modulus (GPa) = 27.87254 40.97410 34.42332
# Shear Modulus (GPa) = 26.92561 33.93394 30.42978
#
# Velocity S-wave (km/s) = 3.66888 4.11878 3.90032
# Velocity P-wave (km/s) = 5.64639 6.56529 6.12310
#
# Compressibility (1/GPa) = 0.03587761
#
# Stress axis : x y z
#
# Youngs Moduli (GPa) = 128.50685 41.03803 74.54579
#
# Poissons Ratio (x) = -0.05305 0.25565
# Poissons Ratio (y) = -0.16611 0.20175
# Poissons Ratio (z) = 0.44070 0.11106
#
# Static dielectric constant tensor:
#      x y z
#    x 1.751480 0.005180 0.001720 
#    y 0.005180 1.687140 -0.000430 
#    z 0.001720 -0.000430 1.713520 
# 
# From -- ./inp_files/577912.got.cif
#   From: 2010.05.17/outbox.cif.g08.bks.cpg/sg2_289_cif.got.tgz:577912.got - 2010.06.03 11:33:40.
