data_PCOD9062562
_publ_section_title
;
Structure prediction by ZEFSAII (Michael W. Deem and Ramdas Pophale) SiO2 
 PCOD9062562
Probable space group: P -1
;
_chemical_formula_sum "Si O2"
_cell_formula_units_Z 12
_cell_length_a 11.145996
_cell_length_b 8.876882
_cell_length_c 12.883194
_cell_angle_alpha 32.469799
_cell_angle_beta 129.598724
_cell_angle_gamma 119.371125
_cell_volume 523.829791
_symmetry_space_group_name_H-M "P -1"
_symmetry_group_IT_number 2
_symmetry_cell_setting 'triclinic'
loop_
_space_group_symop_operation_xyz
x,y,z
-x,-y,-z
loop_
_atom_site_type_symbol
_atom_site_label
_atom_site_fract_x
_atom_site_fract_y
_atom_site_fract_z
Si Si1 0.688526 0.236797 0.724596
Si Si2 0.822197 0.826382 0.695125
Si Si3 0.347788 0.135983 0.609313
Si Si4 0.851916 0.316661 0.155147
Si Si5 0.803996 0.347606 0.520966
Si Si6 0.875039 0.648504 0.191416
O O1 0.529136 0.132926 0.738219
O O2 0.718081 0.531499 0.620739
O O3 0.667077 0.317936 0.543923
O O4 0.825745 0.981483 0.956678
O O5 0.677895 0.955082 0.470406
O O6 0.971960 0.792100 0.720968
O O7 0.856575 0.044596 0.675730
O O8 0.794748 0.539318 0.904430
O O9 0.253204 0.938910 0.742540
O O10 0.852837 0.481604 0.169827
O O11 0.772915 0.552163 0.287466
O O12 0.948777 0.426373 0.624968
#
# Coordination Sequence:
#
# PCOD9062562 Si02
#       6
#     2   2   2   2   2   2
#     4  11  26  45  65  94 136 175 212 264 325 390
#     4  11  24  41  70 100 127 168 219 274 317 380
#     4  11  26  45  65  94 136 175 212 264 325 390
#     4  11  24  43  68  98 129 172 216 268 326 377
#     4  11  24  41  70 100 127 168 219 274 317 380
#     4  11  24  43  68  98 129 172 216 268 326 377
#
# _framework density 22.908204000000001
#
# number of rings (size 3 to 8) (size 9 to 14) (size 15 to 20)
#    0.000    1.000    3.333    2.000    9.333    2.667 
#    0.000    3.333    0.000    0.000    0.000    0.000 
#    0.000    0.000    0.000    0.000    0.000    0.000 
#
# Total GULP energy -67085.448305 kJ/mol
# GULP energy per Si atom -5590.454025 kJ/mol
# Density = 2.285606 g / cm^3
# Si number density = 22.908204 Si / 1000 Ang^3
#
#
#
# Elastic Constant Matrix: (Units=GPa)
#
#
# Indices 1 2 3 4 5 6 
#
# 1 93.5750 53.5218 35.1266 -3.3485 -33.2521 15.0243
# 2 53.5218 93.7765 24.3123 -12.8033 -9.2249 11.7904
# 3 35.1266 24.3123 63.6549 -15.4854 -29.3199 11.0480
# 4 -3.3485 -12.8033 -15.4854 26.1740 0.7072 -9.7482
# 5 -33.2521 -9.2249 -29.3199 0.7072 37.8435 -8.8734
# 6 15.0243 11.7904 11.0480 -9.7482 -8.8734 41.5387
#
#
#
# Elastic Compliance Matrix: (Units=1/GPa)
#
#
# Indices 1 2 3 4 5 6 
#
# 1 0.024587 -0.012275 -0.002258 -0.005618 0.016349 -0.002634
# 2 -0.012275 0.018389 -0.002712 0.005857 -0.008637 -0.000529
# 3 -0.002258 -0.002712 0.032309 0.017612 0.022511 0.001935
# 4 -0.005618 0.005857 0.017612 0.054547 0.011693 0.010984
# 5 0.016349 -0.008637 0.022511 0.011693 0.057200 0.005514
# 6 -0.002634 -0.000529 0.001935 0.010984 0.005514 0.028418
#
#
# Mechanical properties :
#
#
# Convention : Reuss Voigt Hill
#
# Bulk Modulus (GPa) = 24.51258 52.99195 38.75227
# Shear Modulus (GPa) = 18.97266 30.31431 24.64349
#
# Velocity S-wave (km/s) = 2.88098 3.64166 3.28342
# Velocity P-wave (km/s) = 4.66800 6.39256 5.59710
#
# Compressibility (1/GPa) = 0.04079538
#
# Stress axis : x y z
#
# Youngs Moduli (GPa) = 40.67253 54.38121 30.95087
#
# Poissons Ratio (x) = 0.66750 0.06990
# Poissons Ratio (y) = 0.49924 0.08393
# Poissons Ratio (z) = 0.09185 0.14747
#
# Static dielectric constant tensor:
#      x y z
#    x 1.875820 0.008550 -0.029300 
#    y 0.008550 1.866210 -0.016150 
#    z -0.029300 -0.016150 1.858410 
# 
# From -- ./inp_files/418786.got.cif
#   From: 2010.05.17/outbox.cif.g08.bks.cpg/sg2_210_cif.got.tgz:418786.got - 2010.06.03 11:33:40.
