data_PCOD9062223
_publ_section_title
;
Structure prediction by ZEFSAII (Michael W. Deem and Ramdas Pophale) SiO2 
 PCOD9062223
Probable space group: P -1
;
_chemical_formula_sum "Si O2"
_cell_formula_units_Z 14
_cell_length_a 9.254950
_cell_length_b 8.070798
_cell_length_c 10.518284
_cell_angle_alpha 118.156043
_cell_angle_beta 44.997683
_cell_angle_gamma 103.661518
_cell_volume 483.760026
_symmetry_space_group_name_H-M "P -1"
_symmetry_group_IT_number 2
_symmetry_cell_setting 'triclinic'
loop_
_space_group_symop_operation_xyz
x,y,z
-x,-y,-z
loop_
_atom_site_type_symbol
_atom_site_label
_atom_site_fract_x
_atom_site_fract_y
_atom_site_fract_z
Si Si1 0.557688 0.940905 0.636047
Si Si2 0.500000 0.500000 0.500000
Si Si3 0.301598 0.883176 0.134181
Si Si4 0.486676 0.496082 0.774529
Si Si5 0.839886 0.922188 0.203834
Si Si6 0.910954 0.782329 0.771606
Si Si7 0.163441 0.627868 0.310580
Si Si8 0.000000 0.500000 0.000000
O O1 0.515671 0.725737 0.586200
O O2 0.720581 0.952469 0.425142
O O3 0.645062 0.004777 0.735369
O O4 0.343534 0.073087 0.780860
O O5 0.619569 0.462231 0.552119
O O6 0.132057 0.760693 0.254478
O O7 0.243615 0.033000 0.114086
O O8 0.465180 0.710055 0.917243
O O9 0.609113 0.377952 0.769494
O O10 0.259741 0.473667 0.852016
O O11 0.991976 0.723368 0.047422
O O12 0.945556 0.109405 0.190573
O O13 0.855152 0.587974 0.794006
O O14 0.011862 0.706664 0.545902
#
# Coordination Sequence:
#
# PCOD9062223 Si02
#       8
#     2   1   2   2   2   2   2   1
#     4  11  25  46  82 109 159 213 262 320 409 465
#     4  12  26  48  80 114 154 212 258 328 390 494
#     4  12  25  48  80 114 157 210 260 337 391 469
#     4  12  27  51  77 116 159 207 265 326 404 465
#     4  11  23  48  73 112 163 209 262 324 396 478
#     4  11  24  45  77 118 163 204 271 317 401 476
#     4  11  25  46  78 118 160 209 260 328 398 482
#     4  12  24  48  78 108 154 208 266 326 386 478
#
# _framework density 28.939966999999999
#
# number of rings (size 3 to 8) (size 9 to 14) (size 15 to 20)
#    0.000    0.571    4.286    3.429    0.000    3.429 
#    7.714    0.714    0.000    0.000    0.000    0.000 
#    0.000    0.000    0.000    0.000    0.000    0.000 
#
# Total GULP energy -78087.683818 kJ/mol
# GULP energy per Si atom -5577.691701 kJ/mol
# Density = 2.887410 g / cm^3
# Si number density = 28.939967 Si / 1000 Ang^3
#
#
#
# Elastic Constant Matrix: (Units=GPa)
#
#
# Indices 1 2 3 4 5 6 
#
# 1 123.5173 32.1834 14.5859 12.8218 2.9796 -7.1082
# 2 32.1834 196.5832 34.7913 36.3797 -8.5429 23.1686
# 3 14.5859 34.7913 80.2453 18.6602 7.1208 -11.8802
# 4 12.8218 36.3797 18.6602 41.4364 6.2825 14.7916
# 5 2.9796 -8.5429 7.1208 6.2825 62.6669 4.7588
# 6 -7.1082 23.1686 -11.8802 14.7916 4.7588 46.0526
#
#
#
# Elastic Compliance Matrix: (Units=1/GPa)
#
#
# Indices 1 2 3 4 5 6 
#
# 1 0.008894 -0.001369 0.000057 -0.002541 -0.000586 0.002953
# 2 -0.001369 0.006914 -0.002601 -0.003545 0.001918 -0.003420
# 3 0.000057 -0.002601 0.016893 -0.008048 -0.002114 0.008479
# 4 -0.002541 -0.003545 -0.008048 0.036313 -0.002168 -0.012124
# 5 -0.000586 0.001918 -0.002114 -0.002168 0.016906 -0.002651
# 6 0.002953 -0.003420 0.008479 -0.012124 -0.002651 0.030246
#
#
# Mechanical properties :
#
#
# Convention : Reuss Voigt Hill
#
# Bulk Modulus (GPa) = 40.20131 62.60742 51.40437
# Shear Modulus (GPa) = 37.79743 51.28353 44.54048
#
# Velocity S-wave (km/s) = 3.61787 4.21416 3.92735
# Velocity P-wave (km/s) = 5.60120 6.73494 6.19406
#
# Compressibility (1/GPa) = 0.02487481
#
# Stress axis : x y z
#
# Youngs Moduli (GPa) = 112.43615 144.63570 59.19482
#
# Poissons Ratio (x) = 0.19807 -0.00338
# Poissons Ratio (y) = 0.15398 0.15396
# Poissons Ratio (z) = -0.00642 0.37618
#
# Static dielectric constant tensor:
#      x y z
#    x 2.201360 -0.033760 -0.014410 
#    y -0.033760 2.157310 -0.130340 
#    z -0.014410 -0.130340 2.422230 
# 
# From -- ./inp_files/153082.got.cif
#   From: 2010.05.17/outbox.cif.g08.bks.cpg/sg2_77_cif.got.tgz:153082.got - 2010.06.03 11:33:40.
