data_PCOD9062919
_publ_section_title
;
Structure prediction by ZEFSAII (Michael W. Deem and Ramdas Pophale) SiO2 
 PCOD9062919
Probable space group: P -1
;
_chemical_formula_sum "Si O2"
_cell_formula_units_Z 16
_cell_length_a 25.491539
_cell_length_b 9.600424
_cell_length_c 22.281936
_cell_angle_alpha 29.278620
_cell_angle_beta 17.279382
_cell_angle_gamma 29.458923
_cell_volume 764.815712
_symmetry_space_group_name_H-M "P -1"
_symmetry_group_IT_number 2
_symmetry_cell_setting 'triclinic'
loop_
_space_group_symop_operation_xyz
x,y,z
-x,-y,-z
loop_
_atom_site_type_symbol
_atom_site_label
_atom_site_fract_x
_atom_site_fract_y
_atom_site_fract_z
Si Si1 0.073003 0.970703 0.085482
Si Si2 0.190494 0.497546 0.323948
Si Si3 0.949991 0.590649 0.753307
Si Si4 0.548942 0.685540 0.323454
Si Si5 0.779210 0.147797 0.447148
Si Si6 0.404608 0.738690 0.899289
Si Si7 0.250685 0.769191 0.283960
Si Si8 0.022897 0.509064 0.101813
O O1 0.062216 0.665158 0.182750
O O2 0.261335 0.891803 0.947187
O O3 0.905772 0.083435 0.272839
O O4 0.057691 0.216184 0.958097
O O5 0.189169 0.636258 0.339209
O O6 0.000000 0.500000 0.500000
O O7 0.274125 0.148082 0.364729
O O8 0.293407 0.669755 0.103590
O O9 0.979654 0.447600 0.840455
O O10 0.119027 0.716478 0.500616
O O11 0.779633 0.882464 0.825536
O O12 0.500000 0.500000 0.500000
O O13 0.417742 0.634800 0.432659
O O14 0.491868 0.022479 0.282183
O O15 0.763321 0.608398 0.104621
O O16 0.905904 0.272519 0.306474
O O17 0.548499 0.429302 0.844436
#
# Coordination Sequence:
#
# PCOD9062919 Si02
#       8
#     2   2   2   2   2   2   2   2
#     4  12  23  46  67  97 140 184 222 281 342 403
#     4  12  21  39  71 102 134 172 223 291 349 399
#     4  11  25  46  67  93 140 190 222 277 350 400
#     4  12  23  40  71 103 136 177 224 286 346 397
#     4  12  23  42  70 102 135 173 229 285 346 394
#     4  12  24  41  70 105 138 172 234 289 340 407
#     4  11  24  43  66  95 141 177 227 283 339 415
#     4  12  26  46  70 104 140 179 234 284 334 417
#
# _framework density 20.920072999999999
#
# number of rings (size 3 to 8) (size 9 to 14) (size 15 to 20)
#    0.000    0.250    6.250    3.375    1.750    1.500 
#    2.250    0.625    0.000    0.000    0.000    0.000 
#    0.000    0.000    0.000    0.000    0.000    0.000 
#
# Total GULP energy -89381.851947 kJ/mol
# GULP energy per Si atom -5586.365747 kJ/mol
# Density = 2.087246 g / cm^3
# Si number density = 20.920073 Si / 1000 Ang^3
#
#
#
# Elastic Constant Matrix: (Units=GPa)
#
#
# Indices 1 2 3 4 5 6 
#
# 1 69.7101 13.9589 18.6256 19.1769 -7.4280 -20.4553
# 2 13.9589 71.5127 17.6779 8.1554 -3.4774 -18.3179
# 3 18.6256 17.6779 51.8751 -6.3712 -2.6328 -9.1986
# 4 19.1769 8.1554 -6.3712 27.9919 -7.8547 -8.9156
# 5 -7.4280 -3.4774 -2.6328 -7.8547 38.8247 -4.3438
# 6 -20.4553 -18.3179 -9.1986 -8.9156 -4.3438 39.6222
#
#
#
# Elastic Compliance Matrix: (Units=1/GPa)
#
#
# Indices 1 2 3 4 5 6 
#
# 1 0.023131 0.001494 -0.009417 -0.015745 0.001526 0.007070
# 2 0.001494 0.017436 -0.005900 -0.005072 0.001142 0.006446
# 3 -0.009417 -0.005900 0.027283 0.016107 0.003082 0.002707
# 4 -0.015745 -0.005072 0.016107 0.056694 0.009891 0.007107
# 5 0.001526 0.001142 0.003082 0.009891 0.029196 0.007458
# 6 0.007070 0.006446 0.002707 0.007107 0.007458 0.034914
#
#
# Mechanical properties :
#
#
# Convention : Reuss Voigt Hill
#
# Bulk Modulus (GPa) = 24.87326 32.62476 28.74901
# Shear Modulus (GPa) = 21.76748 30.81010 26.28879
#
# Velocity S-wave (km/s) = 3.22919 3.84181 3.54874
# Velocity P-wave (km/s) = 5.08124 5.94207 5.52843
#
# Compressibility (1/GPa) = 0.04020381
#
# Stress axis : x y z
#
# Youngs Moduli (GPa) = 43.23271 57.35389 36.65245
#
# Poissons Ratio (x) = -0.08566 0.34514
# Poissons Ratio (y) = -0.06457 0.21625
# Poissons Ratio (z) = 0.40710 0.33839
#
# Static dielectric constant tensor:
#      x y z
#    x 1.745170 -0.031650 -0.018340 
#    y -0.031650 1.779600 0.035240 
#    z -0.018340 0.035240 1.712660 
# 
# From -- ./inp_files/495427.got.cif
#   From: 2010.05.17/outbox.cif.g08.bks.cpg/sg2_248_cif.got.tgz:495427.got - 2010.06.03 11:33:40.
