data_PCOD9062503
_publ_section_title
;
Structure prediction by ZEFSAII (Michael W. Deem and Ramdas Pophale) SiO2 
 PCOD9062503
Probable space group: P -1
;
_chemical_formula_sum "Si O2"
_cell_formula_units_Z 14
_cell_length_a 5.162093
_cell_length_b 22.724798
_cell_length_c 5.819253
_cell_angle_alpha 121.992315
_cell_angle_beta 84.088822
_cell_angle_gamma 78.193680
_cell_volume 548.034325
_symmetry_space_group_name_H-M "P -1"
_symmetry_group_IT_number 2
_symmetry_cell_setting 'triclinic'
loop_
_space_group_symop_operation_xyz
x,y,z
-x,-y,-z
loop_
_atom_site_type_symbol
_atom_site_label
_atom_site_fract_x
_atom_site_fract_y
_atom_site_fract_z
Si Si1 0.448220 0.268556 0.127775
Si Si2 0.899949 0.129950 0.911320
Si Si3 0.455760 0.076987 0.044966
Si Si4 0.200230 0.183941 0.646748
Si Si5 0.377300 0.406322 0.706123
Si Si6 0.217196 0.676776 0.150220
Si Si7 0.894833 0.457508 0.228549
O O1 0.694990 0.212871 0.132819
O O2 0.320639 0.343231 0.427254
O O3 0.269247 0.220211 0.948232
O O4 0.566632 0.292036 0.931350
O O5 0.701537 0.080339 0.862212
O O6 0.161399 0.102840 0.997804
O O7 0.016922 0.135112 0.655262
O O8 0.442883 0.133845 0.371315
O O9 0.500000 0.000000 0.000000
O O10 0.042011 0.253222 0.651159
O O11 0.659762 0.368049 0.729003
O O12 0.362040 0.480098 0.726150
O O13 0.138752 0.430816 0.966847
O O14 0.167039 0.616524 0.857581
O O15 0.000000 0.500000 0.500000
#
# Coordination Sequence:
#
# PCOD9062503 Si02
#       7
#     2   2   2   2   2   2   2
#     4  11  25  45  70 105 139 191 247 305 366 440
#     4  11  26  48  76 110 154 194 251 304 373 442
#     4  12  28  49  78 114 153 200 247 303 376 451
#     4  11  26  47  75 108 151 193 252 311 369 448
#     4  11  24  41  66  95 141 184 243 304 370 434
#     4  11  24  41  69  98 136 192 241 305 371 439
#     4  11  25  43  63  97 140 187 243 304 369 441
#
# _framework density 25.545846000000001
#
# number of rings (size 3 to 8) (size 9 to 14) (size 15 to 20)
#    0.000    0.857    1.429    4.286    8.000    8.000 
#    0.000    0.000    0.000    0.000    0.000    0.000 
#    0.000    0.000    0.000    0.000    0.000    0.000 
#
# Total GULP energy -78427.292869 kJ/mol
# GULP energy per Si atom -5601.949491 kJ/mol
# Density = 2.548770 g / cm^3
# Si number density = 25.545846 Si / 1000 Ang^3
#
#
#
# Elastic Constant Matrix: (Units=GPa)
#
#
# Indices 1 2 3 4 5 6 
#
# 1 105.2101 48.4306 6.6531 2.6821 12.9731 -5.5695
# 2 48.4306 172.2074 1.8060 16.7714 4.3996 -16.6498
# 3 6.6531 1.8060 58.0997 6.7805 1.8024 -19.0819
# 4 2.6821 16.7714 6.7805 20.5856 -0.7839 -5.2779
# 5 12.9731 4.3996 1.8024 -0.7839 27.7264 -10.2987
# 6 -5.5695 -16.6498 -19.0819 -5.2779 -10.2987 52.2959
#
#
#
# Elastic Compliance Matrix: (Units=1/GPa)
#
#
# Indices 1 2 3 4 5 6 
#
# 1 0.011724 -0.003396 -0.001663 0.001236 -0.005309 -0.001360
# 2 -0.003396 0.007473 0.001494 -0.005539 0.000964 0.002193
# 3 -0.001663 0.001494 0.020445 -0.005729 0.001853 0.007545
# 4 0.001236 -0.005539 -0.005729 0.055582 0.003178 0.002513
# 5 -0.005309 0.000964 0.001853 0.003178 0.041691 0.008949
# 6 -0.001360 0.002193 0.007545 0.002513 0.008949 0.024444
#
#
# Mechanical properties :
#
#
# Convention : Reuss Voigt Hill
#
# Bulk Modulus (GPa) = 30.75911 49.92186 40.34049
# Shear Modulus (GPa) = 27.88174 38.69675 33.28924
#
# Velocity S-wave (km/s) = 3.30728 3.89626 3.61379
# Velocity P-wave (km/s) = 5.16246 6.31075 5.76527
#
# Compressibility (1/GPa) = 0.03251069
#
# Stress axis : x y z
#
# Youngs Moduli (GPa) = 85.29214 133.81015 48.91169
#
# Poissons Ratio (x) = 0.45444 0.08136
# Poissons Ratio (y) = 0.28966 -0.07305
# Poissons Ratio (z) = 0.14187 -0.19985
#
# Static dielectric constant tensor:
#      x y z
#    x 2.098770 0.012590 0.030380 
#    y 0.012590 2.004610 -0.053400 
#    z 0.030380 -0.053400 1.995660 
# 
# From -- ./inp_files/10246.got.cif
#   From: 2010.05.17/outbox.cif.g08.bks.cpg/sg2_6_cif.got.tgz:10246.got - 2010.06.03 11:33:40.
