data_PCOD9062009
_publ_section_title
;
Structure prediction by ZEFSAII (Michael W. Deem and Ramdas Pophale) SiO2 
 PCOD9062009
Probable space group: P -1
;
_chemical_formula_sum "Si O2"
_cell_formula_units_Z 15
_cell_length_a 11.799263
_cell_length_b 9.468109
_cell_length_c 8.060105
_cell_angle_alpha 93.098214
_cell_angle_beta 39.502649
_cell_angle_gamma 102.394915
_cell_volume 550.341693
_symmetry_space_group_name_H-M "P -1"
_symmetry_group_IT_number 2
_symmetry_cell_setting 'triclinic'
loop_
_space_group_symop_operation_xyz
x,y,z
-x,-y,-z
loop_
_atom_site_type_symbol
_atom_site_label
_atom_site_fract_x
_atom_site_fract_y
_atom_site_fract_z
Si Si1 0.898598 0.697813 0.390187
Si Si2 0.634065 0.775571 0.933387
Si Si3 0.500000 0.500000 0.000000
Si Si4 0.379888 0.940230 0.367479
Si Si5 0.822800 0.454886 0.856427
Si Si6 0.021892 0.041123 0.237902
Si Si7 0.429631 0.766856 0.626652
Si Si8 0.193970 0.305606 0.863682
O O1 0.695398 0.689526 0.700646
O O2 0.867132 0.639399 0.236434
O O3 0.006925 0.869492 0.260242
O O4 0.002765 0.608869 0.381868
O O5 0.527431 0.623586 0.129452
O O6 0.827279 0.870886 0.794812
O O7 0.502223 0.879223 0.095442
O O8 0.330627 0.563727 0.111883
O O9 0.185662 0.945741 0.511451
O O10 0.363217 0.835400 0.541857
O O11 0.484920 0.098708 0.333838
O O12 0.730403 0.347190 0.105196
O O13 0.868449 0.612339 0.906274
O O14 0.101262 0.130717 0.987525
O O15 0.593415 0.692430 0.398263
#
# Coordination Sequence:
#
# PCOD9062009 Si02
#       8
#     2   2   1   2   2   2   2   2
#     4  12  28  47  78 118 155 202 264 325 384 466
#     4  12  28  51  72 115 159 202 263 312 391 464
#     4  12  28  52  74 110 158 210 252 322 390 466
#     4  11  25  45  82 115 159 205 252 331 383 460
#     4  12  27  48  81 111 158 209 262 320 390 463
#     4  12  25  49  78 115 157 202 262 322 387 458
#     4  11  23  46  78 120 152 202 267 319 389 455
#     4  12  24  50  77 115 159 199 261 325 385 462
#
# _framework density 27.255793000000001
#
# number of rings (size 3 to 8) (size 9 to 14) (size 15 to 20)
#    0.000    0.267    4.000    4.000    3.733    3.200 
#    0.000    0.000    0.000    0.000    0.000    0.000 
#    0.000    0.000    0.000    0.000    0.000    0.000 
#
# Total GULP energy -83900.067103 kJ/mol
# GULP energy per Si atom -5593.337807 kJ/mol
# Density = 2.719376 g / cm^3
# Si number density = 27.255793 Si / 1000 Ang^3
#
#
#
# Elastic Constant Matrix: (Units=GPa)
#
#
# Indices 1 2 3 4 5 6 
#
# 1 165.4030 44.7169 34.5431 24.0471 -23.1306 -18.5567
# 2 44.7169 124.7997 25.3775 11.4687 -18.4027 -4.4494
# 3 34.5431 25.3775 99.7081 24.6370 -23.7646 0.8800
# 4 24.0471 11.4687 24.6370 44.1954 -7.8186 4.3591
# 5 -23.1306 -18.4027 -23.7646 -7.8186 51.2366 5.9831
# 6 -18.5567 -4.4494 0.8800 4.3591 5.9831 53.1184
#
#
#
# Elastic Compliance Matrix: (Units=1/GPa)
#
#
# Indices 1 2 3 4 5 6 
#
# 1 0.007762 -0.001957 -0.001087 -0.003103 0.001514 0.002650
# 2 -0.001957 0.009252 -0.001143 -0.000363 0.001862 -0.000070
# 3 -0.001087 -0.001143 0.013137 -0.005580 0.004426 -0.000734
# 4 -0.003103 -0.000363 -0.005580 0.027949 0.000540 -0.003376
# 5 0.001514 0.001862 0.004426 0.000540 0.023245 -0.002051
# 6 0.002650 -0.000070 -0.000734 -0.003376 -0.002051 0.020266
#
#
# Mechanical properties :
#
#
# Convention : Reuss Voigt Hill
#
# Bulk Modulus (GPa) = 45.91877 66.57621 56.24749
# Shear Modulus (GPa) = 42.64666 48.72830 45.68748
#
# Velocity S-wave (km/s) = 3.95990 4.23284 4.09864
# Velocity P-wave (km/s) = 6.14749 6.95476 6.56355
#
# Compressibility (1/GPa) = 0.02177759
#
# Stress axis : x y z
#
# Youngs Moduli (GPa) = 128.83016 108.08527 76.12221
#
# Poissons Ratio (x) = 0.21156 0.08272
# Poissons Ratio (y) = 0.25217 0.08698
# Poissons Ratio (z) = 0.14000 0.12350
#
# Static dielectric constant tensor:
#      x y z
#    x 2.113410 0.000080 0.066890 
#    y 0.000080 1.535890 0.504810 
#    z 0.066890 0.504810 1.767580 
# 
# From -- ./inp_files/244337.got.cif
#   From: 2010.05.17/outbox.cif.g08.bks.cpg/sg2_123_cif.got.tgz:244337.got - 2010.06.03 11:33:40.
