data_PCOD9062366
_publ_section_title
;
Structure prediction by ZEFSAII (Michael W. Deem and Ramdas Pophale) SiO2 
 PCOD9062366
Probable space group: P -1
;
_chemical_formula_sum "Si O2"
_cell_formula_units_Z 16
_cell_length_a 13.492168
_cell_length_b 9.498415
_cell_length_c 23.531784
_cell_angle_alpha 37.963864
_cell_angle_beta 25.731595
_cell_angle_gamma 54.031429
_cell_volume 715.116025
_symmetry_space_group_name_H-M "P -1"
_symmetry_group_IT_number 2
_symmetry_cell_setting 'triclinic'
loop_
_space_group_symop_operation_xyz
x,y,z
-x,-y,-z
loop_
_atom_site_type_symbol
_atom_site_label
_atom_site_fract_x
_atom_site_fract_y
_atom_site_fract_z
Si Si1 0.099243 0.437273 0.027118
Si Si2 0.976163 0.051094 0.563017
Si Si3 0.476678 0.074764 0.079139
Si Si4 0.128258 0.909624 0.914730
Si Si5 0.065874 0.269289 0.743411
Si Si6 0.659447 0.911787 0.404457
Si Si7 0.670652 0.191346 0.506649
Si Si8 0.588519 0.406092 0.807242
O O1 0.941728 0.132836 0.207589
O O2 0.398336 0.514144 0.847390
O O3 0.000000 0.500000 0.000000
O O4 0.042895 0.607303 0.048487
O O5 0.140545 0.355461 0.393430
O O6 0.697844 0.950076 0.768129
O O7 0.000000 0.000000 0.500000
O O8 0.121883 0.911391 0.563880
O O9 0.397608 0.796451 0.179732
O O10 0.458271 0.251854 0.981590
O O11 0.778946 0.204409 0.896524
O O12 0.056988 0.019706 0.859506
O O13 0.436581 0.046544 0.718157
O O14 0.000000 0.000000 0.000000
O O15 0.193101 0.508621 0.643858
O O16 0.261697 0.317324 0.574097
O O17 0.500000 0.000000 0.500000
O O18 0.485209 0.876091 0.449726
#
# Coordination Sequence:
#
# PCOD9062366 Si02
#       8
#     2   2   2   2   2   2   2   2
#     4  12  21  44  68  98 138 173 227 289 344 416
#     4  12  27  46  71 104 141 189 237 289 354 424
#     4  11  26  46  75 102 138 190 237 290 355 422
#     4  11  24  39  67  96 130 180 214 278 346 401
#     4  11  24  46  64  98 141 174 228 281 344 419
#     4  11  24  40  69 100 129 178 225 284 344 409
#     4  11  25  45  63  97 142 173 229 284 343 415
#     4  11  24  48  72 102 142 181 239 294 352 419
#
# _framework density 22.373991
#
# number of rings (size 3 to 8) (size 9 to 14) (size 15 to 20)
#    0.000    0.750    5.000    2.625    7.000    2.000 
#    0.000    2.500    0.000    0.000    0.000    0.000 
#    0.000    0.000    0.000    0.000    0.000    0.000 
#
# Total GULP energy -89220.497119 kJ/mol
# GULP energy per Si atom -5576.281070 kJ/mol
# Density = 2.232307 g / cm^3
# Si number density = 22.373991 Si / 1000 Ang^3
#
#
#
# Elastic Constant Matrix: (Units=GPa)
#
#
# Indices 1 2 3 4 5 6 
#
# 1 69.3817 44.1695 46.8200 14.7827 -21.3837 14.9345
# 2 44.1695 137.4224 50.2358 8.3523 -1.8009 27.7377
# 3 46.8200 50.2358 79.6310 21.1333 -15.5491 18.9836
# 4 14.7827 8.3523 21.1333 54.6744 5.5159 -0.6533
# 5 -21.3837 -1.8009 -15.5491 5.5159 25.0191 5.6516
# 6 14.9345 27.7377 18.9836 -0.6533 5.6516 43.5335
#
#
#
# Elastic Compliance Matrix: (Units=1/GPa)
#
#
# Indices 1 2 3 4 5 6 
#
# 1 0.036716 -0.006435 -0.006502 -0.009701 0.031244 -0.009862
# 2 -0.006435 0.011347 -0.005415 0.002923 -0.008346 -0.001534
# 3 -0.006502 -0.005415 0.027218 -0.009542 0.014941 -0.008271
# 4 -0.009701 0.002923 -0.009542 0.026465 -0.021847 0.008860
# 5 0.031244 -0.008346 0.014941 -0.021847 0.085447 -0.023337
# 6 -0.009862 -0.001534 -0.008271 0.008860 -0.023337 0.034101
#
#
# Mechanical properties :
#
#
# Convention : Reuss Voigt Hill
#
# Bulk Modulus (GPa) = 25.92085 63.20954 44.56519
# Shear Modulus (GPa) = 18.45997 34.32605 26.39301
#
# Velocity S-wave (km/s) = 2.87551 3.92113 3.43830
# Velocity P-wave (km/s) = 4.75764 6.98663 5.97696
#
# Compressibility (1/GPa) = 0.03857898
#
# Stress axis : x y z
#
# Youngs Moduli (GPa) = 27.23582 88.12912 36.73982
#
# Poissons Ratio (x) = 0.56708 0.23888
# Poissons Ratio (y) = 0.17525 0.19894
# Poissons Ratio (z) = 0.17709 0.47720
#
# Static dielectric constant tensor:
#      x y z
#    x 1.910590 0.057170 0.132630 
#    y 0.057170 1.846930 0.029390 
#    z 0.132630 0.029390 1.903440 
# 
# From -- ./inp_files/619235.got.cif
#   From: 2010.05.17/outbox.cif.g08.bks.cpg/sg2_310_cif.got.tgz:619235.got - 2010.06.03 11:33:40.
