data_PCOD9062612
_publ_section_title
;
Structure prediction by ZEFSAII (Michael W. Deem and Ramdas Pophale) SiO2 
 PCOD9062612
Probable space group: P -1
;
_chemical_formula_sum "Si O2"
_cell_formula_units_Z 14
_cell_length_a 8.404736
_cell_length_b 20.980741
_cell_length_c 11.354392
_cell_angle_alpha 138.571380
_cell_angle_beta 137.011079
_cell_angle_gamma 24.904817
_cell_volume 548.318400
_symmetry_space_group_name_H-M "P -1"
_symmetry_group_IT_number 2
_symmetry_cell_setting 'triclinic'
loop_
_space_group_symop_operation_xyz
x,y,z
-x,-y,-z
loop_
_atom_site_type_symbol
_atom_site_label
_atom_site_fract_x
_atom_site_fract_y
_atom_site_fract_z
Si Si1 0.809551 0.508268 0.263416
Si Si2 0.934257 0.317215 0.467910
Si Si3 0.712809 0.200807 0.312803
Si Si4 0.940152 0.125722 0.592001
Si Si5 0.739987 0.610554 0.123584
Si Si6 0.428930 0.094032 0.978534
Si Si7 0.846553 0.331279 0.172429
O O1 0.485524 0.699357 0.360629
O O2 0.810527 0.506008 0.117297
O O3 0.615703 0.503246 0.253526
O O4 0.267400 0.379881 0.352702
O O5 0.500000 0.500000 0.500000
O O6 0.902585 0.218742 0.358802
O O7 0.025435 0.284877 0.332893
O O8 0.179423 0.310745 0.671331
O O9 0.947161 0.119400 0.447388
O O10 0.704565 0.094527 0.108559
O O11 0.261568 0.089187 0.773535
O O12 0.000000 0.000000 0.500000
O O13 0.324558 0.718774 0.998885
O O14 0.000000 0.500000 0.000000
O O15 0.073430 0.268243 0.085295
O O16 0.500000 0.000000 0.000000
#
# Coordination Sequence:
#
# PCOD9062612 Si02
#       7
#     2   2   2   2   2   2   2
#     4  11  24  41  73 106 132 179 238 286 339 409
#     4  12  24  40  64 103 144 177 221 288 348 406
#     4  11  25  43  71 105 137 179 236 283 349 405
#     4  12  25  42  70 101 140 178 223 286 349 408
#     4  12  24  39  63 102 148 173 218 283 357 401
#     4  11  25  46  72 100 137 181 235 288 344 408
#     4  11  25  42  70 103 135 178 235 289 341 400
#
# _framework density 25.532612
#
# number of rings (size 3 to 8) (size 9 to 14) (size 15 to 20)
#    0.000    0.571    5.714    1.714    6.000    1.143 
#    0.000    0.714    0.000    4.286    0.000    0.000 
#    0.000    0.000    0.000    0.000    0.000    0.000 
#
# Total GULP energy -78028.111380 kJ/mol
# GULP energy per Si atom -5573.436527 kJ/mol
# Density = 2.547450 g / cm^3
# Si number density = 25.532612 Si / 1000 Ang^3
#
#
#
# Elastic Constant Matrix: (Units=GPa)
#
#
# Indices 1 2 3 4 5 6 
#
# 1 144.4351 34.0419 88.7780 -3.7657 19.8527 40.4917
# 2 34.0419 53.8871 47.0510 -20.7713 -1.1136 25.5580
# 3 88.7780 47.0510 262.6059 -31.8048 35.6195 33.7166
# 4 -3.7657 -20.7713 -31.8048 12.6774 5.7432 -1.8903
# 5 19.8527 -1.1136 35.6195 5.7432 44.7826 1.5762
# 6 40.4917 25.5580 33.7166 -1.8903 1.5762 46.7413
#
#
#
# Elastic Compliance Matrix: (Units=1/GPa)
#
#
# Indices 1 2 3 4 5 6 
#
# 1 -0.010467 0.146602 0.039841 0.354495 -0.065935 -0.083273
# 2 0.146602 -0.999370 -0.293703 -2.452970 0.440145 0.517267
# 3 0.039841 -0.293703 -0.076170 -0.692236 0.119152 0.149014
# 4 0.354495 -2.452970 -0.692236 -5.854008 1.038793 1.261742
# 5 -0.065935 0.440145 0.119152 1.038793 -0.157669 -0.222172
# 6 -0.083273 0.517267 0.149014 1.261742 -0.222172 -0.238278
#
#
# Mechanical properties :
#
#
# Convention : Reuss Voigt Hill
#
# Bulk Modulus (GPa) = -0.76892 88.96332 44.09720
# Shear Modulus (GPa) = -0.66182 40.24408 19.79113
#
# Velocity S-wave (km/s) = -0.50967 3.97442 2.78714
# Velocity P-wave (km/s) = 0.80509 7.48198 5.25984
#
# Compressibility (1/GPa) = -1.30052834
#
# Stress axis : x y z
#
# Youngs Moduli (GPa) = -95.53885 -1.00063 -13.12849
#
# Poissons Ratio (x) = 0.14669 0.52305
# Poissons Ratio (y) = 14.00620 -3.85588
# Poissons Ratio (z) = 3.80632 -0.29389
#
# Static dielectric constant tensor:
#      x y z
#    x 2.312680 -0.100500 0.120360 
#    y -0.100500 1.766130 -0.422700 
#    z 0.120360 -0.422700 1.794890 
# 
# From -- ./inp_files/404968.got.cif
#   From: 2010.05.17/outbox.cif.g08.bks.cpg/sg2_203_cif.got.tgz:404968.got - 2010.06.03 11:33:40.
