data_PCOD9062017
_publ_section_title
;
Structure prediction by ZEFSAII (Michael W. Deem and Ramdas Pophale) SiO2 
 PCOD9062017
Probable space group: P -1
;
_chemical_formula_sum "Si O2"
_cell_formula_units_Z 16
_cell_length_a 8.295331
_cell_length_b 15.322117
_cell_length_c 8.876612
_cell_angle_alpha 119.134955
_cell_angle_beta 52.894074
_cell_angle_gamma 92.106656
_cell_volume 730.520821
_symmetry_space_group_name_H-M "P -1"
_symmetry_group_IT_number 2
_symmetry_cell_setting 'triclinic'
loop_
_space_group_symop_operation_xyz
x,y,z
-x,-y,-z
loop_
_atom_site_type_symbol
_atom_site_label
_atom_site_fract_x
_atom_site_fract_y
_atom_site_fract_z
Si Si1 0.912786 0.052329 0.927463
Si Si2 0.938817 0.396289 0.458093
Si Si3 0.690042 0.901002 0.381153
Si Si4 0.855695 0.872968 0.590607
Si Si5 0.756830 0.335862 0.807434
Si Si6 0.486769 0.450960 0.309221
Si Si7 0.512429 0.788922 0.855601
Si Si8 0.378135 0.257612 0.927950
O O1 0.088324 0.101082 0.818722
O O2 0.905547 0.957800 0.740485
O O3 0.680995 0.147263 0.097559
O O4 0.000000 0.000000 0.000000
O O5 0.890026 0.366148 0.627335
O O6 0.697768 0.446133 0.571921
O O7 0.000000 0.500000 0.500000
O O8 0.133513 0.311193 0.180190
O O9 0.716493 0.915804 0.554949
O O10 0.639538 0.798891 0.264955
O O11 0.500000 0.000000 0.500000
O O12 0.714532 0.818046 0.714138
O O13 0.083018 0.782940 0.336494
O O14 0.522194 0.331968 0.886354
O O15 0.695455 0.413002 0.050728
O O16 0.500000 0.500000 0.500000
O O17 0.443863 0.339074 0.267018
O O18 0.490500 0.819453 0.072408
#
# Coordination Sequence:
#
# PCOD9062017 Si02
#       8
#     2   2   2   2   2   2   2   2
#     4  12  26  43  72 100 138 189 228 286 358 423
#     4  12  23  46  70 102 136 186 243 286 355 415
#     4  12  25  43  66 104 138 180 237 288 352 424
#     4  12  24  44  69 102 141 180 233 290 353 425
#     4  11  24  45  72 101 140 187 233 291 358 413
#     4  11  26  43  70 101 141 186 233 296 348 415
#     4  11  23  47  66 103 141 182 234 291 350 421
#     4  11  24  43  72 100 142 187 232 293 350 421
#
# _framework density 21.902184999999999
#
# number of rings (size 3 to 8) (size 9 to 14) (size 15 to 20)
#    0.000    0.500    3.750    5.625    3.500    1.000 
#    0.000    1.250    0.000    0.000    0.000    0.000 
#    0.000    0.000    0.000    0.000    0.000    0.000 
#
# Total GULP energy -89182.456271 kJ/mol
# GULP energy per Si atom -5573.903517 kJ/mol
# Density = 2.185233 g / cm^3
# Si number density = 21.902185 Si / 1000 Ang^3
#
#
#
# Elastic Constant Matrix: (Units=GPa)
#
#
# Indices 1 2 3 4 5 6 
#
# 1 101.1646 28.9444 42.9386 9.6187 21.5968 -16.6219
# 2 28.9444 62.9257 19.3894 -8.1575 6.2188 -12.8661
# 3 42.9386 19.3894 87.5870 6.9012 -2.9470 0.2560
# 4 9.6187 -8.1575 6.9012 35.9295 1.0872 -6.9653
# 5 21.5968 6.2188 -2.9470 1.0872 52.1344 -2.9164
# 6 -16.6219 -12.8661 0.2560 -6.9653 -2.9164 41.3377
#
#
#
# Elastic Compliance Matrix: (Units=1/GPa)
#
#
# Indices 1 2 3 4 5 6 
#
# 1 0.016513 -0.004237 -0.007153 -0.002958 -0.006431 0.004413
# 2 -0.004237 0.021199 -0.003274 0.007797 -0.000776 0.006174
# 3 -0.007153 -0.003274 0.016022 -0.002841 0.004085 -0.004185
# 4 -0.002958 0.007797 -0.002841 0.032239 -0.000164 0.006675
# 5 -0.006431 -0.000776 0.004085 -0.000164 0.022098 -0.001321
# 6 0.004413 0.006174 -0.004185 0.006675 -0.001321 0.028945
#
#
# Mechanical properties :
#
#
# Convention : Reuss Voigt Hill
#
# Bulk Modulus (GPa) = 40.97496 48.24689 44.61093
# Shear Modulus (GPa) = 28.65657 36.57398 32.61527
#
# Velocity S-wave (km/s) = 3.62109 4.09085 3.86312
# Velocity P-wave (km/s) = 6.01929 6.66255 6.34907
#
# Compressibility (1/GPa) = 0.02440515
#
# Stress axis : x y z
#
# Youngs Moduli (GPa) = 60.56009 47.17143 62.41259
#
# Poissons Ratio (x) = 0.19986 0.44646
# Poissons Ratio (y) = 0.25659 0.20436
# Poissons Ratio (z) = 0.43321 0.15445
#
# Static dielectric constant tensor:
#      x y z
#    x 3.248680 -1.518470 -0.114140 
#    y -1.518470 3.940840 0.254330 
#    z -0.114140 0.254330 1.838460 
# 
# From -- ./inp_files/215410.got.cif
#   From: 2010.05.17/outbox.cif.g08.bks.cpg/sg2_108_cif.got.tgz:215410.got - 2010.06.03 11:33:40.
