data_PCOD9062998
_publ_section_title
;
Structure prediction by ZEFSAII (Michael W. Deem and Ramdas Pophale) SiO2 
 PCOD9062998
Probable space group: P -1
;
_chemical_formula_sum "Si O2"
_cell_formula_units_Z 16
_cell_length_a 9.262561
_cell_length_b 11.396415
_cell_length_c 9.521544
_cell_angle_alpha 123.660897
_cell_angle_beta 99.376928
_cell_angle_gamma 55.945530
_cell_volume 677.074132
_symmetry_space_group_name_H-M "P -1"
_symmetry_group_IT_number 2
_symmetry_cell_setting 'triclinic'
loop_
_space_group_symop_operation_xyz
x,y,z
-x,-y,-z
loop_
_atom_site_type_symbol
_atom_site_label
_atom_site_fract_x
_atom_site_fract_y
_atom_site_fract_z
Si Si1 0.560840 0.625512 0.475831
Si Si2 0.096713 0.170719 0.669194
Si Si3 0.278462 0.275236 0.194873
Si Si4 0.398701 0.917999 0.100715
Si Si5 0.389394 0.227332 0.690111
Si Si6 0.148718 0.837519 0.597762
Si Si7 0.937617 0.393564 0.060704
Si Si8 0.807328 0.241374 0.143178
O O1 0.661275 0.633124 0.632119
O O2 0.556383 0.751151 0.440950
O O3 0.360256 0.693726 0.526391
O O4 0.665565 0.438971 0.299149
O O5 0.274212 0.148131 0.626130
O O6 0.962852 0.205058 0.546170
O O7 0.129488 0.006327 0.647496
O O8 0.011013 0.321705 0.870925
O O9 0.081312 0.396777 0.181283
O O10 0.300177 0.117779 0.180900
O O11 0.416267 0.183854 0.026674
O O12 0.450848 0.871158 0.239625
O O13 0.289884 0.844358 0.980943
O O14 0.249929 0.423790 0.851426
O O15 0.090214 0.852325 0.759364
O O16 0.914829 0.257619 0.047774
#
# Coordination Sequence:
#
# PCOD9062998 Si02
#       8
#     2   2   2   2   2   2   2   2
#     4  11  26  43  68  98 133 172 220 270 328 390
#     4  11  25  43  65  97 135 173 215 269 331 391
#     4  11  24  43  68  97 131 176 224 267 320 391
#     4  11  24  43  68  97 131 176 224 267 320 391
#     4  11  26  43  68  98 133 172 220 270 328 390
#     4  11  25  43  65  97 135 173 215 269 331 391
#     4  11  26  43  68  98 133 172 220 270 328 390
#     4  11  26  43  68  98 133 172 220 270 328 390
#
# _framework density 23.63109
#
# number of rings (size 3 to 8) (size 9 to 14) (size 15 to 20)
#    0.000    1.000    2.500    2.250    7.000    6.000 
#    0.000    0.000    0.000    0.000    0.000    0.000 
#    0.000    0.000    0.000    0.000    0.000    0.000 
#
# Total GULP energy -89717.881533 kJ/mol
# GULP energy per Si atom -5607.367596 kJ/mol
# Density = 2.357730 g / cm^3
# Si number density = 23.631090 Si / 1000 Ang^3
#
#
#
# Elastic Constant Matrix: (Units=GPa)
#
#
# Indices 1 2 3 4 5 6 
#
# 1 52.0047 25.7628 21.2098 -10.8371 21.6958 26.0237
# 2 25.7628 109.3177 42.3719 -17.3790 13.3436 10.3318
# 3 21.2098 42.3719 90.8606 -6.7546 24.3920 4.0016
# 4 -10.8371 -17.3790 -6.7546 48.0949 2.0476 -8.8250
# 5 21.6958 13.3436 24.3920 2.0476 45.9364 -8.1080
# 6 26.0237 10.3318 4.0016 -8.8250 -8.1080 39.1170
#
#
#
# Elastic Compliance Matrix: (Units=1/GPa)
#
#
# Indices 1 2 3 4 5 6 
#
# 1 0.059091 -0.004754 0.000007 0.004978 -0.034535 -0.044092
# 2 -0.004754 0.012311 -0.004837 0.002886 0.001345 0.001336
# 3 0.000007 -0.004837 0.015240 0.000390 -0.006999 -0.001649
# 4 0.004978 0.002886 0.000390 0.023238 -0.004393 0.000219
# 5 -0.034535 0.001345 -0.006999 -0.004393 0.047276 0.032144
# 6 -0.044092 0.001336 -0.001649 0.000219 0.032144 0.061426
#
#
# Mechanical properties :
#
#
# Convention : Reuss Voigt Hill
#
# Bulk Modulus (GPa) = 14.82067 47.87467 31.34767
# Shear Modulus (GPa) = 19.21285 37.48555 28.34920
#
# Velocity S-wave (km/s) = 2.85447 3.98714 3.46736
# Velocity P-wave (km/s) = 4.14117 6.44201 5.41520
#
# Compressibility (1/GPa) = 0.06747336
#
# Stress axis : x y z
#
# Youngs Moduli (GPa) = 16.92311 81.22665 65.61505
#
# Poissons Ratio (x) = 0.38619 -0.00043
# Poissons Ratio (y) = 0.08046 0.31736
# Poissons Ratio (z) = -0.00011 0.39287
#
# Static dielectric constant tensor:
#      x y z
#    x 1.843490 0.026490 -0.026660 
#    y 0.026490 1.918780 0.026160 
#    z -0.026660 0.026160 1.834490 
# 
# From -- ./inp_files/190166.got.cif
#   From: 2010.05.17/outbox.cif.g08.bks.cpg/sg2_96_cif.got.tgz:190166.got - 2010.06.03 11:33:40.
