data_PCOD9062108
_publ_section_title
;
Structure prediction by ZEFSAII (Michael W. Deem and Ramdas Pophale) SiO2 
 PCOD9062108
Probable space group: P -1
;
_chemical_formula_sum "Si O2"
_cell_formula_units_Z 16
_cell_length_a 11.990884
_cell_length_b 25.741832
_cell_length_c 5.473979
_cell_angle_alpha 124.644912
_cell_angle_beta 53.562745
_cell_angle_gamma 152.245728
_cell_volume 628.852680
_symmetry_space_group_name_H-M "P -1"
_symmetry_group_IT_number 2
_symmetry_cell_setting 'triclinic'
loop_
_space_group_symop_operation_xyz
x,y,z
-x,-y,-z
loop_
_atom_site_type_symbol
_atom_site_label
_atom_site_fract_x
_atom_site_fract_y
_atom_site_fract_z
Si Si1 0.852041 0.457829 0.831738
Si Si2 0.491073 0.861569 0.832607
Si Si3 0.660381 0.799129 0.289426
Si Si4 0.193030 0.238336 0.621553
Si Si5 0.140751 0.799015 0.761735
Si Si6 0.602755 0.568917 0.299423
Si Si7 0.976992 0.343959 0.846196
Si Si8 0.846243 0.077442 0.248854
O O1 0.596746 0.324121 0.807796
O O2 0.000000 0.500000 0.500000
O O3 0.000000 0.500000 0.000000
O O4 0.840480 0.529079 0.039848
O O5 0.655109 0.872841 0.502298
O O6 0.356929 0.862598 0.838803
O O7 0.279205 0.739990 0.912773
O O8 0.640911 0.951746 0.093042
O O9 0.686409 0.778100 0.468410
O O10 0.897133 0.858039 0.007331
O O11 0.388907 0.351992 0.512370
O O12 0.929490 0.121688 0.533996
O O13 0.107349 0.257548 0.984986
O O14 0.069274 0.704484 0.484963
O O15 0.223406 0.881369 0.670958
O O16 0.500000 0.500000 0.500000
O O17 0.892033 0.661353 0.185792
O O18 0.500000 0.500000 0.000000
#
# Coordination Sequence:
#
# PCOD9062108 Si02
#       8
#     2   2   2   2   2   2   2   2
#     4  12  28  49  76 113 157 204 253 316 389 465
#     4  12  25  47  74 107 150 198 262 314 389 460
#     4  11  27  48  74 107 153 202 255 317 384 467
#     4  11  25  47  70 108 152 194 260 312 392 453
#     4  11  23  47  73 107 151 193 256 322 384 460
#     4  12  26  44  73 107 149 199 250 313 380 455
#     4  12  26  43  76 108 147 196 253 313 386 453
#     4  11  26  46  74 108 147 204 253 325 380 460
#
# _framework density 25.443162000000001
#
# number of rings (size 3 to 8) (size 9 to 14) (size 15 to 20)
#    0.000    0.500    3.750    3.000    5.250    5.500 
#    0.000    0.000    0.000    0.000    0.000    0.000 
#    0.000    0.000    0.000    0.000    0.000    0.000 
#
# Total GULP energy -89495.019964 kJ/mol
# GULP energy per Si atom -5593.438748 kJ/mol
# Density = 2.538525 g / cm^3
# Si number density = 25.443162 Si / 1000 Ang^3
#
#
#
# Elastic Constant Matrix: (Units=GPa)
#
#
# Indices 1 2 3 4 5 6 
#
# 1 118.2586 15.4764 18.5951 4.4481 2.7824 17.2681
# 2 15.4764 81.0797 17.6543 18.7241 3.6764 16.7887
# 3 18.5951 17.6543 100.3430 5.5848 -12.5229 8.5118
# 4 4.4481 18.7241 5.5848 46.9272 8.3719 2.7344
# 5 2.7824 3.6764 -12.5229 8.3719 48.1765 10.5081
# 6 17.2681 16.7887 8.5118 2.7344 10.5081 30.9340
#
#
#
# Elastic Compliance Matrix: (Units=1/GPa)
#
#
# Indices 1 2 3 4 5 6 
#
# 1 0.009404 -0.000494 -0.001205 -0.000323 0.000265 -0.004711
# 2 -0.000494 0.015628 -0.001552 -0.005755 0.001100 -0.007643
# 3 -0.001205 -0.001552 0.011254 -0.001142 0.003926 -0.002814
# 4 -0.000323 -0.005755 -0.001142 0.024442 -0.004757 0.003074
# 5 0.000265 0.001100 0.003926 -0.004757 0.024637 -0.009774
# 6 -0.004711 -0.007643 -0.002814 0.003074 -0.009774 0.042928
#
#
# Mechanical properties :
#
#
# Convention : Reuss Voigt Hill
#
# Bulk Modulus (GPa) = 33.57592 44.79255 39.18423
# Shear Modulus (GPa) = 34.54873 41.73791 38.14332
#
# Velocity S-wave (km/s) = 3.68894 4.05463 3.87610
# Velocity P-wave (km/s) = 5.60084 6.28992 5.95536
#
# Compressibility (1/GPa) = 0.02978325
#
# Stress axis : x y z
#
# Youngs Moduli (GPa) = 106.33691 63.98927 88.85371
#
# Poissons Ratio (x) = 0.03164 0.10707
# Poissons Ratio (y) = 0.05258 0.13790
# Poissons Ratio (z) = 0.12813 0.09931
#
# Static dielectric constant tensor:
#      x y z
#    x 1.973710 -0.027210 -0.201900 
#    y -0.027210 2.058990 0.057200 
#    z -0.201900 0.057200 2.054400 
# 
# From -- ./inp_files/85124.got.cif
#   From: 2010.05.17/outbox.cif.g08.bks.cpg/sg2_43_cif.got.tgz:85124.got - 2010.06.03 11:33:40.
