data_PCOD9062834
_publ_section_title
;
Structure prediction by ZEFSAII (Michael W. Deem and Ramdas Pophale) SiO2 
 PCOD9062834
Probable space group: P -1
;
_chemical_formula_sum "Si O2"
_cell_formula_units_Z 15
_cell_length_a 14.579352
_cell_length_b 7.838135
_cell_length_c 11.296254
_cell_angle_alpha 94.346606
_cell_angle_beta 56.633836
_cell_angle_gamma 50.211283
_cell_volume 617.562851
_symmetry_space_group_name_H-M "P -1"
_symmetry_group_IT_number 2
_symmetry_cell_setting 'triclinic'
loop_
_space_group_symop_operation_xyz
x,y,z
-x,-y,-z
loop_
_atom_site_type_symbol
_atom_site_label
_atom_site_fract_x
_atom_site_fract_y
_atom_site_fract_z
Si Si1 0.271745 0.125553 0.905927
Si Si2 0.852308 0.287437 0.698728
Si Si3 0.116984 0.070473 0.192065
Si Si4 0.851877 0.213409 0.223632
Si Si5 0.560691 0.118009 0.476444
Si Si6 0.926004 0.772749 0.287336
Si Si7 0.402392 0.146896 0.204057
Si Si8 0.000000 0.500000 0.500000
O O1 0.325529 0.987507 0.732374
O O2 0.435835 0.049726 0.823245
O O3 0.262397 0.984332 0.999334
O O4 0.071891 0.479954 0.086279
O O5 0.692158 0.547363 0.734585
O O6 0.955457 0.329171 0.681760
O O7 0.802023 0.214722 0.832168
O O8 0.000000 0.000000 0.500000
O O9 0.052137 0.280249 0.352174
O O10 0.933504 0.261597 0.250021
O O11 0.634888 0.525827 0.355310
O O12 0.872487 0.021268 0.280678
O O13 0.000000 0.000000 0.000000
O O14 0.500000 0.000000 0.500000
O O15 0.723004 0.939812 0.449842
O O16 0.230869 0.235989 0.345223
O O17 0.500000 0.000000 0.000000
#
# Coordination Sequence:
#
# PCOD9062834 Si02
#       8
#     2   2   2   2   2   2   2   1
#     4  12  25  46  72 105 148 190 255 299 381 446
#     4  11  24  45  70 105 150 190 253 300 373 443
#     4  11  24  42  73 103 145 200 237 316 366 445
#     4  11  24  47  72 105 146 185 249 308 383 447
#     4  12  26  46  75 109 142 196 248 306 380 453
#     4  11  24  44  71 103 147 191 237 315 364 442
#     4  12  24  45  72 106 148 199 245 310 370 446
#     4  12  22  44  68 104 148 194 250 296 372 440
#
# _framework density 24.289024999999999
#
# number of rings (size 3 to 8) (size 9 to 14) (size 15 to 20)
#    0.000    0.533    4.000    4.000    1.867    1.600 
#    0.000    0.000    0.000    0.000    0.000    0.000 
#    0.000    0.000    0.000    0.000    0.000    0.000 
#
# Total GULP energy -83735.975475 kJ/mol
# GULP energy per Si atom -5582.398365 kJ/mol
# Density = 2.423374 g / cm^3
# Si number density = 24.289025 Si / 1000 Ang^3
#
#
#
# Elastic Constant Matrix: (Units=GPa)
#
#
# Indices 1 2 3 4 5 6 
#
# 1 152.0398 28.8158 40.9286 -1.1973 -20.7829 -11.3364
# 2 28.8158 64.6151 32.3448 19.8263 -5.7311 -10.5549
# 3 40.9286 32.3448 119.0687 13.5910 -7.4565 -17.6472
# 4 -1.1973 19.8263 13.5910 49.3766 -4.6773 -2.5155
# 5 -20.7829 -5.7311 -7.4565 -4.6773 55.1944 2.2307
# 6 -11.3364 -10.5549 -17.6472 -2.5155 2.2307 35.7609
#
#
#
# Elastic Compliance Matrix: (Units=1/GPa)
#
#
# Indices 1 2 3 4 5 6 
#
# 1 0.008096 -0.002956 -0.001961 0.002209 0.002635 0.000718
# 2 -0.002956 0.021342 -0.003465 -0.007541 -0.000131 0.003130
# 3 -0.001961 -0.003465 0.010704 -0.001414 0.000085 0.003533
# 4 0.002209 -0.007541 -0.001414 0.023870 0.001907 -0.000663
# 5 0.002635 -0.000131 0.000085 0.001907 0.019279 -0.000230
# 6 0.000718 0.003130 0.003533 -0.000663 -0.000230 0.030826
#
#
# Mechanical properties :
#
#
# Convention : Reuss Voigt Hill
#
# Bulk Modulus (GPa) = 42.77323 59.98912 51.38117
# Shear Modulus (GPa) = 36.05548 43.64202 39.84875
#
# Velocity S-wave (km/s) = 3.85702 4.24344 4.05484
# Velocity P-wave (km/s) = 6.12240 6.98289 6.56675
#
# Compressibility (1/GPa) = 0.02337911
#
# Stress axis : x y z
#
# Youngs Moduli (GPa) = 123.51130 46.85489 93.42063
#
# Poissons Ratio (x) = 0.13851 0.18318
# Poissons Ratio (y) = 0.36511 0.32371
# Poissons Ratio (z) = 0.24219 0.16236
#
# Static dielectric constant tensor:
#      x y z
#    x 1.967720 -0.030040 -0.001750 
#    y -0.030040 1.684760 0.022810 
#    z -0.001750 0.022810 1.835570 
# 
# From -- ./inp_files/446056.got.cif
#   From: 2010.05.17/outbox.cif.g08.bks.cpg/sg2_224_cif.got.tgz:446056.got - 2010.06.03 11:33:40.
