data_PCOD9062120
_publ_section_title
;
Structure prediction by ZEFSAII (Michael W. Deem and Ramdas Pophale) SiO2 
 PCOD9062120
Probable space group: P -1
;
_chemical_formula_sum "Si O2"
_cell_formula_units_Z 16
_cell_length_a 6.577924
_cell_length_b 16.515597
_cell_length_c 8.883828
_cell_angle_alpha 128.513873
_cell_angle_beta 79.123874
_cell_angle_gamma 80.593696
_cell_volume 690.263338
_symmetry_space_group_name_H-M "P -1"
_symmetry_group_IT_number 2
_symmetry_cell_setting 'triclinic'
loop_
_space_group_symop_operation_xyz
x,y,z
-x,-y,-z
loop_
_atom_site_type_symbol
_atom_site_label
_atom_site_fract_x
_atom_site_fract_y
_atom_site_fract_z
Si Si1 0.852354 0.219465 0.643599
Si Si2 0.488294 0.687869 0.610470
Si Si3 0.993835 0.885061 0.932992
Si Si4 0.714607 0.847805 0.668441
Si Si5 0.365330 0.552994 0.228526
Si Si6 0.812361 0.594221 0.727063
Si Si7 0.926345 0.775250 0.094363
Si Si8 0.503861 0.102576 0.522800
O O1 0.786480 0.325287 0.667019
O O2 0.697194 0.149127 0.573723
O O3 0.090304 0.146215 0.459207
O O4 0.871127 0.256053 0.853521
O O5 0.240429 0.785542 0.764351
O O6 0.655523 0.737469 0.561593
O O7 0.482142 0.583900 0.393617
O O8 0.598139 0.651787 0.716882
O O9 0.799442 0.865947 0.839950
O O10 0.936159 0.875883 0.105586
O O11 0.000000 0.000000 0.000000
O O12 0.508274 0.922708 0.682454
O O13 0.249619 0.470094 0.202953
O O14 0.500000 0.500000 0.000000
O O15 0.000000 0.500000 0.500000
O O16 0.915767 0.681658 0.874271
O O17 0.713224 0.801674 0.263506
O O18 0.500000 0.000000 0.500000
#
# Coordination Sequence:
#
# PCOD9062120 Si02
#       8
#     2   2   2   2   2   2   2   2
#     4  11  25  47  69 104 148 181 243 305 360 438
#     4  12  26  50  72 106 156 186 243 310 359 438
#     4  12  28  46  75 108 146 197 241 293 369 439
#     4  11  23  47  73  99 146 188 237 298 363 426
#     4  12  26  43  77 104 137 194 248 299 370 429
#     4  12  27  49  73 107 148 199 243 303 380 432
#     4  11  28  44  71 107 147 184 247 305 351 447
#     4  11  26  45  76 103 144 192 240 303 374 425
#
# _framework density 23.179559999999999
#
# number of rings (size 3 to 8) (size 9 to 14) (size 15 to 20)
#    0.000    0.500    3.750    2.625   12.250    2.000 
#    0.000    0.000    0.000    0.000    0.000    0.000 
#    0.000    0.000    0.000    0.000    0.000    0.000 
#
# Total GULP energy -89367.914441 kJ/mol
# GULP energy per Si atom -5585.494653 kJ/mol
# Density = 2.312680 g / cm^3
# Si number density = 23.179560 Si / 1000 Ang^3
#
#
#
# Elastic Constant Matrix: (Units=GPa)
#
#
# Indices 1 2 3 4 5 6 
#
# 1 109.7716 48.6042 44.2724 0.3052 19.0705 9.3147
# 2 48.6042 155.1633 13.9237 -14.1316 19.5646 10.8454
# 3 44.2724 13.9237 69.6547 -12.0053 -2.7923 -17.8379
# 4 0.3052 -14.1316 -12.0053 41.7339 -0.9075 -0.6004
# 5 19.0705 19.5646 -2.7923 -0.9075 40.9077 -21.5142
# 6 9.3147 10.8454 -17.8379 -0.6004 -21.5142 39.8338
#
#
#
# Elastic Compliance Matrix: (Units=1/GPa)
#
#
# Indices 1 2 3 4 5 6 
#
# 1 0.047617 0.001363 -0.054320 -0.017926 -0.064169 -0.070759
# 2 0.001363 0.008838 -0.005849 0.000892 -0.011237 -0.011400
# 3 -0.054320 -0.005849 0.083124 0.025617 0.086124 0.098420
# 4 -0.017926 0.000892 0.025617 0.032766 0.026225 0.030078
# 5 -0.064169 -0.011237 0.086124 0.026225 0.134349 0.129589
# 6 -0.070759 -0.011400 0.098420 0.030078 0.129589 0.159272
#
#
# Mechanical properties :
#
#
# Convention : Reuss Voigt Hill
#
# Bulk Modulus (GPa) = 45.52610 60.91003 53.21807
# Shear Modulus (GPa) = 8.46167 39.68103 24.07135
#
# Velocity S-wave (km/s) = 1.91270 4.14200 3.22603
# Velocity P-wave (km/s) = 4.95592 7.01494 6.07332
#
# Compressibility (1/GPa) = 0.02196542
#
# Stress axis : x y z
#
# Youngs Moduli (GPa) = 21.00112 113.15211 12.03024
#
# Poissons Ratio (x) = -0.15424 0.65348
# Poissons Ratio (y) = -0.02863 0.07037
# Poissons Ratio (z) = 1.14078 0.66186
#
# Static dielectric constant tensor:
#      x y z
#    x 1.443110 0.272320 0.341680 
#    y 0.272320 1.573440 -0.254600 
#    z 0.341680 -0.254600 1.698610 
# 
# From -- ./inp_files/139509.got.cif
#   From: 2010.05.17/outbox.cif.g08.bks.cpg/sg2_70_cif.got.tgz:139509.got - 2010.06.03 11:33:40.
