data_PCOD9063633
_publ_section_title
;
Structure prediction by ZEFSAII (Michael W. Deem and Ramdas Pophale) SiO2 
 PCOD9063633
Probable space group: P -1
;
_chemical_formula_sum "Si O2"
_cell_formula_units_Z 16
_cell_length_a 11.640933
_cell_length_b 5.152058
_cell_length_c 12.166642
_cell_angle_alpha 82.993741
_cell_angle_beta 95.264790
_cell_angle_gamma 59.519961
_cell_volume 614.006934
_symmetry_space_group_name_H-M "P -1"
_symmetry_group_IT_number 2
_symmetry_cell_setting 'triclinic'
loop_
_space_group_symop_operation_xyz
x,y,z
-x,-y,-z
loop_
_atom_site_type_symbol
_atom_site_label
_atom_site_fract_x
_atom_site_fract_y
_atom_site_fract_z
Si Si1 0.592138 0.919910 0.908661
Si Si2 0.404727 0.819249 0.613347
Si Si3 0.674737 0.494066 0.766392
Si Si4 0.136969 0.103118 0.053686
Si Si5 0.894197 0.217987 0.149235
Si Si6 0.765536 0.830015 0.612380
Si Si7 0.650424 0.632966 0.262431
Si Si8 0.062098 0.859868 0.394498
O O1 0.744466 0.825262 0.950114
O O2 0.502140 0.210993 0.806853
O O3 0.592347 0.642509 0.862715
O O4 0.500000 0.000000 0.000000
O O5 0.564153 0.579110 0.658044
O O6 0.329312 0.637694 0.642101
O O7 0.366497 0.970782 0.483359
O O8 0.350973 0.098938 0.681579
O O9 0.794446 0.175534 0.836624
O O10 0.733654 0.708362 0.725778
O O11 0.124728 0.965264 0.943182
O O12 0.992838 0.316216 0.093016
O O13 0.758397 0.493047 0.180009
O O14 0.963388 0.998499 0.273311
O O15 0.868302 0.506910 0.578195
O O16 0.830948 0.034001 0.621726
O O17 0.000000 0.000000 0.500000
#
# Coordination Sequence:
#
# PCOD9063633 Si02
#       8
#     2   2   2   2   2   2   2   2
#     4  11  25  46  74 107 145 200 244 315 372 449
#     4  11  24  45  75 109 147 193 251 303 372 439
#     4  11  24  44  71 109 147 192 249 306 381 441
#     4  11  24  49  71 107 153 191 251 303 380 447
#     4  11  25  45  74 107 146 201 242 307 373 446
#     4  12  25  45  74 104 148 194 249 312 366 440
#     4  11  25  46  72 110 148 192 248 306 367 444
#     4  12  26  48  72 106 149 198 250 305 370 441
#
# _framework density 26.058337999999999
#
# number of rings (size 3 to 8) (size 9 to 14) (size 15 to 20)
#    0.000    0.750    2.500    4.500    3.500    2.000 
#    4.500    5.625    0.000    0.000    0.000    0.000 
#    0.000    0.000    0.000    0.000    0.000    0.000 
#
# Total GULP energy -89567.876622 kJ/mol
# GULP energy per Si atom -5597.992289 kJ/mol
# Density = 2.599903 g / cm^3
# Si number density = 26.058338 Si / 1000 Ang^3
#
#
#
# Elastic Constant Matrix: (Units=GPa)
#
#
# Indices 1 2 3 4 5 6 
#
# 1 84.2100 32.9430 21.8396 -4.5375 15.6718 -16.6460
# 2 32.9430 100.8234 32.4852 18.5329 7.8160 -12.1801
# 3 21.8396 32.4852 137.1811 6.5753 16.0960 -9.2243
# 4 -4.5375 18.5329 6.5753 52.5073 -5.9220 -8.5839
# 5 15.6718 7.8160 16.0960 -5.9220 47.4661 -4.0399
# 6 -16.6460 -12.1801 -9.2243 -8.5839 -4.0399 41.7058
#
#
#
# Elastic Compliance Matrix: (Units=1/GPa)
#
#
# Indices 1 2 3 4 5 6 
#
# 1 0.015732 -0.004651 -0.000846 0.003583 -0.003256 0.005156
# 2 -0.004651 0.013059 -0.002037 -0.004730 -0.000473 0.000488
# 3 -0.000846 -0.002037 0.008228 -0.000540 -0.002195 0.000563
# 4 0.003583 -0.004730 -0.000540 0.022208 0.002957 0.004786
# 5 -0.003256 -0.000473 -0.002195 0.002957 0.023415 0.000954
# 6 0.005156 0.000488 0.000563 0.004786 0.000954 0.027380
#
#
# Mechanical properties :
#
#
# Convention : Reuss Voigt Hill
#
# Bulk Modulus (GPa) = 45.55659 55.19445 50.37552
# Shear Modulus (GPa) = 37.76228 43.99898 40.88063
#
# Velocity S-wave (km/s) = 3.81089 4.11357 3.96512
# Velocity P-wave (km/s) = 6.07325 6.61733 6.35112
#
# Compressibility (1/GPa) = 0.02195072
#
# Stress axis : x y z
#
# Youngs Moduli (GPa) = 63.56442 76.57374 121.53568
#
# Poissons Ratio (x) = 0.35614 0.10285
# Poissons Ratio (y) = 0.29564 0.24758
# Poissons Ratio (z) = 0.05379 0.15599
#
# Static dielectric constant tensor:
#      x y z
#    x 2.083790 -0.013290 -0.012940 
#    y -0.013290 2.125320 -0.007980 
#    z -0.012940 -0.007980 2.067800 
# 
# From -- ./inp_files/410275.got.cif
#   From: 2010.05.17/outbox.cif.g08.bks.cpg/sg2_206_cif.got.tgz:410275.got - 2010.06.03 11:33:40.
