data_PCOD9063613
_publ_section_title
;
Structure prediction by ZEFSAII (Michael W. Deem and Ramdas Pophale) SiO2 
 PCOD9063613
Probable space group: P -1
;
_chemical_formula_sum "Si O2"
_cell_formula_units_Z 16
_cell_length_a 8.795314
_cell_length_b 11.769526
_cell_length_c 11.490943
_cell_angle_alpha 100.543232
_cell_angle_beta 48.235548
_cell_angle_gamma 127.571412
_cell_volume 651.195562
_symmetry_space_group_name_H-M "P -1"
_symmetry_group_IT_number 2
_symmetry_cell_setting 'triclinic'
loop_
_space_group_symop_operation_xyz
x,y,z
-x,-y,-z
loop_
_atom_site_type_symbol
_atom_site_label
_atom_site_fract_x
_atom_site_fract_y
_atom_site_fract_z
Si Si1 0.294772 0.662365 0.034342
Si Si2 0.044366 0.848167 0.462625
Si Si3 0.702755 0.767036 0.247459
Si Si4 0.252311 0.998958 0.131836
Si Si5 0.116812 0.650380 0.874089
Si Si6 0.450695 0.540919 0.658036
Si Si7 0.785857 0.343961 0.658712
Si Si8 0.465267 0.101766 0.461892
O O1 0.170868 0.635632 0.220635
O O2 0.198004 0.495993 0.021396
O O3 0.605955 0.821951 0.909935
O O4 0.188129 0.693800 0.981059
O O5 0.178267 0.775810 0.412222
O O6 0.725493 0.699938 0.599780
O O7 0.115858 0.912867 0.307443
O O8 0.193400 0.991087 0.500869
O O9 0.648497 0.610719 0.254651
O O10 0.526406 0.738405 0.221326
O O11 0.563612 0.794785 0.424588
O O12 0.024544 0.906025 0.129744
O O13 0.500000 0.000000 0.000000
O O14 0.254831 0.577468 0.759789
O O15 0.275410 0.795488 0.737177
O O16 0.500000 0.500000 0.500000
O O17 0.000000 0.500000 0.500000
O O18 0.500000 0.000000 0.500000
#
# Coordination Sequence:
#
# PCOD9063613 Si02
#       8
#     2   2   2   2   2   2   2   2
#     4  11  25  43  69  98 144 195 241 301 367 433
#     4  12  24  40  72 106 141 187 239 304 367 429
#     4  12  26  43  74 109 146 193 248 300 367 434
#     4  12  24  43  70 101 143 191 251 297 357 437
#     4  11  24  44  71 105 145 194 246 304 363 436
#     4  12  22  41  73 107 139 187 249 297 351 435
#     4  12  24  46  73 104 145 192 243 305 370 443
#     4  12  25  43  72 111 146 183 240 310 369 430
#
# _framework density 24.570193
#
# number of rings (size 3 to 8) (size 9 to 14) (size 15 to 20)
#    0.000    0.250    7.500    2.250    1.750    1.500 
#    0.000    0.625    0.000    0.000    0.000    0.000 
#    0.000    0.000    0.000    0.000    0.000    0.000 
#
# Total GULP energy -89442.612030 kJ/mol
# GULP energy per Si atom -5590.163252 kJ/mol
# Density = 2.451427 g / cm^3
# Si number density = 24.570193 Si / 1000 Ang^3
#
#
#
# Elastic Constant Matrix: (Units=GPa)
#
#
# Indices 1 2 3 4 5 6 
#
# 1 117.9828 45.9414 44.2054 -13.3509 -11.0389 10.5885
# 2 45.9414 147.0199 60.3936 -22.9637 4.6948 21.0570
# 3 44.2054 60.3936 103.8059 -30.1359 17.4998 0.5045
# 4 -13.3509 -22.9637 -30.1359 63.7487 2.5946 -10.1543
# 5 -11.0389 4.6948 17.4998 2.5946 40.6813 -6.8945
# 6 10.5885 21.0570 0.5045 -10.1543 -6.8945 55.6558
#
#
#
# Elastic Compliance Matrix: (Units=1/GPa)
#
#
# Indices 1 2 3 4 5 6 
#
# 1 0.011541 -0.001678 -0.005138 -0.001001 0.005426 -0.001025
# 2 -0.001678 0.009870 -0.004893 0.000366 -0.000075 -0.003313
# 3 -0.005138 -0.004893 0.017955 0.006439 -0.008492 0.002789
# 4 -0.001001 0.000366 0.006439 0.019292 -0.003799 0.003043
# 5 0.005426 -0.000075 -0.008492 -0.003799 0.030319 0.002136
# 6 -0.001025 -0.003313 0.002789 0.003043 0.002136 0.020210
#
#
# Mechanical properties :
#
#
# Convention : Reuss Voigt Hill
#
# Bulk Modulus (GPa) = 62.70509 74.43216 68.56862
# Shear Modulus (GPa) = 36.25195 46.56837 41.41016
#
# Velocity S-wave (km/s) = 3.84532 4.35825 4.10979
# Velocity P-wave (km/s) = 6.72990 7.46225 7.10552
#
# Compressibility (1/GPa) = 0.01594767
#
# Stress axis : x y z
#
# Youngs Moduli (GPa) = 86.64746 101.31477 55.69344
#
# Poissons Ratio (x) = 0.17005 0.28618
# Poissons Ratio (y) = 0.14543 0.27249
# Poissons Ratio (z) = 0.44524 0.49569
#
# Static dielectric constant tensor:
#      x y z
#    x 1.978290 0.059530 -0.052130 
#    y 0.059530 2.026550 -0.008370 
#    z -0.052130 -0.008370 2.070050 
# 
# From -- ./inp_files/392595.got.cif
#   From: 2010.05.17/outbox.cif.g08.bks.cpg/sg2_197_cif.got.tgz:392595.got - 2010.06.03 11:33:40.
