data_PCOD9063858
_publ_section_title
;
Structure prediction by ZEFSAII (Michael W. Deem and Ramdas Pophale) SiO2 
 PCOD9063858
Probable space group: P -1
;
_chemical_formula_sum "Si O2"
_cell_formula_units_Z 14
_cell_length_a 10.706720
_cell_length_b 10.633372
_cell_length_c 10.304687
_cell_angle_alpha 52.279107
_cell_angle_beta 48.538889
_cell_angle_gamma 40.436726
_cell_volume 556.025924
_symmetry_space_group_name_H-M "P -1"
_symmetry_group_IT_number 2
_symmetry_cell_setting 'triclinic'
loop_
_space_group_symop_operation_xyz
x,y,z
-x,-y,-z
loop_
_atom_site_type_symbol
_atom_site_label
_atom_site_fract_x
_atom_site_fract_y
_atom_site_fract_z
Si Si1 0.332347 0.586730 0.253021
Si Si2 0.067403 0.055178 0.606000
Si Si3 0.111307 0.275642 0.212358
Si Si4 0.241899 0.257527 0.854448
Si Si5 0.617163 0.633857 0.876058
Si Si6 0.460216 0.680325 0.493988
Si Si7 0.817561 0.974998 0.170857
O O1 0.254630 0.538234 0.210038
O O2 0.384069 0.426229 0.424891
O O3 0.173228 0.810463 0.272247
O O4 0.542534 0.553974 0.087538
O O5 0.064765 0.154060 0.412256
O O6 0.168985 0.075552 0.653458
O O7 0.223465 0.822257 0.617547
O O8 0.264564 0.293999 0.182581
O O9 0.907203 0.502282 0.190816
O O10 0.212279 0.190763 0.055745
O O11 0.469732 0.201198 0.704668
O O12 0.174378 0.177115 0.837506
O O13 0.405841 0.815708 0.837778
O O14 0.500000 0.500000 0.500000
O O15 0.000000 0.000000 0.000000
#
# Coordination Sequence:
#
# PCOD9063858 Si02
#       7
#     2   2   2   2   2   2   2
#     4  11  24  45  70 114 147 198 249 313 370 452
#     4  12  26  47  78 109 147 197 255 311 371 447
#     4  11  26  47  76 109 152 204 245 318 379 450
#     4  11  27  49  73 110 157 195 256 310 384 450
#     4  11  24  44  75 108 158 194 252 309 386 444
#     4  12  27  47  76 111 152 198 256 309 380 453
#     4  12  26  46  76 113 149 199 254 311 375 455
#
# _framework density 25.178681000000001
#
# number of rings (size 3 to 8) (size 9 to 14) (size 15 to 20)
#    0.000    0.571    4.286    2.571    4.000    8.571 
#    0.000    0.000    0.000    0.000    0.000    0.000 
#    0.000    0.000    0.000    0.000    0.000    0.000 
#
# Total GULP energy -78424.602974 kJ/mol
# GULP energy per Si atom -5601.757355 kJ/mol
# Density = 2.512137 g / cm^3
# Si number density = 25.178681 Si / 1000 Ang^3
#
#
#
# Elastic Constant Matrix: (Units=GPa)
#
#
# Indices 1 2 3 4 5 6 
#
# 1 96.0344 17.1998 30.1700 18.1993 1.8789 14.8899
# 2 17.1998 123.2294 36.2161 27.3692 13.2937 6.5994
# 3 30.1700 36.2161 133.1632 12.0987 28.9108 4.4637
# 4 18.1993 27.3692 12.0987 41.8973 2.9226 9.8945
# 5 1.8789 13.2937 28.9108 2.9226 15.0582 -1.8102
# 6 14.8899 6.5994 4.4637 9.8945 -1.8102 45.0540
#
#
#
# Elastic Compliance Matrix: (Units=1/GPa)
#
#
# Indices 1 2 3 4 5 6 
#
# 1 0.012682 -0.000320 -0.003686 -0.004048 0.006245 -0.002639
# 2 -0.000320 0.010428 -0.000801 -0.005915 -0.006517 -0.000305
# 3 -0.003686 -0.000801 0.014360 0.000109 -0.026565 -0.001178
# 4 -0.004048 -0.005915 0.000109 0.030605 -0.000972 -0.004567
# 5 0.006245 -0.006517 -0.026565 -0.000972 0.123380 0.006693
# 6 -0.002639 -0.000305 -0.001178 -0.004567 0.006693 0.024501
#
#
# Mechanical properties :
#
#
# Convention : Reuss Voigt Hill
#
# Bulk Modulus (GPa) = 35.89924 57.73319 46.81621
# Shear Modulus (GPa) = 21.28962 38.32464 29.80713
#
# Velocity S-wave (km/s) = 2.91097 3.90565 3.44441
# Velocity P-wave (km/s) = 5.05837 6.58164 5.86963
#
# Compressibility (1/GPa) = 0.02785574
#
# Stress axis : x y z
#
# Youngs Moduli (GPa) = 78.84946 95.89408 69.63930
#
# Poissons Ratio (x) = 0.03071 0.25669
# Poissons Ratio (y) = 0.02525 0.05578
# Poissons Ratio (z) = 0.29064 0.07681
#
# Static dielectric constant tensor:
#      x y z
#    x 1.978410 -0.028120 0.004710 
#    y -0.028120 2.012690 0.015520 
#    z 0.004710 0.015520 2.000810 
# 
# From -- ./inp_files/261929.got.cif
#   From: 2010.05.17/outbox.cif.g08.bks.cpg/sg2_131_cif.got.tgz:261929.got - 2010.06.03 11:33:40.
