data_PCOD9063857
_publ_section_title
;
Structure prediction by ZEFSAII (Michael W. Deem and Ramdas Pophale) SiO2 
 PCOD9063857
Probable space group: P -1
;
_chemical_formula_sum "Si O2"
_cell_formula_units_Z 16
_cell_length_a 11.682579
_cell_length_b 28.536465
_cell_length_c 5.152729
_cell_angle_alpha 115.417220
_cell_angle_beta 81.823990
_cell_angle_gamma 151.678525
_cell_volume 614.812568
_symmetry_space_group_name_H-M "P -1"
_symmetry_group_IT_number 2
_symmetry_cell_setting 'triclinic'
loop_
_space_group_symop_operation_xyz
x,y,z
-x,-y,-z
loop_
_atom_site_type_symbol
_atom_site_label
_atom_site_fract_x
_atom_site_fract_y
_atom_site_fract_z
Si Si1 0.596793 0.667952 0.002438
Si Si2 0.012035 0.293389 0.837714
Si Si3 0.249112 0.912215 0.573100
Si Si4 0.714542 0.624854 0.564692
Si Si5 0.985424 0.609037 0.202161
Si Si6 0.555665 0.900777 0.806780
Si Si7 0.707373 0.903186 0.250618
Si Si8 0.733442 0.365394 0.106788
O O1 0.917974 0.793912 0.318223
O O2 0.628558 0.649346 0.678137
O O3 0.329130 0.529021 0.903965
O O4 0.482660 0.678711 0.023409
O O5 0.247913 0.377240 0.741799
O O6 0.023869 0.360381 0.986865
O O7 0.788330 0.160688 0.466881
O O8 0.022544 0.276210 0.084045
O O9 0.500000 0.000000 0.500000
O O10 0.350642 0.003170 0.920087
O O11 0.500000 0.500000 0.500000
O O12 0.225949 0.743949 0.586549
O O13 0.122781 0.609635 0.107922
O O14 0.615979 0.909287 0.508616
O O15 0.735494 0.939554 0.045386
O O16 0.464654 0.758316 0.976202
O O17 0.000000 0.000000 0.500000
O O18 0.000000 0.500000 0.500000
#
# Coordination Sequence:
#
# PCOD9063857 Si02
#       8
#     2   2   2   2   2   2   2   2
#     4  11  25  47  75 115 153 204 265 325 390 471
#     4  11  27  46  74 112 152 205 259 319 396 460
#     4  11  29  49  80 114 164 207 272 331 398 469
#     4  11  24  44  75 108 151 199 256 318 387 465
#     4  11  26  47  79 110 161 206 263 320 405 471
#     4  11  27  48  73 114 154 205 263 325 392 473
#     4  11  25  49  80 108 153 211 261 320 395 474
#     4  11  26  44  75 116 157 203 259 329 393 466
#
# _framework density 26.024191999999999
#
# number of rings (size 3 to 8) (size 9 to 14) (size 15 to 20)
#    0.000    1.000    1.250    2.625   10.500    6.500 
#    0.000    0.000    0.000    0.000    0.000    0.000 
#    0.000    0.000    0.000    0.000    0.000    0.000 
#
# Total GULP energy -89264.209376 kJ/mol
# GULP energy per Si atom -5579.013086 kJ/mol
# Density = 2.596496 g / cm^3
# Si number density = 26.024192 Si / 1000 Ang^3
#
#
#
# Elastic Constant Matrix: (Units=GPa)
#
#
# Indices 1 2 3 4 5 6 
#
# 1 144.1885 14.5270 45.0424 6.1768 -27.8129 24.9288
# 2 14.5270 84.3624 25.7729 13.2942 -8.4946 14.6023
# 3 45.0424 25.7729 142.7710 39.6618 -7.8706 16.8002
# 4 6.1768 13.2942 39.6618 52.7686 0.2063 -4.2747
# 5 -27.8129 -8.4946 -7.8706 0.2063 56.1673 6.9639
# 6 24.9288 14.6023 16.8002 -4.2747 6.9639 44.9130
#
#
#
# Elastic Compliance Matrix: (Units=1/GPa)
#
#
# Indices 1 2 3 4 5 6 
#
# 1 0.009489 0.000491 -0.002134 -0.000091 0.005148 -0.005436
# 2 0.000491 0.013746 -0.000989 -0.003203 0.002830 -0.005116
# 3 -0.002134 -0.000989 0.010368 -0.007555 0.000671 -0.003196
# 4 -0.000091 -0.003203 -0.007555 0.026006 -0.002525 0.006785
# 5 0.005148 0.002830 0.000671 -0.002525 0.021834 -0.007654
# 6 -0.005436 -0.005116 -0.003196 0.006785 -0.007654 0.029973
#
#
# Mechanical properties :
#
#
# Convention : Reuss Voigt Hill
#
# Bulk Modulus (GPa) = 35.28422 60.22294 47.75358
# Shear Modulus (GPa) = 39.64313 49.83506 44.73910
#
# Velocity S-wave (km/s) = 3.90721 4.38076 4.15074
# Velocity P-wave (km/s) = 5.82603 6.98423 6.43126
#
# Compressibility (1/GPa) = 0.02834128
#
# Stress axis : x y z
#
# Youngs Moduli (GPa) = 105.38383 72.74718 96.45392
#
# Poissons Ratio (x) = -0.03575 0.20579
# Poissons Ratio (y) = -0.05179 0.09537
# Poissons Ratio (z) = 0.22485 0.07193
#
# Static dielectric constant tensor:
#      x y z
#    x 2.290890 -0.138690 0.382020 
#    y -0.138690 2.572070 -0.293790 
#    z 0.382020 -0.293790 2.725920 
# 
# From -- ./inp_files/85430.got.cif
#   From: 2010.05.17/outbox.cif.g08.bks.cpg/sg2_43_cif.got.tgz:85430.got - 2010.06.03 11:33:40.
