data_PCOD9063835
_publ_section_title
;
Structure prediction by ZEFSAII (Michael W. Deem and Ramdas Pophale) SiO2 
 PCOD9063835
Probable space group: P -1
;
_chemical_formula_sum "Si O2"
_cell_formula_units_Z 16
_cell_length_a 20.985726
_cell_length_b 9.188419
_cell_length_c 24.124074
_cell_angle_alpha 28.929767
_cell_angle_beta 161.263878
_cell_angle_gamma 149.291148
_cell_volume 708.319476
_symmetry_space_group_name_H-M "P -1"
_symmetry_group_IT_number 2
_symmetry_cell_setting 'triclinic'
loop_
_space_group_symop_operation_xyz
x,y,z
-x,-y,-z
loop_
_atom_site_type_symbol
_atom_site_label
_atom_site_fract_x
_atom_site_fract_y
_atom_site_fract_z
Si Si1 0.068474 0.060325 0.828680
Si Si2 0.763527 0.850531 0.851548
Si Si3 0.301055 0.269456 0.435282
Si Si4 0.594873 0.841501 0.838753
Si Si5 0.329955 0.573176 0.468607
Si Si6 0.591654 0.190918 0.063908
Si Si7 0.382669 0.769257 0.122801
Si Si8 0.021390 0.357547 0.382384
O O1 0.009749 0.395649 0.677973
O O2 0.195415 0.010324 0.005748
O O3 0.864568 0.834898 0.714393
O O4 0.236820 0.996500 0.945097
O O5 0.656054 0.837679 0.826449
O O6 0.734029 0.510777 0.916369
O O7 0.653112 0.068229 0.649796
O O8 0.000000 0.000000 0.000000
O O9 0.500000 0.500000 0.500000
O O10 0.222361 0.417979 0.375539
O O11 0.400563 0.993634 0.630753
O O12 0.514821 0.499981 0.909595
O O13 0.522335 0.410796 0.690321
O O14 0.206938 0.496018 0.449965
O O15 0.821029 0.330439 0.190016
O O16 0.557006 0.974420 0.160890
O O17 0.500000 0.000000 0.000000
O O18 0.000000 0.000000 0.500000
#
# Coordination Sequence:
#
# PCOD9063835 Si02
#       8
#     2   2   2   2   2   2   2   2
#     4  11  28  47  74 112 150 194 251 311 379 431
#     4  12  25  45  72 107 147 193 253 303 376 447
#     4  12  27  48  74 108 156 197 251 309 377 443
#     4  11  25  48  72 108 149 197 244 313 367 451
#     4  12  26  48  75 109 148 198 255 300 377 455
#     4  11  24  44  75 103 147 190 253 301 378 435
#     4  12  26  47  75 109 148 201 244 316 374 444
#     4  11  26  49  75 107 146 196 247 306 369 451
#
# _framework density 22.588677000000001
#
# number of rings (size 3 to 8) (size 9 to 14) (size 15 to 20)
#    0.000    0.500    5.000    2.625    5.250    5.500 
#    0.000    1.250    0.000    0.000    0.000    0.000 
#    0.000    0.000    0.000    0.000    0.000    0.000 
#
# Total GULP energy -89240.906272 kJ/mol
# GULP energy per Si atom -5577.556642 kJ/mol
# Density = 2.253726 g / cm^3
# Si number density = 22.588677 Si / 1000 Ang^3
#
#
#
# Elastic Constant Matrix: (Units=GPa)
#
#
# Indices 1 2 3 4 5 6 
#
# 1 93.8517 32.9161 24.8909 -11.5102 9.7912 -14.0309
# 2 32.9161 87.1295 38.5083 -2.6904 2.7534 -9.3369
# 3 24.8909 38.5083 96.9160 -8.7924 0.7314 -1.8811
# 4 -11.5102 -2.6904 -8.7924 50.4145 -3.2800 -9.5245
# 5 9.7912 2.7534 0.7314 -3.2800 35.7716 -6.2225
# 6 -14.0309 -9.3369 -1.8811 -9.5245 -6.2225 39.4364
#
#
#
# Elastic Compliance Matrix: (Units=1/GPa)
#
#
# Indices 1 2 3 4 5 6 
#
# 1 0.013725 -0.003839 -0.001598 0.003313 -0.002373 0.004324
# 2 -0.003839 0.015381 -0.005142 -0.000570 0.000256 0.001933
# 3 -0.001598 -0.005142 0.012890 0.001512 0.000584 -0.000713
# 4 0.003313 -0.000570 0.001512 0.022275 0.002343 0.006865
# 5 -0.002373 0.000256 0.000584 0.002343 0.029566 0.004475
# 6 0.004324 0.001933 -0.000713 0.006865 0.004475 0.029683
#
#
# Mechanical properties :
#
#
# Convention : Reuss Voigt Hill
#
# Bulk Modulus (GPa) = 47.98164 52.28086 50.13125
# Shear Modulus (GPa) = 32.97626 37.22998 35.10312
#
# Velocity S-wave (km/s) = 3.82495 4.06417 3.94638
# Velocity P-wave (km/s) = 6.38706 6.72445 6.55793
#
# Compressibility (1/GPa) = 0.02084131
#
# Stress axis : x y z
#
# Youngs Moduli (GPa) = 72.85808 65.01403 77.57658
#
# Poissons Ratio (x) = 0.24956 0.12393
# Poissons Ratio (y) = 0.27967 0.39889
# Poissons Ratio (z) = 0.11639 0.33429
#
# Static dielectric constant tensor:
#      x y z
#    x 1.874870 -0.011090 -0.054640 
#    y -0.011090 1.924100 -0.100920 
#    z -0.054640 -0.100920 1.921490 
# 
# From -- ./inp_files/613581.got.cif
#   From: 2010.05.17/outbox.cif.g08.bks.cpg/sg2_307_cif.got.tgz:613581.got - 2010.06.03 11:33:40.
