data_PCOD9063625
_publ_section_title
;
Structure prediction by ZEFSAII (Michael W. Deem and Ramdas Pophale) SiO2 
 PCOD9063625
Probable space group: P -1
;
_chemical_formula_sum "Si O2"
_cell_formula_units_Z 16
_cell_length_a 14.122468
_cell_length_b 6.362277
_cell_length_c 15.297077
_cell_angle_alpha 134.236333
_cell_angle_beta 47.636379
_cell_angle_gamma 105.973777
_cell_volume 676.522813
_symmetry_space_group_name_H-M "P -1"
_symmetry_group_IT_number 2
_symmetry_cell_setting 'triclinic'
loop_
_space_group_symop_operation_xyz
x,y,z
-x,-y,-z
loop_
_atom_site_type_symbol
_atom_site_label
_atom_site_fract_x
_atom_site_fract_y
_atom_site_fract_z
Si Si1 0.879619 0.006329 0.801121
Si Si2 0.027527 0.860174 0.829064
Si Si3 0.434677 0.355417 0.248866
Si Si4 0.661788 0.736461 0.909258
Si Si5 0.845508 0.731922 0.047084
Si Si6 0.153731 0.943665 0.358203
Si Si7 0.291674 0.323670 0.496545
Si Si8 0.535198 0.913956 0.351530
O O1 0.871474 0.906927 0.678495
O O2 0.751803 0.951880 0.908360
O O3 0.873334 0.363168 0.912593
O O4 0.007528 0.807425 0.724278
O O5 0.163041 0.582756 0.699056
O O6 0.059628 0.173622 0.915142
O O7 0.896397 0.853497 0.962400
O O8 0.363366 0.363647 0.202088
O O9 0.340423 0.475240 0.427266
O O10 0.524136 0.572684 0.246393
O O11 0.518002 0.980662 0.106165
O O12 0.746072 0.423022 0.818586
O O13 0.685715 0.895862 0.221851
O O14 0.228593 0.087023 0.422551
O O15 0.000000 0.000000 0.500000
O O16 0.417176 0.156389 0.434607
O O17 0.500000 0.000000 0.500000
#
# Coordination Sequence:
#
# PCOD9063625 Si02
#       8
#     2   2   2   2   2   2   2   2
#     4  12  24  45  74 106 145 194 244 295 367 430
#     4  11  28  48  75 108 147 196 246 301 372 436
#     4  11  25  45  75 104 148 194 242 303 361 440
#     4  11  24  44  71 108 142 193 246 287 370 431
#     4  11  26  50  76 106 143 195 247 310 357 449
#     4  12  27  43  72 109 152 194 242 299 360 443
#     4  12  27  48  72 107 153 188 245 306 362 437
#     4  12  28  49  78 108 146 194 249 305 371 428
#
# _framework density 23.65035
#
# number of rings (size 3 to 8) (size 9 to 14) (size 15 to 20)
#    0.000    0.500    3.750    3.375    5.250    8.500 
#    0.000    0.000    0.000    0.000    0.000    0.000 
#    0.000    0.000    0.000    0.000    0.000    0.000 
#
# Total GULP energy -89496.528732 kJ/mol
# GULP energy per Si atom -5593.533046 kJ/mol
# Density = 2.359652 g / cm^3
# Si number density = 23.650350 Si / 1000 Ang^3
#
#
#
# Elastic Constant Matrix: (Units=GPa)
#
#
# Indices 1 2 3 4 5 6 
#
# 1 120.6950 58.2881 30.6302 -16.0469 3.3176 1.0398
# 2 58.2881 79.3269 40.1838 -4.7715 -9.1163 19.7920
# 3 30.6302 40.1838 80.6844 -12.9493 -12.7437 -7.6385
# 4 -16.0469 -4.7715 -12.9493 38.2011 9.7326 4.2536
# 5 3.3176 -9.1163 -12.7437 9.7326 34.9341 2.7211
# 6 1.0398 19.7920 -7.6385 4.2536 2.7211 52.2027
#
#
#
# Elastic Compliance Matrix: (Units=1/GPa)
#
#
# Indices 1 2 3 4 5 6 
#
# 1 0.015591 -0.013775 0.001380 0.006468 -0.006759 0.004939
# 2 -0.013775 0.032961 -0.012215 -0.006378 0.008315 -0.013923
# 3 0.001380 -0.012215 0.019653 0.004406 0.002077 0.007012
# 4 0.006468 -0.006378 0.004406 0.031954 -0.009639 0.000833
# 5 -0.006759 0.008315 0.002077 -0.009639 0.035173 -0.003762
# 6 0.004939 -0.013923 0.007012 0.000833 -0.003762 0.025491
#
#
# Mechanical properties :
#
#
# Convention : Reuss Voigt Hill
#
# Bulk Modulus (GPa) = 52.67422 59.87894 56.27658
# Shear Modulus (GPa) = 23.10859 35.17453 29.14156
#
# Velocity S-wave (km/s) = 3.12924 3.86070 3.51405
# Velocity P-wave (km/s) = 5.94782 6.72657 6.34915
#
# Compressibility (1/GPa) = 0.01898462
#
# Stress axis : x y z
#
# Youngs Moduli (GPa) = 64.14093 30.33905 50.88389
#
# Poissons Ratio (x) = 0.41791 -0.07021
# Poissons Ratio (y) = 0.88352 0.62154
# Poissons Ratio (z) = -0.08850 0.37059
#
# Static dielectric constant tensor:
#      x y z
#    x 1.984890 0.003900 0.217870 
#    y 0.003900 1.881470 0.014850 
#    z 0.217870 0.014850 2.402850 
# 
# From -- ./inp_files/68671.got.cif
#   From: 2010.05.17/outbox.cif.g08.bks.cpg/sg2_35_cif.got.tgz:68671.got - 2010.06.03 11:33:40.
