data_PCOD9063338
_publ_section_title
;
Structure prediction by ZEFSAII (Michael W. Deem and Ramdas Pophale) SiO2 
 PCOD9063338
Probable space group: P -1
;
_chemical_formula_sum "Si O2"
_cell_formula_units_Z 14
_cell_length_a 11.276727
_cell_length_b 13.358595
_cell_length_c 20.811535
_cell_angle_alpha 20.353855
_cell_angle_beta 28.060075
_cell_angle_gamma 34.165323
_cell_volume 512.936298
_symmetry_space_group_name_H-M "P -1"
_symmetry_group_IT_number 2
_symmetry_cell_setting 'triclinic'
loop_
_space_group_symop_operation_xyz
x,y,z
-x,-y,-z
loop_
_atom_site_type_symbol
_atom_site_label
_atom_site_fract_x
_atom_site_fract_y
_atom_site_fract_z
Si Si1 0.348126 0.798056 0.006838
Si Si2 0.767749 0.632269 0.770858
Si Si3 0.710737 0.261031 0.548869
Si Si4 0.043765 0.911012 0.194872
Si Si5 0.740431 0.371438 0.127765
Si Si6 0.246776 0.744883 0.662348
Si Si7 0.727195 0.365688 0.627268
O O1 0.156823 0.645729 0.142753
O O2 0.223078 0.001392 0.996817
O O3 0.485671 0.536816 0.134572
O O4 0.575928 0.973987 0.760655
O O5 0.036585 0.678822 0.648299
O O6 0.500000 0.500000 0.000000
O O7 0.500000 0.500000 0.500000
O O8 0.731018 0.939949 0.568642
O O9 0.764368 0.242099 0.612020
O O10 0.208108 0.864898 0.208819
O O11 0.923623 0.617474 0.401494
O O12 0.821159 0.128881 0.185106
O O13 0.712258 0.232646 0.294344
O O14 0.970687 0.599064 0.878204
O O15 0.455728 0.520178 0.671165
#
# Coordination Sequence:
#
# PCOD9063338 Si02
#       7
#     2   2   2   2   2   2   2
#     4  12  26  50  78 114 152 198 258 314 398 456
#     4  12  29  51  78 108 154 210 265 315 378 465
#     4  12  29  51  78 108 154 210 265 315 378 465
#     4  11  24  43  78 117 154 193 243 322 399 461
#     4  11  24  43  78 117 154 193 243 322 399 461
#     4  11  24  44  76 114 154 194 252 318 389 461
#     4  11  24  44  76 114 154 194 252 318 389 461
#
# _framework density 27.293838000000001
#
# number of rings (size 3 to 8) (size 9 to 14) (size 15 to 20)
#    0.000    0.571    4.286    2.571    6.000    6.857 
#    0.000    0.000    0.000    0.000    0.000    0.000 
#    0.000    0.000    0.000    0.000    0.000    0.000 
#
# Total GULP energy -78479.339220 kJ/mol
# GULP energy per Si atom -5605.667087 kJ/mol
# Density = 2.723172 g / cm^3
# Si number density = 27.293838 Si / 1000 Ang^3
#
#
#
# Elastic Constant Matrix: (Units=GPa)
#
#
# Indices 1 2 3 4 5 6 
#
# 1 84.4180 7.8373 32.9245 -8.4141 -2.6653 6.4504
# 2 7.8373 129.5281 33.4619 12.3982 6.9597 -6.2306
# 3 32.9245 33.4619 162.8574 0.0728 -8.1436 1.4002
# 4 -8.4141 12.3982 0.0728 51.8177 2.7865 -0.2069
# 5 -2.6653 6.9597 -8.1436 2.7865 48.0675 3.6383
# 6 6.4504 -6.2306 1.4002 -0.2069 3.6383 50.4818
#
#
#
# Elastic Compliance Matrix: (Units=1/GPa)
#
#
# Indices 1 2 3 4 5 6 
#
# 1 0.013248 -0.000458 -0.002552 0.002238 0.000367 -0.001696
# 2 -0.000458 0.008537 -0.001748 -0.002027 -0.001536 0.001263
# 3 -0.002552 -0.001748 0.007084 -0.000078 0.001330 -0.000182
# 4 0.002238 -0.002027 -0.000078 0.020185 -0.000736 -0.000398
# 5 0.000367 -0.001536 0.001330 -0.000736 0.021453 -0.001823
# 6 -0.001696 0.001263 -0.000182 -0.000398 -0.001823 0.020316
#
#
# Mechanical properties :
#
#
# Convention : Reuss Voigt Hill
#
# Bulk Modulus (GPa) = 51.67442 58.36122 55.01782
# Shear Modulus (GPa) = 46.82090 50.24538 48.53314
#
# Velocity S-wave (km/s) = 4.14628 4.29523 4.22141
# Velocity P-wave (km/s) = 6.47270 6.78437 6.63037
#
# Compressibility (1/GPa) = 0.01935193
#
# Stress axis : x y z
#
# Youngs Moduli (GPa) = 75.48324 117.13793 141.16981
#
# Poissons Ratio (x) = 0.05362 0.36031
# Poissons Ratio (y) = 0.03455 0.24680
# Poissons Ratio (z) = 0.19266 0.20479
#
# Static dielectric constant tensor:
#      x y z
#    x 2.149970 0.073520 0.066590 
#    y 0.073520 2.094820 0.092660 
#    z 0.066590 0.092660 2.202080 
# 
# From -- ./inp_files/595334.got.cif
#   From: 2010.05.17/outbox.cif.g08.bks.cpg/sg2_298_cif.got.tgz:595334.got - 2010.06.03 11:33:40.
