data_PCOD9063405
_publ_section_title
;
Structure prediction by ZEFSAII (Michael W. Deem and Ramdas Pophale) SiO2 
 PCOD9063405
Probable space group: P -1
;
_chemical_formula_sum "Si O2"
_cell_formula_units_Z 13
_cell_length_a 13.910174
_cell_length_b 9.754813
_cell_length_c 16.950599
_cell_angle_alpha 136.456626
_cell_angle_beta 157.026359
_cell_angle_gamma 57.757314
_cell_volume 536.368327
_symmetry_space_group_name_H-M "P -1"
_symmetry_group_IT_number 2
_symmetry_cell_setting 'triclinic'
loop_
_space_group_symop_operation_xyz
x,y,z
-x,-y,-z
loop_
_atom_site_type_symbol
_atom_site_label
_atom_site_fract_x
_atom_site_fract_y
_atom_site_fract_z
Si Si1 0.423215 0.248802 0.405141
Si Si2 0.339025 0.864758 0.063670
Si Si3 0.176295 0.538973 0.568921
Si Si4 0.987508 0.680202 0.970745
Si Si5 0.500000 0.000000 0.500000
Si Si6 0.823314 0.131619 0.424547
Si Si7 0.679644 0.446239 0.943670
O O1 0.736110 0.468427 0.737233
O O2 0.185356 0.316376 0.235006
O O3 0.391109 0.093542 0.240809
O O4 0.359695 0.092420 0.366182
O O5 0.425293 0.724565 0.132029
O O6 0.526230 0.950908 0.162673
O O7 0.018768 0.685330 0.724566
O O8 0.205787 0.754426 0.630583
O O9 0.469474 0.541838 0.806689
O O10 0.000000 0.500000 0.500000
O O11 0.179641 0.885607 0.260112
O O12 0.272295 0.683496 0.149127
O O13 0.000000 0.000000 0.500000
O O14 0.010668 0.344144 0.713657
#
# Coordination Sequence:
#
# PCOD9063405 Si02
#       7
#     2   2   2   2   1   2   2
#     4  11  25  46  67  99 140 179 223 276 333 398
#     4  11  24  44  68 100 135 182 219 277 337 397
#     4  11  26  45  68 102 135 173 227 281 335 401
#     4  11  25  45  67  99 138 177 223 277 332 397
#     4  12  24  42  72  96 132 180 226 272 332 392
#     4  11  24  45  73  95 133 178 222 282 340 399
#     4  11  24  44  68 100 135 172 228 274 332 404
#
# _framework density 24.237074
#
# number of rings (size 3 to 8) (size 9 to 14) (size 15 to 20)
#    0.000    0.923    3.077    2.769    2.154    7.385 
#    2.769    0.000    0.000    0.000    0.000    0.000 
#    0.000    0.000    0.000    0.000    0.000    0.000 
#
# Total GULP energy -72544.495633 kJ/mol
# GULP energy per Si atom -5580.345818 kJ/mol
# Density = 2.418191 g / cm^3
# Si number density = 24.237074 Si / 1000 Ang^3
#
#
#
# Elastic Constant Matrix: (Units=GPa)
#
#
# Indices 1 2 3 4 5 6 
#
# 1 66.5030 40.6414 1.8459 -11.5404 10.0031 13.5580
# 2 40.6414 128.7809 33.9346 -21.9248 15.2819 13.5924
# 3 1.8459 33.9346 152.0216 7.6012 14.9976 9.6575
# 4 -11.5404 -21.9248 7.6012 43.6444 -0.7246 -0.7860
# 5 10.0031 15.2819 14.9976 -0.7246 33.3308 7.1306
# 6 13.5580 13.5924 9.6575 -0.7860 7.1306 42.4325
#
#
#
# Elastic Compliance Matrix: (Units=1/GPa)
#
#
# Indices 1 2 3 4 5 6 
#
# 1 0.020129 -0.005531 0.001477 0.002154 -0.003177 -0.004422
# 2 -0.005531 0.011267 -0.002411 0.004567 -0.002140 -0.000849
# 3 0.001477 -0.002411 0.007525 -0.002192 -0.002552 -0.001024
# 4 0.002154 0.004567 -0.002192 0.026124 -0.000971 -0.001005
# 5 -0.003177 -0.002140 -0.002552 -0.000971 0.033795 -0.003416
# 6 -0.004422 -0.000849 -0.001024 -0.001005 -0.003416 0.026040
#
#
# Mechanical properties :
#
#
# Convention : Reuss Voigt Hill
#
# Bulk Modulus (GPa) = 38.47601 55.57215 47.02408
# Shear Modulus (GPa) = 34.13569 41.94047 38.03808
#
# Velocity S-wave (km/s) = 3.75695 4.16435 3.96588
# Velocity P-wave (km/s) = 5.89312 6.78976 6.35727
#
# Compressibility (1/GPa) = 0.02599022
#
# Stress axis : x y z
#
# Youngs Moduli (GPa) = 49.67848 88.75439 132.89493
#
# Poissons Ratio (x) = 0.49092 -0.19627
# Poissons Ratio (y) = 0.27478 0.32043
# Poissons Ratio (z) = -0.07337 0.21400
#
# Static dielectric constant tensor:
#      x y z
#    x 2.318350 -0.470500 -0.752600 
#    y -0.470500 2.359910 0.738640 
#    z -0.752600 0.738640 3.326180 
# 
# From -- ./inp_files/29881.got.cif
#   From: 2010.05.17/outbox.cif.g08.bks.cpg/sg2_15_cif.got.tgz:29881.got - 2010.06.03 11:33:40.
