data_PCOD9063417
_publ_section_title
;
Structure prediction by ZEFSAII (Michael W. Deem and Ramdas Pophale) SiO2 
 PCOD9063417
Probable space group: P -1
;
_chemical_formula_sum "Si O2"
_cell_formula_units_Z 13
_cell_length_a 5.139284
_cell_length_b 17.645084
_cell_length_c 6.442918
_cell_angle_alpha 69.523001
_cell_angle_beta 78.855438
_cell_angle_gamma 97.012724
_cell_volume 525.461462
_symmetry_space_group_name_H-M "P -1"
_symmetry_group_IT_number 2
_symmetry_cell_setting 'triclinic'
loop_
_space_group_symop_operation_xyz
x,y,z
-x,-y,-z
loop_
_atom_site_type_symbol
_atom_site_label
_atom_site_fract_x
_atom_site_fract_y
_atom_site_fract_z
Si Si1 0.079331 0.373272 0.436023
Si Si2 0.603482 0.916552 0.101516
Si Si3 0.923523 0.200420 0.401163
Si Si4 0.457651 0.606502 0.308724
Si Si5 0.509044 0.220871 0.083948
Si Si6 0.500000 0.500000 0.000000
Si Si7 0.002090 0.036987 0.689831
O O1 0.282454 0.373764 0.598836
O O2 0.964209 0.279152 0.470933
O O3 0.819847 0.412145 0.496069
O O4 0.249418 0.421590 0.173160
O O5 0.706948 0.914994 0.320399
O O6 0.479746 0.839633 0.053633
O O7 0.500000 0.000000 0.000000
O O8 0.903090 0.951628 0.913215
O O9 0.716304 0.210350 0.242528
O O10 0.843556 0.113381 0.622352
O O11 0.209919 0.202780 0.244139
O O12 0.433166 0.686858 0.102344
O O13 0.476105 0.536348 0.206346
O O14 0.000000 0.000000 0.500000
#
# Coordination Sequence:
#
# PCOD9063417 Si02
#       7
#     2   2   2   2   2   1   2
#     4  12  28  50  79 113 149 200 248 304 388 439
#     4  11  26  41  70 105 144 196 245 311 357 444
#     4  12  26  47  76 104 147 200 244 313 365 450
#     4  12  28  50  79 112 152 199 246 311 374 459
#     4  12  26  48  74 106 150 195 251 302 377 434
#     4  12  28  52  82 114 156 186 258 308 378 452
#     4  11  24  44  68 102 146 190 251 299 373 424
#
# _framework density 24.740157
#
# number of rings (size 3 to 8) (size 9 to 14) (size 15 to 20)
#    0.000    0.308    3.077    4.615    6.462    2.462 
#    0.000    0.000    0.000    0.000    0.000    0.000 
#    0.000    0.000    0.000    0.000    0.000    0.000 
#
# Total GULP energy -72491.061797 kJ/mol
# GULP energy per Si atom -5576.235523 kJ/mol
# Density = 2.468385 g / cm^3
# Si number density = 24.740157 Si / 1000 Ang^3
#
#
#
# Elastic Constant Matrix: (Units=GPa)
#
#
# Indices 1 2 3 4 5 6 
#
# 1 141.7523 32.3122 23.6561 22.7920 36.6777 4.0503
# 2 32.3122 171.3173 47.7004 31.1689 24.3815 7.3104
# 3 23.6561 47.7004 62.8679 3.1251 6.2962 2.0808
# 4 22.7920 31.1689 3.1251 79.3231 9.4595 -4.7660
# 5 36.6777 24.3815 6.2962 9.4595 54.5267 7.4798
# 6 4.0503 7.3104 2.0808 -4.7660 7.4798 30.9063
#
#
#
# Elastic Compliance Matrix: (Units=1/GPa)
#
#
# Indices 1 2 3 4 5 6 
#
# 1 0.009285 0.000256 -0.003022 -0.001974 -0.005668 -0.000007
# 2 0.000256 0.008428 -0.006043 -0.002933 -0.002534 -0.001459
# 3 -0.003022 -0.006043 0.021325 0.002199 0.001853 0.000280
# 4 -0.001974 -0.002933 0.002199 0.014498 -0.000566 0.003177
# 5 -0.005668 -0.002534 0.001853 -0.000566 0.023805 -0.004631
# 6 -0.000007 -0.001459 0.000280 0.003177 -0.004631 0.034294
#
#
# Mechanical properties :
#
#
# Convention : Reuss Voigt Hill
#
# Bulk Modulus (GPa) = 46.68741 64.80832 55.74787
# Shear Modulus (GPa) = 36.65938 51.10245 43.88092
#
# Velocity S-wave (km/s) = 3.85356 4.54978 4.21607
# Velocity P-wave (km/s) = 6.22190 7.33847 6.80313
#
# Compressibility (1/GPa) = 0.02141905
#
# Stress axis : x y z
#
# Youngs Moduli (GPa) = 107.70637 118.65400 46.89421
#
# Poissons Ratio (x) = -0.03041 0.14172
# Poissons Ratio (y) = -0.02761 0.28339
# Poissons Ratio (z) = 0.32550 0.71704
#
# Static dielectric constant tensor:
#      x y z
#    x 2.405020 0.098280 -0.190950 
#    y 0.098280 1.965000 -0.057130 
#    z -0.190950 -0.057130 2.079450 
# 
# From -- ./inp_files/6540.got.cif
#   From: 2010.05.17/outbox.cif.g08.bks.cpg/sg2_4_cif.got.tgz:6540.got - 2010.06.03 11:33:40.
