data_PCOD9063571
_publ_section_title
;
Structure prediction by ZEFSAII (Michael W. Deem and Ramdas Pophale) SiO2 
 PCOD9063571
Probable space group: P -1
;
_chemical_formula_sum "Si O2"
_cell_formula_units_Z 16
_cell_length_a 9.109874
_cell_length_b 9.010814
_cell_length_c 15.801205
_cell_angle_alpha 120.039159
_cell_angle_beta 141.027492
_cell_angle_gamma 82.201749
_cell_volume 625.005742
_symmetry_space_group_name_H-M "P -1"
_symmetry_group_IT_number 2
_symmetry_cell_setting 'triclinic'
loop_
_space_group_symop_operation_xyz
x,y,z
-x,-y,-z
loop_
_atom_site_type_symbol
_atom_site_label
_atom_site_fract_x
_atom_site_fract_y
_atom_site_fract_z
Si Si1 0.636561 0.581282 0.174916
Si Si2 0.430525 0.061734 0.741295
Si Si3 0.983821 0.792789 0.913411
Si Si4 0.619592 0.204263 0.511067
Si Si5 0.069950 0.431808 0.339397
Si Si6 0.736499 0.096530 0.204031
Si Si7 0.806674 0.594979 0.930792
Si Si8 0.906630 0.082583 0.729026
O O1 0.717070 0.807592 0.282847
O O2 0.865586 0.520345 0.264551
O O3 0.500000 0.500000 0.000000
O O4 0.438948 0.493188 0.141186
O O5 0.394427 0.959332 0.606624
O O6 0.363171 0.915429 0.748555
O O7 0.741190 0.200884 0.933203
O O8 0.965987 0.735086 0.791466
O O9 0.757517 0.620900 0.818069
O O10 0.000000 0.000000 0.000000
O O11 0.845060 0.227866 0.685766
O O12 0.668161 0.383581 0.524258
O O13 0.358422 0.111972 0.424817
O O14 0.964534 0.309534 0.342898
O O15 0.877096 0.961619 0.227889
O O16 0.500000 0.000000 0.000000
O O17 0.976981 0.813886 0.101498
O O18 0.000000 0.500000 0.000000
#
# Coordination Sequence:
#
# PCOD9063571 Si02
#       8
#     2   2   2   2   2   2   2   2
#     4  12  22  41  70 103 136 177 237 296 338 402
#     4  12  25  45  69 102 142 185 232 289 354 418
#     4  12  25  43  68 104 138 183 236 297 350 407
#     4  11  26  47  69 102 144 191 233 277 356 432
#     4  12  26  44  70 104 139 187 234 290 356 418
#     4  12  25  44  72 103 137 181 237 295 358 407
#     4  12  21  39  69 104 133 176 241 294 341 403
#     4  11  24  44  70  98 142 189 227 288 355 423
#
# _framework density 25.599765000000001
#
# number of rings (size 3 to 8) (size 9 to 14) (size 15 to 20)
#    0.000    0.250    5.000    4.500    1.750    4.000 
#    0.000    0.000    0.000    0.000    0.000    0.000 
#    0.000    0.000    0.000    0.000    0.000    0.000 
#
# Total GULP energy -89556.181517 kJ/mol
# GULP energy per Si atom -5597.261345 kJ/mol
# Density = 2.554150 g / cm^3
# Si number density = 25.599765 Si / 1000 Ang^3
#
#
#
# Elastic Constant Matrix: (Units=GPa)
#
#
# Indices 1 2 3 4 5 6 
#
# 1 147.0622 38.4608 7.9426 -1.6952 16.1106 22.9740
# 2 38.4608 108.0105 7.9265 9.1589 14.7571 7.8084
# 3 7.9426 7.9265 24.1998 1.8393 7.7205 -1.0132
# 4 -1.6952 9.1589 1.8393 39.4518 2.7907 7.4420
# 5 16.1106 14.7571 7.7205 2.7907 39.4400 10.4616
# 6 22.9740 7.8084 -1.0132 7.4420 10.4616 73.1888
#
#
#
# Elastic Compliance Matrix: (Units=1/GPa)
#
#
# Indices 1 2 3 4 5 6 
#
# 1 0.008078 -0.002518 -0.001533 0.001533 -0.001578 -0.002219
# 2 -0.002518 0.010819 -0.001704 -0.002401 -0.002576 0.000225
# 3 -0.001533 -0.001704 0.045228 -0.001697 -0.008167 0.002629
# 4 0.001533 -0.002401 -0.001697 0.026630 -0.000515 -0.002883
# 5 -0.001578 -0.002576 -0.008167 -0.000515 0.029530 -0.003512
# 6 -0.002219 0.000225 0.002629 -0.002883 -0.003512 0.015167
#
#
# Mechanical properties :
#
#
# Convention : Reuss Voigt Hill
#
# Bulk Modulus (GPa) = 19.00522 43.10358 31.05440
# Shear Modulus (GPa) = 30.39488 45.41227 37.90358
#
# Velocity S-wave (km/s) = 3.44948 4.21638 3.85206
# Velocity P-wave (km/s) = 4.82755 6.37007 5.65169
#
# Compressibility (1/GPa) = 0.05261712
#
# Stress axis : x y z
#
# Youngs Moduli (GPa) = 123.78838 92.42729 22.10996
#
# Poissons Ratio (x) = 0.23275 0.03389
# Poissons Ratio (y) = 0.31172 0.03767
# Poissons Ratio (z) = 0.18973 0.15746
#
# Static dielectric constant tensor:
#      x y z
#    x 2.041420 0.055790 0.049910 
#    y 0.055790 2.031420 0.026310 
#    z 0.049910 0.026310 2.057390 
# 
# From -- ./inp_files/263643.got.cif
#   From: 2010.05.17/outbox.cif.g08.bks.cpg/sg2_132_cif.got.tgz:263643.got - 2010.06.03 11:33:40.
