data_PCOD9063200
_publ_section_title
;
Structure prediction by ZEFSAII (Michael W. Deem and Ramdas Pophale) SiO2 
 PCOD9063200
Probable space group: P -1
;
_chemical_formula_sum "Si O2"
_cell_formula_units_Z 16
_cell_length_a 9.319470
_cell_length_b 12.260707
_cell_length_c 8.544907
_cell_angle_alpha 50.744687
_cell_angle_beta 98.295776
_cell_angle_gamma 113.058547
_cell_volume 688.244995
_symmetry_space_group_name_H-M "P -1"
_symmetry_group_IT_number 2
_symmetry_cell_setting 'triclinic'
loop_
_space_group_symop_operation_xyz
x,y,z
-x,-y,-z
loop_
_atom_site_type_symbol
_atom_site_label
_atom_site_fract_x
_atom_site_fract_y
_atom_site_fract_z
Si Si1 0.765340 0.321190 0.611677
Si Si2 0.328752 0.965623 0.941793
Si Si3 0.098263 0.377969 0.497469
Si Si4 0.999096 0.833217 0.614791
Si Si5 0.834272 0.857314 0.088917
Si Si6 0.344397 0.876661 0.669364
Si Si7 0.732960 0.702263 0.906766
Si Si8 0.564674 0.349245 0.277023
O O1 0.777613 0.448187 0.628767
O O2 0.620014 0.294574 0.495634
O O3 0.925947 0.383802 0.478604
O O4 0.770595 0.175606 0.833998
O O5 0.326263 0.919907 0.804245
O O6 0.277689 0.104551 0.842511
O O7 0.500000 0.000000 0.000000
O O8 0.137025 0.293493 0.727274
O O9 0.094745 0.268395 0.453336
O O10 0.178987 0.860740 0.585277
O O11 0.906716 0.733485 0.839979
O O12 0.000000 0.000000 0.500000
O O13 0.758326 0.828197 0.931107
O O14 0.000000 0.000000 0.000000
O O15 0.362682 0.717114 0.791377
O O16 0.500000 0.000000 0.500000
O O17 0.620468 0.713061 0.737767
O O18 0.641557 0.532787 0.114989
#
# Coordination Sequence:
#
# PCOD9063200 Si02
#       8
#     2   2   2   2   2   2   2   2
#     4  11  24  46  71 106 144 190 241 302 364 427
#     4  12  27  43  73 107 140 192 240 293 364 436
#     4  11  24  43  72 106 146 187 239 304 364 433
#     4  12  26  43  71 107 141 190 245 298 365 435
#     4  12  23  47  73 105 147 187 246 297 362 440
#     4  12  26  46  74 102 146 192 241 303 363 434
#     4  11  26  45  74 109 147 196 241 301 372 437
#     4  11  24  48  73 102 153 193 239 304 366 439
#
# _framework density 23.247534999999999
#
# number of rings (size 3 to 8) (size 9 to 14) (size 15 to 20)
#    0.000    0.500    3.750    4.500    1.750    1.500 
#    0.000    1.250    0.000    0.000    0.000    0.000 
#    0.000    0.000    0.000    0.000    0.000    0.000 
#
# Total GULP energy -89446.629669 kJ/mol
# GULP energy per Si atom -5590.414354 kJ/mol
# Density = 2.319462 g / cm^3
# Si number density = 23.247535 Si / 1000 Ang^3
#
#
#
# Elastic Constant Matrix: (Units=GPa)
#
#
# Indices 1 2 3 4 5 6 
#
# 1 114.2777 34.7463 7.6891 5.0900 4.6221 -1.3141
# 2 34.7463 155.9060 18.1027 24.1675 1.8407 -1.6265
# 3 7.6891 18.1027 50.2237 15.8210 4.9344 5.0416
# 4 5.0900 24.1675 15.8210 37.8915 -5.3094 1.7189
# 5 4.6221 1.8407 4.9344 -5.3094 33.0430 1.6504
# 6 -1.3141 -1.6265 5.0416 1.7189 1.6504 25.4794
#
#
#
# Elastic Compliance Matrix: (Units=1/GPa)
#
#
# Indices 1 2 3 4 5 6 
#
# 1 0.009460 -0.002029 -0.000708 0.000137 -0.001111 0.000561
# 2 -0.002029 0.007682 -0.001129 -0.004299 -0.000713 0.000945
# 3 -0.000708 -0.001129 0.024415 -0.009883 -0.004874 -0.003957
# 4 0.000137 -0.004299 -0.009883 0.034308 0.007264 -0.001097
# 5 -0.001111 -0.000713 -0.004874 0.007264 0.032440 -0.001730
# 6 0.000561 0.000945 -0.003957 -0.001097 -0.001730 0.040306
#
#
# Mechanical properties :
#
#
# Convention : Reuss Voigt Hill
#
# Bulk Modulus (GPa) = 29.56202 49.05374 39.30788
# Shear Modulus (GPa) = 29.82974 36.60741 33.21857
#
# Velocity S-wave (km/s) = 3.58597 3.97253 3.78419
# Velocity P-wave (km/s) = 5.46712 6.49521 6.00321
#
# Compressibility (1/GPa) = 0.03382719
#
# Stress axis : x y z
#
# Youngs Moduli (GPa) = 105.70527 130.17559 40.95759
#
# Poissons Ratio (x) = 0.26407 0.02898
# Poissons Ratio (y) = 0.21443 0.04624
# Poissons Ratio (z) = 0.07480 0.14697
#
# Static dielectric constant tensor:
#      x y z
#    x 1.903550 0.032700 -0.048950 
#    y 0.032700 1.934410 0.061720 
#    z -0.048950 0.061720 2.128770 
# 
# From -- ./inp_files/185133.got.cif
#   From: 2010.05.17/outbox.cif.g08.bks.cpg/sg2_93_cif.got.tgz:185133.got - 2010.06.03 11:33:40.
