data_PCOD9063569
_publ_section_title
;
Structure prediction by ZEFSAII (Michael W. Deem and Ramdas Pophale) SiO2 
 PCOD9063569
Probable space group: P -1
;
_chemical_formula_sum "Si O2"
_cell_formula_units_Z 14
_cell_length_a 19.169229
_cell_length_b 8.186928
_cell_length_c 12.137970
_cell_angle_alpha 119.282784
_cell_angle_beta 32.985148
_cell_angle_gamma 139.095411
_cell_volume 620.484936
_symmetry_space_group_name_H-M "P -1"
_symmetry_group_IT_number 2
_symmetry_cell_setting 'triclinic'
loop_
_space_group_symop_operation_xyz
x,y,z
-x,-y,-z
loop_
_atom_site_type_symbol
_atom_site_label
_atom_site_fract_x
_atom_site_fract_y
_atom_site_fract_z
Si Si1 0.994627 0.132437 0.946381
Si Si2 0.186368 0.147946 0.503972
Si Si3 0.007332 0.513604 0.793808
Si Si4 0.892278 0.542318 0.723140
Si Si5 0.626345 0.317988 0.669567
Si Si6 0.283156 0.101299 0.951621
Si Si7 0.538478 0.320192 0.028787
O O1 0.017935 0.369415 0.034068
O O2 0.801095 0.926283 0.064079
O O3 0.158126 0.235473 0.682183
O O4 0.000000 0.000000 0.000000
O O5 0.246912 0.360234 0.402857
O O6 0.344515 0.156688 0.292641
O O7 0.991554 0.836950 0.647163
O O8 0.223788 0.687620 0.545373
O O9 0.933745 0.546260 0.795898
O O10 0.884265 0.196194 0.870400
O O11 0.675506 0.328493 0.914919
O O12 0.000000 0.500000 0.500000
O O13 0.465903 0.161905 0.737606
O O14 0.527717 0.231017 0.889932
O O15 0.360221 0.367495 0.999350
#
# Coordination Sequence:
#
# PCOD9063569 Si02
#       7
#     2   2   2   2   2   2   2
#     4  12  24  48  69  94 138 180 226 271 329 402
#     4  11  24  45  68  94 138 175 224 274 331 396
#     4  12  25  44  68 100 136 177 223 279 328 392
#     4  12  25  41  69 101 137 179 218 273 341 394
#     4  11  25  43  71 103 133 174 222 281 335 396
#     4  11  24  44  70  98 133 175 226 273 336 393
#     4  11  24  45  69 102 135 174 225 273 338 400
#
# _framework density 22.562998
#
# number of rings (size 3 to 8) (size 9 to 14) (size 15 to 20)
#    0.000    0.571    5.714    2.143    4.000    3.429 
#    2.571    3.571    0.000    0.000    0.000    0.000 
#    0.000    0.000    0.000    0.000    0.000    0.000 
#
# Total GULP energy -78221.980610 kJ/mol
# GULP energy per Si atom -5587.284329 kJ/mol
# Density = 2.251164 g / cm^3
# Si number density = 22.562998 Si / 1000 Ang^3
#
#
#
# Elastic Constant Matrix: (Units=GPa)
#
#
# Indices 1 2 3 4 5 6 
#
# 1 127.6631 -4.0473 50.6607 -9.5936 -23.7059 -0.1991
# 2 -4.0473 66.9272 20.1969 0.3868 9.5288 1.9632
# 3 50.6607 20.1969 125.5664 13.7011 -19.5316 6.2386
# 4 -9.5936 0.3868 13.7011 38.8908 1.4767 -1.4077
# 5 -23.7059 9.5288 -19.5316 1.4767 45.7943 1.3915
# 6 -0.1991 1.9632 6.2386 -1.4077 1.3915 18.4857
#
#
#
# Elastic Compliance Matrix: (Units=1/GPa)
#
#
# Indices 1 2 3 4 5 6 
#
# 1 0.010570 0.001517 -0.004569 0.004144 0.003026 0.001582
# 2 0.001517 0.016968 -0.004276 0.001893 -0.004635 0.000151
# 3 -0.004569 -0.004276 0.011932 -0.005594 0.003926 -0.004343
# 4 0.004144 0.001893 -0.005594 0.028898 -0.001690 0.004059
# 5 0.003026 -0.004635 0.003926 -0.001690 0.026185 -0.002900
# 6 0.001582 0.000151 -0.004343 0.004059 -0.002900 0.056090
#
#
# Mechanical properties :
#
#
# Convention : Reuss Voigt Hill
#
# Bulk Modulus (GPa) = 40.30008 50.41971 45.35989
# Shear Modulus (GPa) = 28.80661 37.52393 33.16527
#
# Velocity S-wave (km/s) = 3.57700 4.08250 3.83808
# Velocity P-wave (km/s) = 5.91268 6.67961 6.30781
#
# Compressibility (1/GPa) = 0.02481385
#
# Stress axis : x y z
#
# Youngs Moduli (GPa) = 94.60800 58.93316 83.80870
#
# Poissons Ratio (x) = -0.08939 0.38289
# Poissons Ratio (y) = -0.14350 0.35839
# Poissons Ratio (z) = 0.43223 0.25202
#
# Static dielectric constant tensor:
#      x y z
#    x 1.903830 -0.033390 -0.017830 
#    y -0.033390 1.890360 0.020900 
#    z -0.017830 0.020900 1.842170 
# 
# From -- ./inp_files/332126.got.cif
#   From: 2010.05.17/outbox.cif.g08.bks.cpg/sg2_167_cif.got.tgz:332126.got - 2010.06.03 11:33:40.
