data_PCOD9063840
_publ_section_title
;
Structure prediction by ZEFSAII (Michael W. Deem and Ramdas Pophale) SiO2 
 PCOD9063840
Probable space group: P -1
;
_chemical_formula_sum "Si O2"
_cell_formula_units_Z 16
_cell_length_a 23.805884
_cell_length_b 10.282310
_cell_length_c 23.615348
_cell_angle_alpha 35.224060
_cell_angle_beta 168.367230
_cell_angle_gamma 144.801094
_cell_volume 665.029280
_symmetry_space_group_name_H-M "P -1"
_symmetry_group_IT_number 2
_symmetry_cell_setting 'triclinic'
loop_
_space_group_symop_operation_xyz
x,y,z
-x,-y,-z
loop_
_atom_site_type_symbol
_atom_site_label
_atom_site_fract_x
_atom_site_fract_y
_atom_site_fract_z
Si Si1 0.125873 0.858881 0.724639
Si Si2 0.088339 0.518313 0.490228
Si Si3 0.969358 0.791112 0.923853
Si Si4 0.495658 0.956916 0.577799
Si Si5 0.190973 0.726730 0.040511
Si Si6 0.227447 0.998488 0.507261
Si Si7 0.602321 0.548177 0.299523
Si Si8 0.501522 0.764699 0.964659
O O1 0.845212 0.693443 0.526170
O O2 0.354024 0.696652 0.991940
O O3 0.000000 0.000000 0.500000
O O4 0.304270 0.045645 0.874007
O O5 0.093621 0.782274 0.415076
O O6 0.245805 0.492959 0.595384
O O7 0.776317 0.380706 0.230644
O O8 0.276338 0.413548 0.761376
O O9 0.036110 0.767707 0.931985
O O10 0.258316 0.868291 0.213776
O O11 0.826865 0.541191 0.891793
O O12 0.782093 0.981275 0.688177
O O13 0.516928 0.694715 0.705391
O O14 0.500000 0.000000 0.500000
O O15 0.509609 0.846182 0.317278
O O16 0.017747 0.848804 0.779612
O O17 0.369151 0.895085 0.737506
#
# Coordination Sequence:
#
# PCOD9063840 Si02
#       8
#     2   2   2   2   2   2   2   2
#     4  12  26  46  69 101 141 184 244 294 342 421
#     4  12  24  42  69  96 142 183 240 286 348 419
#     4  11  24  47  75 103 143 182 239 289 364 422
#     4  12  27  48  74 108 146 184 234 302 362 427
#     4  11  24  44  75 105 138 189 233 299 351 434
#     4  12  25  44  68 106 144 180 239 288 364 419
#     4  12  26  43  74 101 135 190 239 290 354 416
#     4  12  26  43  67  99 141 192 228 297 350 413
#
# _framework density 24.059092
#
# number of rings (size 3 to 8) (size 9 to 14) (size 15 to 20)
#    0.000    0.250    1.250    8.250    0.000    5.000 
#    0.000    0.000    0.000    0.000    0.000    0.000 
#    0.000    0.000    0.000    0.000    0.000    0.000 
#
# Total GULP energy -89679.980267 kJ/mol
# GULP energy per Si atom -5604.998767 kJ/mol
# Density = 2.400433 g / cm^3
# Si number density = 24.059092 Si / 1000 Ang^3
#
#
#
# Elastic Constant Matrix: (Units=GPa)
#
#
# Indices 1 2 3 4 5 6 
#
# 1 55.4837 49.5685 25.5143 10.0681 -16.3408 -1.0323
# 2 49.5685 206.2580 52.6330 14.9654 -5.7267 -8.2650
# 3 25.5143 52.6330 144.5143 14.7382 -2.3396 -7.1529
# 4 10.0681 14.9654 14.7382 47.3963 -2.0052 1.0752
# 5 -16.3408 -5.7267 -2.3396 -2.0052 36.8454 5.9760
# 6 -1.0323 -8.2650 -7.1529 1.0752 5.9760 27.2270
#
#
#
# Elastic Compliance Matrix: (Units=1/GPa)
#
#
# Indices 1 2 3 4 5 6 
#
# 1 0.028340 -0.005763 -0.002618 -0.002791 0.011984 -0.003883
# 2 -0.005763 0.006623 -0.001271 -0.000598 -0.001949 0.001910
# 3 -0.002618 -0.001271 0.008092 -0.001657 -0.001256 0.001982
# 4 -0.002791 -0.000598 -0.001657 0.022434 0.000047 -0.001619
# 5 0.011984 -0.001949 -0.001256 0.000047 0.033338 -0.007787
# 6 -0.003883 0.001910 0.001982 -0.001619 -0.007787 0.039454
#
#
# Mechanical properties :
#
#
# Convention : Reuss Voigt Hill
#
# Bulk Modulus (GPa) = 42.10385 73.52084 57.81235
# Shear Modulus (GPa) = 30.21112 40.86307 35.53709
#
# Velocity S-wave (km/s) = 3.54744 4.12569 3.84744
# Velocity P-wave (km/s) = 5.85809 7.30205 6.61956
#
# Compressibility (1/GPa) = 0.02375080
#
# Stress axis : x y z
#
# Youngs Moduli (GPa) = 35.28633 150.98154 123.58584
#
# Poissons Ratio (x) = 0.87009 0.32355
# Poissons Ratio (y) = 0.20335 0.15706
# Poissons Ratio (z) = 0.09238 0.19188
#
# Static dielectric constant tensor:
#      x y z
#    x 2.000750 0.020610 -0.023310 
#    y 0.020610 1.891450 -0.010460 
#    z -0.023310 -0.010460 1.851860 
# 
# From -- ./inp_files/621254.got.cif
#   From: 2010.05.17/outbox.cif.g08.bks.cpg/sg2_311_cif.got.tgz:621254.got - 2010.06.03 11:33:40.
