data_PCOD9063221
_publ_section_title
;
Structure prediction by ZEFSAII (Michael W. Deem and Ramdas Pophale) SiO2 
 PCOD9063221
Probable space group: P -1
;
_chemical_formula_sum "Si O2"
_cell_formula_units_Z 12
_cell_length_a 4.994955
_cell_length_b 12.151721
_cell_length_c 9.254117
_cell_angle_alpha 74.622544
_cell_angle_beta 76.362020
_cell_angle_gamma 64.303681
_cell_volume 483.289806
_symmetry_space_group_name_H-M "P -1"
_symmetry_group_IT_number 2
_symmetry_cell_setting 'triclinic'
loop_
_space_group_symop_operation_xyz
x,y,z
-x,-y,-z
loop_
_atom_site_type_symbol
_atom_site_label
_atom_site_fract_x
_atom_site_fract_y
_atom_site_fract_z
Si Si1 0.895285 0.662794 0.843611
Si Si2 0.581000 0.545150 0.324193
Si Si3 0.707215 0.074359 0.923195
Si Si4 0.299658 0.796554 0.396034
Si Si5 0.346405 0.148190 0.438959
Si Si6 0.666473 0.336314 0.959827
O O1 0.732891 0.791598 0.730536
O O2 0.655414 0.606029 0.940431
O O3 0.130792 0.562533 0.741931
O O4 0.070669 0.683292 0.953681
O O5 0.500000 0.500000 0.500000
O O6 0.563924 0.679271 0.330210
O O7 0.338403 0.586111 0.210516
O O8 0.739839 0.088145 0.742532
O O9 0.641456 0.210332 0.949368
O O10 0.500000 0.000000 0.000000
O O11 0.000000 0.000000 0.000000
O O12 0.414436 0.805588 0.537206
O O13 0.969519 0.796938 0.452635
O O14 0.500000 0.000000 0.500000
#
# Coordination Sequence:
#
# PCOD9063221 Si02
#       6
#     2   2   2   2   2   2
#     4  12  26  48  76 106 147 194 234 303 360 425
#     4  11  25  51  77 106 147 187 246 300 361 429
#     4  11  24  43  72  99 142 190 234 294 355 426
#     4  11  26  47  70 107 137 191 247 296 351 429
#     4  12  27  45  73 104 148 190 241 293 360 428
#     4  11  27  47  73 111 142 188 246 293 365 427
#
# _framework density 24.829819000000001
#
# number of rings (size 3 to 8) (size 9 to 14) (size 15 to 20)
#    0.000    0.667    1.667    4.500    7.000    6.000 
#    0.000    0.000    0.000    0.000    0.000    0.000 
#    0.000    0.000    0.000    0.000    0.000    0.000 
#
# Total GULP energy -67088.031970 kJ/mol
# GULP energy per Si atom -5590.669331 kJ/mol
# Density = 2.477331 g / cm^3
# Si number density = 24.829819 Si / 1000 Ang^3
#
#
#
# Elastic Constant Matrix: (Units=GPa)
#
#
# Indices 1 2 3 4 5 6 
#
# 1 132.6644 7.8421 63.5246 -5.1913 30.2250 4.6930
# 2 7.8421 101.0160 25.3275 -5.8230 29.9716 -9.1638
# 3 63.5246 25.3275 229.7874 -27.1678 29.1213 -3.4153
# 4 -5.1913 -5.8230 -27.1678 39.6501 -0.0822 3.2698
# 5 30.2250 29.9716 29.1213 -0.0822 43.8111 5.0436
# 6 4.6930 -9.1638 -3.4153 3.2698 5.0436 34.1506
#
#
#
# Elastic Compliance Matrix: (Units=1/GPa)
#
#
# Indices 1 2 3 4 5 6 
#
# 1 0.009959 0.001713 -0.002089 0.000123 -0.006637 -0.000149
# 2 0.001713 0.013584 -0.000346 0.001562 -0.010797 0.004820
# 3 -0.002089 -0.000346 0.005666 0.003492 -0.002168 0.000747
# 4 0.000123 0.001562 0.003492 0.027971 -0.003256 -0.001446
# 5 -0.006637 -0.010797 -0.002168 -0.003256 0.037073 -0.007365
# 6 -0.000149 0.004820 0.000747 -0.001446 -0.007365 0.031897
#
#
# Mechanical properties :
#
#
# Convention : Reuss Voigt Hill
#
# Bulk Modulus (GPa) = 36.01559 72.98403 54.49981
# Shear Modulus (GPa) = 36.53685 47.97392 42.25538
#
# Velocity S-wave (km/s) = 3.84016 4.40034 4.12976
# Velocity P-wave (km/s) = 5.84799 7.43471 6.68857
#
# Compressibility (1/GPa) = 0.02776575
#
# Stress axis : x y z
#
# Youngs Moduli (GPa) = 100.41377 73.61655 176.48889
#
# Poissons Ratio (x) = -0.12612 0.36860
# Poissons Ratio (y) = -0.17203 0.06111
# Poissons Ratio (z) = 0.20971 0.02549
#
# Static dielectric constant tensor:
#      x y z
#    x 1.901130 0.012830 -0.036390 
#    y 0.012830 1.469260 0.122390 
#    z -0.036390 0.122390 1.973270 
# 
# From -- ./inp_files/133021.got.cif
#   From: 2010.05.17/outbox.cif.g08.bks.cpg/sg2_67_cif.got.tgz:133021.got - 2010.06.03 11:33:40.
