data_PCOD9063395
_publ_section_title
;
Structure prediction by ZEFSAII (Michael W. Deem and Ramdas Pophale) SiO2 
 PCOD9063395
Probable space group: P -1
;
_chemical_formula_sum "Si O2"
_cell_formula_units_Z 14
_cell_length_a 12.561087
_cell_length_b 14.870442
_cell_length_c 23.722134
_cell_angle_alpha 18.637229
_cell_angle_beta 153.780775
_cell_angle_gamma 148.910572
_cell_volume 624.997164
_symmetry_space_group_name_H-M "P -1"
_symmetry_group_IT_number 2
_symmetry_cell_setting 'triclinic'
loop_
_space_group_symop_operation_xyz
x,y,z
-x,-y,-z
loop_
_atom_site_type_symbol
_atom_site_label
_atom_site_fract_x
_atom_site_fract_y
_atom_site_fract_z
Si Si1 0.550687 0.875931 0.351411
Si Si2 0.737127 0.493342 0.047651
Si Si3 0.880803 0.384882 0.754012
Si Si4 0.842278 0.252230 0.543577
Si Si5 0.043935 0.641065 0.997781
Si Si6 0.423530 0.256529 0.431702
Si Si7 0.776575 0.310284 0.348649
O O1 0.479458 0.791544 0.431296
O O2 0.725198 0.635321 0.556411
O O3 0.693075 0.175192 0.237586
O O4 0.311518 0.863531 0.206271
O O5 0.911202 0.665085 0.071966
O O6 0.865728 0.508768 0.039271
O O7 0.474363 0.611235 0.845573
O O8 0.011481 0.504926 0.688969
O O9 0.612626 0.199546 0.506321
O O10 0.766239 0.342420 0.391525
O O11 0.000000 0.500000 0.500000
O O12 0.989148 0.969234 0.775829
O O13 0.000000 0.500000 0.000000
O O14 0.311551 0.559619 0.191725
O O15 0.206852 0.020560 0.460678
#
# Coordination Sequence:
#
# PCOD9063395 Si02
#       7
#     2   2   2   2   2   2   2
#     4  11  25  43  71 105 145 187 242 304 357 446
#     4  12  24  44  71 105 143 192 240 299 371 436
#     4  11  24  44  67 106 143 185 244 299 369 429
#     4  12  28  48  70 110 150 188 248 311 362 434
#     4  12  25  45  78 103 140 199 249 293 366 443
#     4  12  23  47  73 103 144 192 245 295 365 436
#     4  12  24  44  73 101 144 194 243 301 360 440
#
# _framework density 22.400099999999998
#
# number of rings (size 3 to 8) (size 9 to 14) (size 15 to 20)
#    0.000    0.286    5.714    3.857    0.000    2.286 
#    0.000    0.000    0.000    0.000    0.000    0.000 
#    0.000    0.000    0.000    0.000    0.000    0.000 
#
# Total GULP energy -78404.204411 kJ/mol
# GULP energy per Si atom -5600.300315 kJ/mol
# Density = 2.234912 g / cm^3
# Si number density = 22.400100 Si / 1000 Ang^3
#
#
#
# Elastic Constant Matrix: (Units=GPa)
#
#
# Indices 1 2 3 4 5 6 
#
# 1 144.3071 27.7100 21.0396 -1.7819 -6.1570 -21.1750
# 2 27.7100 105.3443 23.6123 12.7743 -1.8279 -17.0288
# 3 21.0396 23.6123 99.6490 -3.4981 7.9325 -19.3860
# 4 -1.7819 12.7743 -3.4981 25.5860 -8.8171 -5.8244
# 5 -6.1570 -1.8279 7.9325 -8.8171 30.4581 4.0691
# 6 -21.1750 -17.0288 -19.3860 -5.8244 4.0691 25.4568
#
#
#
# Elastic Compliance Matrix: (Units=1/GPa)
#
#
# Indices 1 2 3 4 5 6 
#
# 1 0.008274 -0.001499 -0.000211 0.003316 0.001770 0.006194
# 2 -0.001499 0.011602 -0.001722 -0.005658 -0.001347 0.004124
# 3 -0.000211 -0.001722 0.012831 0.003541 -0.003780 0.009858
# 4 0.003316 -0.005658 0.003541 0.049341 0.012222 0.011005
# 5 0.001770 -0.001347 -0.003780 0.012222 0.038386 -0.005647
# 6 0.006194 0.004124 0.009858 0.011005 -0.005647 0.058121
#
#
# Mechanical properties :
#
#
# Convention : Reuss Voigt Hill
#
# Bulk Modulus (GPa) = 38.69578 54.89160 46.79369
# Shear Modulus (GPa) = 25.76899 34.76275 30.26587
#
# Velocity S-wave (km/s) = 3.39543 3.94369 3.67979
# Velocity P-wave (km/s) = 5.71701 6.73017 6.24418
#
# Compressibility (1/GPa) = 0.02584261
#
# Stress axis : x y z
#
# Youngs Moduli (GPa) = 120.86543 86.19012 77.93782
#
# Poissons Ratio (x) = 0.12921 0.01645
# Poissons Ratio (y) = 0.18119 0.13420
# Poissons Ratio (z) = 0.02552 0.14841
#
# Static dielectric constant tensor:
#      x y z
#    x 1.817380 -0.002260 -0.004590 
#    y -0.002260 1.826410 -0.002460 
#    z -0.004590 -0.002460 1.877270 
# 
# From -- ./inp_files/610505.got.cif
#   From: 2010.05.17/outbox.cif.g08.bks.cpg/sg2_306_cif.got.tgz:610505.got - 2010.06.03 11:33:40.
