data_PCOD9063646
_publ_section_title
;
Structure prediction by ZEFSAII (Michael W. Deem and Ramdas Pophale) SiO2 
 PCOD9063646
Probable space group: P -1
;
_chemical_formula_sum "Si O2"
_cell_formula_units_Z 16
_cell_length_a 17.376306
_cell_length_b 9.552614
_cell_length_c 6.933999
_cell_angle_alpha 135.032799
_cell_angle_beta 94.468836
_cell_angle_gamma 74.539097
_cell_volume 773.535511
_symmetry_space_group_name_H-M "P -1"
_symmetry_group_IT_number 2
_symmetry_cell_setting 'triclinic'
loop_
_space_group_symop_operation_xyz
x,y,z
-x,-y,-z
loop_
_atom_site_type_symbol
_atom_site_label
_atom_site_fract_x
_atom_site_fract_y
_atom_site_fract_z
Si Si1 0.922421 0.417420 0.427655
Si Si2 0.830776 0.435261 0.030020
Si Si3 0.166017 0.239148 0.965616
Si Si4 0.664092 0.111180 0.343043
Si Si5 0.539102 0.882189 0.201438
Si Si6 0.925930 0.086482 0.425188
Si Si7 0.431233 0.654817 0.766541
Si Si8 0.351259 0.537043 0.003328
O O1 0.885295 0.386036 0.183845
O O2 0.943316 0.214707 0.371322
O O3 0.000000 0.500000 0.500000
O O4 0.854898 0.594614 0.704528
O O5 0.843461 0.631918 0.109861
O O6 0.858015 0.246925 0.698907
O O7 0.735972 0.476854 0.092457
O O8 0.254789 0.077837 0.835565
O O9 0.104593 0.103646 0.831254
O O10 0.648351 0.252498 0.287380
O O11 0.661922 0.257014 0.669040
O O12 0.588641 0.020277 0.249870
O O13 0.500000 0.000000 0.500000
O O14 0.468726 0.832428 0.018908
O O15 0.602848 0.661464 0.054160
O O16 0.000000 0.000000 0.500000
O O17 0.500000 0.500000 0.500000
O O18 0.407835 0.546424 0.843128
#
# Coordination Sequence:
#
# PCOD9063646 Si02
#       8
#     2   2   2   2   2   2   2   2
#     4  11  26  45  69 106 141 175 226 281 331 407
#     4  11  25  44  70  98 139 180 222 282 342 398
#     4  11  25  44  69 100 136 179 227 277 338 405
#     4  12  25  45  69 100 137 178 231 285 340 405
#     4  12  24  45  70  96 135 182 227 279 345 403
#     4  11  24  44  72 100 137 180 222 272 336 407
#     4  12  26  43  71  99 136 181 231 285 342 409
#     4  12  25  45  68 100 139 176 225 290 343 397
#
# _framework density 20.684246999999999
#
# number of rings (size 3 to 8) (size 9 to 14) (size 15 to 20)
#    0.000    0.500    5.000    3.000    1.750    8.000 
#    0.000    0.000    0.000    0.000    0.000    0.000 
#    0.000    0.000    0.000    0.000    0.000    0.000 
#
# Total GULP energy -89530.214714 kJ/mol
# GULP energy per Si atom -5595.638420 kJ/mol
# Density = 2.063717 g / cm^3
# Si number density = 20.684247 Si / 1000 Ang^3
#
#
#
# Elastic Constant Matrix: (Units=GPa)
#
#
# Indices 1 2 3 4 5 6 
#
# 1 65.2880 17.0047 4.8602 -9.0162 3.6763 12.0470
# 2 17.0047 110.5343 25.9687 -9.1692 7.8193 2.0157
# 3 4.8602 25.9687 85.0723 -6.8344 -2.2574 8.3218
# 4 -9.0162 -9.1692 -6.8344 35.2434 -8.0033 3.3891
# 5 3.6763 7.8193 -2.2574 -8.0033 31.9133 11.7789
# 6 12.0470 2.0157 8.3218 3.3891 11.7789 38.5664
#
#
#
# Elastic Compliance Matrix: (Units=1/GPa)
#
#
# Indices 1 2 3 4 5 6 
#
# 1 0.017767 -0.002565 0.000928 0.005283 0.002498 -0.006844
# 2 -0.002565 0.010433 -0.003252 0.000564 -0.003026 0.001832
# 3 0.000928 -0.003252 0.013533 0.003417 0.004212 -0.004627
# 4 0.005283 0.000564 0.003417 0.033945 0.011271 -0.008843
# 5 0.002498 -0.003026 0.004212 0.011271 0.040398 -0.014860
# 6 -0.006844 0.001832 -0.004627 -0.008843 -0.014860 0.034285
#
#
# Mechanical properties :
#
#
# Convention : Reuss Voigt Hill
#
# Bulk Modulus (GPa) = 31.29378 39.61799 35.45588
# Shear Modulus (GPa) = 29.27535 35.34869 32.31202
#
# Velocity S-wave (km/s) = 3.76619 4.13845 3.95670
# Velocity P-wave (km/s) = 5.83733 6.48313 6.16868
#
# Compressibility (1/GPa) = 0.03195523
#
# Stress axis : x y z
#
# Youngs Moduli (GPa) = 56.28265 95.84863 73.89152
#
# Poissons Ratio (x) = 0.24586 -0.06858
# Poissons Ratio (y) = 0.14437 0.24033
# Poissons Ratio (z) = -0.05224 0.31174
#
# Static dielectric constant tensor:
#      x y z
#    x 1.729400 0.004910 -0.001420 
#    y 0.004910 1.765580 -0.014010 
#    z -0.001420 -0.014010 1.731990 
# 
# From -- ./inp_files/12654.got.cif
#   From: 2010.05.17/outbox.cif.g08.bks.cpg/sg2_7_cif.got.tgz:12654.got - 2010.06.03 11:33:40.
