data_PCOD9064207
_publ_section_title
;
Structure prediction by ZEFSAII (Michael W. Deem and Ramdas Pophale) SiO2 
 PCOD9064207
Probable space group: P -1
;
_chemical_formula_sum "Si O2"
_cell_formula_units_Z 16
_cell_length_a 5.375583
_cell_length_b 13.548772
_cell_length_c 11.438283
_cell_angle_alpha 128.658004
_cell_angle_beta 93.587898
_cell_angle_gamma 82.293733
_cell_volume 644.425052
_symmetry_space_group_name_H-M "P -1"
_symmetry_group_IT_number 2
_symmetry_cell_setting 'triclinic'
loop_
_space_group_symop_operation_xyz
x,y,z
-x,-y,-z
loop_
_atom_site_type_symbol
_atom_site_label
_atom_site_fract_x
_atom_site_fract_y
_atom_site_fract_z
Si Si1 0.178483 0.538319 0.430048
Si Si2 0.778831 0.193288 0.958045
Si Si3 0.449710 0.763428 0.635617
Si Si4 0.718070 0.743911 0.858257
Si Si5 0.768082 0.659778 0.350444
Si Si6 0.728774 0.893777 0.395890
Si Si7 0.765079 0.451383 0.028181
Si Si8 0.035438 0.966957 0.679871
O O1 0.367250 0.625002 0.559558
O O2 0.256865 0.409296 0.266993
O O3 0.000000 0.500000 0.500000
O O4 0.035768 0.636729 0.405044
O O5 0.516382 0.216781 0.034991
O O6 0.789725 0.300160 0.936699
O O7 0.020256 0.212062 0.059968
O O8 0.816215 0.050272 0.803701
O O9 0.637263 0.796062 0.765726
O O10 0.588200 0.734371 0.495456
O O11 0.214902 0.869780 0.690505
O O12 0.706672 0.745490 0.297560
O O13 0.740525 0.517260 0.204503
O O14 0.808022 0.928561 0.295717
O O15 0.500000 0.000000 0.500000
O O16 0.932541 0.905310 0.514222
O O17 0.500000 0.500000 0.000000
O O18 0.000000 0.500000 0.000000
#
# Coordination Sequence:
#
# PCOD9064207 Si02
#       8
#     2   2   2   2   2   2   2   2
#     4  12  24  46  73 109 143 186 240 307 359 423
#     4  12  28  49  72 103 153 193 236 296 365 438
#     4  12  26  44  75 108 139 187 247 298 362 426
#     4  12  27  47  73 108 146 190 240 297 365 433
#     4  12  25  43  78 104 144 186 242 304 360 424
#     4  11  24  45  72 104 142 185 249 302 355 421
#     4  12  28  46  71 105 146 192 241 293 364 435
#     4  11  27  46  72 105 142 194 242 300 357 435
#
# _framework density 24.828334999999999
#
# number of rings (size 3 to 8) (size 9 to 14) (size 15 to 20)
#    0.000    0.250    5.000    3.375    5.250    1.000 
#    0.000    0.000    0.000    0.000    0.000    0.000 
#    0.000    0.000    0.000    0.000    0.000    0.000 
#
# Total GULP energy -89554.615839 kJ/mol
# GULP energy per Si atom -5597.163490 kJ/mol
# Density = 2.477182 g / cm^3
# Si number density = 24.828335 Si / 1000 Ang^3
#
#
#
# Elastic Constant Matrix: (Units=GPa)
#
#
# Indices 1 2 3 4 5 6 
#
# 1 82.1114 13.0606 16.6486 -11.5589 -4.1976 -17.8196
# 2 13.0606 122.1583 16.1533 17.6908 -1.6923 -19.0608
# 3 16.6486 16.1533 97.2387 15.0506 -22.6097 -11.1521
# 4 -11.5589 17.6908 15.0506 37.3363 -14.6657 -4.7554
# 5 -4.1976 -1.6923 -22.6097 -14.6657 52.7439 -8.7486
# 6 -17.8196 -19.0608 -11.1521 -4.7554 -8.7486 48.5466
#
#
#
# Elastic Compliance Matrix: (Units=1/GPa)
#
#
# Indices 1 2 3 4 5 6 
#
# 1 0.015627 -0.001640 -0.002196 0.008728 0.003690 0.006108
# 2 -0.001640 0.009490 -0.000504 -0.004902 -0.001016 0.002345
# 3 -0.002196 -0.000504 0.012633 -0.003387 0.004683 0.002410
# 4 0.008728 -0.004902 -0.003387 0.038172 0.010723 0.006173
# 5 0.003690 -0.001016 0.004683 0.010723 0.025482 0.007674
# 6 0.006108 0.002345 0.002410 0.006173 0.007674 0.026302
#
#
# Mechanical properties :
#
#
# Convention : Reuss Voigt Hill
#
# Bulk Modulus (GPa) = 34.39994 43.69260 39.04627
# Shear Modulus (GPa) = 34.22860 44.76841 39.49850
#
# Velocity S-wave (km/s) = 3.71699 4.25092 3.99289
# Velocity P-wave (km/s) = 5.68389 6.45986 6.08426
#
# Compressibility (1/GPa) = 0.02906981
#
# Stress axis : x y z
#
# Youngs Moduli (GPa) = 63.99057 105.37661 79.15713
#
# Poissons Ratio (x) = 0.17285 0.17380
# Poissons Ratio (y) = 0.10496 0.03992
# Poissons Ratio (z) = 0.14050 0.05314
#
# Static dielectric constant tensor:
#      x y z
#    x 2.094520 0.029690 0.044360 
#    y 0.029690 2.019830 -0.033380 
#    z 0.044360 -0.033380 1.977760 
# 
# From -- ./inp_files/70799.got.cif
#   From: 2010.05.17/outbox.cif.g08.bks.cpg/sg2_36_cif.got.tgz:70799.got - 2010.06.03 11:33:40.
