data_PCOD9064016
_publ_section_title
;
Structure prediction by ZEFSAII (Michael W. Deem and Ramdas Pophale) SiO2 
 PCOD9064016
Probable space group: P -1
;
_chemical_formula_sum "Si O2"
_cell_formula_units_Z 15
_cell_length_a 13.313531
_cell_length_b 14.291350
_cell_length_c 13.930596
_cell_angle_alpha 20.696959
_cell_angle_beta 41.787630
_cell_angle_gamma 39.570545
_cell_volume 593.197873
_symmetry_space_group_name_H-M "P -1"
_symmetry_group_IT_number 2
_symmetry_cell_setting 'triclinic'
loop_
_space_group_symop_operation_xyz
x,y,z
-x,-y,-z
loop_
_atom_site_type_symbol
_atom_site_label
_atom_site_fract_x
_atom_site_fract_y
_atom_site_fract_z
Si Si1 0.783047 0.307743 0.493738
Si Si2 0.169391 0.265049 0.091455
Si Si3 0.593347 0.489213 0.619719
Si Si4 0.299243 0.063301 0.809436
Si Si5 0.588347 0.876142 0.650868
Si Si6 0.074443 0.026054 0.690395
Si Si7 0.000000 0.000000 0.000000
Si Si8 0.707753 0.464634 0.099727
O O1 0.626777 0.338000 0.638956
O O2 0.824091 0.042712 0.647510
O O3 0.760922 0.591617 0.180287
O O4 0.928022 0.234435 0.537720
O O5 0.255985 0.280956 0.115113
O O6 0.000000 0.500000 0.000000
O O7 0.690763 0.710801 0.336823
O O8 0.411728 0.604434 0.673117
O O9 0.675102 0.244065 0.872571
O O10 0.457559 0.049128 0.652528
O O11 0.145659 0.132277 0.785832
O O12 0.614257 0.563949 0.970934
O O13 0.500000 0.000000 0.500000
O O14 0.765785 0.887750 0.506619
O O15 0.131226 0.756323 0.838398
O O16 0.032335 0.978588 0.876455
#
# Coordination Sequence:
#
# PCOD9064016 Si02
#       8
#     2   2   2   2   2   2   1   2
#     4  12  27  46  77 111 152 194 253 316 375 437
#     4  12  26  47  77 112 148 196 252 313 377 445
#     4  11  25  47  73 106 152 193 245 311 374 439
#     4  11  24  45  69 106 148 197 243 306 365 446
#     4  11  24  45  72 106 147 199 252 303 374 449
#     4  12  25  47  73 110 148 205 250 311 374 456
#     4  12  26  44  72 112 150 194 254 308 378 438
#     4  11  27  45  78 107 151 199 254 307 380 455
#
# _framework density 25.286671999999999
#
# number of rings (size 3 to 8) (size 9 to 14) (size 15 to 20)
#    0.000    0.533    5.333    2.000    1.867    3.200 
#    0.000    0.000    0.000    0.000    0.000    0.000 
#    0.000    0.000    0.000    0.000    0.000    0.000 
#
# Total GULP energy -83501.412973 kJ/mol
# GULP energy per Si atom -5566.760865 kJ/mol
# Density = 2.522912 g / cm^3
# Si number density = 25.286672 Si / 1000 Ang^3
#
#
#
# Elastic Constant Matrix: (Units=GPa)
#
#
# Indices 1 2 3 4 5 6 
#
# 1 123.3978 37.1573 27.3117 7.1829 8.4004 -13.3568
# 2 37.1573 142.3065 25.8923 24.1379 4.9638 1.4565
# 3 27.3117 25.8923 64.1491 6.7152 0.5501 -3.2126
# 4 7.1829 24.1379 6.7152 39.3867 4.1258 0.6592
# 5 8.4004 4.9638 0.5501 4.1258 40.7323 8.8313
# 6 -13.3568 1.4565 -3.2126 0.6592 8.8313 28.0875
#
#
#
# Elastic Compliance Matrix: (Units=1/GPa)
#
#
# Indices 1 2 3 4 5 6 
#
# 1 0.010241 -0.002065 -0.003241 0.000176 -0.003040 0.005558
# 2 -0.002065 0.008769 -0.002263 -0.004606 0.000213 -0.001654
# 3 -0.003241 -0.002263 0.018021 -0.001178 0.000725 0.000437
# 4 0.000176 -0.004606 -0.001178 0.028630 -0.002419 0.000276
# 5 -0.003040 0.000213 0.000725 -0.002419 0.027550 -0.009979
# 6 0.005558 -0.001654 0.000437 0.000276 -0.009979 0.041513
#
#
# Mechanical properties :
#
#
# Convention : Reuss Voigt Hill
#
# Bulk Modulus (GPa) = 45.67488 56.73068 51.20278
# Shear Modulus (GPa) = 31.81499 37.60744 34.71122
#
# Velocity S-wave (km/s) = 3.55092 3.86066 3.70903
# Velocity P-wave (km/s) = 5.90881 6.50820 6.21574
#
# Compressibility (1/GPa) = 0.02189387
#
# Stress axis : x y z
#
# Youngs Moduli (GPa) = 97.64383 114.04107 55.49188
#
# Poissons Ratio (x) = 0.23551 0.17983
# Poissons Ratio (y) = 0.20165 0.12556
# Poissons Ratio (z) = 0.31644 0.25803
#
# Static dielectric constant tensor:
#      x y z
#    x 1.540050 0.151280 -0.375110 
#    y 0.151280 2.091810 -0.017620 
#    z -0.375110 -0.017620 1.886320 
# 
# From -- ./inp_files/534008.got.cif
#   From: 2010.05.17/outbox.cif.g08.bks.cpg/sg2_268_cif.got.tgz:534008.got - 2010.06.03 11:33:40.
