data_PCOD9064238
_publ_section_title
;
Structure prediction by ZEFSAII (Michael W. Deem and Ramdas Pophale) SiO2 
 PCOD9064238
Probable space group: P -1
;
_chemical_formula_sum "Si O2"
_cell_formula_units_Z 16
_cell_length_a 23.916004
_cell_length_b 9.264352
_cell_length_c 21.458006
_cell_angle_alpha 151.542033
_cell_angle_beta 160.947529
_cell_angle_gamma 36.405105
_cell_volume 729.006044
_symmetry_space_group_name_H-M "P -1"
_symmetry_group_IT_number 2
_symmetry_cell_setting 'triclinic'
loop_
_space_group_symop_operation_xyz
x,y,z
-x,-y,-z
loop_
_atom_site_type_symbol
_atom_site_label
_atom_site_fract_x
_atom_site_fract_y
_atom_site_fract_z
Si Si1 0.767909 0.851335 0.073422
Si Si2 0.164982 0.042044 0.561044
Si Si3 0.195201 0.544030 0.305642
Si Si4 0.048868 0.995825 0.223779
Si Si5 0.366907 0.200892 0.958042
Si Si6 0.469360 0.764774 0.436603
Si Si7 0.410982 0.234138 0.647388
Si Si8 0.757297 0.274461 0.106492
O O1 0.729805 0.049545 0.050421
O O2 0.704920 0.942557 0.108032
O O3 0.679327 0.505237 0.842480
O O4 0.970647 0.878601 0.299572
O O5 0.178657 0.375729 0.669643
O O6 0.239853 0.778837 0.501550
O O7 0.227141 0.155533 0.738547
O O8 0.139277 0.782547 0.286120
O O9 0.364920 0.382331 0.422674
O O10 0.044513 0.240468 0.018037
O O11 0.214136 0.241899 0.465743
O O12 0.898353 0.152501 0.161114
O O13 0.488696 0.533147 0.210616
O O14 0.500000 0.000000 0.000000
O O15 0.500000 0.000000 0.500000
O O16 0.399820 0.910420 0.479657
O O17 0.563373 0.266095 0.871353
#
# Coordination Sequence:
#
# PCOD9064238 Si02
#       8
#     2   2   2   2   2   2   2   2
#     4  12  24  45  74 102 141 192 231 302 365 424
#     4  11  25  45  73 107 141 189 240 302 365 436
#     4  11  24  45  72 109 145 184 250 304 361 430
#     4  11  24  45  77 110 144 187 247 306 364 437
#     4  11  26  46  66 101 145 189 244 294 364 436
#     4  12  25  46  70 101 152 196 244 296 364 437
#     4  11  25  46  70 107 144 197 238 301 368 431
#     4  11  25  47  78 109 150 183 244 305 370 438
#
# _framework density 21.947690999999999
#
# number of rings (size 3 to 8) (size 9 to 14) (size 15 to 20)
#    0.000    0.750    3.750    3.000    3.500    1.000 
#    2.250    4.375    0.000    0.000    0.000    0.000 
#    0.000    0.000    0.000    0.000    0.000    0.000 
#
# Total GULP energy -89093.372704 kJ/mol
# GULP energy per Si atom -5568.335794 kJ/mol
# Density = 2.189774 g / cm^3
# Si number density = 21.947691 Si / 1000 Ang^3
#
#
#
# Elastic Constant Matrix: (Units=GPa)
#
#
# Indices 1 2 3 4 5 6 
#
# 1 135.9055 0.8782 67.7842 40.1784 43.6801 -80.0415
# 2 0.8782 76.4510 8.8095 -29.8120 -5.5608 15.4105
# 3 67.7842 8.8095 177.3508 32.9240 42.2492 -60.3129
# 4 40.1784 -29.8120 32.9240 98.1719 20.1420 -40.9791
# 5 43.6801 -5.5608 42.2492 20.1420 58.1414 -44.2461
# 6 -80.0415 15.4105 -60.3129 -40.9791 -44.2461 123.5911
#
#
#
# Elastic Compliance Matrix: (Units=1/GPa)
#
#
# Indices 1 2 3 4 5 6 
#
# 1 0.013862 -0.002468 -0.001675 -0.002455 -0.003791 0.006297
# 2 -0.002468 0.015941 -0.001900 0.005270 0.001140 -0.002358
# 3 -0.001675 -0.001900 0.007836 -0.001284 -0.003067 0.001452
# 4 -0.002455 0.005270 -0.001284 0.013973 -0.000303 0.001651
# 5 -0.003791 0.001140 -0.003067 -0.000303 0.026525 0.005302
# 6 0.006297 -0.002358 0.001452 0.001651 0.005302 0.015617
#
#
# Mechanical properties :
#
#
# Convention : Reuss Voigt Hill
#
# Bulk Modulus (GPa) = 39.13721 60.51681 49.82701
# Shear Modulus (GPa) = 43.72170 76.79656 60.25913
#
# Velocity S-wave (km/s) = 4.46812 5.92171 5.24551
# Velocity P-wave (km/s) = 6.67005 8.62488 7.70968
#
# Compressibility (1/GPa) = 0.02555113
#
# Stress axis : x y z
#
# Youngs Moduli (GPa) = 72.13889 62.73161 127.61278
#
# Poissons Ratio (x) = 0.15485 0.21381
# Poissons Ratio (y) = 0.17807 0.24249
# Poissons Ratio (z) = 0.12087 0.11920
#
# Static dielectric constant tensor:
#      x y z
#    x 1.849600 0.056610 -0.026400 
#    y 0.056610 1.977050 0.002290 
#    z -0.026400 0.002290 1.749370 
# 
# From -- ./inp_files/601977.got.cif
#   From: 2010.05.17/outbox.cif.g08.bks.cpg/sg2_301_cif.got.tgz:601977.got - 2010.06.03 11:33:40.
