data_PCOD9064759
_publ_section_title
;
Structure prediction by ZEFSAII (Michael W. Deem and Ramdas Pophale) SiO2 
 PCOD9064759
Probable space group: P -1
;
_chemical_formula_sum "Si O2"
_cell_formula_units_Z 16
_cell_length_a 8.936643
_cell_length_b 9.052728
_cell_length_c 11.445780
_cell_angle_alpha 88.928029
_cell_angle_beta 81.309661
_cell_angle_gamma 133.111981
_cell_volume 658.605328
_symmetry_space_group_name_H-M "P -1"
_symmetry_group_IT_number 2
_symmetry_cell_setting 'triclinic'
loop_
_space_group_symop_operation_xyz
x,y,z
-x,-y,-z
loop_
_atom_site_type_symbol
_atom_site_label
_atom_site_fract_x
_atom_site_fract_y
_atom_site_fract_z
Si Si1 0.143784 0.763084 0.272743
Si Si2 0.938185 0.783354 0.497283
Si Si3 0.841490 0.260343 0.006339
Si Si4 0.575908 0.207442 0.223194
Si Si5 0.376445 0.628012 0.325728
Si Si6 0.119430 0.205109 0.054465
Si Si7 0.317334 0.933859 0.606400
Si Si8 0.490037 0.451515 0.156685
O O1 0.964190 0.726825 0.366675
O O2 0.139888 0.768010 0.131878
O O3 0.206348 0.639356 0.310068
O O4 0.347957 0.994124 0.282346
O O5 0.722505 0.568312 0.578621
O O6 0.113749 0.829560 0.558596
O O7 0.000000 0.000000 0.500000
O O8 0.934781 0.198884 0.082168
O O9 0.627952 0.181516 0.087076
O O10 0.000000 0.500000 0.000000
O O11 0.573182 0.379983 0.232014
O O12 0.727175 0.226908 0.294016
O O13 0.577099 0.850337 0.350709
O O14 0.456562 0.593007 0.204482
O O15 0.318031 0.411400 0.959823
O O16 0.253921 0.240546 0.148368
O O17 0.000000 0.000000 0.000000
O O18 0.500000 0.000000 0.500000
#
# Coordination Sequence:
#
# PCOD9064759 Si02
#       8
#     2   2   2   2   2   2   2   2
#     4  11  25  46  71 105 144 190 238 294 364 420
#     4  12  27  50  76 107 144 189 242 303 359 430
#     4  12  25  43  70 108 138 193 235 289 356 431
#     4  11  24  46  73 100 147 185 239 293 351 434
#     4  11  26  43  78 104 144 188 238 304 357 423
#     4  11  26  43  69 100 150 186 240 289 355 423
#     4  11  26  49  74 105 140 189 244 292 368 423
#     4  11  25  46  67 108 145 187 237 297 360 421
#
# _framework density 24.293759000000001
#
# number of rings (size 3 to 8) (size 9 to 14) (size 15 to 20)
#    0.000    0.750    3.750    3.000    8.750    1.500 
#    0.000    0.000    0.000    0.000    0.000    0.000 
#    0.000    0.000    0.000    0.000    0.000    0.000 
#
# Total GULP energy -89341.001572 kJ/mol
# GULP energy per Si atom -5583.812598 kJ/mol
# Density = 2.423847 g / cm^3
# Si number density = 24.293759 Si / 1000 Ang^3
#
#
#
# Elastic Constant Matrix: (Units=GPa)
#
#
# Indices 1 2 3 4 5 6 
#
# 1 76.6318 30.4272 21.3337 9.4009 4.1278 -25.3325
# 2 30.4272 80.1215 -5.1241 11.2772 16.5730 -4.7213
# 3 21.3337 -5.1241 79.5218 11.4537 1.3139 -6.9450
# 4 9.4009 11.2772 11.4537 41.4975 -0.0450 7.0781
# 5 4.1278 16.5730 1.3139 -0.0450 38.0597 5.1998
# 6 -25.3325 -4.7213 -6.9450 7.0781 5.1998 46.2964
#
#
#
# Elastic Compliance Matrix: (Units=1/GPa)
#
#
# Indices 1 2 3 4 5 6 
#
# 1 0.021183 -0.007133 -0.004708 -0.003392 -0.000499 0.010732
# 2 -0.007133 0.017435 0.003733 -0.004134 -0.006931 -0.000154
# 3 -0.004708 0.003733 0.014784 -0.004177 -0.001747 0.000857
# 4 -0.003392 -0.004134 -0.004177 0.028448 0.003389 -0.007634
# 5 -0.000499 -0.006931 -0.001747 0.003389 0.030114 -0.005143
# 6 0.010732 -0.000154 0.000857 -0.007634 -0.005143 0.029330
#
#
# Mechanical properties :
#
#
# Convention : Reuss Voigt Hill
#
# Bulk Modulus (GPa) = 26.89111 36.61651 31.75381
# Shear Modulus (GPa) = 29.42832 37.81328 33.62080
#
# Velocity S-wave (km/s) = 3.48423 3.94953 3.72415
# Velocity P-wave (km/s) = 5.22299 5.99196 5.62064
#
# Compressibility (1/GPa) = 0.03718701
#
# Stress axis : x y z
#
# Youngs Moduli (GPa) = 47.20795 57.35613 67.64002
#
# Poissons Ratio (x) = 0.40909 0.31847
# Poissons Ratio (y) = 0.33671 -0.25253
# Poissons Ratio (z) = 0.22227 -0.21413
#
# Static dielectric constant tensor:
#      x y z
#    x 1.911740 0.053240 0.044450 
#    y 0.053240 1.950430 -0.037860 
#    z 0.044450 -0.037860 2.047540 
# 
# From -- ./inp_files/382284.got.cif
#   From: 2010.05.17/outbox.cif.g08.bks.cpg/sg2_192_cif.got.tgz:382284.got - 2010.06.03 11:33:40.
