data_PCOD9064299
_publ_section_title
;
Structure prediction by ZEFSAII (Michael W. Deem and Ramdas Pophale) SiO2 
 PCOD9064299
Probable space group: P -1
;
_chemical_formula_sum "Si O2"
_cell_formula_units_Z 12
_cell_length_a 14.501652
_cell_length_b 5.386620
_cell_length_c 8.820434
_cell_angle_alpha 96.839722
_cell_angle_beta 59.596964
_cell_angle_gamma 67.855378
_cell_volume 507.333624
_symmetry_space_group_name_H-M "P -1"
_symmetry_group_IT_number 2
_symmetry_cell_setting 'triclinic'
loop_
_space_group_symop_operation_xyz
x,y,z
-x,-y,-z
loop_
_atom_site_type_symbol
_atom_site_label
_atom_site_fract_x
_atom_site_fract_y
_atom_site_fract_z
Si Si1 0.630918 0.321981 0.960081
Si Si2 0.818194 0.739389 0.848560
Si Si3 0.367760 0.588215 0.684634
Si Si4 0.966846 0.216405 0.184018
Si Si5 0.132980 0.748631 0.427547
Si Si6 0.223744 0.275503 0.789606
O O1 0.744220 0.287239 0.758006
O O2 0.679523 0.987483 0.938278
O O3 0.500000 0.500000 0.000000
O O4 0.620871 0.447720 0.145382
O O5 0.866257 0.538976 0.648420
O O6 0.909646 0.852961 0.832393
O O7 0.814547 0.592948 0.998277
O O8 0.500000 0.500000 0.500000
O O9 0.318586 0.374830 0.659537
O O10 0.279392 0.931536 0.739249
O O11 0.873861 0.209826 0.384109
O O12 0.896603 0.545995 0.202298
O O13 0.000000 0.000000 0.000000
O O14 0.000000 0.000000 0.500000
#
# Coordination Sequence:
#
# PCOD9064299 Si02
#       6
#     2   2   2   2   2   2
#     4  11  26  47  71 104 146 198 250 301 370 448
#     4  11  24  49  71 105 150 192 243 313 370 449
#     4  11  25  48  72 103 150 196 250 306 371 445
#     4  12  25  44  75 112 147 190 252 309 380 446
#     4  12  25  46  76 104 150 192 248 306 378 439
#     4  11  24  45  73 106 146 192 247 311 373 442
#
# _framework density 23.653077
#
# number of rings (size 3 to 8) (size 9 to 14) (size 15 to 20)
#    0.000    0.667    3.333    4.500    2.333    3.333 
#    0.000    0.000    0.000    0.000    0.000    0.000 
#    0.000    0.000    0.000    0.000    0.000    0.000 
#
# Total GULP energy -67028.092847 kJ/mol
# GULP energy per Si atom -5585.674404 kJ/mol
# Density = 2.359924 g / cm^3
# Si number density = 23.653077 Si / 1000 Ang^3
#
#
#
# Elastic Constant Matrix: (Units=GPa)
#
#
# Indices 1 2 3 4 5 6 
#
# 1 112.2418 60.7640 52.0751 3.9026 -14.8119 -20.0051
# 2 60.7640 101.7689 22.7694 -5.6243 -1.5849 -38.9525
# 3 52.0751 22.7694 172.0306 -19.4515 -14.6117 -8.8341
# 4 3.9026 -5.6243 -19.4515 42.5661 8.5063 -4.4191
# 5 -14.8119 -1.5849 -14.6117 8.5063 47.9511 0.1647
# 6 -20.0051 -38.9525 -8.8341 -4.4191 0.1647 51.9168
#
#
#
# Elastic Compliance Matrix: (Units=1/GPa)
#
#
# Indices 1 2 3 4 5 6 
#
# 1 0.016781 -0.010309 -0.004123 -0.005974 0.004655 -0.002493
# 2 -0.010309 0.020671 0.001453 0.006262 -0.003212 0.012327
# 3 -0.004123 0.001453 0.007405 0.004005 0.000317 0.001101
# 4 -0.005974 0.006262 0.004005 0.028363 -0.005468 0.005509
# 5 0.004655 -0.003212 0.000317 -0.005468 0.023257 -0.001101
# 6 -0.002493 0.012327 0.001101 0.005509 -0.001101 0.028209
#
#
# Mechanical properties :
#
#
# Convention : Reuss Voigt Hill
#
# Bulk Modulus (GPa) = 52.91635 73.02872 62.97253
# Shear Modulus (GPa) = 31.85857 45.18231 38.52044
#
# Velocity S-wave (km/s) = 3.67401 4.37533 4.03992
# Velocity P-wave (km/s) = 6.35753 7.51443 6.96006
#
# Compressibility (1/GPa) = 0.01889775
#
# Stress axis : x y z
#
# Youngs Moduli (GPa) = 59.59140 48.37782 135.04223
#
# Poissons Ratio (x) = 0.49873 0.55684
# Poissons Ratio (y) = 0.61433 -0.19622
# Poissons Ratio (z) = 0.24572 -0.07029
#
# Static dielectric constant tensor:
#      x y z
#    x 1.953120 0.076950 -0.008190 
#    y 0.076950 1.958610 -0.029160 
#    z -0.008190 -0.029160 1.930400 
# 
# From -- ./inp_files/23208.got.cif
#   From: 2010.05.17/outbox.cif.g08.bks.cpg/sg2_12_cif.got.tgz:23208.got - 2010.06.03 11:33:40.
