data_PCOD9064031
_publ_section_title
;
Structure prediction by ZEFSAII (Michael W. Deem and Ramdas Pophale) SiO2 
 PCOD9064031
Probable space group: P -1
;
_chemical_formula_sum "Si O2"
_cell_formula_units_Z 12
_cell_length_a 9.575637
_cell_length_b 13.788906
_cell_length_c 9.390683
_cell_angle_alpha 56.907092
_cell_angle_beta 86.010973
_cell_angle_gamma 131.657617
_cell_volume 561.066792
_symmetry_space_group_name_H-M "P -1"
_symmetry_group_IT_number 2
_symmetry_cell_setting 'triclinic'
loop_
_space_group_symop_operation_xyz
x,y,z
-x,-y,-z
loop_
_atom_site_type_symbol
_atom_site_label
_atom_site_fract_x
_atom_site_fract_y
_atom_site_fract_z
Si Si1 0.906592 0.837142 0.751792
Si Si2 0.348175 0.523408 0.150311
Si Si3 0.740026 0.332123 0.560880
Si Si4 0.927496 0.439973 0.891489
Si Si5 0.252073 0.404362 0.572776
Si Si6 0.821497 0.105008 0.064561
O O1 0.807533 0.655753 0.815962
O O2 0.116394 0.938935 0.772276
O O3 0.650306 0.703665 0.961093
O O4 0.000000 0.000000 0.500000
O O5 0.302111 0.628969 0.063033
O O6 0.229466 0.402008 0.407181
O O7 0.681520 0.426568 0.497500
O O8 0.000000 0.500000 0.500000
O O9 0.826128 0.348432 0.387932
O O10 0.470569 0.089961 0.813798
O O11 0.881684 0.276723 0.977186
O O12 0.000000 0.500000 0.000000
O O13 0.500000 0.500000 0.500000
O O14 0.002255 0.193084 0.849092
#
# Coordination Sequence:
#
# PCOD9064031 Si02
#       6
#     2   2   2   2   2   2
#     4  11  26  42  69 105 139 176 228 283 341 415
#     4  11  24  47  68 100 142 179 224 285 342 402
#     4  11  26  46  64 100 138 177 234 287 335 404
#     4  11  24  45  69  99 139 182 226 284 339 415
#     4  11  24  45  69  99 139 182 226 284 339 415
#     4  11  26  44  72 102 136 186 230 281 352 402
#
# _framework density 21.387827000000001
#
# number of rings (size 3 to 8) (size 9 to 14) (size 15 to 20)
#    0.000    1.000    5.000    0.000    4.667    6.667 
#    0.000    0.000    0.000    0.000    0.000    0.000 
#    0.000    0.000    0.000    0.000    0.000    0.000 
#
# Total GULP energy -66981.088392 kJ/mol
# GULP energy per Si atom -5581.757366 kJ/mol
# Density = 2.133915 g / cm^3
# Si number density = 21.387827 Si / 1000 Ang^3
#
#
#
# Elastic Constant Matrix: (Units=GPa)
#
#
# Indices 1 2 3 4 5 6 
#
# 1 152.8894 36.2830 46.5668 8.1380 -14.5872 8.0958
# 2 36.2830 75.1343 58.6409 13.5776 -21.2328 20.4641
# 3 46.5668 58.6409 136.1334 16.7900 -22.3508 15.1114
# 4 8.1380 13.5776 16.7900 43.0895 -0.1804 -3.3048
# 5 -14.5872 -21.2328 -22.3508 -0.1804 39.0594 8.2150
# 6 8.0958 20.4641 15.1114 -3.3048 8.2150 29.5924
#
#
#
# Elastic Compliance Matrix: (Units=1/GPa)
#
#
# Indices 1 2 3 4 5 6 
#
# 1 0.007613 -0.002303 -0.001481 -0.000128 0.000732 0.000049
# 2 -0.002303 0.033573 -0.006553 -0.009472 0.018973 -0.025565
# 3 -0.001481 -0.006553 0.011700 -0.002366 0.003019 -0.002140
# 4 -0.000128 -0.009472 -0.002366 0.028135 -0.009261 0.013506
# 5 0.000732 0.018973 0.003019 -0.009261 0.043774 -0.028049
# 6 0.000049 -0.025565 -0.002140 0.013506 -0.028049 0.061846
#
#
# Mechanical properties :
#
#
# Convention : Reuss Voigt Hill
#
# Bulk Modulus (GPa) = 31.04547 71.90428 51.47488
# Shear Modulus (GPa) = 22.93034 37.19271 30.06152
#
# Velocity S-wave (km/s) = 3.27788 4.17462 3.75313
# Velocity P-wave (km/s) = 5.37336 7.54512 6.54988
#
# Compressibility (1/GPa) = 0.03221082
#
# Stress axis : x y z
#
# Youngs Moduli (GPa) = 131.36226 29.78614 85.46888
#
# Poissons Ratio (x) = 0.06861 0.12660
# Poissons Ratio (y) = 0.30257 0.56005
# Poissons Ratio (z) = 0.19458 0.19518
#
# Static dielectric constant tensor:
#      x y z
#    x 1.800980 0.046070 0.038460 
#    y 0.046070 1.772020 0.020480 
#    z 0.038460 0.020480 1.820370 
# 
# From -- ./inp_files/35163.got.cif
#   From: 2010.05.17/outbox.cif.g08.bks.cpg/sg2_18_cif.got.tgz:35163.got - 2010.06.03 11:33:40.
