data_PCOD9064954
_publ_section_title
;
Structure prediction by ZEFSAII (Michael W. Deem and Ramdas Pophale) SiO2 
 PCOD9064954
Probable space group: P -1
;
_chemical_formula_sum "Si O2"
_cell_formula_units_Z 15
_cell_length_a 21.133650
_cell_length_b 9.438897
_cell_length_c 11.492685
_cell_angle_alpha 140.944880
_cell_angle_beta 28.492598
_cell_angle_gamma 149.108563
_cell_volume 559.151981
_symmetry_space_group_name_H-M "P -1"
_symmetry_group_IT_number 2
_symmetry_cell_setting 'triclinic'
loop_
_space_group_symop_operation_xyz
x,y,z
-x,-y,-z
loop_
_atom_site_type_symbol
_atom_site_label
_atom_site_fract_x
_atom_site_fract_y
_atom_site_fract_z
Si Si1 0.384877 0.633907 0.876221
Si Si2 0.831552 0.884846 0.264860
Si Si3 0.500000 0.000000 0.500000
Si Si4 0.494912 0.420257 0.739921
Si Si5 0.947613 0.283204 0.767470
Si Si6 0.853375 0.636626 0.287484
Si Si7 0.140919 0.588402 0.422410
Si Si8 0.420178 0.085053 0.942114
O O1 0.289885 0.409916 0.786325
O O2 0.504658 0.572023 0.703346
O O3 0.430421 0.915907 0.924257
O O4 0.264485 0.560525 0.132279
O O5 0.858590 0.859196 0.340345
O O6 0.784020 0.095992 0.462856
O O7 0.000000 0.000000 0.000000
O O8 0.368807 0.094696 0.745786
O O9 0.508927 0.951740 0.311378
O O10 0.655987 0.409166 0.486528
O O11 0.494545 0.601562 0.956172
O O12 0.040201 0.239066 0.690352
O O13 0.065884 0.416674 0.551071
O O14 0.915680 0.495517 0.015681
O O15 0.769622 0.041983 0.854090
O O16 0.000000 0.500000 0.500000
#
# Coordination Sequence:
#
# PCOD9064954 Si02
#       8
#     2   2   1   2   2   2   2   2
#     4  12  27  48  76 113 149 197 250 306 374 444
#     4  12  22  43  74 109 149 194 246 304 371 434
#     4  12  28  50  72 104 154 196 244 302 372 456
#     4  12  29  49  77 105 151 200 250 305 373 450
#     4  11  24  46  77 106 148 191 244 308 374 431
#     4  11  24  47  72 107 148 196 240 306 371 443
#     4  12  23  46  76 113 150 187 250 310 364 446
#     4  12  25  52  74 112 146 195 250 307 374 444
#
# _framework density 26.826339000000001
#
# number of rings (size 3 to 8) (size 9 to 14) (size 15 to 20)
#    0.000    0.267    6.667    1.600    0.000    8.000 
#    0.000    0.000    0.000    0.000    0.000    0.000 
#    0.000    0.000    0.000    0.000    0.000    0.000 
#
# Total GULP energy -83992.328266 kJ/mol
# GULP energy per Si atom -5599.488551 kJ/mol
# Density = 2.676528 g / cm^3
# Si number density = 26.826339 Si / 1000 Ang^3
#
#
#
# Elastic Constant Matrix: (Units=GPa)
#
#
# Indices 1 2 3 4 5 6 
#
# 1 202.7086 49.7600 67.5621 -8.6486 -2.2388 -32.7689
# 2 49.7600 84.2617 46.9728 18.7089 6.9584 -22.0334
# 3 67.5621 46.9728 149.7144 -0.3775 16.3802 -9.5901
# 4 -8.6486 18.7089 -0.3775 57.9558 -1.2732 12.8044
# 5 -2.2388 6.9584 16.3802 -1.2732 53.4931 -7.4701
# 6 -32.7689 -22.0334 -9.5901 12.8044 -7.4701 46.0213
#
#
#
# Elastic Compliance Matrix: (Units=1/GPa)
#
#
# Indices 1 2 3 4 5 6 
#
# 1 0.006881 -0.002243 -0.002382 0.001039 0.001799 0.003332
# 2 -0.002243 0.020428 -0.004782 -0.009106 -0.000150 0.009695
# 3 -0.002382 -0.004782 0.009365 0.001850 -0.002719 -0.002990
# 4 0.001039 -0.009106 0.001850 0.022458 -0.000131 -0.009504
# 5 0.001799 -0.000150 -0.002719 -0.000131 0.020170 0.003953
# 6 0.003332 0.009695 -0.002990 -0.009504 0.003953 0.031406
#
#
# Mechanical properties :
#
#
# Convention : Reuss Voigt Hill
#
# Bulk Modulus (GPa) = 55.99626 85.03050 70.51338
# Shear Modulus (GPa) = 36.90673 49.65335 43.28004
#
# Velocity S-wave (km/s) = 3.71315 4.30690 4.02100
# Velocity P-wave (km/s) = 6.26915 7.51651 6.92099
#
# Compressibility (1/GPa) = 0.01785834
#
# Stress axis : x y z
#
# Youngs Moduli (GPa) = 145.33627 48.95244 106.77625
#
# Poissons Ratio (x) = 0.10982 0.25434
# Poissons Ratio (y) = 0.32605 0.51065
# Poissons Ratio (z) = 0.34618 0.23411
#
# Static dielectric constant tensor:
#      x y z
#    x 2.086900 -0.013420 -0.126270 
#    y -0.013420 3.010450 0.034090 
#    z -0.126270 0.034090 2.122760 
# 
# From -- ./inp_files/469636.got.cif
#   From: 2010.05.17/outbox.cif.g08.bks.cpg/sg2_235_cif.got.tgz:469636.got - 2010.06.03 11:33:40.
