data_PCOD9064440
_publ_section_title
;
Structure prediction by ZEFSAII (Michael W. Deem and Ramdas Pophale) SiO2 
 PCOD9064440
Probable space group: P -1
;
_chemical_formula_sum "Si O2"
_cell_formula_units_Z 10
_cell_length_a 12.645129
_cell_length_b 15.017271
_cell_length_c 22.472115
_cell_angle_alpha 18.850072
_cell_angle_beta 21.194476
_cell_angle_gamma 29.708546
_cell_volume 494.977145
_symmetry_space_group_name_H-M "P -1"
_symmetry_group_IT_number 2
_symmetry_cell_setting 'triclinic'
loop_
_space_group_symop_operation_xyz
x,y,z
-x,-y,-z
loop_
_atom_site_type_symbol
_atom_site_label
_atom_site_fract_x
_atom_site_fract_y
_atom_site_fract_z
Si Si1 0.308697 0.504020 0.157406
Si Si2 0.227442 0.469006 0.829350
Si Si3 0.721484 0.073731 0.391891
Si Si4 0.794083 0.858152 0.750518
Si Si5 0.661139 0.403261 0.535386
O O1 0.982671 0.570757 0.270606
O O2 0.285342 0.201443 0.391137
O O3 0.500000 0.500000 0.000000
O O4 0.491903 0.717941 0.969723
O O5 0.357337 0.670414 0.687239
O O6 0.463311 0.426375 0.682383
O O7 0.975757 0.633008 0.827691
O O8 0.048708 0.185371 0.126245
O O9 0.500000 0.000000 0.500000
O O10 0.723773 0.091349 0.685764
O O11 0.000000 0.000000 0.500000
O O12 0.500000 0.500000 0.500000
#
# Coordination Sequence:
#
# PCOD9064440 Si02
#       5
#     2   2   2   2   2
#     4  12  24  44  73 101 137 185 232 280 347 410
#     4  11  24  46  70 101 142 181 229 285 347 407
#     4  11  24  45  75  99 139 187 224 287 350 407
#     4  12  22  45  69  99 142 180 227 288 342 403
#     4  12  26  43  71 107 138 182 234 288 338 413
#
# _framework density 20.202953000000001
#
# number of rings (size 3 to 8) (size 9 to 14) (size 15 to 20)
#    0.000    0.400    8.000    0.000    0.000    3.200 
#    0.000    2.000    0.000    0.000    0.000    0.000 
#    0.000    0.000    0.000    0.000    0.000    0.000 
#
# Total GULP energy -55941.517605 kJ/mol
# GULP energy per Si atom -5594.151761 kJ/mol
# Density = 2.015697 g / cm^3
# Si number density = 20.202953 Si / 1000 Ang^3
#
#
#
# Elastic Constant Matrix: (Units=GPa)
#
#
# Indices 1 2 3 4 5 6 
#
# 1 156.3211 50.4964 80.0393 16.7807 -20.9281 10.3111
# 2 50.4964 86.6508 52.3944 34.5735 -5.9986 12.0695
# 3 80.0393 52.3944 157.2321 14.5076 -2.6263 4.3343
# 4 16.7807 34.5735 14.5076 38.0998 4.0263 12.5687
# 5 -20.9281 -5.9986 -2.6263 4.0263 57.3394 -4.2569
# 6 10.3111 12.0695 4.3343 12.5687 -4.2569 44.6901
#
#
#
# Elastic Compliance Matrix: (Units=1/GPa)
#
#
# Indices 1 2 3 4 5 6 
#
# 1 0.009851 -0.002945 -0.003939 -0.000249 0.003070 -0.000733
# 2 -0.002945 0.023692 -0.004626 -0.018792 0.002530 0.000256
# 3 -0.003939 -0.004626 0.009657 0.002285 -0.001608 0.000426
# 4 -0.000249 -0.018792 0.002285 0.045983 -0.005818 -0.008575
# 5 0.003070 0.002530 -0.001608 -0.005818 0.019327 0.002241
# 6 -0.000733 0.000256 0.000426 -0.008575 0.002241 0.025060
#
#
# Mechanical properties :
#
#
# Convention : Reuss Voigt Hill
#
# Bulk Modulus (GPa) = 49.55558 85.11824 67.33691
# Shear Modulus (GPa) = 30.61515 42.51079 36.56297
#
# Velocity S-wave (km/s) = 3.89701 4.59212 4.25877
# Velocity P-wave (km/s) = 6.69560 8.38688 7.58851
#
# Compressibility (1/GPa) = 0.02017936
#
# Stress axis : x y z
#
# Youngs Moduli (GPa) = 101.50802 42.20868 103.54780
#
# Poissons Ratio (x) = 0.12431 0.40787
# Poissons Ratio (y) = 0.29896 0.47906
# Poissons Ratio (z) = 0.39984 0.19528
#
# Static dielectric constant tensor:
#      x y z
#    x 1.762240 -0.028050 0.004220 
#    y -0.028050 1.711370 -0.046720 
#    z 0.004220 -0.046720 1.762690 
# 
# From -- ./inp_files/33941.got.cif
#   From: 2010.05.17/outbox.cif.g08.bks.cpg/sg2_17_cif.got.tgz:33941.got - 2010.06.03 11:33:40.
