data_PCOD9064107
_publ_section_title
;
Structure prediction by ZEFSAII (Michael W. Deem and Ramdas Pophale) SiO2 
 PCOD9064107
Probable space group: P -1
;
_chemical_formula_sum "Si O2"
_cell_formula_units_Z 16
_cell_length_a 11.351775
_cell_length_b 11.460170
_cell_length_c 8.335568
_cell_angle_alpha 47.502127
_cell_angle_beta 117.743359
_cell_angle_gamma 93.675008
_cell_volume 653.454010
_symmetry_space_group_name_H-M "P -1"
_symmetry_group_IT_number 2
_symmetry_cell_setting 'triclinic'
loop_
_space_group_symop_operation_xyz
x,y,z
-x,-y,-z
loop_
_atom_site_type_symbol
_atom_site_label
_atom_site_fract_x
_atom_site_fract_y
_atom_site_fract_z
Si Si1 0.583548 0.229476 0.384176
Si Si2 0.887742 0.938333 0.891228
Si Si3 0.154953 0.481217 0.048738
Si Si4 0.407071 0.135751 0.589227
Si Si5 0.629811 0.142824 0.976696
Si Si6 0.159236 0.387915 0.763732
Si Si7 0.436432 0.435549 0.783525
Si Si8 0.916401 0.160046 0.184915
O O1 0.471132 0.146890 0.446085
O O2 0.576295 0.371974 0.380646
O O3 0.747025 0.098603 0.600441
O O4 0.525298 0.331749 0.090023
O O5 0.972575 0.834548 0.885079
O O6 0.830571 0.806494 0.064321
O O7 0.000000 0.000000 0.000000
O O8 0.278627 0.319953 0.361189
O O9 0.171716 0.442272 0.905575
O O10 0.156707 0.665656 0.922470
O O11 0.000000 0.500000 0.000000
O O12 0.353544 0.986914 0.742637
O O13 0.546171 0.095114 0.827008
O O14 0.786718 0.129246 0.043681
O O15 0.527416 0.332613 0.788458
O O16 0.280991 0.422830 0.707213
O O17 0.000000 0.500000 0.500000
O O18 0.000000 0.000000 0.500000
#
# Coordination Sequence:
#
# PCOD9064107 Si02
#       8
#     2   2   2   2   2   2   2   2
#     4  11  24  45  71 101 140 179 235 285 347 417
#     4  12  27  46  71 104 144 188 232 293 351 420
#     4  12  26  48  73 102 143 188 238 289 357 421
#     4  11  25  47  71 105 142 182 235 287 351 421
#     4  11  26  44  72 106 142 183 230 292 348 417
#     4  12  28  47  72 105 141 187 237 295 353 419
#     4  11  25  43  72 104 137 183 230 289 347 414
#     4  12  27  45  73 106 144 189 236 291 351 418
#
# _framework density 24.485272999999999
#
# number of rings (size 3 to 8) (size 9 to 14) (size 15 to 20)
#    0.000    0.500    2.500    4.500    8.750    5.000 
#    0.000    0.000    0.000    0.000    0.000    0.000 
#    0.000    0.000    0.000    0.000    0.000    0.000 
#
# Total GULP energy -89696.304341 kJ/mol
# GULP energy per Si atom -5606.019021 kJ/mol
# Density = 2.442954 g / cm^3
# Si number density = 24.485273 Si / 1000 Ang^3
#
#
#
# Elastic Constant Matrix: (Units=GPa)
#
#
# Indices 1 2 3 4 5 6 
#
# 1 104.1281 -4.0192 23.8570 -15.9876 23.5123 -0.9837
# 2 -4.0192 85.1667 26.7790 -30.7572 2.7585 -5.1483
# 3 23.8570 26.7790 125.4596 -18.9459 28.3125 10.2343
# 4 -15.9876 -30.7572 -18.9459 37.8819 1.8792 -1.5687
# 5 23.5123 2.7585 28.3125 1.8792 49.7887 -2.9742
# 6 -0.9837 -5.1483 10.2343 -1.5687 -2.9742 31.0507
#
#
#
# Elastic Compliance Matrix: (Units=1/GPa)
#
#
# Indices 1 2 3 4 5 6 
#
# 1 0.012668 0.004275 -0.000720 0.008809 -0.006070 0.001211
# 2 0.004275 0.018899 -0.002290 0.016300 -0.002101 0.004646
# 3 -0.000720 -0.002290 0.010838 0.003377 -0.006085 -0.004387
# 4 0.008809 0.016300 0.003377 0.045600 -0.008504 0.003358
# 5 -0.006070 -0.002101 -0.006085 -0.008504 0.027066 0.003628
# 6 0.001211 0.004646 -0.004387 0.003358 0.003628 0.034977
#
#
# Mechanical properties :
#
#
# Convention : Reuss Voigt Hill
#
# Bulk Modulus (GPa) = 22.25464 45.33199 33.79331
# Shear Modulus (GPa) = 30.76996 41.62009 36.19502
#
# Velocity S-wave (km/s) = 3.54880 4.12734 3.84896
# Velocity P-wave (km/s) = 5.08928 6.42397 5.79518
#
# Compressibility (1/GPa) = 0.04493446
#
# Stress axis : x y z
#
# Youngs Moduli (GPa) = 78.93859 52.91235 92.27152
#
# Poissons Ratio (x) = -0.22622 0.06646
# Poissons Ratio (y) = -0.33749 0.21132
# Poissons Ratio (z) = 0.05686 0.12118
#
# Static dielectric constant tensor:
#      x y z
#    x 1.916150 0.013190 -0.050160 
#    y 0.013190 1.996470 0.006620 
#    z -0.050160 0.006620 1.906370 
# 
# From -- ./inp_files/243415.got.cif
#   From: 2010.05.17/outbox.cif.g08.bks.cpg/sg2_122_cif.got.tgz:243415.got - 2010.06.03 11:33:40.
