data_PCOD9064501
_publ_section_title
;
Structure prediction by ZEFSAII (Michael W. Deem and Ramdas Pophale) SiO2 
 PCOD9064501
Probable space group: P -1
;
_chemical_formula_sum "Si O2"
_cell_formula_units_Z 15
_cell_length_a 8.611929
_cell_length_b 9.151032
_cell_length_c 9.262584
_cell_angle_alpha 69.971609
_cell_angle_beta 68.600651
_cell_angle_gamma 69.924469
_cell_volume 618.336805
_symmetry_space_group_name_H-M "P -1"
_symmetry_group_IT_number 2
_symmetry_cell_setting 'triclinic'
loop_
_space_group_symop_operation_xyz
x,y,z
-x,-y,-z
loop_
_atom_site_type_symbol
_atom_site_label
_atom_site_fract_x
_atom_site_fract_y
_atom_site_fract_z
Si Si1 0.200101 0.147350 0.884358
Si Si2 0.294123 0.268617 0.296871
Si Si3 0.003238 0.035354 0.776534
Si Si4 0.000000 0.500000 0.500000
Si Si5 0.205838 0.446066 0.968629
Si Si6 0.329443 0.742573 0.708825
Si Si7 0.559775 0.048552 0.806601
Si Si8 0.225150 0.736375 0.415743
O O1 0.381228 0.073612 0.772065
O O2 0.048407 0.178552 0.807937
O O3 0.240441 0.297668 0.898019
O O4 0.133611 0.036396 0.062004
O O5 0.265968 0.386101 0.127660
O O6 0.476477 0.254195 0.319290
O O7 0.130290 0.344487 0.425386
O O8 0.309526 0.094480 0.274993
O O9 0.176316 0.895049 0.757302
O O10 0.930291 0.111028 0.626054
O O11 0.833660 0.421050 0.554041
O O12 0.288969 0.588351 0.849885
O O13 0.000000 0.500000 0.000000
O O14 0.293220 0.727552 0.557223
O O15 0.625365 0.209452 0.742751
O O16 0.500000 0.000000 0.000000
#
# Coordination Sequence:
#
# PCOD9064501 Si02
#       8
#     2   2   2   1   2   2   2   2
#     4  11  24  45  80 121 152 203 272 330 399 469
#     4  12  29  53  78 114 161 211 270 334 393 482
#     4  11  24  46  80 117 160 203 267 332 393 481
#     4  12  34  52  76 112 162 218 264 326 418 466
#     4  12  25  46  80 113 163 209 264 326 395 483
#     4  12  28  49  76 119 158 218 260 326 410 471
#     4  12  25  51  87 119 152 208 270 335 395 471
#     4  12  30  50  79 112 167 213 264 335 394 485
#
# _framework density 24.258624000000001
#
# number of rings (size 3 to 8) (size 9 to 14) (size 15 to 20)
#    0.000    0.267    5.333    1.600    9.333    3.200 
#    0.000    0.000    0.000    0.000    0.000    0.000 
#    0.000    0.000    0.000    0.000    0.000    0.000 
#
# Total GULP energy -83601.850836 kJ/mol
# GULP energy per Si atom -5573.456722 kJ/mol
# Density = 2.420341 g / cm^3
# Si number density = 24.258624 Si / 1000 Ang^3
#
#
#
# Elastic Constant Matrix: (Units=GPa)
#
#
# Indices 1 2 3 4 5 6 
#
# 1 146.6379 60.2062 55.8123 -4.7589 -1.2344 18.9725
# 2 60.2062 85.6830 34.3464 15.9932 -10.0985 5.1532
# 3 55.8123 34.3464 77.2492 -2.2895 2.1831 8.1893
# 4 -4.7589 15.9932 -2.2895 28.7216 -10.5035 -8.3586
# 5 -1.2344 -10.0985 2.1831 -10.5035 49.0979 -4.6160
# 6 18.9725 5.1532 8.1893 -8.3586 -4.6160 54.3165
#
#
#
# Elastic Compliance Matrix: (Units=1/GPa)
#
#
# Indices 1 2 3 4 5 6 
#
# 1 0.012250 -0.007357 -0.005213 0.005097 -0.000073 -0.002017
# 2 -0.007357 0.021315 -0.004524 -0.013074 0.001542 -0.000651
# 3 -0.005213 -0.004524 0.018871 0.002561 -0.001383 -0.000319
# 4 0.005097 -0.013074 0.002561 0.048293 0.008335 0.007214
# 5 -0.000073 0.001542 -0.001383 0.008335 0.022839 0.003311
# 6 -0.002017 -0.000651 -0.000319 0.007214 0.003311 0.020616
#
#
# Mechanical properties :
#
#
# Convention : Reuss Voigt Hill
#
# Bulk Modulus (GPa) = 54.79518 67.81112 61.30315
# Shear Modulus (GPa) = 27.10716 37.04086 32.07401
#
# Velocity S-wave (km/s) = 3.34642 3.91182 3.64011
# Velocity P-wave (km/s) = 6.12930 6.95824 6.55688
#
# Compressibility (1/GPa) = 0.01824978
#
# Stress axis : x y z
#
# Youngs Moduli (GPa) = 81.63488 46.91592 52.99041
#
# Poissons Ratio (x) = 0.34514 0.27622
# Poissons Ratio (y) = 0.60055 0.23972
# Poissons Ratio (z) = 0.42553 0.21224
#
# Static dielectric constant tensor:
#      x y z
#    x 2.015080 -0.091050 0.032470 
#    y -0.091050 2.252360 -0.002670 
#    z 0.032470 -0.002670 1.927780 
# 
# From -- ./inp_files/157150.got.cif
#   From: 2010.05.17/outbox.cif.g08.bks.cpg/sg2_79_cif.got.tgz:157150.got - 2010.06.03 11:33:40.
