data_PCOD9064351
_publ_section_title
;
Structure prediction by ZEFSAII (Michael W. Deem and Ramdas Pophale) SiO2 
 PCOD9064351
Probable space group: P -1
;
_chemical_formula_sum "Si O2"
_cell_formula_units_Z 14
_cell_length_a 17.199970
_cell_length_b 13.986982
_cell_length_c 5.821811
_cell_angle_alpha 45.208496
_cell_angle_beta 52.807435
_cell_angle_gamma 31.887802
_cell_volume 524.993613
_symmetry_space_group_name_H-M "P -1"
_symmetry_group_IT_number 2
_symmetry_cell_setting 'triclinic'
loop_
_space_group_symop_operation_xyz
x,y,z
-x,-y,-z
loop_
_atom_site_type_symbol
_atom_site_label
_atom_site_fract_x
_atom_site_fract_y
_atom_site_fract_z
Si Si1 0.702371 0.978807 0.532793
Si Si2 0.438269 0.393792 0.512864
Si Si3 0.946038 0.852924 0.993798
Si Si4 0.310687 0.753906 0.427938
Si Si5 0.097995 0.321068 0.946085
Si Si6 0.249132 0.574290 0.141630
Si Si7 0.665935 0.779449 0.630313
O O1 0.802920 0.942624 0.224977
O O2 0.799185 0.884527 0.746300
O O3 0.688377 0.835026 0.735895
O O4 0.550698 0.213265 0.429394
O O5 0.370963 0.605504 0.356537
O O6 0.566736 0.258792 0.715404
O O7 0.292766 0.491430 0.464230
O O8 0.074724 0.758638 0.094758
O O9 0.000419 0.668477 0.061571
O O10 0.862152 0.044649 0.657691
O O11 0.311197 0.656101 0.818443
O O12 0.211590 0.292472 0.644742
O O13 0.000000 0.500000 0.000000
O O14 0.315041 0.400082 0.128963
O O15 0.500000 0.000000 0.500000
#
# Coordination Sequence:
#
# PCOD9064351 Si02
#       7
#     2   2   2   2   2   2   2
#     4  11  24  45  76  99 144 189 239 290 369 419
#     4  11  26  44  73 100 136 193 238 290 353 422
#     4  11  26  46  72 107 143 186 241 296 350 437
#     4  11  27  45  73 101 143 189 246 284 357 430
#     4  11  24  45  74 103 145 196 235 293 367 428
#     4  12  26  46  70 106 145 181 236 301 353 420
#     4  11  25  43  72 112 145 182 244 300 356 433
#
# _framework density 26.666989999999998
#
# number of rings (size 3 to 8) (size 9 to 14) (size 15 to 20)
#    0.000    0.857    2.857    2.571    8.000    6.857 
#    0.000    0.000    0.000    0.000    0.000    0.000 
#    0.000    0.000    0.000    0.000    0.000    0.000 
#
# Total GULP energy -78016.312756 kJ/mol
# GULP energy per Si atom -5572.593768 kJ/mol
# Density = 2.660629 g / cm^3
# Si number density = 26.666990 Si / 1000 Ang^3
#
#
#
# Elastic Constant Matrix: (Units=GPa)
#
#
# Indices 1 2 3 4 5 6 
#
# 1 134.5010 49.1991 5.0243 -3.1666 46.2687 -18.3414
# 2 49.1991 161.5668 5.1350 -21.0049 13.0573 -1.8628
# 3 5.0243 5.1350 48.2513 -1.6147 0.7882 -7.5164
# 4 -3.1666 -21.0049 -1.6147 24.4785 -9.1209 8.5335
# 5 46.2687 13.0573 0.7882 -9.1209 32.5815 -6.6609
# 6 -18.3414 -1.8628 -7.5164 8.5335 -6.6609 48.2663
#
#
#
# Elastic Compliance Matrix: (Units=1/GPa)
#
#
# Indices 1 2 3 4 5 6 
#
# 1 0.020015 -0.005628 -0.000589 -0.015238 -0.029200 0.005961
# 2 -0.005628 0.008659 -0.000534 0.010165 0.006820 -0.002744
# 3 -0.000589 -0.000534 0.021330 0.000220 0.001253 0.003211
# 4 -0.015238 0.010165 0.000220 0.064163 0.033038 -0.012149
# 5 -0.029200 0.006820 0.001253 0.033038 0.077460 -0.005789
# 6 0.005961 -0.002744 0.003211 -0.012149 -0.005789 0.024727
#
#
# Mechanical properties :
#
#
# Convention : Reuss Voigt Hill
#
# Bulk Modulus (GPa) = 27.39740 51.44846 39.42293
# Shear Modulus (GPa) = 20.65910 40.06262 30.36086
#
# Velocity S-wave (km/s) = 2.78638 3.88020 3.37785
# Velocity P-wave (km/s) = 4.54401 6.27769 5.47985
#
# Compressibility (1/GPa) = 0.03649981
#
# Stress axis : x y z
#
# Youngs Moduli (GPa) = 49.96353 115.48743 46.88194
#
# Poissons Ratio (x) = 0.65001 0.02763
# Poissons Ratio (y) = 0.28122 0.02504
# Poissons Ratio (z) = 0.02945 0.06168
#
# Static dielectric constant tensor:
#      x y z
#    x 2.108630 0.012670 -0.116530 
#    y 0.012670 2.125070 0.015830 
#    z -0.116530 0.015830 2.415240 
# 
# From -- ./inp_files/110640.got.cif
#   From: 2010.05.17/outbox.cif.g08.bks.cpg/sg2_56_cif.got.tgz:110640.got - 2010.06.03 11:33:40.
