data_PCOD9064165
_publ_section_title
;
Structure prediction by ZEFSAII (Michael W. Deem and Ramdas Pophale) SiO2 
 PCOD9064165
Probable space group: P -1
;
_chemical_formula_sum "Si O2"
_cell_formula_units_Z 16
_cell_length_a 7.634682
_cell_length_b 9.537194
_cell_length_c 14.353053
_cell_angle_alpha 61.690947
_cell_angle_beta 127.414917
_cell_angle_gamma 126.045109
_cell_volume 659.982448
_symmetry_space_group_name_H-M "P -1"
_symmetry_group_IT_number 2
_symmetry_cell_setting 'triclinic'
loop_
_space_group_symop_operation_xyz
x,y,z
-x,-y,-z
loop_
_atom_site_type_symbol
_atom_site_label
_atom_site_fract_x
_atom_site_fract_y
_atom_site_fract_z
Si Si1 0.259432 0.159549 0.547639
Si Si2 0.664347 0.328742 0.110726
Si Si3 0.555086 0.573884 0.310284
Si Si4 0.876238 0.749724 0.046459
Si Si5 0.281079 0.701384 0.449968
Si Si6 0.100295 0.423559 0.317434
Si Si7 0.785166 0.127996 0.062247
Si Si8 0.071711 0.163837 0.757434
O O1 0.344766 0.248794 0.647924
O O2 0.476533 0.146208 0.564197
O O3 0.241648 0.322791 0.439771
O O4 0.000000 0.000000 0.500000
O O5 0.769668 0.538874 0.086408
O O6 0.770664 0.284366 0.066134
O O7 0.819971 0.292496 0.253626
O O8 0.374446 0.228316 0.056703
O O9 0.657117 0.427681 0.419065
O O10 0.264628 0.497330 0.254454
O O11 0.667963 0.662521 0.221285
O O12 0.066436 0.815017 0.003366
O O13 0.995641 0.839337 0.154298
O O14 0.141875 0.574167 0.358307
O O15 0.102288 0.793724 0.383798
O O16 0.903909 0.017057 0.192733
O O17 0.500000 0.000000 0.000000
#
# Coordination Sequence:
#
# PCOD9064165 Si02
#       8
#     2   2   2   2   2   2   2   2
#     4   9  19  36  62  94 131 164 216 277 335 393
#     4  11  24  45  71  95 135 174 228 278 328 397
#     4   9  21  38  65  96 126 171 230 265 329 408
#     4  11  26  47  68  98 132 178 234 270 332 405
#     4   9  19  41  63  93 127 170 221 274 316 408
#     4   9  19  38  65  92 123 174 222 267 329 392
#     4  12  28  44  66 100 141 174 223 284 338 396
#     4  12  23  40  68  95 131 180 216 278 345 381
#
# _framework density 24.243069999999999
#
# number of rings (size 3 to 8) (size 9 to 14) (size 15 to 20)
#    0.000    1.750    2.500    2.625    3.500    3.000 
#    0.000    0.625    0.000    0.000    0.000    0.000 
#    0.000    0.000    0.000    0.000    0.000    0.000 
#
# Total GULP energy -89263.214513 kJ/mol
# GULP energy per Si atom -5578.950907 kJ/mol
# Density = 2.418789 g / cm^3
# Si number density = 24.243070 Si / 1000 Ang^3
#
#
#
# Elastic Constant Matrix: (Units=GPa)
#
#
# Indices 1 2 3 4 5 6 
#
# 1 115.0252 13.1557 11.4946 -1.4164 -1.4333 8.0467
# 2 13.1557 50.0476 -10.8351 12.6073 0.6132 0.3885
# 3 11.4946 -10.8351 44.1309 3.4278 11.5370 -0.9846
# 4 -1.4164 12.6073 3.4278 25.8046 1.8303 7.2366
# 5 -1.4333 0.6132 11.5370 1.8303 32.1331 -8.5365
# 6 8.0467 0.3885 -0.9846 7.2366 -8.5365 33.5681
#
#
#
# Elastic Compliance Matrix: (Units=1/GPa)
#
#
# Indices 1 2 3 4 5 6 
#
# 1 0.009939 -0.004601 -0.004385 0.004168 0.001047 -0.003090
# 2 -0.004601 0.027301 0.009823 -0.015825 -0.002316 0.003897
# 3 -0.004385 0.009823 0.029577 -0.008534 -0.010240 0.001041
# 4 0.004168 -0.015825 -0.008534 0.051671 -0.002824 -0.012924
# 5 0.001047 -0.002316 -0.010240 -0.002824 0.037612 0.009649
# 6 -0.003090 0.003897 0.001041 -0.012924 0.009649 0.035756
#
#
# Mechanical properties :
#
#
# Convention : Reuss Voigt Hill
#
# Bulk Modulus (GPa) = 14.60014 26.31490 20.45752
# Shear Modulus (GPa) = 23.47291 31.32706 27.39999
#
# Velocity S-wave (km/s) = 3.11502 3.59863 3.36552
# Velocity P-wave (km/s) = 4.35583 5.30519 4.85377
#
# Compressibility (1/GPa) = 0.06849249
#
# Stress axis : x y z
#
# Youngs Moduli (GPa) = 100.61764 36.62823 33.81037
#
# Poissons Ratio (x) = 0.16851 0.14825
# Poissons Ratio (y) = 0.46289 -0.33212
# Poissons Ratio (z) = 0.44117 -0.35980
#
# Static dielectric constant tensor:
#      x y z
#    x 2.127110 0.002360 0.038870 
#    y 0.002360 1.998230 -0.035900 
#    z 0.038870 -0.035900 2.019630 
# 
# From -- ./inp_files/527584.got.cif
#   From: 2010.05.17/outbox.cif.g08.bks.cpg/sg2_264_cif.got.tgz:527584.got - 2010.06.03 11:33:40.
