data_PCOD9064466
_publ_section_title
;
Structure prediction by ZEFSAII (Michael W. Deem and Ramdas Pophale) SiO2 
 PCOD9064466
Probable space group: P -1
;
_chemical_formula_sum "Si O2"
_cell_formula_units_Z 14
_cell_length_a 17.525184
_cell_length_b 5.263187
_cell_length_c 14.118972
_cell_angle_alpha 119.524222
_cell_angle_beta 150.019331
_cell_angle_gamma 65.834541
_cell_volume 565.812081
_symmetry_space_group_name_H-M "P -1"
_symmetry_group_IT_number 2
_symmetry_cell_setting 'triclinic'
loop_
_space_group_symop_operation_xyz
x,y,z
-x,-y,-z
loop_
_atom_site_type_symbol
_atom_site_label
_atom_site_fract_x
_atom_site_fract_y
_atom_site_fract_z
Si Si1 0.908909 0.527650 0.003871
Si Si2 0.899664 0.257532 0.479143
Si Si3 0.662125 0.245547 0.374561
Si Si4 0.572975 0.271642 0.801081
Si Si5 0.090604 0.759623 0.862256
Si Si6 0.390416 0.753027 0.455172
Si Si7 0.412462 0.788226 0.979387
O O1 0.756337 0.332083 0.779225
O O2 0.982575 0.345297 0.135293
O O3 0.000000 0.500000 0.000000
O O4 0.893876 0.885132 0.068531
O O5 0.824427 0.203890 0.492677
O O6 0.749937 0.248739 0.251166
O O7 0.994531 0.568660 0.645767
O O8 0.000000 0.000000 0.500000
O O9 0.576357 0.540301 0.314980
O O10 0.658955 0.220910 0.481113
O O11 0.543956 0.034326 0.150756
O O12 0.504700 0.029752 0.613822
O O13 0.741667 0.386908 0.974716
O O14 0.614714 0.159838 0.929165
O O15 0.500000 0.500000 0.500000
O O16 0.500000 0.500000 0.000000
#
# Coordination Sequence:
#
# PCOD9064466 Si02
#       7
#     2   2   2   2   2   2   2
#     4  12  28  50  75 108 158 202 255 322 397 462
#     4  12  28  47  76 108 157 208 252 325 397 458
#     4  11  25  46  72 111 144 195 262 314 382 470
#     4  11  25  45  74 107 150 189 264 313 379 470
#     4  12  29  48  73 115 153 200 264 319 384 478
#     4  11  24  45  77 105 143 199 250 317 388 460
#     4  11  25  47  75 107 143 199 257 318 381 457
#
# _framework density 24.743198
#
# number of rings (size 3 to 8) (size 9 to 14) (size 15 to 20)
#    0.000    0.571    2.857    3.429   10.000    2.857 
#    0.000    0.000    0.000    0.000    0.000    0.000 
#    0.000    0.000    0.000    0.000    0.000    0.000 
#
# Total GULP energy -78089.828857 kJ/mol
# GULP energy per Si atom -5577.844918 kJ/mol
# Density = 2.468688 g / cm^3
# Si number density = 24.743198 Si / 1000 Ang^3
#
#
#
# Elastic Constant Matrix: (Units=GPa)
#
#
# Indices 1 2 3 4 5 6 
#
# 1 66.8546 9.6717 29.6036 6.9123 9.0859 -17.7358
# 2 9.6717 113.4157 51.4651 20.2251 -10.6418 -26.8386
# 3 29.6036 51.4651 220.0179 20.2400 -21.0226 -5.0078
# 4 6.9123 20.2251 20.2400 43.4893 -12.6359 -0.7902
# 5 9.0859 -10.6418 -21.0226 -12.6359 29.3364 -5.5227
# 6 -17.7358 -26.8386 -5.0078 -0.7902 -5.5227 42.9444
#
#
#
# Elastic Compliance Matrix: (Units=1/GPa)
#
#
# Indices 1 2 3 4 5 6 
#
# 1 0.019833 0.001647 -0.003254 -0.004725 -0.008469 0.007665
# 2 0.001647 0.012769 -0.002412 -0.004295 0.002159 0.008578
# 3 -0.003254 -0.002412 0.005894 0.000048 0.004069 -0.001640
# 4 -0.004725 -0.004295 0.000048 0.029167 0.012024 -0.002547
# 5 -0.008469 0.002159 0.004069 0.012024 0.046439 0.004519
# 6 0.007665 0.008578 -0.001640 -0.002547 0.004519 0.032155
#
#
# Mechanical properties :
#
#
# Convention : Reuss Voigt Hill
#
# Bulk Modulus (GPa) = 32.83081 64.64099 48.73590
# Shear Modulus (GPa) = 30.40450 43.79055 37.09752
#
# Velocity S-wave (km/s) = 3.50923 4.21146 3.87628
# Velocity P-wave (km/s) = 5.45133 7.05904 6.30663
#
# Compressibility (1/GPa) = 0.03045919
#
# Stress axis : x y z
#
# Youngs Moduli (GPa) = 50.41986 78.31196 169.66120
#
# Poissons Ratio (x) = -0.12898 0.55207
# Poissons Ratio (y) = -0.08304 0.40922
# Poissons Ratio (z) = 0.16406 0.18889
#
# Static dielectric constant tensor:
#      x y z
#    x 2.557380 -0.112050 0.467220 
#    y -0.112050 2.036070 -0.196340 
#    z 0.467220 -0.196340 2.507820 
# 
# From -- ./inp_files/99529.got.cif
#   From: 2010.05.17/outbox.cif.g08.bks.cpg/sg2_50_cif.got.tgz:99529.got - 2010.06.03 11:33:40.
