data_PCOD9064730
_publ_section_title
;
Structure prediction by ZEFSAII (Michael W. Deem and Ramdas Pophale) SiO2 
 PCOD9064730
Probable space group: P -1
;
_chemical_formula_sum "Si O2"
_cell_formula_units_Z 16
_cell_length_a 21.025033
_cell_length_b 9.219482
_cell_length_c 5.795723
_cell_angle_alpha 125.886309
_cell_angle_beta 128.144386
_cell_angle_gamma 53.738118
_cell_volume 667.813442
_symmetry_space_group_name_H-M "P -1"
_symmetry_group_IT_number 2
_symmetry_cell_setting 'triclinic'
loop_
_space_group_symop_operation_xyz
x,y,z
-x,-y,-z
loop_
_atom_site_type_symbol
_atom_site_label
_atom_site_fract_x
_atom_site_fract_y
_atom_site_fract_z
Si Si1 0.924414 0.059179 0.197305
Si Si2 0.504953 0.093450 0.850693
Si Si3 0.223099 0.390976 0.207714
Si Si4 0.734889 0.266633 0.187251
Si Si5 0.834731 0.785929 0.682932
Si Si6 0.549439 0.494067 0.854140
Si Si7 0.299970 0.008145 0.785310
Si Si8 0.075845 0.584254 0.735544
O O1 0.826663 0.177506 0.178528
O O2 0.945300 0.202601 0.202843
O O3 0.000000 0.000000 0.500000
O O4 0.912851 0.863849 0.905390
O O5 0.500000 0.000000 0.500000
O O6 0.435151 0.305543 0.911098
O O7 0.500000 0.000000 0.000000
O O8 0.599100 0.108797 0.090756
O O9 0.268499 0.527342 0.538032
O O10 0.189564 0.250046 0.150740
O O11 0.288230 0.225731 0.040257
O O12 0.133524 0.544709 0.054598
O O13 0.739324 0.118602 0.264957
O O14 0.641839 0.317534 0.898737
O O15 0.752712 0.941571 0.522577
O O16 0.858182 0.574485 0.433702
O O17 0.500000 0.500000 0.500000
O O18 0.500000 0.500000 0.000000
O O19 0.000000 0.500000 0.500000
#
# Coordination Sequence:
#
# PCOD9064730 Si02
#       8
#     2   2   2   2   2   2   2   2
#     4  12  27  44  76 108 145 199 248 307 384 453
#     4  12  28  48  79 115 157 202 264 325 390 473
#     4  11  24  46  72 106 143 194 252 302 387 450
#     4  12  26  48  76 107 152 195 249 319 380 462
#     4  11  25  45  72 102 144 190 246 308 372 459
#     4  12  28  50  79 117 157 207 262 323 398 469
#     4  11  26  46  76 106 147 197 246 312 381 459
#     4  11  26  44  70 104 145 191 247 314 375 450
#
# _framework density 23.958788999999999
#
# number of rings (size 3 to 8) (size 9 to 14) (size 15 to 20)
#    0.000    0.500    3.750    3.000    8.750    2.500 
#    0.000    0.000    0.000    0.000    0.000    0.000 
#    0.000    0.000    0.000    0.000    0.000    0.000 
#
# Total GULP energy -89258.345447 kJ/mol
# GULP energy per Si atom -5578.646590 kJ/mol
# Density = 2.390426 g / cm^3
# Si number density = 23.958789 Si / 1000 Ang^3
#
#
#
# Elastic Constant Matrix: (Units=GPa)
#
#
# Indices 1 2 3 4 5 6 
#
# 1 78.6636 26.9443 30.0017 -5.0119 -0.1476 13.9407
# 2 26.9443 159.6302 60.3240 -9.1960 -8.9959 25.9912
# 3 30.0017 60.3240 128.1025 -15.4663 8.1582 10.2273
# 4 -5.0119 -9.1960 -15.4663 59.7208 -3.5312 2.7147
# 5 -0.1476 -8.9959 8.1582 -3.5312 27.3990 -0.0204
# 6 13.9407 25.9912 10.2273 2.7147 -0.0204 53.2779
#
#
#
# Elastic Compliance Matrix: (Units=1/GPa)
#
#
# Indices 1 2 3 4 5 6 
#
# 1 0.014614 -0.000887 -0.002751 0.000549 0.000675 -0.002891
# 2 -0.000887 0.008644 -0.003777 0.000667 0.004041 -0.003292
# 3 -0.002751 -0.003777 0.010666 0.001681 -0.004214 0.000427
# 4 0.000549 0.000667 0.001681 0.017522 0.001978 -0.001684
# 5 0.000675 0.004041 -0.004214 0.001978 0.039337 -0.001425
# 6 -0.002891 -0.003292 0.000427 -0.001684 -0.001425 0.021135
#
#
# Mechanical properties :
#
#
# Convention : Reuss Voigt Hill
#
# Bulk Modulus (GPa) = 52.36984 66.77067 59.57026
# Shear Modulus (GPa) = 37.56260 44.68796 41.12528
#
# Velocity S-wave (km/s) = 3.96384 4.32348 4.14756
# Velocity P-wave (km/s) = 6.54638 7.26999 6.91766
#
# Compressibility (1/GPa) = 0.01909496
#
# Stress axis : x y z
#
# Youngs Moduli (GPa) = 68.42832 115.69375 93.75464
#
# Poissons Ratio (x) = 0.10259 0.25791
# Poissons Ratio (y) = 0.06068 0.35407
# Poissons Ratio (z) = 0.18824 0.43693
#
# Static dielectric constant tensor:
#      x y z
#    x 1.803290 0.345190 0.031270 
#    y 0.345190 1.484950 -0.154620 
#    z 0.031270 -0.154620 1.972200 
# 
# From -- ./inp_files/47346.got.cif
#   From: 2010.05.17/outbox.cif.g08.bks.cpg/sg2_24_cif.got.tgz:47346.got - 2010.06.03 11:33:40.
