data_PCOD9064202
_publ_section_title
;
Structure prediction by ZEFSAII (Michael W. Deem and Ramdas Pophale) SiO2 
 PCOD9064202
Probable space group: P -1
;
_chemical_formula_sum "Si O2"
_cell_formula_units_Z 16
_cell_length_a 13.158346
_cell_length_b 11.411313
_cell_length_c 10.570323
_cell_angle_alpha 127.953343
_cell_angle_beta 34.804227
_cell_angle_gamma 115.398246
_cell_volume 704.045284
_symmetry_space_group_name_H-M "P -1"
_symmetry_group_IT_number 2
_symmetry_cell_setting 'triclinic'
loop_
_space_group_symop_operation_xyz
x,y,z
-x,-y,-z
loop_
_atom_site_type_symbol
_atom_site_label
_atom_site_fract_x
_atom_site_fract_y
_atom_site_fract_z
Si Si1 0.367135 0.883996 0.805105
Si Si2 0.630977 0.097353 0.680430
Si Si3 0.509352 0.403013 0.144389
Si Si4 0.133534 0.442620 0.656661
Si Si5 0.000385 0.946786 0.820496
Si Si6 0.532415 0.723987 0.275191
Si Si7 0.220951 0.626560 0.933155
Si Si8 0.040611 0.367701 0.268918
O O1 0.468522 0.789895 0.521277
O O2 0.293191 0.770519 0.900216
O O3 0.503359 0.986119 0.789810
O O4 0.190951 0.991487 0.003264
O O5 0.833574 0.009951 0.398407
O O6 0.555128 0.153688 0.656703
O O7 0.619031 0.253489 0.871299
O O8 0.316621 0.361986 0.351976
O O9 0.472515 0.560248 0.209871
O O10 0.628422 0.443835 0.167410
O O11 0.195298 0.515312 0.770229
O O12 0.047799 0.575295 0.736264
O O13 0.975794 0.347064 0.782144
O O14 0.037478 0.767829 0.677738
O O15 0.000000 0.000000 0.000000
O O16 0.747597 0.690865 0.011830
O O17 0.000000 0.500000 0.500000
#
# Coordination Sequence:
#
# PCOD9064202 Si02
#       8
#     2   2   2   2   2   2   2   2
#     4  12  26  45  68 102 142 187 229 281 339 429
#     4  12  26  44  71 106 141 182 223 293 360 405
#     4  12  25  45  74 102 140 178 237 292 343 405
#     4  11  24  45  72 104 134 184 231 291 343 401
#     4  12  24  44  69 100 144 182 226 276 355 420
#     4  12  22  45  72 102 141 176 229 291 350 405
#     4  11  26  46  70 100 138 188 240 278 337 413
#     4  12  24  42  75 107 137 173 227 295 353 403
#
# _framework density 22.725811
#
# number of rings (size 3 to 8) (size 9 to 14) (size 15 to 20)
#    0.000    0.250    5.000    4.875    0.000    1.500 
#    0.000    1.250    0.000    0.000    0.000    0.000 
#    0.000    0.000    0.000    0.000    0.000    0.000 
#
# Total GULP energy -89589.613810 kJ/mol
# GULP energy per Si atom -5599.350863 kJ/mol
# Density = 2.267409 g / cm^3
# Si number density = 22.725811 Si / 1000 Ang^3
#
#
#
# Elastic Constant Matrix: (Units=GPa)
#
#
# Indices 1 2 3 4 5 6 
#
# 1 48.3956 7.9293 23.3189 -2.1904 -14.0907 0.2848
# 2 7.9293 118.5748 14.4411 -17.7284 -4.2182 8.9535
# 3 23.3189 14.4411 121.0049 -20.8094 -30.7963 10.9544
# 4 -2.1904 -17.7284 -20.8094 45.2794 14.7051 1.1721
# 5 -14.0907 -4.2182 -30.7963 14.7051 15.6037 -9.9629
# 6 0.2848 8.9535 10.9544 1.1721 -9.9629 20.9094
#
#
#
# Elastic Compliance Matrix: (Units=1/GPa)
#
#
# Indices 1 2 3 4 5 6 
#
# 1 -0.634105 0.213035 -0.377286 0.859817 -2.913709 -1.321455
# 2 0.213035 -0.060586 0.121736 -0.277333 0.950812 0.427855
# 3 -0.377286 0.121736 -0.200505 0.493045 -1.651056 -0.756282
# 4 0.859817 -0.277333 0.493045 -1.103547 3.819508 1.730527
# 5 -2.913709 0.950812 -1.651056 3.819508-12.917057 -5.871324
# 6 -1.321455 0.427855 -0.756282 1.730527 -5.871324 -2.615758
#
#
# Mechanical properties :
#
#
# Convention : Reuss Voigt Hill
#
# Bulk Modulus (GPa) = -1.02017 42.15043 20.56513
# Shear Modulus (GPa) = -0.28132 32.51089 16.11478
#
# Velocity S-wave (km/s) = -0.35222 3.78639 2.66577
# Velocity P-wave (km/s) = 0.78440 6.14030 4.30628
#
# Compressibility (1/GPa) = -0.98022457
#
# Stress axis : x y z
#
# Youngs Moduli (GPa) = -1.57703 -16.50552 -4.98742
#
# Poissons Ratio (x) = 3.51625 -1.88168
# Poissons Ratio (y) = 0.33596 0.60715
# Poissons Ratio (z) = -0.59499 2.00932
#
# Static dielectric constant tensor:
#      x y z
#    x 1.830590 -0.005860 0.000360 
#    y -0.005860 1.855790 -0.047000 
#    z 0.000360 -0.047000 1.839970 
# 
# From -- ./inp_files/273797.got.cif
#   From: 2010.05.17/outbox.cif.g08.bks.cpg/sg2_137_cif.got.tgz:273797.got - 2010.06.03 11:33:40.
