data_PCOD9064045
_publ_section_title
;
Structure prediction by ZEFSAII (Michael W. Deem and Ramdas Pophale) SiO2 
 PCOD9064045
Probable space group: P -1
;
_chemical_formula_sum "Si O2"
_cell_formula_units_Z 12
_cell_length_a 23.084331
_cell_length_b 8.710781
_cell_length_c 11.490817
_cell_angle_alpha 53.489497
_cell_angle_beta 148.769211
_cell_angle_gamma 148.973850
_cell_volume 529.100159
_symmetry_space_group_name_H-M "P -1"
_symmetry_group_IT_number 2
_symmetry_cell_setting 'triclinic'
loop_
_space_group_symop_operation_xyz
x,y,z
-x,-y,-z
loop_
_atom_site_type_symbol
_atom_site_label
_atom_site_fract_x
_atom_site_fract_y
_atom_site_fract_z
Si Si1 0.663104 0.848244 0.195503
Si Si2 0.867118 0.835584 0.958183
Si Si3 0.634626 0.245929 0.981157
Si Si4 0.450740 0.388560 0.634219
Si Si5 0.965136 0.733417 0.516781
Si Si6 0.914095 0.198801 0.059723
O O1 0.659267 0.771559 0.356891
O O2 0.587233 0.958616 0.011320
O O3 0.874472 0.115154 0.371115
O O4 0.500000 0.500000 0.000000
O O5 0.682271 0.700282 0.652556
O O6 0.786436 0.523857 0.012610
O O7 0.972957 0.098352 0.128050
O O8 0.000000 0.000000 0.000000
O O9 0.751298 0.421111 0.225642
O O10 0.486482 0.216707 0.741818
O O11 0.670145 0.810807 0.832008
O O12 0.989651 0.653124 0.714150
O O13 0.000000 0.000000 0.500000
O O14 0.000000 0.500000 0.000000
#
# Coordination Sequence:
#
# PCOD9064045 Si02
#       6
#     2   2   2   2   2   2
#     4  12  25  44  71 103 140 181 243 294 344 417
#     4  11  25  46  71 103 143 186 232 286 358 423
#     4  11  24  45  70 102 140 191 231 293 349 414
#     4  11  24  48  69 103 143 182 237 290 354 419
#     4  12  23  46  70 103 143 184 238 286 351 416
#     4  11  25  44  69 100 145 186 229 291 348 418
#
# _framework density 22.680016999999999
#
# number of rings (size 3 to 8) (size 9 to 14) (size 15 to 20)
#    0.000    0.667    5.000    4.000    4.667    0.000 
#    6.000    1.667    0.000    0.000    0.000    0.000 
#    0.000    0.000    0.000    0.000    0.000    0.000 
#
# Total GULP energy -67123.362071 kJ/mol
# GULP energy per Si atom -5593.613506 kJ/mol
# Density = 2.262840 g / cm^3
# Si number density = 22.680017 Si / 1000 Ang^3
#
#
#
# Elastic Constant Matrix: (Units=GPa)
#
#
# Indices 1 2 3 4 5 6 
#
# 1 153.5968 51.6838 38.0175 -4.2719 -5.5269 25.8027
# 2 51.6838 148.0322 36.3043 -25.6456 -6.8559 -1.6275
# 3 38.0175 36.3043 106.4002 -19.5299 -7.4775 -4.5121
# 4 -4.2719 -25.6456 -19.5299 24.2223 10.6862 -12.7750
# 5 -5.5269 -6.8559 -7.4775 10.6862 43.8860 -4.0050
# 6 25.8027 -1.6275 -4.5121 -12.7750 -4.0050 58.6147
#
#
#
# Elastic Compliance Matrix: (Units=1/GPa)
#
#
# Indices 1 2 3 4 5 6 
#
# 1 0.009947 -0.004283 -0.004227 -0.010704 0.001828 -0.007031
# 2 -0.004283 0.010585 0.000697 0.014619 -0.001844 0.005293
# 3 -0.004227 0.000697 0.013520 0.014560 -0.001116 0.006018
# 4 -0.010704 0.014619 0.014560 0.086006 -0.015341 0.023935
# 5 0.001828 -0.001844 -0.001116 -0.015341 0.026045 -0.002506
# 6 -0.007031 0.005293 0.006018 0.023935 -0.002506 0.025811
#
#
# Mechanical properties :
#
#
# Convention : Reuss Voigt Hill
#
# Bulk Modulus (GPa) = 54.27139 73.33780 63.80460
# Shear Modulus (GPa) = 25.81515 44.14616 34.98066
#
# Velocity S-wave (km/s) = 3.37743 4.41668 3.93154
# Velocity P-wave (km/s) = 6.26023 7.64300 6.98591
#
# Compressibility (1/GPa) = 0.01842592
#
# Stress axis : x y z
#
# Youngs Moduli (GPa) = 100.52890 94.47081 73.96259
#
# Poissons Ratio (x) = 0.40465 0.31265
# Poissons Ratio (y) = 0.43060 -0.05155
# Poissons Ratio (z) = 0.42495 -0.06584
#
# Static dielectric constant tensor:
#      x y z
#    x 2.072050 -0.037510 0.172470 
#    y -0.037510 1.965290 -0.013450 
#    z 0.172470 -0.013450 1.935020 
# 
# From -- ./inp_files/148301.got.cif
#   From: 2010.05.17/outbox.cif.g08.bks.cpg/sg2_75_cif.got.tgz:148301.got - 2010.06.03 11:33:40.
