data_PCOD9064710
_publ_section_title
;
Structure prediction by ZEFSAII (Michael W. Deem and Ramdas Pophale) SiO2 
 PCOD9064710
Probable space group: P -1
;
_chemical_formula_sum "Si O2"
_cell_formula_units_Z 14
_cell_length_a 11.265567
_cell_length_b 6.532364
_cell_length_c 11.662096
_cell_angle_alpha 118.646630
_cell_angle_beta 132.061074
_cell_angle_gamma 67.366925
_cell_volume 556.501462
_symmetry_space_group_name_H-M "P -1"
_symmetry_group_IT_number 2
_symmetry_cell_setting 'triclinic'
loop_
_space_group_symop_operation_xyz
x,y,z
-x,-y,-z
loop_
_atom_site_type_symbol
_atom_site_label
_atom_site_fract_x
_atom_site_fract_y
_atom_site_fract_z
Si Si1 0.193737 0.571699 0.344394
Si Si2 0.437639 0.147410 0.111189
Si Si3 0.702806 0.930993 0.383756
Si Si4 0.542403 0.647589 0.387736
Si Si5 0.190561 0.807220 0.190948
Si Si6 0.082377 0.471177 0.669088
Si Si7 0.855964 0.086440 0.077812
O O1 0.356357 0.420337 0.449776
O O2 0.163520 0.581132 0.191874
O O3 0.046168 0.505457 0.305795
O O4 0.218102 0.838333 0.467087
O O5 0.484729 0.413683 0.225915
O O6 0.533574 0.013700 0.240926
O O7 0.500000 0.000000 0.000000
O O8 0.252623 0.111983 0.004126
O O9 0.667218 0.757992 0.415960
O O10 0.815870 0.778351 0.327625
O O11 0.379700 0.819125 0.344265
O O12 0.178654 0.826754 0.051470
O O13 0.043733 0.994187 0.184087
O O14 0.186985 0.687477 0.810319
O O15 0.000000 0.500000 0.500000
#
# Coordination Sequence:
#
# PCOD9064710 Si02
#       7
#     2   2   2   2   2   2   2
#     4  11  26  45  73 107 136 189 234 284 350 417
#     4  11  26  43  72 106 139 182 235 286 358 413
#     4  11  24  46  72 103 144 177 232 299 345 412
#     4  11  24  47  72 105 136 188 232 287 351 407
#     4  11  26  48  68 102 146 186 239 279 342 423
#     4  12  25  45  74 104 140 179 233 290 356 410
#     4  11  27  46  71 105 141 189 230 290 345 417
#
# _framework density 25.157170000000001
#
# number of rings (size 3 to 8) (size 9 to 14) (size 15 to 20)
#    0.000    0.857    2.857    2.571    6.000    5.143 
#    0.000    0.000    0.000    0.000    0.000    0.000 
#    0.000    0.000    0.000    0.000    0.000    0.000 
#
# Total GULP energy -78376.395117 kJ/mol
# GULP energy per Si atom -5598.313937 kJ/mol
# Density = 2.509991 g / cm^3
# Si number density = 25.157170 Si / 1000 Ang^3
#
#
#
# Elastic Constant Matrix: (Units=GPa)
#
#
# Indices 1 2 3 4 5 6 
#
# 1 114.1638 36.5232 25.4871 -2.0592 14.8948 0.3921
# 2 36.5232 114.5498 52.8741 -0.5403 9.1846 -6.5207
# 3 25.4871 52.8741 73.7207 -1.3183 7.0489 -1.3540
# 4 -2.0592 -0.5403 -1.3183 50.5327 -2.4068 -0.8922
# 5 14.8948 9.1846 7.0489 -2.4068 38.3853 -9.8029
# 6 0.3921 -6.5207 -1.3540 -0.8922 -9.8029 52.2575
#
#
#
# Elastic Compliance Matrix: (Units=1/GPa)
#
#
# Indices 1 2 3 4 5 6 
#
# 1 0.010313 -0.002348 -0.001571 0.000173 -0.003408 -0.001047
# 2 -0.002348 0.013734 -0.008979 -0.000176 -0.000373 0.001426
# 3 -0.001571 -0.008979 0.020656 0.000307 -0.001219 -0.000797
# 4 0.000173 -0.000176 0.000307 0.019875 0.001310 0.000570
# 5 -0.003408 -0.000373 -0.001219 0.001310 0.029158 0.005440
# 6 -0.001047 0.001426 -0.000797 0.000570 0.005440 0.020331
#
#
# Mechanical properties :
#
#
# Convention : Reuss Voigt Hill
#
# Bulk Modulus (GPa) = 52.89994 59.13369 56.01682
# Shear Modulus (GPa) = 34.20768 40.73841 37.47305
#
# Velocity S-wave (km/s) = 3.69149 4.02849 3.86367
# Velocity P-wave (km/s) = 6.26442 6.72272 6.49761
#
# Compressibility (1/GPa) = 0.01890361
#
# Stress axis : x y z
#
# Youngs Moduli (GPa) = 96.96691 72.81437 48.41301
#
# Poissons Ratio (x) = 0.17100 0.07607
# Poissons Ratio (y) = 0.22772 0.43472
# Poissons Ratio (z) = 0.15237 0.65383
#
# Static dielectric constant tensor:
#      x y z
#    x 1.984900 -0.002020 -0.018330 
#    y -0.002020 1.975020 0.008970 
#    z -0.018330 0.008970 1.968730 
# 
# From -- ./inp_files/95572.got.cif
#   From: 2010.05.17/outbox.cif.g08.bks.cpg/sg2_48_cif.got.tgz:95572.got - 2010.06.03 11:33:40.
