data_PCOD9064999
_publ_section_title
;
Structure prediction by ZEFSAII (Michael W. Deem and Ramdas Pophale) SiO2 
 PCOD9064999
Probable space group: P -1
;
_chemical_formula_sum "Si O2"
_cell_formula_units_Z 14
_cell_length_a 9.369823
_cell_length_b 13.773159
_cell_length_c 11.921755
_cell_angle_alpha 148.849089
_cell_angle_beta 140.922397
_cell_angle_gamma 46.546538
_cell_volume 500.400724
_symmetry_space_group_name_H-M "P -1"
_symmetry_group_IT_number 2
_symmetry_cell_setting 'triclinic'
loop_
_space_group_symop_operation_xyz
x,y,z
-x,-y,-z
loop_
_atom_site_type_symbol
_atom_site_label
_atom_site_fract_x
_atom_site_fract_y
_atom_site_fract_z
Si Si1 0.832930 0.519952 0.712533
Si Si2 0.582066 0.182698 0.342866
Si Si3 0.299970 0.868315 0.982830
Si Si4 0.948541 0.879743 0.238266
Si Si5 0.416818 0.443390 0.622811
Si Si6 0.713130 0.613666 0.273411
Si Si7 0.179729 0.998347 0.278869
O O1 0.699855 0.342512 0.489638
O O2 0.679380 0.635933 0.635515
O O3 0.067577 0.460390 0.735392
O O4 0.875321 0.666925 0.981161
O O5 0.645199 0.311315 0.623835
O O6 0.432854 0.040065 0.189977
O O7 0.718085 0.003854 0.186291
O O8 0.253654 0.877529 0.096849
O O9 0.423854 0.663781 0.834432
O O10 0.054148 0.889217 0.795959
O O11 0.000000 0.000000 0.500000
O O12 0.119333 0.898865 0.257820
O O13 0.263125 0.405895 0.597100
O O14 0.662699 0.832903 0.435087
O O15 0.500000 0.500000 0.000000
#
# Coordination Sequence:
#
# PCOD9064999 Si02
#       7
#     2   2   2   2   2   2   2
#     4  12  27  49  80 112 156 203 255 322 379 455
#     4  12  26  47  74 116 157 193 258 313 387 447
#     4  11  24  46  82 116 147 197 258 327 376 442
#     4  12  29  49  76 108 162 210 249 311 393 461
#     4  12  25  46  80 116 149 199 264 313 381 455
#     4  12  27  49  78 110 155 204 254 317 385 452
#     4  11  24  50  76 111 155 198 260 319 375 450
#
# _framework density 27.977575999999999
#
# number of rings (size 3 to 8) (size 9 to 14) (size 15 to 20)
#    0.000    0.286    4.286    3.429    4.000    6.857 
#    0.000    2.143    0.000    0.000    0.000    0.000 
#    0.000    0.000    0.000    0.000    0.000    0.000 
#
# Total GULP energy -78206.123867 kJ/mol
# GULP energy per Si atom -5586.151705 kJ/mol
# Density = 2.791390 g / cm^3
# Si number density = 27.977576 Si / 1000 Ang^3
#
#
#
# Elastic Constant Matrix: (Units=GPa)
#
#
# Indices 1 2 3 4 5 6 
#
# 1 206.9656 37.1204 52.5066 17.5332 -21.5307 11.2714
# 2 37.1204 47.8364 16.5360 6.0538 2.6486 20.7873
# 3 52.5066 16.5360 110.9797 20.2696 -13.4569 -4.1931
# 4 17.5332 6.0538 20.2696 74.0292 3.3292 -3.1028
# 5 -21.5307 2.6486 -13.4569 3.3292 55.5235 12.4741
# 6 11.2714 20.7873 -4.1931 -3.1028 12.4741 32.9641
#
#
#
# Elastic Compliance Matrix: (Units=1/GPa)
#
#
# Indices 1 2 3 4 5 6 
#
# 1 0.006426 -0.003863 -0.002061 -0.000795 0.002455 -0.001027
# 2 -0.003863 0.034750 -0.003717 -0.001854 0.000903 -0.021582
# 3 -0.002061 -0.003717 0.011251 -0.002194 0.001395 0.003745
# 4 -0.000795 -0.001854 -0.002194 0.014702 -0.002410 0.003458
# 5 0.002455 0.000903 0.001395 -0.002410 0.021563 -0.009618
# 6 -0.001027 -0.021582 0.003745 0.003458 -0.009618 0.048739
#
#
# Mechanical properties :
#
#
# Convention : Reuss Voigt Hill
#
# Bulk Modulus (GPa) = 30.17021 64.23421 47.20221
# Shear Modulus (GPa) = 29.80415 49.81126 39.80771
#
# Velocity S-wave (km/s) = 3.26741 4.22406 3.77615
# Velocity P-wave (km/s) = 5.00418 6.84100 5.99337
#
# Compressibility (1/GPa) = 0.03314528
#
# Stress axis : x y z
#
# Youngs Moduli (GPa) = 155.61558 28.77658 88.88190
#
# Poissons Ratio (x) = 0.11117 0.18314
# Poissons Ratio (y) = 0.60118 0.33041
# Poissons Ratio (z) = 0.32065 0.10697
#
# Static dielectric constant tensor:
#      x y z
#    x 2.122650 -0.130740 0.057990 
#    y -0.130740 2.562870 -0.224470 
#    z 0.057990 -0.224470 2.005530 
# 
# From -- ./inp_files/400193.got.cif
#   From: 2010.05.17/outbox.cif.g08.bks.cpg/sg2_201_cif.got.tgz:400193.got - 2010.06.03 11:33:40.
