data_PCOD9064907
_publ_section_title
;
Structure prediction by ZEFSAII (Michael W. Deem and Ramdas Pophale) SiO2 
 PCOD9064907
Probable space group: P -1
;
_chemical_formula_sum "Si O2"
_cell_formula_units_Z 15
_cell_length_a 19.479221
_cell_length_b 11.394456
_cell_length_c 9.446076
_cell_angle_alpha 95.705446
_cell_angle_beta 117.029032
_cell_angle_gamma 28.814114
_cell_volume 646.430842
_symmetry_space_group_name_H-M "P -1"
_symmetry_group_IT_number 2
_symmetry_cell_setting 'triclinic'
loop_
_space_group_symop_operation_xyz
x,y,z
-x,-y,-z
loop_
_atom_site_type_symbol
_atom_site_label
_atom_site_fract_x
_atom_site_fract_y
_atom_site_fract_z
Si Si1 0.571908 0.285463 0.948150
Si Si2 0.836549 0.486362 0.218587
Si Si3 0.476405 0.159106 0.801379
Si Si4 0.190387 0.134381 0.613623
Si Si5 0.308397 0.840693 0.271393
Si Si6 0.500000 0.000000 0.500000
Si Si7 0.608992 0.039193 0.481047
Si Si8 0.113457 0.714116 0.030377
O O1 0.439491 0.352942 0.804026
O O2 0.632237 0.247094 0.847581
O O3 0.500000 0.500000 0.000000
O O4 0.753313 0.977266 0.188294
O O5 0.724984 0.614633 0.277731
O O6 0.831190 0.383200 0.094691
O O7 0.085556 0.173503 0.438800
O O8 0.689751 0.799454 0.043742
O O9 0.513989 0.065801 0.665338
O O10 0.000000 0.500000 0.500000
O O11 0.366149 0.945843 0.652067
O O12 0.500000 0.500000 0.500000
O O13 0.318202 0.959201 0.352256
O O14 0.070085 0.121723 0.096219
O O15 0.285702 0.232891 0.403457
O O16 0.349919 0.361325 0.292485
O O17 0.000000 0.000000 0.000000
#
# Coordination Sequence:
#
# PCOD9064907 Si02
#       8
#     2   2   2   2   2   1   2   2
#     4  12  28  47  75 113 156 200 256 325 391 468
#     4  11  24  46  75 111 148 204 260 315 391 461
#     4  11  24  47  74 110 153 197 261 327 385 468
#     4  12  25  48  78 109 150 204 256 316 388 456
#     4  12  26  49  74 106 154 202 256 315 386 463
#     4  12  24  44  74 108 146 202 254 322 384 454
#     4  12  25  47  75 107 155 197 257 320 385 458
#     4  12  26  43  77 111 148 207 256 312 394 459
#
# _framework density 23.204338
#
# number of rings (size 3 to 8) (size 9 to 14) (size 15 to 20)
#    0.000    0.267    6.667    2.400    1.867    2.133 
#    0.000    3.333    0.000    0.000    0.000    0.000 
#    0.000    0.000    0.000    0.000    0.000    0.000 
#
# Total GULP energy -83566.216286 kJ/mol
# GULP energy per Si atom -5571.081086 kJ/mol
# Density = 2.315152 g / cm^3
# Si number density = 23.204338 Si / 1000 Ang^3
#
#
#
# Elastic Constant Matrix: (Units=GPa)
#
#
# Indices 1 2 3 4 5 6 
#
# 1 123.6665 44.3587 61.1158 11.6500 17.5635 -13.3606
# 2 44.3587 94.2386 40.4797 29.9880 1.3534 -4.0840
# 3 61.1158 40.4797 115.8485 25.2635 5.6346 -27.9702
# 4 11.6500 29.9880 25.2635 43.7811 -3.5397 0.2205
# 5 17.5635 1.3534 5.6346 -3.5397 53.3061 13.5169
# 6 -13.3606 -4.0840 -27.9702 0.2205 13.5169 56.8456
#
#
#
# Elastic Compliance Matrix: (Units=1/GPa)
#
#
# Indices 1 2 3 4 5 6 
#
# 1 0.012629 -0.004343 -0.005269 0.002361 -0.003566 0.000903
# 2 -0.004343 0.016143 -0.001656 -0.008876 0.000819 -0.000836
# 3 -0.005269 -0.001656 0.015033 -0.006323 -0.001882 0.006511
# 4 0.002361 -0.008876 -0.006323 0.032228 0.003296 -0.004103
# 5 -0.003566 0.000819 -0.001882 0.003296 0.022100 -0.006973
# 6 0.000903 -0.000836 0.006511 -0.004103 -0.006973 0.022621
#
#
# Mechanical properties :
#
#
# Convention : Reuss Voigt Hill
#
# Bulk Modulus (GPa) = 47.01285 69.51800 58.26542
# Shear Modulus (GPa) = 33.24941 43.30654 38.27797
#
# Velocity S-wave (km/s) = 3.78947 4.32477 4.06594
# Velocity P-wave (km/s) = 6.28101 7.41365 6.87071
#
# Compressibility (1/GPa) = 0.02127078
#
# Stress axis : x y z
#
# Youngs Moduli (GPa) = 79.18115 61.94578 66.52216
#
# Poissons Ratio (x) = 0.26900 0.35049
# Poissons Ratio (y) = 0.34385 0.11015
# Poissons Ratio (z) = 0.41718 0.10257
#
# Static dielectric constant tensor:
#      x y z
#    x 2.118180 0.264630 -0.033600 
#    y 0.264630 2.099570 -0.102890 
#    z -0.033600 -0.102890 1.956630 
# 
# From -- ./inp_files/332081.got.cif
#   From: 2010.05.17/outbox.cif.g08.bks.cpg/sg2_167_cif.got.tgz:332081.got - 2010.06.03 11:33:40.
