data_PCOD9064281
_publ_section_title
;
Structure prediction by ZEFSAII (Michael W. Deem and Ramdas Pophale) SiO2 
 PCOD9064281
Probable space group: P -1
;
_chemical_formula_sum "Si O2"
_cell_formula_units_Z 16
_cell_length_a 11.865478
_cell_length_b 9.368862
_cell_length_c 15.878259
_cell_angle_alpha 133.575630
_cell_angle_beta 104.740264
_cell_angle_gamma 112.253372
_cell_volume 756.857376
_symmetry_space_group_name_H-M "P -1"
_symmetry_group_IT_number 2
_symmetry_cell_setting 'triclinic'
loop_
_space_group_symop_operation_xyz
x,y,z
-x,-y,-z
loop_
_atom_site_type_symbol
_atom_site_label
_atom_site_fract_x
_atom_site_fract_y
_atom_site_fract_z
Si Si1 0.786205 0.800301 0.567372
Si Si2 0.672895 0.097663 0.102693
Si Si3 0.637164 0.755138 0.814605
Si Si4 0.669340 0.084284 0.456413
Si Si5 0.038772 0.829636 0.409375
Si Si6 0.804694 0.361760 0.410725
Si Si7 0.751322 0.488720 0.782646
Si Si8 0.911800 0.200043 0.912144
O O1 0.575585 0.543624 0.383662
O O2 0.833819 0.632159 0.507281
O O3 0.928278 0.110328 0.659743
O O4 0.805133 0.915478 0.710156
O O5 0.677648 0.101434 0.205821
O O6 0.868761 0.462853 0.258476
O O7 0.500000 0.000000 0.000000
O O8 0.647508 0.860657 0.952289
O O9 0.735715 0.674736 0.807326
O O10 0.758423 0.050630 0.893574
O O11 0.767244 0.001386 0.446950
O O12 0.712348 0.222713 0.428513
O O13 0.766888 0.342977 0.654400
O O14 0.448313 0.795469 0.320967
O O15 0.000000 0.000000 0.500000
O O16 0.000000 0.500000 0.500000
O O17 0.919181 0.686121 0.961016
O O18 0.000000 0.500000 0.000000
#
# Coordination Sequence:
#
# PCOD9064281 Si02
#       8
#     2   2   2   2   2   2   2   2
#     4  12  25  45  71 102 137 185 236 286 358 418
#     4  12  25  44  70 104 140 184 236 287 352 416
#     4  12  25  47  71  98 144 187 234 285 358 428
#     4  11  24  45  73 104 140 186 237 290 352 425
#     4  12  22  46  71 100 141 188 232 284 353 426
#     4  12  25  43  71 103 140 182 233 293 349 412
#     4  11  26  46  73 101 143 188 234 289 360 418
#     4  12  28  43  70 108 138 179 234 299 347 415
#
# _framework density 21.140045000000001
#
# number of rings (size 3 to 8) (size 9 to 14) (size 15 to 20)
#    0.000    0.250    5.000    3.750    5.250    1.000 
#    0.000    0.625    0.000    0.000    0.000    0.000 
#    0.000    0.000    0.000    0.000    0.000    0.000 
#
# Total GULP energy -89528.973266 kJ/mol
# GULP energy per Si atom -5595.560829 kJ/mol
# Density = 2.109193 g / cm^3
# Si number density = 21.140045 Si / 1000 Ang^3
#
#
#
# Elastic Constant Matrix: (Units=GPa)
#
#
# Indices 1 2 3 4 5 6 
#
# 1 92.7640 23.3875 37.1786 -7.7503 3.0755 -9.6504
# 2 23.3875 128.5290 30.6928 -9.6248 8.4335 13.0488
# 3 37.1786 30.6928 116.0512 -21.3997 -1.3504 -1.6725
# 4 -7.7503 -9.6248 -21.3997 34.8556 2.1112 -0.5470
# 5 3.0755 8.4335 -1.3504 2.1112 36.3623 -2.9221
# 6 -9.6504 13.0488 -1.6725 -0.5470 -2.9221 41.0612
#
#
#
# Elastic Compliance Matrix: (Units=1/GPa)
#
#
# Indices 1 2 3 4 5 6 
#
# 1 0.013090 -0.001812 -0.003620 0.000276 -0.000559 0.003469
# 2 -0.001812 0.009118 -0.001695 0.001162 -0.002377 -0.003546
# 3 -0.003620 -0.001695 0.011272 0.005602 0.000815 0.000280
# 4 0.000276 0.001162 0.005602 0.032634 -0.001962 0.000219
# 5 -0.000559 -0.002377 0.000815 -0.001962 0.028457 0.002656
# 6 0.003469 -0.003546 0.000280 0.000219 0.002656 0.026499
#
#
# Mechanical properties :
#
#
# Convention : Reuss Voigt Hill
#
# Bulk Modulus (GPa) = 52.01689 57.76245 54.88967
# Shear Modulus (GPa) = 35.27745 38.86152 37.06948
#
# Velocity S-wave (km/s) = 4.08947 4.29218 4.19205
# Velocity P-wave (km/s) = 6.85256 7.20741 7.03222
#
# Compressibility (1/GPa) = 0.01922453
#
# Stress axis : x y z
#
# Youngs Moduli (GPa) = 76.39270 109.67319 88.71933
#
# Poissons Ratio (x) = 0.19877 0.32116
# Poissons Ratio (y) = 0.13845 0.15041
# Poissons Ratio (z) = 0.27654 0.18593
#
# Static dielectric constant tensor:
#      x y z
#    x 1.765270 0.016350 -0.024870 
#    y 0.016350 1.782030 0.007840 
#    z -0.024870 0.007840 1.708100 
# 
# From -- ./inp_files/185701.got.cif
#   From: 2010.05.17/outbox.cif.g08.bks.cpg/sg2_93_cif.got.tgz:185701.got - 2010.06.03 11:33:40.
