data_PCOD9064002
_publ_section_title
;
Structure prediction by ZEFSAII (Michael W. Deem and Ramdas Pophale) SiO2 
 PCOD9064002
Probable space group: P -1
;
_chemical_formula_sum "Si O2"
_cell_formula_units_Z 14
_cell_length_a 8.196269
_cell_length_b 9.641314
_cell_length_c 9.195110
_cell_angle_alpha 108.472667
_cell_angle_beta 110.220994
_cell_angle_gamma 94.159142
_cell_volume 633.034567
_symmetry_space_group_name_H-M "P -1"
_symmetry_group_IT_number 2
_symmetry_cell_setting 'triclinic'
loop_
_space_group_symop_operation_xyz
x,y,z
-x,-y,-z
loop_
_atom_site_type_symbol
_atom_site_label
_atom_site_fract_x
_atom_site_fract_y
_atom_site_fract_z
Si Si1 0.739976 0.140835 0.365385
Si Si2 0.622121 0.077220 0.871306
Si Si3 0.073550 0.261110 0.309750
Si Si4 0.478366 0.634441 0.933835
Si Si5 0.338731 0.552781 0.546835
Si Si6 0.829387 0.021317 0.652257
Si Si7 0.834331 0.847316 0.004856
O O1 0.669777 0.281976 0.452780
O O2 0.820808 0.063523 0.496921
O O3 0.886828 0.210440 0.315723
O O4 0.575291 0.023931 0.209975
O O5 0.681896 0.079100 0.722103
O O6 0.751314 0.982542 0.958599
O O7 0.617666 0.241342 0.982530
O O8 0.161111 0.432531 0.419050
O O9 0.078680 0.222596 0.128092
O O10 0.194250 0.155763 0.387609
O O11 0.377272 0.568202 0.735305
O O12 0.672280 0.725624 0.975974
O O13 0.500000 0.500000 0.000000
O O14 0.500000 0.500000 0.500000
O O15 0.018111 0.093812 0.809264
#
# Coordination Sequence:
#
# PCOD9064002 Si02
#       7
#     2   2   2   2   2   2   2
#     4  12  26  45  75 104 139 186 233 287 342 417
#     4  11  24  47  75 101 139 184 239 275 354 412
#     4  11  24  45  69 103 143 182 228 286 352 410
#     4  12  28  44  75 102 139 185 234 290 340 417
#     4  12  26  48  69 101 145 187 229 284 356 410
#     4  11  26  43  76 105 139 179 235 297 332 411
#     4  11  24  49  72 102 140 185 229 291 343 416
#
# _framework density 22.115696
#
# number of rings (size 3 to 8) (size 9 to 14) (size 15 to 20)
#    0.000    0.571    2.857    5.143   10.000    0.000 
#    0.000    1.429    0.000    0.000    0.000    0.000 
#    0.000    0.000    0.000    0.000    0.000    0.000 
#
# Total GULP energy -78445.954061 kJ/mol
# GULP energy per Si atom -5603.282433 kJ/mol
# Density = 2.206536 g / cm^3
# Si number density = 22.115696 Si / 1000 Ang^3
#
#
#
# Elastic Constant Matrix: (Units=GPa)
#
#
# Indices 1 2 3 4 5 6 
#
# 1 102.6519 3.3229 18.3507 12.1405 -16.8906 2.7574
# 2 3.3229 107.0529 35.0726 11.4618 -4.7229 -6.0242
# 3 18.3507 35.0726 84.8985 23.0998 9.7574 -3.5259
# 4 12.1405 11.4618 23.0998 35.8556 -3.2098 -6.1171
# 5 -16.8906 -4.7229 9.7574 -3.2098 36.7529 9.5693
# 6 2.7574 -6.0242 -3.5259 -6.1171 9.5693 36.5304
#
#
#
# Elastic Compliance Matrix: (Units=1/GPa)
#
#
# Indices 1 2 3 4 5 6 
#
# 1 0.011823 0.001102 -0.003401 -0.002081 0.007145 -0.003259
# 2 0.001102 0.011180 -0.005126 -0.000295 0.003178 0.000384
# 3 -0.003401 -0.005126 0.018219 -0.009390 -0.008343 0.001783
# 4 -0.002081 -0.000295 -0.009390 0.035781 0.003511 0.004274
# 5 0.007145 0.003178 -0.008343 0.003511 0.035934 -0.009646
# 6 -0.003259 0.000384 0.001783 0.004274 -0.009646 0.031098
#
#
# Mechanical properties :
#
#
# Convention : Reuss Voigt Hill
#
# Bulk Modulus (GPa) = 37.91886 45.34397 41.63142
# Shear Modulus (GPa) = 29.81929 37.68492 33.75211
#
# Velocity S-wave (km/s) = 3.67595 4.13242 3.91085
# Velocity P-wave (km/s) = 5.93293 6.58155 6.26564
#
# Compressibility (1/GPa) = 0.02637210
#
# Stress axis : x y z
#
# Youngs Moduli (GPa) = 84.57861 89.44836 54.88675
#
# Poissons Ratio (x) = -0.09856 0.18668
# Poissons Ratio (y) = -0.09320 0.28134
# Poissons Ratio (z) = 0.28767 0.45849
#
# Static dielectric constant tensor:
#      x y z
#    x 1.864110 -0.025420 -0.018150 
#    y -0.025420 1.793670 -0.000160 
#    z -0.018150 -0.000160 1.813510 
# 
# From -- ./inp_files/159984.got.cif
#   From: 2010.05.17/outbox.cif.g08.bks.cpg/sg2_80_cif.got.tgz:159984.got - 2010.06.03 11:33:40.
