data_PCOD9064733
_publ_section_title
;
Structure prediction by ZEFSAII (Michael W. Deem and Ramdas Pophale) SiO2 
 PCOD9064733
Probable space group: P -1
;
_chemical_formula_sum "Si O2"
_cell_formula_units_Z 14
_cell_length_a 8.031629
_cell_length_b 16.160834
_cell_length_c 9.217910
_cell_angle_alpha 121.239252
_cell_angle_beta 103.499952
_cell_angle_gamma 124.206670
_cell_volume 566.744424
_symmetry_space_group_name_H-M "P -1"
_symmetry_group_IT_number 2
_symmetry_cell_setting 'triclinic'
loop_
_space_group_symop_operation_xyz
x,y,z
-x,-y,-z
loop_
_atom_site_type_symbol
_atom_site_label
_atom_site_fract_x
_atom_site_fract_y
_atom_site_fract_z
Si Si1 0.943140 0.219282 0.928974
Si Si2 0.248190 0.490846 0.438518
Si Si3 0.407658 0.920077 0.745854
Si Si4 0.309733 0.160695 0.291973
Si Si5 0.169381 0.394687 0.831946
Si Si6 0.279908 0.607397 0.838147
Si Si7 0.050056 0.046429 0.715784
O O1 0.013041 0.314460 0.886154
O O2 0.994085 0.133013 0.814573
O O3 0.619229 0.071103 0.806418
O O4 0.176354 0.356622 0.227723
O O5 0.526476 0.672348 0.587453
O O6 0.258306 0.509508 0.628748
O O7 0.969744 0.429628 0.277200
O O8 0.494296 0.845769 0.690171
O O9 0.067968 0.766450 0.474846
O O10 0.500000 0.000000 0.000000
O O11 0.196178 0.124282 0.397550
O O12 0.000000 0.000000 0.000000
O O13 0.229522 0.531738 0.912075
O O14 0.500000 0.500000 0.000000
O O15 0.598339 0.805258 0.049513
O O16 0.000000 0.000000 0.500000
#
# Coordination Sequence:
#
# PCOD9064733 Si02
#       7
#     2   2   2   2   2   2   2
#     4  11  27  45  73 112 141 198 244 308 371 445
#     4  11  25  46  75 105 146 188 257 300 366 443
#     4  11  26  49  75 105 151 197 253 307 371 446
#     4  11  24  46  72 107 140 192 248 305 367 436
#     4  12  25  46  72 111 152 191 250 305 379 439
#     4  11  24  47  72 105 145 197 238 305 373 433
#     4  11  26  47  69 102 148 189 241 298 371 440
#
# _framework density 24.702494000000002
#
# number of rings (size 3 to 8) (size 9 to 14) (size 15 to 20)
#    0.000    0.857    4.286    1.286    4.000    6.857 
#    0.000    0.000    0.000    0.000    0.000    0.000 
#    0.000    0.000    0.000    0.000    0.000    0.000 
#
# Total GULP energy -78419.238394 kJ/mol
# GULP energy per Si atom -5601.374171 kJ/mol
# Density = 2.464627 g / cm^3
# Si number density = 24.702494 Si / 1000 Ang^3
#
#
#
# Elastic Constant Matrix: (Units=GPa)
#
#
# Indices 1 2 3 4 5 6 
#
# 1 91.7078 42.3091 44.7646 0.7770 4.4015 10.1008
# 2 42.3091 186.5796 35.3053 5.3884 2.5305 27.9058
# 3 44.7646 35.3053 150.5321 5.2205 4.1992 28.2054
# 4 0.7770 5.3884 5.2205 43.6599 5.0015 -2.5024
# 5 4.4015 2.5305 4.1992 5.0015 41.8956 -2.2493
# 6 10.1008 27.9058 28.2054 -2.5024 -2.2493 30.5627
#
#
#
# Elastic Compliance Matrix: (Units=1/GPa)
#
#
# Indices 1 2 3 4 5 6 
#
# 1 0.013839 -0.002628 -0.003733 0.000704 -0.000937 0.001260
# 2 -0.002628 0.006791 0.000312 -0.001119 -0.000340 -0.005737
# 3 -0.003733 0.000312 0.009197 -0.001423 -0.000793 -0.007713
# 4 0.000704 -0.001119 -0.001423 0.023706 -0.002487 0.003860
# 5 -0.000937 -0.000340 -0.000793 -0.002487 0.024523 0.002953
# 6 0.001260 -0.005737 -0.007713 0.003860 0.002953 0.045193
#
#
# Mechanical properties :
#
#
# Convention : Reuss Voigt Hill
#
# Bulk Modulus (GPa) = 56.40543 74.84195 65.62369
# Shear Modulus (GPa) = 35.39624 43.65301 39.52463
#
# Velocity S-wave (km/s) = 3.78948 4.20831 4.00437
# Velocity P-wave (km/s) = 6.48308 7.34685 6.92844
#
# Compressibility (1/GPa) = 0.01772879
#
# Stress axis : x y z
#
# Youngs Moduli (GPa) = 72.25878 147.24322 108.73225
#
# Poissons Ratio (x) = 0.38692 0.40594
# Poissons Ratio (y) = 0.18988 -0.03390
# Poissons Ratio (z) = 0.26977 -0.04591
#
# Static dielectric constant tensor:
#      x y z
#    x 1.972490 0.047320 0.010280 
#    y 0.047320 1.657630 -0.003180 
#    z 0.010280 -0.003180 1.983980 
# 
# From -- ./inp_files/218356.got.cif
#   From: 2010.05.17/outbox.cif.g08.bks.cpg/sg2_110_cif.got.tgz:218356.got - 2010.06.03 11:33:40.
