data_PCOD9064043
_publ_section_title
;
Structure prediction by ZEFSAII (Michael W. Deem and Ramdas Pophale) SiO2 
 PCOD9064043
Probable space group: P -1
;
_chemical_formula_sum "Si O2"
_cell_formula_units_Z 12
_cell_length_a 19.495728
_cell_length_b 11.408694
_cell_length_c 6.922350
_cell_angle_alpha 59.640553
_cell_angle_beta 48.510089
_cell_angle_gamma 26.310141
_cell_volume 492.721010
_symmetry_space_group_name_H-M "P -1"
_symmetry_group_IT_number 2
_symmetry_cell_setting 'triclinic'
loop_
_space_group_symop_operation_xyz
x,y,z
-x,-y,-z
loop_
_atom_site_type_symbol
_atom_site_label
_atom_site_fract_x
_atom_site_fract_y
_atom_site_fract_z
Si Si1 0.562506 0.878684 0.697343
Si Si2 0.839491 0.555672 0.921739
Si Si3 0.811547 0.282735 0.222656
Si Si4 0.045019 0.546742 0.631342
Si Si5 0.409835 0.460239 0.958113
Si Si6 0.229831 0.884100 0.234840
O O1 0.737069 0.751259 0.505507
O O2 0.636956 0.629510 0.798205
O O3 0.500000 0.000000 0.500000
O O4 0.376775 0.128439 0.963377
O O5 0.960811 0.401475 0.627833
O O6 0.931835 0.555791 0.871748
O O7 0.828638 0.417789 0.132150
O O8 0.795279 0.210651 0.498452
O O9 0.642841 0.478679 0.221038
O O10 0.000000 0.000000 0.000000
O O11 0.949692 0.792114 0.717744
O O12 0.615766 0.224054 0.851415
O O13 0.297761 0.730035 0.037452
#
# Coordination Sequence:
#
# PCOD9064043 Si02
#       6
#     2   2   2   2   2   2
#     4  12  25  44  70 105 140 185 230 289 357 410
#     4  11  24  45  70 102 139 175 239 283 350 412
#     4  12  24  44  72 104 136 192 231 283 358 418
#     4  11  24  46  74  97 141 185 227 297 343 417
#     4  11  25  46  71 103 147 179 238 300 333 429
#     4  11  24  48  71 105 139 189 236 284 360 408
#
# _framework density 24.354555000000001
#
# number of rings (size 3 to 8) (size 9 to 14) (size 15 to 20)
#    0.000    0.667    5.000    2.000    0.000    4.667 
#    9.000    0.000    0.000    0.000    0.000    0.000 
#    0.000    0.000    0.000    0.000    0.000    0.000 
#
# Total GULP energy -67152.531025 kJ/mol
# GULP energy per Si atom -5596.044252 kJ/mol
# Density = 2.429912 g / cm^3
# Si number density = 24.354555 Si / 1000 Ang^3
#
#
#
# Elastic Constant Matrix: (Units=GPa)
#
#
# Indices 1 2 3 4 5 6 
#
# 1 94.6160 52.6541 40.6599 0.1081 -27.4358 6.0045
# 2 52.6541 82.9155 21.5601 8.7085 -9.9276 10.7616
# 3 40.6599 21.5601 85.3272 11.3734 -27.4706 1.2236
# 4 0.1081 8.7085 11.3734 51.3215 -1.1260 3.2773
# 5 -27.4358 -9.9276 -27.4706 -1.1260 48.0001 2.2173
# 6 6.0045 10.7616 1.2236 3.2773 2.2173 36.1731
#
#
#
# Elastic Compliance Matrix: (Units=1/GPa)
#
#
# Indices 1 2 3 4 5 6 
#
# 1 0.021408 -0.011617 -0.005518 0.003338 0.006783 -0.000629
# 2 -0.011617 0.019900 0.000251 -0.003230 -0.002291 -0.003567
# 3 -0.005518 0.000251 0.016841 -0.003635 0.006441 0.000206
# 4 0.003338 -0.003230 -0.003635 0.020911 -0.000288 -0.001347
# 5 0.006783 -0.002291 0.006441 -0.000288 0.028025 -0.002354
# 6 -0.000629 -0.003567 0.000206 -0.001347 -0.002354 0.029070
#
#
# Mechanical properties :
#
#
# Convention : Reuss Voigt Hill
#
# Bulk Modulus (GPa) = 41.01385 54.73412 47.87398
# Shear Modulus (GPa) = 28.08201 36.96458 32.52330
#
# Velocity S-wave (km/s) = 3.39934 3.90008 3.65829
# Velocity P-wave (km/s) = 5.68192 6.54244 6.12731
#
# Compressibility (1/GPa) = 0.02438201
#
# Stress axis : x y z
#
# Youngs Moduli (GPa) = 46.71097 50.25087 59.37940
#
# Poissons Ratio (x) = 0.58376 0.32767
# Poissons Ratio (y) = 0.54263 -0.01493
# Poissons Ratio (z) = 0.25776 -0.01264
#
# Static dielectric constant tensor:
#      x y z
#    x 1.982200 -0.064320 -0.001440 
#    y -0.064320 1.904200 -0.006080 
#    z -0.001440 -0.006080 1.883110 
# 
# From -- ./inp_files/354053.got.cif
#   From: 2010.05.17/outbox.cif.g08.bks.cpg/sg2_178_cif.got.tgz:354053.got - 2010.06.03 11:33:40.
