data_PCOD9064456
_publ_section_title
;
Structure prediction by ZEFSAII (Michael W. Deem and Ramdas Pophale) SiO2 
 PCOD9064456
Probable space group: P -1
;
_chemical_formula_sum "Si O2"
_cell_formula_units_Z 12
_cell_length_a 8.895882
_cell_length_b 11.074595
_cell_length_c 14.027724
_cell_angle_alpha 148.326228
_cell_angle_beta 40.462805
_cell_angle_gamma 128.074544
_cell_volume 468.988344
_symmetry_space_group_name_H-M "P -1"
_symmetry_group_IT_number 2
_symmetry_cell_setting 'triclinic'
loop_
_space_group_symop_operation_xyz
x,y,z
-x,-y,-z
loop_
_atom_site_type_symbol
_atom_site_label
_atom_site_fract_x
_atom_site_fract_y
_atom_site_fract_z
Si Si1 0.540456 0.095524 0.939734
Si Si2 0.668382 0.298152 0.335836
Si Si3 0.044357 0.223031 0.797361
Si Si4 0.845727 0.652479 0.964230
Si Si5 0.746106 0.419150 0.591304
Si Si6 0.686288 0.197954 0.679178
O O1 0.814013 0.101808 0.803585
O O2 0.421485 0.932278 0.816064
O O3 0.426340 0.353042 0.158547
O O4 0.500000 0.000000 0.000000
O O5 0.500000 0.500000 0.500000
O O6 0.666859 0.309817 0.458045
O O7 0.936583 0.314072 0.185833
O O8 0.233706 0.073240 0.542187
O O9 0.000000 0.500000 0.000000
O O10 0.106812 0.209701 0.870113
O O11 0.829702 0.373664 0.789816
O O12 0.582812 0.743018 0.125424
O O13 0.730206 0.276299 0.600421
O O14 0.000000 0.500000 0.500000
#
# Coordination Sequence:
#
# PCOD9064456 Si02
#       6
#     2   2   2   2   2   2
#     4  12  24  44  75 109 150 196 256 308 376 451
#     4  12  24  45  78 115 152 202 252 311 378 453
#     4  12  26  49  76 107 152 205 253 318 384 458
#     4  11  24  45  76 109 152 198 254 312 386 451
#     4  12  25  45  76 114 151 199 253 313 378 448
#     4  11  26  48  74 111 154 197 257 319 381 458
#
# _framework density 25.58699
#
# number of rings (size 3 to 8) (size 9 to 14) (size 15 to 20)
#    0.000    0.333    5.000    3.500    0.000    2.667 
#    0.000    6.667    0.000    0.000    0.000    0.000 
#    0.000    0.000    0.000    0.000    0.000    0.000 
#
# Total GULP energy -67305.360757 kJ/mol
# GULP energy per Si atom -5608.780063 kJ/mol
# Density = 2.552875 g / cm^3
# Si number density = 25.586990 Si / 1000 Ang^3
#
#
#
# Elastic Constant Matrix: (Units=GPa)
#
#
# Indices 1 2 3 4 5 6 
#
# 1 122.3215 64.7251 43.9847 -10.0571 34.3535 27.5137
# 2 64.7251 128.0151 49.3242 -16.2495 0.2186 30.8396
# 3 43.9847 49.3242 169.0739 3.6926 14.7225 29.7058
# 4 -10.0571 -16.2495 3.6926 46.1111 11.7482 -4.0800
# 5 34.3535 0.2186 14.7225 11.7482 55.8736 2.2177
# 6 27.5137 30.8396 29.7058 -4.0800 2.2177 59.6766
#
#
#
# Elastic Compliance Matrix: (Units=1/GPa)
#
#
# Indices 1 2 3 4 5 6 
#
# 1 0.015608 -0.006399 -0.000906 0.003509 -0.009958 -0.002828
# 2 -0.006399 0.012684 -0.001971 0.001954 0.004098 -0.002642
# 3 -0.000906 -0.001971 0.007230 -0.001426 -0.000952 -0.002225
# 4 0.003509 0.001954 -0.001426 0.025059 -0.007061 0.000058
# 5 -0.009958 0.004098 -0.000952 -0.007061 0.025680 0.001510
# 6 -0.002828 -0.002642 -0.002225 0.000058 0.001510 0.020482
#
#
# Mechanical properties :
#
#
# Convention : Reuss Voigt Hill
#
# Bulk Modulus (GPa) = 58.92608 81.71983 70.32296
# Shear Modulus (GPa) = 38.18212 49.75734 43.96973
#
# Velocity S-wave (km/s) = 3.86715 4.41458 4.14991
# Velocity P-wave (km/s) = 6.55893 7.61526 7.10674
#
# Compressibility (1/GPa) = 0.01697042
#
# Stress axis : x y z
#
# Youngs Moduli (GPa) = 64.06854 78.84117 138.30737
#
# Poissons Ratio (x) = 0.50448 0.12536
# Poissons Ratio (y) = 0.40995 0.27259
# Poissons Ratio (z) = 0.05807 0.15539
#
# Static dielectric constant tensor:
#      x y z
#    x 1.993220 -0.101340 -0.031460 
#    y -0.101340 1.956750 0.025610 
#    z -0.031460 0.025610 2.013450 
# 
# From -- ./inp_files/501053.got.cif
#   From: 2010.05.17/outbox.cif.g08.bks.cpg/sg2_251_cif.got.tgz:501053.got - 2010.06.03 11:33:40.
