data_PCOD9065605
_publ_section_title
;
Structure prediction by ZEFSAII (Michael W. Deem and Ramdas Pophale) SiO2 
 PCOD9065605
Probable space group: P -1
;
_chemical_formula_sum "Si O2"
_cell_formula_units_Z 12
_cell_length_a 15.612525
_cell_length_b 5.033381
_cell_length_c 13.309590
_cell_angle_alpha 94.092496
_cell_angle_beta 150.247007
_cell_angle_gamma 100.437132
_cell_volume 450.979240
_symmetry_space_group_name_H-M "P -1"
_symmetry_group_IT_number 2
_symmetry_cell_setting 'triclinic'
loop_
_space_group_symop_operation_xyz
x,y,z
-x,-y,-z
loop_
_atom_site_type_symbol
_atom_site_label
_atom_site_fract_x
_atom_site_fract_y
_atom_site_fract_z
Si Si1 0.500532 0.071545 0.853342
Si Si2 0.163609 0.145027 0.445367
Si Si3 0.790653 0.204368 0.802910
Si Si4 0.212041 0.531083 0.692336
Si Si5 0.652235 0.560481 0.542766
Si Si6 0.259634 0.116802 0.051860
O O1 0.346010 0.083196 0.619566
O O2 0.351126 0.826625 0.774524
O O3 0.642391 0.964202 0.943482
O O4 0.649201 0.396503 0.066469
O O5 0.171287 0.252398 0.570480
O O6 0.224087 0.412465 0.431674
O O7 0.942695 0.894595 0.186321
O O8 0.645988 0.308019 0.605837
O O9 0.760277 0.895994 0.709692
O O10 0.780306 0.128535 0.907686
O O11 0.000000 0.500000 0.000000
O O12 0.000000 0.500000 0.500000
O O13 0.426667 0.433326 0.275964
#
# Coordination Sequence:
#
# PCOD9065605 Si02
#       6
#     2   2   2   2   2   2
#     4  11  26  48  75 113 158 201 269 323 403 479
#     4  12  26  47  79 115 156 206 267 327 403 470
#     4  12  27  52  80 118 165 214 269 332 401 477
#     4  11  24  49  76 111 156 203 260 337 396 480
#     4  12  27  52  78 119 163 214 271 329 399 485
#     4  12  26  50  80 116 160 212 267 329 397 478
#
# _framework density 26.608761999999999
#
# number of rings (size 3 to 8) (size 9 to 14) (size 15 to 20)
#    0.000    0.333    5.000    3.000    0.000    3.333 
#    3.000    0.000    0.000    0.000    0.000    0.000 
#    0.000    0.000    0.000    0.000    0.000    0.000 
#
# Total GULP energy -67265.133011 kJ/mol
# GULP energy per Si atom -5605.427751 kJ/mol
# Density = 2.654820 g / cm^3
# Si number density = 26.608762 Si / 1000 Ang^3
#
#
#
# Elastic Constant Matrix: (Units=GPa)
#
#
# Indices 1 2 3 4 5 6 
#
# 1 123.3829 23.1054 28.3396 5.0966 8.1437 8.4051
# 2 23.1054 104.2829 47.0119 7.1069 -7.7335 2.9725
# 3 28.3396 47.0119 221.7342 -11.4912 14.3820 -2.2115
# 4 5.0966 7.1069 -11.4912 43.2546 -5.1018 3.1297
# 5 8.1437 -7.7335 14.3820 -5.1018 42.6280 10.8912
# 6 8.4051 2.9725 -2.2115 3.1297 10.8912 35.0827
#
#
#
# Elastic Compliance Matrix: (Units=1/GPa)
#
#
# Indices 1 2 3 4 5 6 
#
# 1 0.008821 -0.001607 -0.000760 -0.001044 -0.001468 -0.001476
# 2 -0.001607 0.011541 -0.002580 -0.001862 0.003474 -0.001668
# 3 -0.000760 -0.002580 0.005398 0.001583 -0.002289 0.001310
# 4 -0.001044 -0.001862 0.001583 0.024500 0.002920 -0.002585
# 5 -0.001468 0.003474 -0.002289 0.002920 0.027784 -0.008973
# 6 -0.001476 -0.001668 0.001310 -0.002585 -0.008973 0.032098
#
#
# Mechanical properties :
#
#
# Convention : Reuss Voigt Hill
#
# Bulk Modulus (GPa) = 63.03455 71.81265 67.42360
# Shear Modulus (GPa) = 39.89673 47.58927 43.74300
#
# Velocity S-wave (km/s) = 3.87639 4.23363 4.05894
# Velocity P-wave (km/s) = 6.61634 7.13758 6.88190
#
# Compressibility (1/GPa) = 0.01586431
#
# Stress axis : x y z
#
# Youngs Moduli (GPa) = 113.36539 86.65105 185.26712
#
# Poissons Ratio (x) = 0.13928 0.14084
# Poissons Ratio (y) = 0.18222 0.47796
# Poissons Ratio (z) = 0.08618 0.22355
#
# Static dielectric constant tensor:
#      x y z
#    x 2.123780 0.011440 -0.045290 
#    y 0.011440 2.106740 -0.060440 
#    z -0.045290 -0.060440 2.099700 
# 
# From -- ./inp_files/535954.got.cif
#   From: 2010.05.17/outbox.cif.g08.bks.cpg/sg2_268_cif.got.tgz:535954.got - 2010.06.03 11:33:40.
