data_PCOD9065632
_publ_section_title
;
Structure prediction by ZEFSAII (Michael W. Deem and Ramdas Pophale) SiO2 
 PCOD9065632
Probable space group: P -1
;
_chemical_formula_sum "Si O2"
_cell_formula_units_Z 16
_cell_length_a 14.653043
_cell_length_b 8.647799
_cell_length_c 7.708297
_cell_angle_alpha 125.150529
_cell_angle_beta 84.970373
_cell_angle_gamma 66.013825
_cell_volume 658.548024
_symmetry_space_group_name_H-M "P -1"
_symmetry_group_IT_number 2
_symmetry_cell_setting 'triclinic'
loop_
_space_group_symop_operation_xyz
x,y,z
-x,-y,-z
loop_
_atom_site_type_symbol
_atom_site_label
_atom_site_fract_x
_atom_site_fract_y
_atom_site_fract_z
Si Si1 0.339019 0.603289 0.521603
Si Si2 0.330483 0.055939 0.281372
Si Si3 0.115428 0.284234 0.902950
Si Si4 0.632156 0.393442 0.894112
Si Si5 0.549580 0.132414 0.215726
Si Si6 0.664483 0.770465 0.261701
Si Si7 0.904254 0.112728 0.235778
Si Si8 0.114557 0.452323 0.385779
O O1 0.335092 0.614484 0.318597
O O2 0.421594 0.338716 0.381713
O O3 0.390516 0.739775 0.662433
O O4 0.220544 0.725224 0.711001
O O5 0.415839 0.954139 0.041655
O O6 0.384303 0.086229 0.462329
O O7 0.217998 0.287692 0.386730
O O8 0.308240 0.861979 0.207556
O O9 0.140254 0.319979 0.117382
O O10 0.214385 0.271129 0.777150
O O11 0.000000 0.500000 0.000000
O O12 0.101697 0.073994 0.774865
O O13 0.500000 0.500000 0.000000
O O14 0.660930 0.549401 0.096812
O O15 0.603483 0.923115 0.202471
O O16 0.909736 0.296836 0.466652
O O17 0.000000 0.000000 0.000000
O O18 0.000000 0.500000 0.500000
#
# Coordination Sequence:
#
# PCOD9065632 Si02
#       8
#     2   2   2   2   2   2   2   2
#     4  11  24  49  79 114 158 207 264 328 404 471
#     4  12  26  50  77 117 158 208 266 325 399 481
#     4  12  26  51  77 116 158 207 265 331 399 471
#     4  12  27  51  79 119 162 214 268 328 407 486
#     4  11  24  49  83 111 163 208 260 332 405 479
#     4  12  27  49  80 117 164 211 266 332 403 484
#     4  12  26  48  81 111 155 206 270 324 395 474
#     4  12  26  46  78 112 151 206 266 321 393 468
#
# _framework density 24.295876
#
# number of rings (size 3 to 8) (size 9 to 14) (size 15 to 20)
#    0.000    0.250    6.250    1.500    0.000    5.500 
#    0.000    0.000    0.000    0.000    0.000    0.000 
#    0.000    0.000    0.000    0.000    0.000    0.000 
#
# Total GULP energy -89686.687815 kJ/mol
# GULP energy per Si atom -5605.417988 kJ/mol
# Density = 2.424058 g / cm^3
# Si number density = 24.295876 Si / 1000 Ang^3
#
#
#
# Elastic Constant Matrix: (Units=GPa)
#
#
# Indices 1 2 3 4 5 6 
#
# 1 139.9813 45.8697 50.5081 23.7651 -12.6285 18.4375
# 2 45.8697 132.2238 57.7030 19.0634 20.6718 5.0088
# 3 50.5081 57.7030 131.9546 9.0189 11.2958 9.4652
# 4 23.7651 19.0634 9.0189 57.5524 5.9871 12.4900
# 5 -12.6285 20.6718 11.2958 5.9871 71.8298 15.2913
# 6 18.4375 5.0088 9.4652 12.4900 15.2913 45.4902
#
#
#
# Elastic Compliance Matrix: (Units=1/GPa)
#
#
# Indices 1 2 3 4 5 6 
#
# 1 0.010253 -0.002476 -0.002726 -0.002543 0.003999 -0.003962
# 2 -0.002476 0.010656 -0.003449 -0.002110 -0.003257 0.002222
# 3 -0.002726 -0.003449 0.010197 0.000894 -0.001052 -0.000529
# 4 -0.002543 -0.002110 0.000894 0.019964 -0.000761 -0.004149
# 5 0.003999 -0.003257 -0.001052 -0.000761 0.017199 -0.006616
# 6 -0.003962 0.002222 -0.000529 -0.004149 -0.006616 0.026817
#
#
# Mechanical properties :
#
#
# Convention : Reuss Voigt Hill
#
# Bulk Modulus (GPa) = 72.43839 79.14680 75.79259
# Shear Modulus (GPa) = 42.73917 51.64641 47.19279
#
# Velocity S-wave (km/s) = 4.19873 4.61556 4.41207
# Velocity P-wave (km/s) = 7.30654 7.81355 7.56429
#
# Compressibility (1/GPa) = 0.01380484
#
# Stress axis : x y z
#
# Youngs Moduli (GPa) = 97.53165 93.84418 98.06968
#
# Poissons Ratio (x) = 0.23233 0.26737
# Poissons Ratio (y) = 0.24145 0.33820
# Poissons Ratio (z) = 0.26590 0.32363
#
# Static dielectric constant tensor:
#      x y z
#    x 2.110490 0.050490 -0.069940 
#    y 0.050490 1.923790 0.036670 
#    z -0.069940 0.036670 1.921100 
# 
# From -- ./inp_files/299672.got.cif
#   From: 2010.05.17/outbox.cif.g08.bks.cpg/sg2_150_cif.got.tgz:299672.got - 2010.06.03 11:33:40.
