data_PCOD9065904
_publ_section_title
;
Structure prediction by ZEFSAII (Michael W. Deem and Ramdas Pophale) SiO2 
 PCOD9065904
Probable space group: P -1
;
_chemical_formula_sum "Si O2"
_cell_formula_units_Z 16
_cell_length_a 5.101694
_cell_length_b 24.522515
_cell_length_c 12.860721
_cell_angle_alpha 29.813874
_cell_angle_beta 56.488653
_cell_angle_gamma 53.163168
_cell_volume 638.172886
_symmetry_space_group_name_H-M "P -1"
_symmetry_group_IT_number 2
_symmetry_cell_setting 'triclinic'
loop_
_space_group_symop_operation_xyz
x,y,z
-x,-y,-z
loop_
_atom_site_type_symbol
_atom_site_label
_atom_site_fract_x
_atom_site_fract_y
_atom_site_fract_z
Si Si1 0.039673 0.106413 0.879223
Si Si2 0.506193 0.284789 0.579099
Si Si3 0.441866 0.847125 0.929469
Si Si4 0.799777 0.359402 0.655955
Si Si5 0.014302 0.035500 0.320609
Si Si6 0.435806 0.527801 0.280748
Si Si7 0.396775 0.814233 0.481132
Si Si8 0.628850 0.575322 0.937510
O O1 0.736541 0.212506 0.734229
O O2 0.373871 0.122919 0.735578
O O3 0.919753 0.086165 0.053336
O O4 0.000000 0.000000 0.000000
O O5 0.411143 0.417293 0.406755
O O6 0.713506 0.247489 0.491161
O O7 0.141486 0.271703 0.687567
O O8 0.722393 0.888859 0.855989
O O9 0.464192 0.712454 0.152363
O O10 0.347708 0.890717 0.761003
O O11 0.701309 0.461491 0.422570
O O12 0.835786 0.402264 0.694522
O O13 0.151110 0.912363 0.437151
O O14 0.000000 0.000000 0.500000
O O15 0.487722 0.596847 0.052603
O O16 0.586222 0.701750 0.691140
O O17 0.500000 0.500000 0.000000
O O18 0.000000 0.500000 0.000000
#
# Coordination Sequence:
#
# PCOD9065904 Si02
#       8
#     2   2   2   2   2   2   2   2
#     4  12  24  42  73 109 146 185 255 313 372 435
#     4  12  21  44  71 106 151 190 247 319 373 446
#     4  12  25  48  77 107 144 196 242 310 374 441
#     4  11  25  43  75 112 147 196 252 323 383 443
#     4  12  30  52  74 109 155 194 249 303 377 463
#     4  11  25  46  68 109 152 197 254 312 380 451
#     4  12  27  44  76 108 149 201 248 312 375 449
#     4  12  27  49  73 106 152 205 251 305 374 451
#
# _framework density 25.071576
#
# number of rings (size 3 to 8) (size 9 to 14) (size 15 to 20)
#    0.000    0.250    5.000    3.750    1.750    1.000 
#    2.250    0.000    0.000    0.000    0.000    0.000 
#    0.000    0.000    0.000    0.000    0.000    0.000 
#
# Total GULP energy -89161.268000 kJ/mol
# GULP energy per Si atom -5572.579250 kJ/mol
# Density = 2.501451 g / cm^3
# Si number density = 25.071576 Si / 1000 Ang^3
#
#
#
# Elastic Constant Matrix: (Units=GPa)
#
#
# Indices 1 2 3 4 5 6 
#
# 1 105.9604 6.6157 7.3966 -9.7128 16.0994 12.1621
# 2 6.6157 130.4851 16.6053 12.4352 2.9087 24.0950
# 3 7.3966 16.6053 60.4031 1.4112 9.2490 21.8887
# 4 -9.7128 12.4352 1.4112 41.6321 10.4655 7.5622
# 5 16.0994 2.9087 9.2490 10.4655 42.6921 -1.1077
# 6 12.1621 24.0950 21.8887 7.5622 -1.1077 32.2861
#
#
#
# Elastic Compliance Matrix: (Units=1/GPa)
#
#
# Indices 1 2 3 4 5 6 
#
# 1 0.011613 0.000126 0.002070 0.005550 -0.006389 -0.007391
# 2 0.000126 0.008990 -0.000057 -0.001369 -0.000479 -0.006414
# 3 0.002070 -0.000057 0.024081 0.004977 -0.007694 -0.018493
# 4 0.005550 -0.001369 0.004977 0.030454 -0.010853 -0.011949
# 5 -0.006389 -0.000479 -0.007694 -0.010853 0.030493 0.011568
# 6 -0.007391 -0.006414 -0.018493 -0.011949 0.011568 0.054277
#
#
# Mechanical properties :
#
#
# Convention : Reuss Voigt Hill
#
# Bulk Modulus (GPa) = 20.42404 39.78708 30.10556
# Shear Modulus (GPa) = 29.07827 41.07079 35.07453
#
# Velocity S-wave (km/s) = 3.40929 4.05179 3.74435
# Velocity P-wave (km/s) = 4.86433 6.14761 5.54323
#
# Compressibility (1/GPa) = 0.04896190
#
# Stress axis : x y z
#
# Youngs Moduli (GPa) = 86.11103 111.23408 41.52683
#
# Poissons Ratio (x) = -0.01403 -0.08598
# Poissons Ratio (y) = -0.01086 0.00239
# Poissons Ratio (z) = -0.17828 0.00639
#
# Static dielectric constant tensor:
#      x y z
#    x 2.140900 0.172670 -0.161120 
#    y 0.172670 2.188540 0.014970 
#    z -0.161120 0.014970 2.176540 
# 
# From -- ./inp_files/82767.got.cif
#   From: 2010.05.17/outbox.cif.g08.bks.cpg/sg2_42_cif.got.tgz:82767.got - 2010.06.03 11:33:40.
