data_PCOD9065815
_publ_section_title
;
Structure prediction by ZEFSAII (Michael W. Deem and Ramdas Pophale) SiO2 
 PCOD9065815
Probable space group: P -1
;
_chemical_formula_sum "Si O2"
_cell_formula_units_Z 16
_cell_length_a 9.213426
_cell_length_b 11.595512
_cell_length_c 17.584321
_cell_angle_alpha 30.080442
_cell_angle_beta 125.356801
_cell_angle_gamma 135.370690
_cell_volume 657.789090
_symmetry_space_group_name_H-M "P -1"
_symmetry_group_IT_number 2
_symmetry_cell_setting 'triclinic'
loop_
_space_group_symop_operation_xyz
x,y,z
-x,-y,-z
loop_
_atom_site_type_symbol
_atom_site_label
_atom_site_fract_x
_atom_site_fract_y
_atom_site_fract_z
Si Si1 0.106254 0.088008 0.363558
Si Si2 0.129767 0.669413 0.534949
Si Si3 0.361572 0.079846 0.959719
Si Si4 0.254669 0.376235 0.641696
Si Si5 0.318165 0.234491 0.500363
Si Si6 0.987946 0.266992 0.849899
Si Si7 0.373364 0.726328 0.797646
Si Si8 0.360031 0.447654 0.109636
O O1 0.209730 0.247701 0.381239
O O2 0.155889 0.276021 0.197796
O O3 0.217113 0.918777 0.475458
O O4 0.866084 0.872087 0.432556
O O5 0.292872 0.625863 0.564284
O O6 0.964333 0.700713 0.417077
O O7 0.997490 0.396317 0.698552
O O8 0.236196 0.145116 0.822481
O O9 0.478586 0.341329 0.900118
O O10 0.500000 0.000000 0.000000
O O11 0.222426 0.830668 0.113925
O O12 0.457655 0.493376 0.583174
O O13 0.363435 0.992310 0.647877
O O14 0.175618 0.491553 0.827645
O O15 0.000000 0.000000 0.000000
O O16 0.564707 0.739824 0.800995
O O17 0.359458 0.619819 0.940160
#
# Coordination Sequence:
#
# PCOD9065815 Si02
#       8
#     2   2   2   2   2   2   2   2
#     4  11  25  43  68  98 136 178 227 279 344 408
#     4  11  25  43  72  98 136 178 230 288 333 412
#     4  12  28  45  70  99 143 184 223 286 352 416
#     4  11  25  45  68 103 132 181 232 279 346 407
#     4  11  25  43  68  98 136 178 227 279 344 408
#     4  12  24  45  68  99 137 184 233 280 342 408
#     4  11  25  43  72  98 136 178 230 288 333 412
#     4  11  25  45  68 103 132 181 232 279 346 407
#
# _framework density 24.323905
#
# number of rings (size 3 to 8) (size 9 to 14) (size 15 to 20)
#    0.000    0.750    5.000    0.750    7.000    3.000 
#    0.000    0.000    0.000    0.000    0.000    0.000 
#    0.000    0.000    0.000    0.000    0.000    0.000 
#
# Total GULP energy -89505.569996 kJ/mol
# GULP energy per Si atom -5594.098125 kJ/mol
# Density = 2.426854 g / cm^3
# Si number density = 24.323905 Si / 1000 Ang^3
#
#
#
# Elastic Constant Matrix: (Units=GPa)
#
#
# Indices 1 2 3 4 5 6 
#
# 1 124.1714 -1.5093 25.5441 16.0844 -36.9321 -7.7370
# 2 -1.5093 52.6573 17.4600 15.1572 -7.4125 1.2048
# 3 25.5441 17.4600 105.0764 26.7554 -17.6393 -11.7875
# 4 16.0844 15.1572 26.7554 33.3585 0.1991 -3.6792
# 5 -36.9321 -7.4125 -17.6393 0.1991 55.4111 -7.5481
# 6 -7.7370 1.2048 -11.7875 -3.6792 -7.5481 28.4445
#
#
#
# Elastic Compliance Matrix: (Units=1/GPa)
#
#
# Indices 1 2 3 4 5 6 
#
# 1 0.012010 0.003482 0.000454 -0.007259 0.009300 0.004836
# 2 0.003482 0.023510 -0.000995 -0.011661 0.005107 -0.000614
# 3 0.000454 -0.000995 0.013733 -0.010154 0.005391 0.005974
# 4 -0.007259 -0.011661 -0.010154 0.046724 -0.010116 -0.002329
# 5 0.009300 0.005107 0.005391 -0.010116 0.028140 0.010706
# 6 0.004836 -0.000614 0.005974 -0.002329 0.010706 0.041513
#
#
# Mechanical properties :
#
#
# Convention : Reuss Voigt Hill
#
# Bulk Modulus (GPa) = 18.13784 40.54384 29.34084
# Shear Modulus (GPa) = 28.06999 39.47016 33.77007
#
# Velocity S-wave (km/s) = 3.40076 4.03263 3.73010
# Velocity P-wave (km/s) = 4.78468 6.19575 5.53536
#
# Compressibility (1/GPa) = 0.05513336
#
# Stress axis : x y z
#
# Youngs Moduli (GPa) = 83.26368 42.53489 72.81914
#
# Poissons Ratio (x) = -0.14809 -0.03305
# Poissons Ratio (y) = -0.28990 0.07248
# Poissons Ratio (z) = -0.03779 0.04234
#
# Static dielectric constant tensor:
#      x y z
#    x 1.978560 -0.031320 -0.032520 
#    y -0.031320 2.002660 -0.011270 
#    z -0.032520 -0.011270 1.917970 
# 
# From -- ./inp_files/186748.got.cif
#   From: 2010.05.17/outbox.cif.g08.bks.cpg/sg2_94_cif.got.tgz:186748.got - 2010.06.03 11:33:40.
