data_PCOD9065586
_publ_section_title
;
Structure prediction by ZEFSAII (Michael W. Deem and Ramdas Pophale) SiO2 
 PCOD9065586
Probable space group: P -1
;
_chemical_formula_sum "Si O2"
_cell_formula_units_Z 16
_cell_length_a 16.717491
_cell_length_b 18.989810
_cell_length_c 11.427065
_cell_angle_alpha 157.612141
_cell_angle_beta 40.889498
_cell_angle_gamma 149.058928
_cell_volume 697.552407
_symmetry_space_group_name_H-M "P -1"
_symmetry_group_IT_number 2
_symmetry_cell_setting 'triclinic'
loop_
_space_group_symop_operation_xyz
x,y,z
-x,-y,-z
loop_
_atom_site_type_symbol
_atom_site_label
_atom_site_fract_x
_atom_site_fract_y
_atom_site_fract_z
Si Si1 0.326334 0.708267 0.992348
Si Si2 0.336840 0.064575 0.958030
Si Si3 0.355749 0.987534 0.187716
Si Si4 0.726392 0.349230 0.762422
Si Si5 0.793614 0.727006 0.696916
Si Si6 0.906312 0.327034 0.195094
Si Si7 0.378746 0.405878 0.881782
Si Si8 0.878752 0.738911 0.878894
O O1 0.216741 0.467786 0.667464
O O2 0.328547 0.905613 0.227206
O O3 0.283818 0.670449 0.116930
O O4 0.506303 0.808126 0.943866
O O5 0.329004 0.894460 0.609702
O O6 0.186749 0.884800 0.932196
O O7 0.332834 0.254191 0.188135
O O8 0.391429 0.238001 0.529789
O O9 0.198409 0.793820 0.991237
O O10 0.500000 0.000000 0.000000
O O11 0.912507 0.553480 0.840799
O O12 0.621119 0.409543 0.913430
O O13 0.780230 0.671366 0.763423
O O14 0.957388 0.996386 0.913847
O O15 0.898795 0.537115 0.560582
O O16 0.500000 0.500000 0.000000
O O17 0.211643 0.261347 0.912499
#
# Coordination Sequence:
#
# PCOD9065586 Si02
#       8
#     2   2   2   2   2   2   2   2
#     4  12  28  44  71 108 152 189 248 302 369 430
#     4  12  24  46  73 103 148 197 241 304 364 439
#     4  12  27  49  74 106 146 197 244 298 371 436
#     4  12  28  46  72 116 145 193 246 306 370 429
#     4  11  26  43  74 106 147 190 245 299 372 428
#     4  12  24  49  80 101 150 196 247 302 363 442
#     4  12  28  46  76 104 148 190 250 304 362 439
#     4  11  24  49  74 106 141 197 246 300 362 444
#
# _framework density 22.937344
#
# number of rings (size 3 to 8) (size 9 to 14) (size 15 to 20)
#    0.000    0.250    5.000    3.375    7.000    1.000 
#    0.000    0.000    0.000    0.000    0.000    0.000 
#    0.000    0.000    0.000    0.000    0.000    0.000 
#
# Total GULP energy -89631.525110 kJ/mol
# GULP energy per Si atom -5601.970319 kJ/mol
# Density = 2.288514 g / cm^3
# Si number density = 22.937344 Si / 1000 Ang^3
#
#
#
# Elastic Constant Matrix: (Units=GPa)
#
#
# Indices 1 2 3 4 5 6 
#
# 1 130.2036 19.5822 11.2184 -3.6975 -0.7832 -13.7019
# 2 19.5822 84.0976 13.4776 -4.8643 -0.0558 -10.2035
# 3 11.2184 13.4776 82.4427 -4.8871 1.7257 1.1129
# 4 -3.6975 -4.8643 -4.8871 27.3580 5.1895 10.1144
# 5 -0.7832 -0.0558 1.7257 5.1895 45.5271 1.8398
# 6 -13.7019 -10.2035 1.1129 10.1144 1.8398 46.5231
#
#
#
# Elastic Compliance Matrix: (Units=1/GPa)
#
#
# Indices 1 2 3 4 5 6 
#
# 1 0.008207 -0.001515 -0.000908 -0.000129 0.000102 0.002131
# 2 -0.001515 0.012867 -0.001868 0.000955 -0.000138 0.002218
# 3 -0.000908 -0.001868 0.012743 0.002514 -0.000727 -0.001500
# 4 -0.000129 0.000955 0.002514 0.041202 -0.004442 -0.008671
# 5 0.000102 -0.000138 -0.000727 -0.004442 0.022497 0.000093
# 6 0.002131 0.002218 -0.001500 -0.008671 0.000093 0.024526
#
#
# Mechanical properties :
#
#
# Convention : Reuss Voigt Hill
#
# Bulk Modulus (GPa) = 39.62380 42.81116 41.21748
# Shear Modulus (GPa) = 35.96206 40.71269 38.33737
#
# Velocity S-wave (km/s) = 3.96389 4.21759 4.09271
# Velocity P-wave (km/s) = 6.18564 6.51324 6.35156
#
# Compressibility (1/GPa) = 0.02523736
#
# Stress axis : x y z
#
# Youngs Moduli (GPa) = 121.84047 77.71651 78.47444
#
# Poissons Ratio (x) = 0.11770 0.07124
# Poissons Ratio (y) = 0.18453 0.14658
# Poissons Ratio (z) = 0.11061 0.14516
#
# Static dielectric constant tensor:
#      x y z
#    x 1.875510 -0.009070 0.001140 
#    y -0.009070 1.874990 0.005370 
#    z 0.001140 0.005370 1.801340 
# 
# From -- ./inp_files/403331.got.cif
#   From: 2010.05.17/outbox.cif.g08.bks.cpg/sg2_202_cif.got.tgz:403331.got - 2010.06.03 11:33:40.
