data_PCOD9065648
_publ_section_title
;
Structure prediction by ZEFSAII (Michael W. Deem and Ramdas Pophale) SiO2 
 PCOD9065648
Probable space group: P -1
;
_chemical_formula_sum "Si O2"
_cell_formula_units_Z 14
_cell_length_a 20.613852
_cell_length_b 6.756836
_cell_length_c 8.258701
_cell_angle_alpha 83.744002
_cell_angle_beta 137.076444
_cell_angle_gamma 73.779459
_cell_volume 660.109325
_symmetry_space_group_name_H-M "P -1"
_symmetry_group_IT_number 2
_symmetry_cell_setting 'triclinic'
loop_
_space_group_symop_operation_xyz
x,y,z
-x,-y,-z
loop_
_atom_site_type_symbol
_atom_site_label
_atom_site_fract_x
_atom_site_fract_y
_atom_site_fract_z
Si Si1 0.291669 0.441596 0.432555
Si Si2 0.159068 0.846641 0.908548
Si Si3 0.122858 0.374447 0.315871
Si Si4 0.489165 0.991131 0.290151
Si Si5 0.416286 0.465335 0.957215
Si Si6 0.279903 0.941933 0.845164
Si Si7 0.951212 0.351892 0.510247
O O1 0.201160 0.373453 0.316298
O O2 0.403784 0.240980 0.566845
O O3 0.327266 0.475353 0.670300
O O4 0.236091 0.676872 0.205730
O O5 0.220009 0.942203 0.899802
O O6 0.125394 0.691180 0.750704
O O7 0.049875 0.083719 0.751871
O O8 0.108515 0.519625 0.442856
O O9 0.186255 0.109488 0.527133
O O10 0.000000 0.500000 0.000000
O O11 0.500000 0.000000 0.500000
O O12 0.371708 0.013780 0.029362
O O13 0.484383 0.214181 0.186124
O O14 0.351975 0.673376 0.946409
O O15 0.500000 0.500000 0.000000
O O16 0.000000 0.500000 0.500000
#
# Coordination Sequence:
#
# PCOD9065648 Si02
#       7
#     2   2   2   2   2   2   2
#     4  12  26  47  71 109 142 184 241 296 361 421
#     4  11  27  43  76 103 140 191 241 290 354 431
#     4  12  27  45  75 104 148 189 235 299 360 415
#     4  12  28  48  75 103 147 190 237 297 363 428
#     4  12  25  46  72 102 145 185 236 297 354 427
#     4  12  26  48  70 107 142 191 241 291 358 431
#     4  11  24  50  70 104 147 189 241 291 352 426
#
# _framework density 21.208607000000001
#
# number of rings (size 3 to 8) (size 9 to 14) (size 15 to 20)
#    0.000    0.286    4.286    3.857    8.000    2.857 
#    0.000    0.000    0.000    0.000    0.000    0.000 
#    0.000    0.000    0.000    0.000    0.000    0.000 
#
# Total GULP energy -78311.809836 kJ/mol
# GULP energy per Si atom -5593.700703 kJ/mol
# Density = 2.116034 g / cm^3
# Si number density = 21.208607 Si / 1000 Ang^3
#
#
#
# Elastic Constant Matrix: (Units=GPa)
#
#
# Indices 1 2 3 4 5 6 
#
# 1 92.5389 -1.9703 16.5570 -5.4635 1.1534 21.9238
# 2 -1.9703 57.4470 4.4512 -7.8922 -0.7770 1.2305
# 3 16.5570 4.4512 101.7728 -19.1717 -9.7131 20.0605
# 4 -5.4635 -7.8922 -19.1717 31.8131 9.3552 -6.3494
# 5 1.1534 -0.7770 -9.7131 9.3552 35.0502 -8.1916
# 6 21.9238 1.2305 20.0605 -6.3494 -8.1916 42.2138
#
#
#
# Elastic Compliance Matrix: (Units=1/GPa)
#
#
# Indices 1 2 3 4 5 6 
#
# 1 0.012609 0.000780 -0.000798 0.001316 -0.002483 -0.006476
# 2 0.000780 0.018094 -0.000029 0.004825 -0.001011 -0.000389
# 3 -0.000798 -0.000029 0.011997 0.006019 0.000754 -0.004234
# 4 0.001316 0.004825 0.006019 0.039114 -0.008584 0.000533
# 5 -0.002483 -0.001011 0.000754 -0.008584 0.032486 0.005974
# 6 -0.006476 -0.000389 -0.004234 0.000533 0.005974 0.030315
#
#
# Mechanical properties :
#
#
# Convention : Reuss Voigt Hill
#
# Bulk Modulus (GPa) = 23.47113 32.20384 27.83748
# Shear Modulus (GPa) = 31.46412 37.33013 34.39713
#
# Velocity S-wave (km/s) = 3.85587 4.19995 4.03159
# Velocity P-wave (km/s) = 5.56008 6.22389 5.90132
#
# Compressibility (1/GPa) = 0.04260554
#
# Stress axis : x y z
#
# Youngs Moduli (GPa) = 79.31155 55.26734 83.35184
#
# Poissons Ratio (x) = -0.04312 0.06652
# Poissons Ratio (y) = -0.06188 0.00243
# Poissons Ratio (z) = 0.06330 0.00161
#
# Static dielectric constant tensor:
#      x y z
#    x 1.790670 0.066020 0.071270 
#    y 0.066020 1.715050 0.036920 
#    z 0.071270 0.036920 1.771360 
# 
# From -- ./inp_files/38794.got.cif
#   From: 2010.05.17/outbox.cif.g08.bks.cpg/sg2_20_cif.got.tgz:38794.got - 2010.06.03 11:33:40.
