data_PCOD9065538
_publ_section_title
;
Structure prediction by ZEFSAII (Michael W. Deem and Ramdas Pophale) SiO2 
 PCOD9065538
Probable space group: P -1
;
_chemical_formula_sum "Si O2"
_cell_formula_units_Z 16
_cell_length_a 12.211665
_cell_length_b 8.552529
_cell_length_c 11.111326
_cell_angle_alpha 45.733894
_cell_angle_beta 70.853247
_cell_angle_gamma 50.973342
_cell_volume 632.476381
_symmetry_space_group_name_H-M "P -1"
_symmetry_group_IT_number 2
_symmetry_cell_setting 'triclinic'
loop_
_space_group_symop_operation_xyz
x,y,z
-x,-y,-z
loop_
_atom_site_type_symbol
_atom_site_label
_atom_site_fract_x
_atom_site_fract_y
_atom_site_fract_z
Si Si1 0.794074 0.916835 0.426881
Si Si2 0.916930 0.294994 0.924795
Si Si3 0.653286 0.395259 0.048380
Si Si4 0.104816 0.488217 0.762273
Si Si5 0.351402 0.180598 0.026711
Si Si6 0.427888 0.794651 0.430961
Si Si7 0.260882 0.449945 0.485316
Si Si8 0.975103 0.976324 0.717702
O O1 0.727409 0.095744 0.232461
O O2 0.693755 0.090538 0.483817
O O3 0.797425 0.657460 0.533451
O O4 0.941948 0.885393 0.400024
O O5 0.749979 0.420354 0.904324
O O6 0.951958 0.235492 0.085964
O O7 0.991585 0.434818 0.787228
O O8 0.000000 0.000000 0.000000
O O9 0.500000 0.500000 0.000000
O O10 0.649514 0.566316 0.068523
O O11 0.209667 0.441835 0.642344
O O12 0.214273 0.282455 0.937810
O O13 0.010355 0.787747 0.692739
O O14 0.363073 0.017795 0.228547
O O15 0.500000 0.000000 0.000000
O O16 0.500000 0.500000 0.500000
O O17 0.567226 0.743826 0.472844
O O18 0.186468 0.771288 0.326795
#
# Coordination Sequence:
#
# PCOD9065538 Si02
#       8
#     2   2   2   2   2   2   2   2
#     4  11  24  49  68 106 147 185 249 295 371 434
#     4  11  26  44  71 105 144 189 243 298 362 432
#     4  11  25  46  72 103 144 188 242 298 362 431
#     4  12  24  48  74 107 145 188 256 296 363 436
#     4  12  25  45  76 104 142 194 241 302 359 430
#     4  12  27  45  71 108 145 190 246 301 366 435
#     4  12  26  45  73 104 147 193 236 306 366 434
#     4  11  25  47  70 104 144 192 239 303 362 435
#
# _framework density 25.297385999999999
#
# number of rings (size 3 to 8) (size 9 to 14) (size 15 to 20)
#    0.000    0.500    3.750    5.250    3.500    3.000 
#    0.000    0.000    0.000    0.000    0.000    0.000 
#    0.000    0.000    0.000    0.000    0.000    0.000 
#
# Total GULP energy -89656.071430 kJ/mol
# GULP energy per Si atom -5603.504464 kJ/mol
# Density = 2.523981 g / cm^3
# Si number density = 25.297386 Si / 1000 Ang^3
#
#
#
# Elastic Constant Matrix: (Units=GPa)
#
#
# Indices 1 2 3 4 5 6 
#
# 1 142.3621 5.1933 0.6676 -15.3593 13.4563 -11.7293
# 2 5.1933 100.7824 -29.7209 -10.5468 -4.2564 6.5447
# 3 0.6676 -29.7209 73.6947 -10.2951 12.8997 -6.6710
# 4 -15.3593 -10.5468 -10.2951 35.7020 -2.2009 -3.6627
# 5 13.4563 -4.2564 12.8997 -2.2009 43.0206 -6.5537
# 6 -11.7293 6.5447 -6.6710 -3.6627 -6.5537 51.4557
#
#
#
# Elastic Compliance Matrix: (Units=1/GPa)
#
#
# Indices 1 2 3 4 5 6 
#
# 1 0.007788 0.000081 0.001050 0.003730 -0.002266 0.001878
# 2 0.000081 0.012137 0.005631 0.005176 -0.000319 -0.000467
# 3 0.001050 0.005631 0.017771 0.007145 -0.004465 0.001767
# 4 0.003730 0.005176 0.007145 0.033522 -0.000559 0.003433
# 5 -0.002266 -0.000319 -0.004465 -0.000559 0.025561 0.002161
# 6 0.001878 -0.000467 0.001767 0.003433 0.002161 0.020670
#
#
# Mechanical properties :
#
#
# Convention : Reuss Voigt Hill
#
# Bulk Modulus (GPa) = 19.52390 29.90214 24.71302
# Shear Modulus (GPa) = 41.32270 48.74893 45.03581
#
# Velocity S-wave (km/s) = 4.04601 4.39456 4.22388
# Velocity P-wave (km/s) = 5.43705 6.13152 5.79469
#
# Compressibility (1/GPa) = 0.05121926
#
# Stress axis : x y z
#
# Youngs Moduli (GPa) = 128.40624 82.39024 56.27247
#
# Poissons Ratio (x) = -0.00667 -0.05907
# Poissons Ratio (y) = -0.01040 -0.31687
# Poissons Ratio (z) = -0.13480 -0.46394
#
# Static dielectric constant tensor:
#      x y z
#    x 2.006450 0.035360 0.032350 
#    y 0.035360 2.051740 0.025350 
#    z 0.032350 0.025350 2.081840 
# 
# From -- ./inp_files/418886.got.cif
#   From: 2010.05.17/outbox.cif.g08.bks.cpg/sg2_210_cif.got.tgz:418886.got - 2010.06.03 11:33:40.
