data_PCOD9065186
_publ_section_title
;
Structure prediction by ZEFSAII (Michael W. Deem and Ramdas Pophale) SiO2 
 PCOD9065186
Probable space group: P -1
;
_chemical_formula_sum "Si O2"
_cell_formula_units_Z 16
_cell_length_a 26.055030
_cell_length_b 6.573994
_cell_length_c 21.011097
_cell_angle_alpha 90.854689
_cell_angle_beta 11.632213
_cell_angle_gamma 89.774475
_cell_volume 722.483623
_symmetry_space_group_name_H-M "P -1"
_symmetry_group_IT_number 2
_symmetry_cell_setting 'triclinic'
loop_
_space_group_symop_operation_xyz
x,y,z
-x,-y,-z
loop_
_atom_site_type_symbol
_atom_site_label
_atom_site_fract_x
_atom_site_fract_y
_atom_site_fract_z
Si Si1 0.478010 0.467507 0.451312
Si Si2 0.261346 0.932808 0.252119
Si Si3 0.029242 0.828773 0.145849
Si Si4 0.825861 0.855989 0.251200
Si Si5 0.085226 0.631529 0.567084
Si Si6 0.652189 0.845364 0.177730
Si Si7 0.565685 0.651023 0.777073
Si Si8 0.961038 0.359463 0.608642
O O1 0.500000 0.500000 0.500000
O O2 0.257364 0.334880 0.691068
O O3 0.480329 0.691928 0.421355
O O4 0.746780 0.341576 0.107208
O O5 0.119753 0.810733 0.476350
O O6 0.390071 0.782397 0.041897
O O7 0.088512 0.132556 0.440034
O O8 0.500000 0.000000 0.000000
O O9 0.964384 0.805883 0.149967
O O10 0.779983 0.782635 0.488527
O O11 0.150635 0.040295 0.016606
O O12 0.554121 0.982881 0.598759
O O13 0.000000 0.000000 0.000000
O O14 0.301640 0.559569 0.355807
O O15 0.100105 0.435878 0.502232
O O16 0.825452 0.707239 0.918117
O O17 0.335940 0.611222 0.008902
O O18 0.000000 0.500000 0.500000
#
# Coordination Sequence:
#
# PCOD9065186 Si02
#       8
#     2   2   2   2   2   2   2   2
#     4  11  24  47  74 100 141 180 226 285 351 422
#     4  12  24  44  72  93 141 188 229 289 351 404
#     4  11  26  45  69 104 140 181 233 287 348 418
#     4  11  26  46  73 107 141 180 232 285 350 425
#     4  12  26  46  67 100 141 184 235 291 350 408
#     4  11  26  44  71 102 141 184 229 288 351 412
#     4  12  25  45  68  99 139 184 239 291 347 415
#     4  12  27  44  69 103 137 184 242 288 348 419
#
# _framework density 22.145831000000001
#
# number of rings (size 3 to 8) (size 9 to 14) (size 15 to 20)
#    0.000    0.500    3.750    3.750    3.500    6.000 
#    0.000    0.000    0.000    0.000    0.000    0.000 
#    0.000    0.000    0.000    0.000    0.000    0.000 
#
# Total GULP energy -89350.039750 kJ/mol
# GULP energy per Si atom -5584.377484 kJ/mol
# Density = 2.209543 g / cm^3
# Si number density = 22.145831 Si / 1000 Ang^3
#
#
#
# Elastic Constant Matrix: (Units=GPa)
#
#
# Indices 1 2 3 4 5 6 
#
# 1 76.3290 36.0561 25.1364 -9.7611 -6.6829 -1.1035
# 2 36.0561 119.0769 41.6494 -3.2933 -3.5247 -6.6619
# 3 25.1364 41.6494 117.3668 -0.3790 -5.2100 -11.5175
# 4 -9.7611 -3.2933 -0.3790 50.8438 -1.6201 -7.4796
# 5 -6.6829 -3.5247 -5.2100 -1.6201 39.0385 0.9370
# 6 -1.1035 -6.6619 -11.5175 -7.4796 0.9370 35.9316
#
#
#
# Elastic Compliance Matrix: (Units=1/GPa)
#
#
# Indices 1 2 3 4 5 6 
#
# 1 0.016243 -0.004112 -0.001944 0.002859 0.002277 -0.000351
# 2 -0.004112 0.010680 -0.002821 0.000018 -0.000138 0.000957
# 3 -0.001944 -0.002821 0.010231 -0.000065 0.000711 0.002664
# 4 0.002859 0.000018 -0.000065 0.020903 0.001244 0.004389
# 5 0.002277 -0.000138 0.000711 0.001244 0.026143 -0.000150
# 6 -0.000351 0.000957 0.002664 0.004389 -0.000150 0.029769
#
#
# Mechanical properties :
#
#
# Convention : Reuss Voigt Hill
#
# Bulk Modulus (GPa) = 51.54705 57.60629 54.57667
# Shear Modulus (GPa) = 36.18219 39.15817 37.67018
#
# Velocity S-wave (km/s) = 4.04643 4.20955 4.12880
# Velocity P-wave (km/s) = 6.71999 7.04953 6.88673
#
# Compressibility (1/GPa) = 0.01939975
#
# Stress axis : x y z
#
# Youngs Moduli (GPa) = 61.56319 93.63538 97.74523
#
# Poissons Ratio (x) = 0.38500 0.19000
# Poissons Ratio (y) = 0.25313 0.27578
# Poissons Ratio (z) = 0.11967 0.26419
#
# Static dielectric constant tensor:
#      x y z
#    x 1.809610 0.092070 -0.061500 
#    y 0.092070 1.857240 -0.075570 
#    z -0.061500 -0.075570 1.847900 
# 
# From -- ./inp_files/614453.got.cif
#   From: 2010.05.17/outbox.cif.g08.bks.cpg/sg2_308_cif.got.tgz:614453.got - 2010.06.03 11:33:40.
