data_PCOD9065985
_publ_section_title
;
Structure prediction by ZEFSAII (Michael W. Deem and Ramdas Pophale) SiO2 
 PCOD9065985
Probable space group: P -1
;
_chemical_formula_sum "Si O2"
_cell_formula_units_Z 14
_cell_length_a 22.653949
_cell_length_b 7.777784
_cell_length_c 9.169480
_cell_angle_alpha 116.756619
_cell_angle_beta 28.752133
_cell_angle_gamma 129.047810
_cell_volume 580.577988
_symmetry_space_group_name_H-M "P -1"
_symmetry_group_IT_number 2
_symmetry_cell_setting 'triclinic'
loop_
_space_group_symop_operation_xyz
x,y,z
-x,-y,-z
loop_
_atom_site_type_symbol
_atom_site_label
_atom_site_fract_x
_atom_site_fract_y
_atom_site_fract_z
Si Si1 0.548104 0.329758 0.886745
Si Si2 0.608571 0.395940 0.100690
Si Si3 0.065984 0.000706 0.199654
Si Si4 0.984808 0.671989 0.705530
Si Si5 0.895950 0.578199 0.195240
Si Si6 0.698054 0.103170 0.912742
Si Si7 0.341578 0.123972 0.789703
O O1 0.720228 0.429953 0.537153
O O2 0.500000 0.500000 0.000000
O O3 0.519916 0.283122 0.101716
O O4 0.445867 0.100132 0.930423
O O5 0.496226 0.270013 0.429528
O O6 0.671372 0.664667 0.046214
O O7 0.725356 0.332345 0.863213
O O8 0.111352 0.243633 0.125961
O O9 0.205891 0.986410 0.921481
O O10 0.000000 0.000000 0.500000
O O11 0.957838 0.809162 0.245586
O O12 0.000000 0.500000 0.500000
O O13 0.153741 0.886641 0.434135
O O14 0.925073 0.596181 0.966698
O O15 0.000000 0.500000 0.000000
O O16 0.670624 0.045167 0.122199
#
# Coordination Sequence:
#
# PCOD9065985 Si02
#       7
#     2   2   2   2   2   2   2
#     4  12  26  48  75 108 156 197 256 318 380 459
#     4  11  25  44  70 108 146 189 247 309 377 446
#     4  12  24  46  73 103 154 197 249 308 384 453
#     4  12  27  48  76 113 152 197 259 317 386 464
#     4  12  29  48  77 114 154 203 258 317 386 461
#     4  12  25  46  76 105 146 196 248 310 385 446
#     4  11  25  44  72 107 145 192 248 306 374 454
#
# _framework density 24.113903000000001
#
# number of rings (size 3 to 8) (size 9 to 14) (size 15 to 20)
#    0.000    0.286    2.857    5.571    6.000    1.143 
#    0.000    0.000    0.000    0.000    0.000    0.000 
#    0.000    0.000    0.000    0.000    0.000    0.000 
#
# Total GULP energy -78296.884337 kJ/mol
# GULP energy per Si atom -5592.634596 kJ/mol
# Density = 2.405902 g / cm^3
# Si number density = 24.113903 Si / 1000 Ang^3
#
#
#
# Elastic Constant Matrix: (Units=GPa)
#
#
# Indices 1 2 3 4 5 6 
#
# 1 164.7694 48.4650 8.3140 12.2471 -2.9295 -18.2175
# 2 48.4650 93.1014 8.9706 16.6066 -6.9442 12.5520
# 3 8.3140 8.9706 56.6319 2.1758 -7.9982 3.6410
# 4 12.2471 16.6066 2.1758 35.2549 1.7751 -13.9322
# 5 -2.9295 -6.9442 -7.9982 1.7751 53.1239 -9.4786
# 6 -18.2175 12.5520 3.6410 -13.9322 -9.4786 57.6373
#
#
#
# Elastic Compliance Matrix: (Units=1/GPa)
#
#
# Indices 1 2 3 4 5 6 
#
# 1 0.007838 -0.004693 -0.000641 0.001030 0.000375 0.003851
# 2 -0.004693 0.015749 -0.000942 -0.008444 0.000731 -0.006774
# 3 -0.000641 -0.000942 0.018350 -0.000981 0.002460 -0.000989
# 4 0.001030 -0.008444 -0.000981 0.036395 -0.000457 0.010949
# 5 0.000375 0.000731 0.002460 -0.000457 0.019854 0.002958
# 6 0.003851 -0.006774 -0.000989 0.010949 0.002958 0.023238
#
#
# Mechanical properties :
#
#
# Convention : Reuss Voigt Hill
#
# Bulk Modulus (GPa) = 34.03371 49.55577 41.79474
# Shear Modulus (GPa) = 34.77752 45.78675 40.28214
#
# Velocity S-wave (km/s) = 3.80178 4.36222 4.09160
# Velocity P-wave (km/s) = 5.78063 6.77991 6.30012
#
# Compressibility (1/GPa) = 0.02938263
#
# Stress axis : x y z
#
# Youngs Moduli (GPa) = 127.58844 63.49660 54.49559
#
# Poissons Ratio (x) = 0.29800 0.03496
# Poissons Ratio (y) = 0.59879 0.05136
# Poissons Ratio (z) = 0.08184 0.05984
#
# Static dielectric constant tensor:
#      x y z
#    x 1.970340 0.054070 -0.030230 
#    y 0.054070 1.999920 -0.027200 
#    z -0.030230 -0.027200 1.886910 
# 
# From -- ./inp_files/342845.got.cif
#   From: 2010.05.17/outbox.cif.g08.bks.cpg/sg2_172_cif.got.tgz:342845.got - 2010.06.03 11:33:40.
