data_PCOD9065574
_publ_section_title
;
Structure prediction by ZEFSAII (Michael W. Deem and Ramdas Pophale) SiO2 
 PCOD9065574
Probable space group: P -1
;
_chemical_formula_sum "Si O2"
_cell_formula_units_Z 14
_cell_length_a 16.188669
_cell_length_b 14.595777
_cell_length_c 5.278126
_cell_angle_alpha 72.587834
_cell_angle_beta 56.945950
_cell_angle_gamma 35.425385
_cell_volume 578.205208
_symmetry_space_group_name_H-M "P -1"
_symmetry_group_IT_number 2
_symmetry_cell_setting 'triclinic'
loop_
_space_group_symop_operation_xyz
x,y,z
-x,-y,-z
loop_
_atom_site_type_symbol
_atom_site_label
_atom_site_fract_x
_atom_site_fract_y
_atom_site_fract_z
Si Si1 0.442373 0.146103 0.370611
Si Si2 0.869491 0.688294 0.497610
Si Si3 0.903749 0.351284 0.113299
Si Si4 0.415570 0.613690 0.802738
Si Si5 0.558274 0.703440 0.385448
Si Si6 0.264645 0.014432 0.264137
Si Si7 0.068946 0.789365 0.303896
O O1 0.309962 0.222529 0.314131
O O2 0.351217 0.291876 0.586897
O O3 0.500000 0.000000 0.500000
O O4 0.620700 0.058265 0.109128
O O5 0.826499 0.812380 0.652252
O O6 0.000000 0.500000 0.500000
O O7 0.956379 0.675290 0.123904
O O8 0.727473 0.523929 0.128763
O O9 0.876953 0.327683 0.458497
O O10 0.959752 0.226404 0.922030
O O11 0.500000 0.500000 0.500000
O O12 0.463086 0.687197 0.669598
O O13 0.500000 0.500000 0.000000
O O14 0.215556 0.750592 0.055324
O O15 0.415603 0.869812 0.324959
O O16 0.128129 0.038929 0.433757
#
# Coordination Sequence:
#
# PCOD9065574 Si02
#       7
#     2   2   2   2   2   2   2
#     4  12  26  46  68 102 151 194 243 302 369 438
#     4  11  25  44  72 104 144 197 253 302 360 433
#     4  11  25  45  74 107 140 194 247 301 359 431
#     4  12  25  48  78 112 141 190 247 306 372 437
#     4  12  27  44  75 103 148 189 247 301 375 431
#     4  11  27  45  68 105 149 191 245 301 374 435
#     4  11  24  49  73 105 146 184 245 305 358 440
#
# _framework density 24.212854
#
# number of rings (size 3 to 8) (size 9 to 14) (size 15 to 20)
#    0.000    0.571    4.286    2.143   12.000    1.143 
#    0.000    0.714    0.000    0.000    0.000    0.000 
#    0.000    0.000    0.000    0.000    0.000    0.000 
#
# Total GULP energy -78049.905037 kJ/mol
# GULP energy per Si atom -5574.993217 kJ/mol
# Density = 2.415774 g / cm^3
# Si number density = 24.212854 Si / 1000 Ang^3
#
#
#
# Elastic Constant Matrix: (Units=GPa)
#
#
# Indices 1 2 3 4 5 6 
#
# 1 78.0514 3.5696 24.5049 -5.8998 -23.2082 -13.5265
# 2 3.5696 71.9138 6.4545 0.2743 1.2003 -11.7015
# 3 24.5049 6.4545 106.0406 2.1978 -19.0872 -7.9821
# 4 -5.8998 0.2743 2.1978 32.4271 -16.5513 -17.6182
# 5 -23.2082 1.2003 -19.0872 -16.5513 45.4279 5.9052
# 6 -13.5265 -11.7015 -7.9821 -17.6182 5.9052 37.4233
#
#
#
# Elastic Compliance Matrix: (Units=1/GPa)
#
#
# Indices 1 2 3 4 5 6 
#
# 1 0.022329 0.001175 -0.001575 0.020808 0.016304 0.015326
# 2 0.001175 0.014992 -0.000659 0.004115 0.000540 0.006824
# 3 -0.001575 -0.000659 0.010696 0.002178 0.004259 0.001860
# 4 0.020808 0.004115 0.002178 0.071666 0.032626 0.037863
# 5 0.016304 0.000540 0.004259 0.032626 0.041963 0.015708
# 6 0.015326 0.006824 0.001860 0.037863 0.015708 0.050138
#
#
# Mechanical properties :
#
#
# Convention : Reuss Voigt Hill
#
# Bulk Modulus (GPa) = 21.78589 36.11819 28.95204
# Shear Modulus (GPa) = 21.81504 37.82078 29.81791
#
# Velocity S-wave (km/s) = 3.00487 3.95652 3.51307
# Velocity P-wave (km/s) = 4.58870 5.98510 5.33280
#
# Compressibility (1/GPa) = 0.04590127
#
# Stress axis : x y z
#
# Youngs Moduli (GPa) = 44.78397 66.70237 93.49506
#
# Poissons Ratio (x) = -0.07839 0.14721
# Poissons Ratio (y) = -0.05263 0.06158
# Poissons Ratio (z) = 0.07051 0.04393
#
# Static dielectric constant tensor:
#      x y z
#    x 1.933550 -0.020110 0.015600 
#    y -0.020110 1.990050 -0.020830 
#    z 0.015600 -0.020830 2.081960 
# 
# From -- ./inp_files/49404.got.cif
#   From: 2010.05.17/outbox.cif.g08.bks.cpg/sg2_25_cif.got.tgz:49404.got - 2010.06.03 11:33:40.
