data_PCOD9065997
_publ_section_title
;
Structure prediction by ZEFSAII (Michael W. Deem and Ramdas Pophale) SiO2 
 PCOD9065997
Probable space group: P -1
;
_chemical_formula_sum "Si O2"
_cell_formula_units_Z 12
_cell_length_a 5.765070
_cell_length_b 16.285070
_cell_length_c 13.099042
_cell_angle_alpha 152.301057
_cell_angle_beta 91.640668
_cell_angle_gamma 103.372102
_cell_volume 476.345984
_symmetry_space_group_name_H-M "P -1"
_symmetry_group_IT_number 2
_symmetry_cell_setting 'triclinic'
loop_
_space_group_symop_operation_xyz
x,y,z
-x,-y,-z
loop_
_atom_site_type_symbol
_atom_site_label
_atom_site_fract_x
_atom_site_fract_y
_atom_site_fract_z
Si Si1 0.756249 0.884044 0.607126
Si Si2 0.232811 0.048675 0.089206
Si Si3 0.682606 0.407775 0.364177
Si Si4 0.784853 0.835713 0.234774
Si Si5 0.246384 0.539430 0.813740
Si Si6 0.213774 0.563915 0.165220
O O1 0.720882 0.958944 0.799783
O O2 0.754106 0.670942 0.392372
O O3 0.038671 0.069182 0.762562
O O4 0.492895 0.796243 0.431160
O O5 0.500000 0.500000 0.500000
O O6 0.501738 0.178641 0.167139
O O7 0.034178 0.148477 0.187790
O O8 0.669916 0.394502 0.228033
O O9 0.000000 0.500000 0.500000
O O10 0.727713 0.616701 0.034061
O O11 0.000000 0.000000 0.500000
O O12 0.466545 0.752161 0.115127
O O13 0.942029 0.470898 0.767655
O O14 0.000000 0.500000 0.000000
#
# Coordination Sequence:
#
# PCOD9065997 Si02
#       6
#     2   2   2   2   2   2
#     4  11  25  45  70  98 141 184 232 293 354 425
#     4  12  27  45  71 108 144 186 240 294 354 426
#     4  12  25  46  74 103 146 190 236 294 357 425
#     4  11  25  45  69 102 138 178 235 295 356 425
#     4  11  25  44  71  99 137 187 233 288 357 425
#     4  11  25  44  71 101 135 183 233 292 359 425
#
# _framework density 25.191775
#
# number of rings (size 3 to 8) (size 9 to 14) (size 15 to 20)
#    0.000    0.667    1.667    5.000    7.000    6.667 
#    0.000    0.000    0.000    0.000    0.000    0.000 
#    0.000    0.000    0.000    0.000    0.000    0.000 
#
# Total GULP energy -66915.212042 kJ/mol
# GULP energy per Si atom -5576.267670 kJ/mol
# Density = 2.513444 g / cm^3
# Si number density = 25.191775 Si / 1000 Ang^3
#
#
#
# Elastic Constant Matrix: (Units=GPa)
#
#
# Indices 1 2 3 4 5 6 
#
# 1 56.2089 5.1412 31.5560 9.0008 21.4242 2.6707
# 2 5.1412 111.7049 15.7584 10.4788 10.1954 11.0283
# 3 31.5560 15.7584 92.0679 5.1895 29.2846 -3.9088
# 4 9.0008 10.4788 5.1895 48.7704 8.0357 7.5574
# 5 21.4242 10.1954 29.2846 8.0357 54.4080 12.5298
# 6 2.6707 11.0283 -3.9088 7.5574 12.5298 43.8175
#
#
#
# Elastic Compliance Matrix: (Units=1/GPa)
#
#
# Indices 1 2 3 4 5 6 
#
# 1 0.023928 0.000589 -0.006331 -0.002926 -0.005683 -0.000042
# 2 0.000589 0.009569 -0.001736 -0.001578 -0.000345 -0.002229
# 3 -0.006331 -0.001736 0.015558 0.000339 -0.006531 0.004020
# 4 -0.002926 -0.001578 0.000339 0.022003 -0.001338 -0.002807
# 5 -0.005683 -0.000345 -0.006531 -0.001338 0.026095 -0.007381
# 6 -0.000042 -0.002229 0.004020 -0.002807 -0.007381 0.026339
#
#
# Mechanical properties :
#
#
# Convention : Reuss Voigt Hill
#
# Bulk Modulus (GPa) = 29.32638 40.54366 34.93502
# Shear Modulus (GPa) = 33.37484 43.23423 38.30453
#
# Velocity S-wave (km/s) = 3.64377 4.14720 3.90361
# Velocity P-wave (km/s) = 5.41934 6.24991 5.84939
#
# Compressibility (1/GPa) = 0.03409900
#
# Stress axis : x y z
#
# Youngs Moduli (GPa) = 41.79209 104.49944 64.27684
#
# Poissons Ratio (x) = -0.06157 0.40696
# Poissons Ratio (y) = -0.02462 0.11158
# Poissons Ratio (z) = 0.26460 0.18140
#
# Static dielectric constant tensor:
#      x y z
#    x 2.150140 -0.084250 -0.064590 
#    y -0.084250 1.980480 -0.009880 
#    z -0.064590 -0.009880 2.054180 
# 
# From -- ./inp_files/34215.got.cif
#   From: 2010.05.17/outbox.cif.g08.bks.cpg/sg2_18_cif.got.tgz:34215.got - 2010.06.03 11:33:40.
