data_PCOD9065324
_publ_section_title
;
Structure prediction by ZEFSAII (Michael W. Deem and Ramdas Pophale) SiO2 
 PCOD9065324
Probable space group: P -1
;
_chemical_formula_sum "Si O2"
_cell_formula_units_Z 14
_cell_length_a 5.428111
_cell_length_b 22.942673
_cell_length_c 5.342712
_cell_angle_alpha 108.974594
_cell_angle_beta 76.506274
_cell_angle_gamma 110.257763
_cell_volume 584.789507
_symmetry_space_group_name_H-M "P -1"
_symmetry_group_IT_number 2
_symmetry_cell_setting 'triclinic'
loop_
_space_group_symop_operation_xyz
x,y,z
-x,-y,-z
loop_
_atom_site_type_symbol
_atom_site_label
_atom_site_fract_x
_atom_site_fract_y
_atom_site_fract_z
Si Si1 0.725630 0.809793 0.873314
Si Si2 0.671407 0.513335 0.728322
Si Si3 0.346949 0.887191 0.896377
Si Si4 0.742607 0.380085 0.596321
Si Si5 0.956096 0.351292 0.020308
Si Si6 0.700205 0.988878 0.640723
Si Si7 0.283948 0.268087 0.741598
O O1 0.697951 0.773333 0.562589
O O2 0.527003 0.854576 0.977222
O O3 0.647861 0.764665 0.072510
O O4 0.047333 0.842776 0.858392
O O5 0.500000 0.500000 0.500000
O O6 0.806938 0.456020 0.639196
O O7 0.831231 0.588088 0.813361
O O8 0.500000 0.500000 0.000000
O O9 0.289324 0.952900 0.091324
O O10 0.559501 0.916539 0.667171
O O11 0.466749 0.340349 0.734421
O O12 0.735144 0.347126 0.280266
O O13 0.930066 0.371551 0.767686
O O14 0.010856 0.282964 0.890442
O O15 0.500000 0.000000 0.500000
O O16 0.000000 0.000000 0.500000
#
# Coordination Sequence:
#
# PCOD9065324 Si02
#       7
#     2   2   2   2   2   2   2
#     4  12  30  49  80 109 162 210 256 314 376 458
#     4  12  24  44  72 103 143 182 244 317 400 459
#     4  11  28  50  74 120 154 201 258 312 378 449
#     4  12  26  47  74 102 141 192 249 317 389 458
#     4  12  26  47  74 102 141 192 249 317 389 458
#     4  11  24  47  84 115 155 198 250 319 378 443
#     4  12  30  49  72 107 148 200 258 312 370 456
#
# _framework density 23.940238999999998
#
# number of rings (size 3 to 8) (size 9 to 14) (size 15 to 20)
#    0.000    0.286    1.429    6.000   14.000    2.286 
#    0.000    0.000    0.000    0.000    0.000    0.000 
#    0.000    0.000    0.000    0.000    0.000    0.000 
#
# Total GULP energy -78114.645814 kJ/mol
# GULP energy per Si atom -5579.617558 kJ/mol
# Density = 2.388575 g / cm^3
# Si number density = 23.940239 Si / 1000 Ang^3
#
#
#
# Elastic Constant Matrix: (Units=GPa)
#
#
# Indices 1 2 3 4 5 6 
#
# 1 121.8707 55.0544 14.3322 -11.3593 -0.0334 -3.2534
# 2 55.0544 116.9721 42.8473 -24.3641 0.2301 -10.1655
# 3 14.3322 42.8473 110.6406 -11.1602 0.0760 -9.8418
# 4 -11.3593 -24.3641 -11.1602 40.5863 -7.2286 5.3039
# 5 -0.0334 0.2301 0.0760 -7.2286 48.7966 -2.3379
# 6 -3.2534 -10.1655 -9.8418 5.3039 -2.3379 60.7778
#
#
#
# Elastic Compliance Matrix: (Units=1/GPa)
#
#
# Indices 1 2 3 4 5 6 
#
# 1 0.010463 -0.005167 0.000631 0.000031 0.000025 -0.000204
# 2 -0.005167 0.013707 -0.003983 0.005717 0.000828 0.000904
# 3 0.000631 -0.003983 0.010653 0.000604 0.000142 0.001045
# 4 0.000031 0.005717 0.000604 0.029172 0.004230 -0.001327
# 5 0.000025 0.000828 0.000142 0.004230 0.021145 0.000607
# 6 -0.000204 0.000904 0.001045 -0.001327 0.000607 0.016902
#
#
# Mechanical properties :
#
#
# Convention : Reuss Voigt Hill
#
# Bulk Modulus (GPa) = 56.22588 63.77236 59.99912
# Shear Modulus (GPa) = 39.99750 45.84878 42.92314
#
# Velocity S-wave (km/s) = 4.09188 4.38097 4.23889
# Velocity P-wave (km/s) = 6.77212 7.23094 7.00529
#
# Compressibility (1/GPa) = 0.01778540
#
# Stress axis : x y z
#
# Youngs Moduli (GPa) = 95.57721 72.95371 93.87293
#
# Poissons Ratio (x) = 0.37693 -0.05919
# Poissons Ratio (y) = 0.49381 0.37386
# Poissons Ratio (z) = -0.06027 0.29055
#
# Static dielectric constant tensor:
#      x y z
#    x 2.061180 0.022920 -0.048060 
#    y 0.022920 2.001360 0.032680 
#    z -0.048060 0.032680 1.989070 
# 
# From -- ./inp_files/13573.got.cif
#   From: 2010.05.17/outbox.cif.g08.bks.cpg/sg2_7_cif.got.tgz:13573.got - 2010.06.03 11:33:40.
