data_PCOD9065759
_publ_section_title
;
Structure prediction by ZEFSAII (Michael W. Deem and Ramdas Pophale) SiO2 
 PCOD9065759
Probable space group: P -1
;
_chemical_formula_sum "Si O2"
_cell_formula_units_Z 12
_cell_length_a 5.950368
_cell_length_b 11.592694
_cell_length_c 8.601972
_cell_angle_alpha 62.849533
_cell_angle_beta 69.104804
_cell_angle_gamma 93.414669
_cell_volume 475.297972
_symmetry_space_group_name_H-M "P -1"
_symmetry_group_IT_number 2
_symmetry_cell_setting 'triclinic'
loop_
_space_group_symop_operation_xyz
x,y,z
-x,-y,-z
loop_
_atom_site_type_symbol
_atom_site_label
_atom_site_fract_x
_atom_site_fract_y
_atom_site_fract_z
Si Si1 0.694618 0.445243 0.183205
Si Si2 0.969492 0.399090 0.712761
Si Si3 0.191655 0.243286 0.525161
Si Si4 0.067339 0.289869 0.195035
Si Si5 0.520842 0.808424 0.005632
Si Si6 0.279593 0.038363 0.836205
O O1 0.423409 0.370904 0.354748
O O2 0.852206 0.526596 0.239813
O O3 0.813144 0.322167 0.185344
O O4 0.748267 0.559061 0.967742
O O5 0.681666 0.335098 0.864365
O O6 0.000000 0.500000 0.500000
O O7 0.059379 0.276461 0.692262
O O8 0.033728 0.236320 0.411859
O O9 0.272749 0.110261 0.629279
O O10 0.212415 0.200157 0.120346
O O11 0.556145 0.855458 0.146657
O O12 0.404608 0.915166 0.880488
O O13 0.000000 0.000000 0.000000
#
# Coordination Sequence:
#
# PCOD9065759 Si02
#       6
#     2   2   2   2   2   2
#     4  11  25  42  68 101 146 177 213 273 348 400
#     4  12  22  41  71 101 133 177 223 273 334 402
#     4  12  24  43  70 100 136 177 232 272 329 402
#     4  11  26  42  67 103 140 176 218 278 343 401
#     4  11  26  45  70  98 136 176 227 279 338 394
#     4  11  25  48  72  95 131 182 231 280 330 395
#
# _framework density 25.247316999999999
#
# number of rings (size 3 to 8) (size 9 to 14) (size 15 to 20)
#    0.000    0.667    3.333    4.000    4.667    0.667 
#    0.000    1.667    0.000    0.000    0.000    0.000 
#    0.000    0.000    0.000    0.000    0.000    0.000 
#
# Total GULP energy -67177.768236 kJ/mol
# GULP energy per Si atom -5598.147353 kJ/mol
# Density = 2.518985 g / cm^3
# Si number density = 25.247317 Si / 1000 Ang^3
#
#
#
# Elastic Constant Matrix: (Units=GPa)
#
#
# Indices 1 2 3 4 5 6 
#
# 1 46.2080 24.7601 18.9987 -2.3965 9.4842 -10.3613
# 2 24.7601 91.3155 22.2471 2.0386 12.3957 -24.0196
# 3 18.9987 22.2471 105.5410 -13.8553 37.0317 -7.6504
# 4 -2.3965 2.0386 -13.8553 38.3697 -18.0016 -0.8737
# 5 9.4842 12.3957 37.0317 -18.0016 57.7381 -3.2821
# 6 -10.3613 -24.0196 -7.6504 -0.8737 -3.2821 59.4036
#
#
#
# Elastic Compliance Matrix: (Units=1/GPa)
#
#
# Indices 1 2 3 4 5 6 
#
# 1 0.026675 -0.005898 -0.003043 0.000498 -0.000904 0.001834
# 2 -0.005898 0.014336 -0.001337 -0.002318 -0.001720 0.004467
# 3 -0.003043 -0.001337 0.012990 0.001222 -0.007151 0.000224
# 4 0.000498 -0.002318 0.001222 0.031039 0.009325 0.000279
# 5 -0.000904 -0.001720 -0.007151 0.009325 0.025318 -0.000238
# 6 0.001834 0.004467 0.000224 0.000279 -0.000238 0.018980
#
#
# Mechanical properties :
#
#
# Convention : Reuss Voigt Hill
#
# Bulk Modulus (GPa) = 29.89906 41.67515 35.78710
# Shear Modulus (GPa) = 31.04752 42.90618 36.97685
#
# Velocity S-wave (km/s) = 3.51056 4.12689 3.83114
# Velocity P-wave (km/s) = 5.31980 6.26506 5.81168
#
# Compressibility (1/GPa) = 0.03344587
#
# Stress axis : x y z
#
# Youngs Moduli (GPa) = 37.48792 69.75359 76.97942
#
# Poissons Ratio (x) = 0.41138 0.23426
# Poissons Ratio (y) = 0.22109 0.10294
# Poissons Ratio (z) = 0.11408 0.09328
#
# Static dielectric constant tensor:
#      x y z
#    x 2.023380 -0.059180 0.013330 
#    y -0.059180 2.074700 0.023380 
#    z 0.013330 0.023380 1.930080 
# 
# From -- ./inp_files/28500.got.cif
#   From: 2010.05.17/outbox.cif.g08.bks.cpg/sg2_15_cif.got.tgz:28500.got - 2010.06.03 11:33:40.
