data_PCOD9065346
_publ_section_title
;
Structure prediction by ZEFSAII (Michael W. Deem and Ramdas Pophale) SiO2 
 PCOD9065346
Probable space group: P -1
;
_chemical_formula_sum "Si O2"
_cell_formula_units_Z 14
_cell_length_a 8.724735
_cell_length_b 19.370093
_cell_length_c 6.425746
_cell_angle_alpha 52.673188
_cell_angle_beta 125.490932
_cell_angle_gamma 128.789473
_cell_volume 636.814006
_symmetry_space_group_name_H-M "P -1"
_symmetry_group_IT_number 2
_symmetry_cell_setting 'triclinic'
loop_
_space_group_symop_operation_xyz
x,y,z
-x,-y,-z
loop_
_atom_site_type_symbol
_atom_site_label
_atom_site_fract_x
_atom_site_fract_y
_atom_site_fract_z
Si Si1 0.831234 0.709399 0.167389
Si Si2 0.935297 0.331917 0.219608
Si Si3 0.858950 0.101078 0.174517
Si Si4 0.121987 0.064288 0.786843
Si Si5 0.577825 0.195398 0.877396
Si Si6 0.165492 0.464574 0.787320
Si Si7 0.398622 0.663109 0.740142
O O1 0.827141 0.617519 0.205231
O O2 0.919900 0.706722 0.470021
O O3 0.600714 0.701718 0.973987
O O4 0.988896 0.806149 0.004295
O O5 0.803927 0.357849 0.242150
O O6 0.756757 0.257838 0.065859
O O7 0.083014 0.416851 0.033074
O O8 0.974182 0.101972 0.479636
O O9 0.832956 0.005805 0.208662
O O10 0.648531 0.113076 0.016677
O O11 0.344491 0.148007 0.866372
O O12 0.000000 0.000000 0.000000
O O13 0.583917 0.261020 0.564131
O O14 0.369838 0.563331 0.793952
O O15 0.000000 0.500000 0.500000
#
# Coordination Sequence:
#
# PCOD9065346 Si02
#       7
#     2   2   2   2   2   2   2
#     4  12  26  45  72 101 144 180 235 285 342 405
#     4  12  25  42  73 102 140 186 230 283 334 418
#     4  11  24  48  70 102 138 179 226 292 343 406
#     4  11  28  45  75 103 136 176 233 287 346 422
#     4  12  25  47  73 100 143 184 224 285 350 409
#     4  12  23  47  68 102 146 185 230 286 337 399
#     4  12  26  44  72 101 142 189 230 281 343 403
#
# _framework density 21.984439999999999
#
# number of rings (size 3 to 8) (size 9 to 14) (size 15 to 20)
#    0.000    0.286    7.143    1.286    4.000    2.286 
#    0.000    0.000    0.000    0.000    0.000    0.000 
#    0.000    0.000    0.000    0.000    0.000    0.000 
#
# Total GULP energy -78363.746362 kJ/mol
# GULP energy per Si atom -5597.410454 kJ/mol
# Density = 2.193440 g / cm^3
# Si number density = 21.984440 Si / 1000 Ang^3
#
#
#
# Elastic Constant Matrix: (Units=GPa)
#
#
# Indices 1 2 3 4 5 6 
#
# 1 60.6554 18.3449 47.9967 0.8669 7.9327 9.1967
# 2 18.3449 83.3686 54.5148 10.0544 14.2583 2.1790
# 3 47.9967 54.5148 221.3820 2.5812 2.5368 26.1303
# 4 0.8669 10.0544 2.5812 38.4108 7.3740 5.3885
# 5 7.9327 14.2583 2.5368 7.3740 31.3560 0.0108
# 6 9.1967 2.1790 26.1303 5.3885 0.0108 39.4314
#
#
#
# Elastic Compliance Matrix: (Units=1/GPa)
#
#
# Indices 1 2 3 4 5 6 
#
# 1 0.020929 -0.001374 -0.003875 0.001387 -0.004682 -0.002426
# 2 -0.001374 0.016154 -0.003860 -0.003135 -0.005949 0.002416
# 3 -0.003875 -0.003860 0.006679 0.000739 0.002023 -0.003410
# 4 0.001387 -0.003135 0.000739 0.028502 -0.005686 -0.004533
# 5 -0.004682 -0.005949 0.002023 -0.005686 0.036955 0.000847
# 6 -0.002426 0.002416 -0.003410 -0.004533 0.000847 0.028672
#
#
# Mechanical properties :
#
#
# Convention : Reuss Voigt Hill
#
# Bulk Modulus (GPa) = 39.15211 67.45765 53.30488
# Shear Modulus (GPa) = 30.37227 38.14294 34.25761
#
# Velocity S-wave (km/s) = 3.72093 4.16985 3.95177
# Velocity P-wave (km/s) = 6.02562 7.34400 6.71724
#
# Compressibility (1/GPa) = 0.02554141
#
# Stress axis : x y z
#
# Youngs Moduli (GPa) = 47.78060 61.90392 149.73254
#
# Poissons Ratio (x) = 0.08509 0.58026
# Poissons Ratio (y) = 0.06567 0.57802
# Poissons Ratio (z) = 0.18516 0.23897
#
# Static dielectric constant tensor:
#      x y z
#    x 1.818940 -0.023950 0.014300 
#    y -0.023950 1.871000 0.025900 
#    z 0.014300 0.025900 1.762080 
# 
# From -- ./inp_files/38336.got.cif
#   From: 2010.05.17/outbox.cif.g08.bks.cpg/sg2_20_cif.got.tgz:38336.got - 2010.06.03 11:33:40.
