data_PCOD9065373
_publ_section_title
;
Structure prediction by ZEFSAII (Michael W. Deem and Ramdas Pophale) SiO2 
 PCOD9065373
Probable space group: P -1
;
_chemical_formula_sum "Si O2"
_cell_formula_units_Z 12
_cell_length_a 8.785759
_cell_length_b 8.045940
_cell_length_c 19.176802
_cell_angle_alpha 150.824671
_cell_angle_beta 123.905363
_cell_angle_gamma 58.168373
_cell_volume 545.728522
_symmetry_space_group_name_H-M "P -1"
_symmetry_group_IT_number 2
_symmetry_cell_setting 'triclinic'
loop_
_space_group_symop_operation_xyz
x,y,z
-x,-y,-z
loop_
_atom_site_type_symbol
_atom_site_label
_atom_site_fract_x
_atom_site_fract_y
_atom_site_fract_z
Si Si1 0.076384 0.141973 0.679979
Si Si2 0.318345 0.267426 0.051148
Si Si3 0.033963 0.138086 0.161714
Si Si4 0.327764 0.778100 0.370980
Si Si5 0.707043 0.494679 0.025098
Si Si6 0.299239 0.551270 0.435484
O O1 0.194504 0.207686 0.802518
O O2 0.035323 0.512702 0.768078
O O3 0.877752 0.021451 0.604767
O O4 0.191544 0.892300 0.564662
O O5 0.331945 0.532368 0.215121
O O6 0.702072 0.543389 0.958874
O O7 0.500000 0.000000 0.000000
O O8 0.139740 0.061151 0.937629
O O9 0.159599 0.260684 0.301981
O O10 0.174416 0.862372 0.056532
O O11 0.334896 0.570689 0.369196
O O12 0.500000 0.000000 0.500000
O O13 0.500000 0.500000 0.000000
O O14 0.500000 0.500000 0.500000
#
# Coordination Sequence:
#
# PCOD9065373 Si02
#       6
#     2   2   2   2   2   2
#     4  11  25  47  74 103 141 187 233 288 355 414
#     4  12  29  44  71 107 140 187 236 292 353 407
#     4  11  24  48  72 100 142 184 238 291 341 419
#     4  11  27  46  69 101 147 183 233 291 348 416
#     4  12  26  44  74 102 141 182 239 292 349 419
#     4  11  27  46  74 105 142 190 232 283 356 420
#
# _framework density 21.988955000000001
#
# number of rings (size 3 to 8) (size 9 to 14) (size 15 to 20)
#    0.000    0.667    1.667    5.000   18.667    0.000 
#    0.000    1.667    0.000    0.000    0.000    0.000 
#    0.000    0.000    0.000    0.000    0.000    0.000 
#
# Total GULP energy -67115.366617 kJ/mol
# GULP energy per Si atom -5592.947218 kJ/mol
# Density = 2.193891 g / cm^3
# Si number density = 21.988955 Si / 1000 Ang^3
#
#
#
# Elastic Constant Matrix: (Units=GPa)
#
#
# Indices 1 2 3 4 5 6 
#
# 1 144.7465 71.0123 91.3432 -14.7523 2.6878 -26.7593
# 2 71.0123 100.2795 64.0994 -23.4714 12.8086 -32.6134
# 3 91.3432 64.0994 170.1640 -32.6884 11.3788 -13.2687
# 4 -14.7523 -23.4714 -32.6884 52.2052 -3.8947 -2.1174
# 5 2.6878 12.8086 11.3788 -3.8947 34.1934 -19.1212
# 6 -26.7593 -32.6134 -13.2687 -2.1174 -19.1212 48.4724
#
#
#
# Elastic Compliance Matrix: (Units=1/GPa)
#
#
# Indices 1 2 3 4 5 6 
#
# 1 0.013787 -0.005998 -0.005495 -0.001705 0.005022 0.003978
# 2 -0.005998 0.020646 -0.002533 0.006414 -0.000005 0.010165
# 3 -0.005495 -0.002533 0.010434 0.003462 -0.003419 -0.003079
# 4 -0.001705 0.006414 0.003462 0.024215 0.003010 0.006567
# 5 0.005022 -0.000005 -0.003419 0.003010 0.040328 0.017873
# 6 0.003978 0.010165 -0.003079 0.006567 0.017873 0.036160
#
#
# Mechanical properties :
#
#
# Convention : Reuss Voigt Hill
#
# Bulk Modulus (GPa) = 59.46433 96.45552 77.95992
# Shear Modulus (GPa) = 27.89780 39.55654 33.72717
#
# Velocity S-wave (km/s) = 3.56577 4.24598 3.92065
# Velocity P-wave (km/s) = 6.63736 8.24612 7.48508
#
# Compressibility (1/GPa) = 0.01681680
#
# Stress axis : x y z
#
# Youngs Moduli (GPa) = 72.53278 48.43565 95.84268
#
# Poissons Ratio (x) = 0.29050 0.52662
# Poissons Ratio (y) = 0.43502 0.24274
# Poissons Ratio (z) = 0.39854 0.12267
#
# Static dielectric constant tensor:
#      x y z
#    x 1.810620 0.016100 0.026200 
#    y 0.016100 1.829540 -0.023720 
#    z 0.026200 -0.023720 1.825440 
# 
# From -- ./inp_files/616882.got.cif
#   From: 2010.05.17/outbox.cif.g08.bks.cpg/sg2_309_cif.got.tgz:616882.got - 2010.06.03 11:33:40.
