data_PCOD9065159
_publ_section_title
;
Structure prediction by ZEFSAII (Michael W. Deem and Ramdas Pophale) SiO2 
 PCOD9065159
Probable space group: P -1
;
_chemical_formula_sum "Si O2"
_cell_formula_units_Z 16
_cell_length_a 7.963451
_cell_length_b 8.011750
_cell_length_c 12.213986
_cell_angle_alpha 78.428952
_cell_angle_beta 81.711656
_cell_angle_gamma 57.730562
_cell_volume 644.868824
_symmetry_space_group_name_H-M "P -1"
_symmetry_group_IT_number 2
_symmetry_cell_setting 'triclinic'
loop_
_space_group_symop_operation_xyz
x,y,z
-x,-y,-z
loop_
_atom_site_type_symbol
_atom_site_label
_atom_site_fract_x
_atom_site_fract_y
_atom_site_fract_z
Si Si1 0.338707 0.842247 0.045512
Si Si2 0.311509 0.005559 0.652146
Si Si3 0.210451 0.283839 0.027272
Si Si4 0.282181 0.734129 0.840660
Si Si5 0.631820 0.385543 0.723899
Si Si6 0.934018 0.755477 0.738001
Si Si7 0.025512 0.563459 0.369650
Si Si8 0.358161 0.880631 0.428291
O O1 0.579533 0.744587 0.027374
O O2 0.281802 0.737332 0.970436
O O3 0.276103 0.799439 0.174835
O O4 0.227649 0.081518 0.004940
O O5 0.460222 0.084015 0.610072
O O6 0.095762 0.200016 0.651662
O O7 0.341465 0.891592 0.775784
O O8 0.328345 0.875477 0.561330
O O9 0.218555 0.249913 0.161694
O O10 0.000000 0.500000 0.000000
O O11 0.440003 0.535710 0.790463
O O12 0.078949 0.787331 0.795959
O O13 0.754181 0.493056 0.674726
O O14 0.604299 0.305986 0.621648
O O15 0.044007 0.541758 0.695825
O O16 0.829236 0.922502 0.632969
O O17 0.000000 0.500000 0.500000
#
# Coordination Sequence:
#
# PCOD9065159 Si02
#       8
#     2   2   2   2   2   2   2   2
#     4  11  26  50  75 112 158 197 249 314 373 447
#     4  11  26  45  73 108 144 193 248 311 374 444
#     4  11  25  46  81 111 151 203 250 308 376 450
#     4  12  28  45  76 110 149 196 250 305 371 447
#     4  12  26  48  76 106 149 196 247 309 374 447
#     4  12  25  48  71 107 146 195 248 302 377 445
#     4  12  27  46  75 103 144 194 249 310 374 441
#     4  11  24  47  73 103 149 190 247 310 372 442
#
# _framework density 24.811250000000001
#
# number of rings (size 3 to 8) (size 9 to 14) (size 15 to 20)
#    0.000    0.500    2.500    4.875    7.000    3.000 
#    2.250    0.000    0.000    0.000    0.000    0.000 
#    0.000    0.000    0.000    0.000    0.000    0.000 
#
# Total GULP energy -89576.444498 kJ/mol
# GULP energy per Si atom -5598.527781 kJ/mol
# Density = 2.475478 g / cm^3
# Si number density = 24.811250 Si / 1000 Ang^3
#
#
#
# Elastic Constant Matrix: (Units=GPa)
#
#
# Indices 1 2 3 4 5 6 
#
# 1 88.7092 13.6928 46.6215 10.2716 -0.7920 -10.6369
# 2 13.6928 121.7696 24.2477 17.7681 4.0706 -8.3243
# 3 46.6215 24.2477 57.9198 15.8478 8.5283 2.5866
# 4 10.2716 17.7681 15.8478 47.7701 14.7534 5.0582
# 5 -0.7920 4.0706 8.5283 14.7534 39.1038 6.5097
# 6 -10.6369 -8.3243 2.5866 5.0582 6.5097 31.4723
#
#
#
# Elastic Compliance Matrix: (Units=1/GPa)
#
#
# Indices 1 2 3 4 5 6 
#
# 1 0.022523 0.002053 -0.019592 -0.001137 0.003406 0.009244
# 2 0.002053 0.009697 -0.005175 -0.002944 0.000600 0.004033
# 3 -0.019592 -0.005175 0.037380 -0.003708 -0.005043 -0.009424
# 4 -0.001137 -0.002944 -0.003708 0.026430 -0.008316 -0.003386
# 5 0.003406 0.000600 -0.005043 -0.008316 0.030352 -0.003217
# 6 0.009244 0.004033 -0.009424 -0.003386 -0.003217 0.037949
#
#
# Mechanical properties :
#
#
# Convention : Reuss Voigt Hill
#
# Bulk Modulus (GPa) = 41.37078 48.61362 44.99220
# Shear Modulus (GPa) = 22.95505 35.92503 29.44004
#
# Velocity S-wave (km/s) = 3.04499 3.80930 3.44839
# Velocity P-wave (km/s) = 5.39194 6.24368 5.83338
#
# Compressibility (1/GPa) = 0.02417165
#
# Stress axis : x y z
#
# Youngs Moduli (GPa) = 44.39884 103.12430 26.75237
#
# Poissons Ratio (x) = -0.21168 0.52413
# Poissons Ratio (y) = -0.09113 0.13844
# Poissons Ratio (z) = 0.86986 0.53365
#
# Static dielectric constant tensor:
#      x y z
#    x 1.963420 -0.022640 -0.015410 
#    y -0.022640 2.023680 -0.029380 
#    z -0.015410 -0.029380 1.898440 
# 
# From -- ./inp_files/381963.got.cif
#   From: 2010.05.17/outbox.cif.g08.bks.cpg/sg2_191_cif.got.tgz:381963.got - 2010.06.03 11:33:40.
