data_PCOD9065788
_publ_section_title
;
Structure prediction by ZEFSAII (Michael W. Deem and Ramdas Pophale) SiO2 
 PCOD9065788
Probable space group: P -1
;
_chemical_formula_sum "Si O2"
_cell_formula_units_Z 14
_cell_length_a 11.838991
_cell_length_b 9.244041
_cell_length_c 9.360123
_cell_angle_alpha 148.969397
_cell_angle_beta 83.173424
_cell_angle_gamma 92.582481
_cell_volume 521.078285
_symmetry_space_group_name_H-M "P -1"
_symmetry_group_IT_number 2
_symmetry_cell_setting 'triclinic'
loop_
_space_group_symop_operation_xyz
x,y,z
-x,-y,-z
loop_
_atom_site_type_symbol
_atom_site_label
_atom_site_fract_x
_atom_site_fract_y
_atom_site_fract_z
Si Si1 0.858372 0.040513 0.972060
Si Si2 0.939395 0.533605 0.192153
Si Si3 0.288795 0.066730 0.505536
Si Si4 0.391552 0.837687 0.853277
Si Si5 0.881639 0.442308 0.575067
Si Si6 0.501710 0.683964 0.433479
Si Si7 0.683043 0.538341 0.906611
O O1 0.910053 0.235987 0.012259
O O2 0.725318 0.022029 0.945335
O O3 0.859953 0.207927 0.264088
O O4 0.912248 0.723058 0.724973
O O5 0.822252 0.745556 0.382223
O O6 0.030207 0.640982 0.380251
O O7 0.000000 0.500000 0.000000
O O8 0.411174 0.100567 0.444647
O O9 0.272164 0.740235 0.243988
O O10 0.306320 0.197306 0.770414
O O11 0.398749 0.804955 0.654416
O O12 0.418494 0.538436 0.671648
O O13 0.500000 0.000000 0.000000
O O14 0.764761 0.547344 0.766029
O O15 0.441982 0.521043 0.180083
#
# Coordination Sequence:
#
# PCOD9065788 Si02
#       7
#     2   2   2   2   2   2   2
#     4  12  27  53  77 114 152 199 255 312 379 449
#     4  12  28  52  79 113 154 200 257 315 375 446
#     4  12  28  47  73 109 151 198 246 310 382 442
#     4  11  25  42  77 106 147 197 245 310 376 451
#     4  12  27  51  81 109 151 204 254 311 376 445
#     4  11  25  45  68 109 146 194 246 308 376 449
#     4  12  26  47  76 107 150 199 245 307 382 451
#
# _framework density 26.867364999999999
#
# number of rings (size 3 to 8) (size 9 to 14) (size 15 to 20)
#    0.000    0.286    4.286    3.429    6.000    2.857 
#    0.000    0.000    0.000    0.000    0.000    0.000 
#    0.000    0.000    0.000    0.000    0.000    0.000 
#
# Total GULP energy -78620.219226 kJ/mol
# GULP energy per Si atom -5615.729945 kJ/mol
# Density = 2.680621 g / cm^3
# Si number density = 26.867365 Si / 1000 Ang^3
#
#
#
# Elastic Constant Matrix: (Units=GPa)
#
#
# Indices 1 2 3 4 5 6 
#
# 1 138.9614 42.4857 4.6490 -13.2583 -6.2073 6.3443
# 2 42.4857 140.9518 37.0534 0.6479 -3.6061 -7.0349
# 3 4.6490 37.0534 101.6411 -14.2781 -1.3886 -8.4443
# 4 -13.2583 0.6479 -14.2781 46.0388 -7.4006 -6.4613
# 5 -6.2073 -3.6061 -1.3886 -7.4006 35.1221 2.3542
# 6 6.3443 -7.0349 -8.4443 -6.4613 2.3542 46.2936
#
#
#
# Elastic Compliance Matrix: (Units=1/GPa)
#
#
# Indices 1 2 3 4 5 6 
#
# 1 0.008443 -0.002824 0.000991 0.002936 0.001933 -0.001094
# 2 -0.002824 0.008859 -0.003291 -0.001862 -0.000171 0.000882
# 3 0.000991 -0.003291 0.011808 0.004464 0.001105 0.002085
# 4 0.002936 -0.001862 0.004464 0.025355 0.005620 0.003382
# 5 0.001933 -0.000171 0.001105 0.005620 0.030080 -0.000835
# 6 -0.001094 0.000882 0.002085 0.003382 -0.000835 0.022780
#
#
# Mechanical properties :
#
#
# Convention : Reuss Voigt Hill
#
# Bulk Modulus (GPa) = 53.01495 61.10341 57.05918
# Shear Modulus (GPa) = 40.36780 45.31530 42.84155
#
# Velocity S-wave (km/s) = 3.88039 4.11132 3.99752
# Velocity P-wave (km/s) = 6.31281 6.73270 6.52613
#
# Compressibility (1/GPa) = 0.01886261
#
# Stress axis : x y z
#
# Youngs Moduli (GPa) = 118.44244 112.87656 84.68534
#
# Poissons Ratio (x) = 0.31877 -0.08395
# Poissons Ratio (y) = 0.33449 0.27872
# Poissons Ratio (z) = -0.11741 0.37150
#
# Static dielectric constant tensor:
#      x y z
#    x 2.109400 0.014300 -0.009270 
#    y 0.014300 2.189920 -0.024630 
#    z -0.009270 -0.024630 2.102550 
# 
# From -- ./inp_files/131751.got.cif
#   From: 2010.05.17/outbox.cif.g08.bks.cpg/sg2_66_cif.got.tgz:131751.got - 2010.06.03 11:33:40.
