data_PCOD9065441
_publ_section_title
;
Structure prediction by ZEFSAII (Michael W. Deem and Ramdas Pophale) SiO2 
 PCOD9065441
Probable space group: P -1
;
_chemical_formula_sum "Si O2"
_cell_formula_units_Z 13
_cell_length_a 7.973193
_cell_length_b 9.974034
_cell_length_c 10.726189
_cell_angle_alpha 76.083696
_cell_angle_beta 46.884192
_cell_angle_gamma 63.218423
_cell_volume 552.887204
_symmetry_space_group_name_H-M "P -1"
_symmetry_group_IT_number 2
_symmetry_cell_setting 'triclinic'
loop_
_space_group_symop_operation_xyz
x,y,z
-x,-y,-z
loop_
_atom_site_type_symbol
_atom_site_label
_atom_site_fract_x
_atom_site_fract_y
_atom_site_fract_z
Si Si1 0.613757 0.424588 0.829830
Si Si2 0.688639 0.048895 0.574844
Si Si3 0.183679 0.929432 0.219939
Si Si4 0.248924 0.641192 0.556561
Si Si5 0.121801 0.617483 0.896203
Si Si6 0.197619 0.066122 0.921986
Si Si7 0.000000 0.500000 0.500000
O O1 0.657635 0.250760 0.830902
O O2 0.412151 0.534614 0.808392
O O3 0.875436 0.441048 0.684933
O O4 0.500000 0.500000 0.000000
O O5 0.777505 0.002386 0.683154
O O6 0.669681 0.220264 0.541570
O O7 0.427105 0.030675 0.718102
O O8 0.888107 0.960822 0.385833
O O9 0.257371 0.003731 0.047369
O O10 0.500000 0.500000 0.500000
O O11 0.094571 0.677130 0.755780
O O12 0.103415 0.598770 0.528735
O O13 0.000000 0.500000 0.000000
O O14 0.961227 0.756125 0.033185
O O15 0.000000 0.000000 0.000000
#
# Coordination Sequence:
#
# PCOD9065441 Si02
#       7
#     2   2   2   2   2   2   1
#     4  12  26  46  73 114 151 193 259 318 375 462
#     4  11  25  48  75 104 149 198 252 314 385 454
#     4  11  24  48  74 105 143 201 248 309 385 452
#     4  12  23  48  75 109 155 201 253 323 385 457
#     4  12  25  48  77 107 157 206 254 323 389 457
#     4  12  27  47  75 112 150 200 255 314 386 465
#     4  12  26  44  76 114 146 198 260 308 388 462
#
# _framework density 23.512933
#
# number of rings (size 3 to 8) (size 9 to 14) (size 15 to 20)
#    0.000    0.308    4.615    4.154    0.000    4.308 
#    0.000    0.000    0.000    0.000    0.000    0.000 
#    0.000    0.000    0.000    0.000    0.000    0.000 
#
# Total GULP energy -72374.731150 kJ/mol
# GULP energy per Si atom -5567.287012 kJ/mol
# Density = 2.345942 g / cm^3
# Si number density = 23.512933 Si / 1000 Ang^3
#
#
#
# Elastic Constant Matrix: (Units=GPa)
#
#
# Indices 1 2 3 4 5 6 
#
# 1 61.7189 -26.0495 43.0254 -22.1873 22.3300 1.3626
# 2 -26.0495 -76.5421 118.4935 -59.6654 42.0847 -39.9456
# 3 43.0254 118.4935 47.7804 28.1949 -28.1868 22.2364
# 4 -22.1873 -59.6654 28.1949 29.1011 20.7969 -13.7084
# 5 22.3300 42.0847 -28.1868 20.7969 20.4058 3.6381
# 6 1.3626 -39.9456 22.2364 -13.7084 3.6381 28.1800
#
#
#
# Elastic Compliance Matrix: (Units=1/GPa)
#
#
# Indices 1 2 3 4 5 6 
#
# 1 0.016520 -0.006014 -0.000327 0.001020 -0.005771 -0.007824
# 2 -0.006014 0.004293 0.003649 -0.005849 0.008817 -0.000487
# 3 -0.000327 0.003649 0.006502 0.004409 -0.003146 0.002609
# 4 0.001020 -0.005849 0.004409 0.017663 -0.000397 -0.003177
# 5 -0.005771 0.008817 -0.003146 -0.000397 0.031230 0.011034
# 6 -0.007824 -0.000487 0.002609 -0.003177 0.011034 0.030145
#
#
# Mechanical properties :
#
#
# Convention : Reuss Voigt Hill
#
# Bulk Modulus (GPa) = 45.59730 33.76624 39.68177
# Shear Modulus (GPa) = 42.00018 8.70322 25.35170
#
# Velocity S-wave (km/s) = 4.23100 1.92601 3.28716
# Velocity P-wave (km/s) = 6.58050 4.39749 5.59647
#
# Compressibility (1/GPa) = 0.02193113
#
# Stress axis : x y z
#
# Youngs Moduli (GPa) = 60.53312 232.94724 153.79367
#
# Poissons Ratio (x) = 1.40094 0.05030
# Poissons Ratio (y) = 0.36404 -0.56121
# Poissons Ratio (z) = 0.01980 -0.85005
#
# Static dielectric constant tensor:
#      x y z
#    x 2.075180 -0.024320 -0.040640 
#    y -0.024320 1.838190 0.042820 
#    z -0.040640 0.042820 1.855340 
# 
# From -- ./inp_files/378530.got.cif
#   From: 2010.05.17/outbox.cif.g08.bks.cpg/sg2_190_cif.got.tgz:378530.got - 2010.06.03 11:33:40.
