data_PCOD9065403
_publ_section_title
;
Structure prediction by ZEFSAII (Michael W. Deem and Ramdas Pophale) SiO2 
 PCOD9065403
Probable space group: P -1
;
_chemical_formula_sum "Si O2"
_cell_formula_units_Z 14
_cell_length_a 5.072543
_cell_length_b 9.245417
_cell_length_c 15.364661
_cell_angle_alpha 116.144852
_cell_angle_beta 74.259303
_cell_angle_gamma 120.403202
_cell_volume 556.805846
_symmetry_space_group_name_H-M "P -1"
_symmetry_group_IT_number 2
_symmetry_cell_setting 'triclinic'
loop_
_space_group_symop_operation_xyz
x,y,z
-x,-y,-z
loop_
_atom_site_type_symbol
_atom_site_label
_atom_site_fract_x
_atom_site_fract_y
_atom_site_fract_z
Si Si1 0.252488 0.539261 0.748969
Si Si2 0.795601 0.374784 0.409260
Si Si3 0.104315 0.819404 0.238333
Si Si4 0.323866 0.033456 0.444566
Si Si5 0.041543 0.247548 0.078074
Si Si6 0.700084 0.305223 0.974523
Si Si7 0.926444 0.860721 0.776986
O O1 0.227681 0.512078 0.640424
O O2 0.995013 0.592164 0.824368
O O3 0.570922 0.715587 0.780514
O O4 0.199599 0.360529 0.757282
O O5 0.484232 0.233332 0.443042
O O6 0.000000 0.500000 0.500000
O O7 0.925497 0.245794 0.319128
O O8 0.307853 0.772757 0.140437
O O9 0.279305 0.899340 0.333227
O O10 0.038931 0.969339 0.235805
O O11 0.500000 0.000000 0.500000
O O12 0.000000 0.000000 0.500000
O O13 0.384665 0.307983 0.029454
O O14 0.956360 0.100561 0.123670
O O15 0.199846 0.801886 0.991548
O O16 0.000000 0.500000 0.000000
#
# Coordination Sequence:
#
# PCOD9065403 Si02
#       7
#     2   2   2   2   2   2   2
#     4  11  24  49  76 110 157 208 261 330 400 478
#     4  11  26  49  79 114 163 210 264 341 409 478
#     4  12  27  48  82 115 158 216 263 340 398 471
#     4  12  28  51  78 120 155 199 271 324 400 485
#     4  11  24  48  72 112 156 209 263 327 386 479
#     4  12  25  46  78 114 161 209 274 322 402 476
#     4  11  25  50  77 113 164 204 278 322 406 482
#
# _framework density 25.143412999999999
#
# number of rings (size 3 to 8) (size 9 to 14) (size 15 to 20)
#    0.000    0.571    4.286    2.143    2.000    4.000 
#    5.143    0.000    0.000    0.000    0.000    0.000 
#    0.000    0.000    0.000    0.000    0.000    0.000 
#
# Total GULP energy -78521.147026 kJ/mol
# GULP energy per Si atom -5608.653359 kJ/mol
# Density = 2.508619 g / cm^3
# Si number density = 25.143413 Si / 1000 Ang^3
#
#
#
# Elastic Constant Matrix: (Units=GPa)
#
#
# Indices 1 2 3 4 5 6 
#
# 1 138.6468 61.6761 58.6165 -24.8892 -11.3252 14.5259
# 2 61.6761 200.7643 48.3346 -31.4429 -4.9447 -1.5919
# 3 58.6165 48.3346 194.1473 -34.8194 6.8055 9.9852
# 4 -24.8892 -31.4429 -34.8194 39.0449 -7.9060 4.6890
# 5 -11.3252 -4.9447 6.8055 -7.9060 43.9887 -14.3468
# 6 14.5259 -1.5919 9.9852 4.6890 -14.3468 43.4282
#
#
#
# Elastic Compliance Matrix: (Units=1/GPa)
#
#
# Indices 1 2 3 4 5 6 
#
# 1 0.010052 -0.001987 -0.001764 0.004059 0.002506 -0.002640
# 2 -0.001987 0.006287 -0.000425 0.003544 0.001229 0.001016
# 3 -0.001764 -0.000425 0.006742 0.004500 -0.001360 -0.001911
# 4 0.004059 0.003544 0.004500 0.036786 0.005969 -0.004262
# 5 0.002506 0.001229 -0.001360 0.005969 0.027383 0.007921
# 6 -0.002640 0.001016 -0.001911 -0.004262 0.007921 0.027463
#
#
# Mechanical properties :
#
#
# Convention : Reuss Voigt Hill
#
# Bulk Modulus (GPa) = 67.89430 96.75699 82.32564
# Shear Modulus (GPa) = 39.06977 49.62111 44.34544
#
# Velocity S-wave (km/s) = 3.94620 4.44725 4.20420
# Velocity P-wave (km/s) = 6.91555 8.05831 7.50870
#
# Compressibility (1/GPa) = 0.01472878
#
# Stress axis : x y z
#
# Youngs Moduli (GPa) = 99.47987 159.05551 148.31986
#
# Poissons Ratio (x) = 0.31602 0.26171
# Poissons Ratio (y) = 0.19765 0.06304
# Poissons Ratio (z) = 0.17553 0.06761
#
# Static dielectric constant tensor:
#      x y z
#    x 1.999380 -0.025920 0.016090 
#    y -0.025920 2.034320 0.027780 
#    z 0.016090 0.027780 1.976290 
# 
# From -- ./inp_files/547382.got.cif
#   From: 2010.05.17/outbox.cif.g08.bks.cpg/sg2_274_cif.got.tgz:547382.got - 2010.06.03 11:33:40.
