data_PCOD9065678
_publ_section_title
;
Structure prediction by ZEFSAII (Michael W. Deem and Ramdas Pophale) SiO2 
 PCOD9065678
Probable space group: P -1
;
_chemical_formula_sum "Si O2"
_cell_formula_units_Z 14
_cell_length_a 5.007833
_cell_length_b 9.194746
_cell_length_c 19.399976
_cell_angle_alpha 141.933900
_cell_angle_beta 72.667249
_cell_angle_gamma 107.086411
_cell_volume 523.091746
_symmetry_space_group_name_H-M "P -1"
_symmetry_group_IT_number 2
_symmetry_cell_setting 'triclinic'
loop_
_space_group_symop_operation_xyz
x,y,z
-x,-y,-z
loop_
_atom_site_type_symbol
_atom_site_label
_atom_site_fract_x
_atom_site_fract_y
_atom_site_fract_z
Si Si1 0.202661 0.125757 0.739130
Si Si2 0.729438 0.508223 0.808871
Si Si3 0.826236 0.860438 0.401558
Si Si4 0.253490 0.666781 0.072665
Si Si5 0.321981 0.505611 0.344786
Si Si6 0.623192 0.958692 0.051007
Si Si7 0.249463 0.756912 0.720110
O O1 0.453341 0.339979 0.793177
O O2 0.195903 0.006648 0.620035
O O3 0.896650 0.214922 0.808655
O O4 0.255205 0.959590 0.737746
O O5 0.638610 0.598053 0.774039
O O6 0.794843 0.728321 0.937316
O O7 0.986441 0.354434 0.714283
O O8 0.522423 0.748836 0.410179
O O9 0.000000 0.000000 0.500000
O O10 0.500000 0.500000 0.000000
O O11 0.359368 0.865910 0.084458
O O12 0.000000 0.500000 0.000000
O O13 0.989718 0.453968 0.359298
O O14 0.461744 0.359163 0.337791
O O15 0.208307 0.865533 0.841009
O O16 0.500000 0.000000 0.000000
#
# Coordination Sequence:
#
# PCOD9065678 Si02
#       7
#     2   2   2   2   2   2   2
#     4  11  27  45  79 114 157 208 261 327 397 469
#     4  11  24  50  77 112 159 201 275 314 385 469
#     4  11  27  54  86 113 149 208 273 340 402 464
#     4  12  25  46  68 107 157 203 254 310 375 458
#     4  11  25  50  77 111 161 198 261 322 391 469
#     4  12  26  45  75 116 161 217 256 303 389 473
#     4  12  26  48  73 118 164 205 248 320 393 475
#
# _framework density 26.763947999999999
#
# number of rings (size 3 to 8) (size 9 to 14) (size 15 to 20)
#    0.000    0.571    4.286    2.571    4.000    2.857 
#    7.714    1.429    0.000    0.000    0.000    0.000 
#    0.000    0.000    0.000    0.000    0.000    0.000 
#
# Total GULP energy -78379.747772 kJ/mol
# GULP energy per Si atom -5598.553412 kJ/mol
# Density = 2.670303 g / cm^3
# Si number density = 26.763948 Si / 1000 Ang^3
#
#
#
# Elastic Constant Matrix: (Units=GPa)
#
#
# Indices 1 2 3 4 5 6 
#
# 1 182.7810 59.9929 36.8362 -6.7478 8.4278 0.7119
# 2 59.9929 151.1942 21.0227 -19.9818 3.2666 -18.2936
# 3 36.8362 21.0227 119.9350 -19.5727 8.3954 -4.7288
# 4 -6.7478 -19.9818 -19.5727 38.4636 6.9861 9.3895
# 5 8.4278 3.2666 8.3954 6.9861 53.5344 -0.0577
# 6 0.7119 -18.2936 -4.7288 9.3895 -0.0577 57.1419
#
#
#
# Elastic Compliance Matrix: (Units=1/GPa)
#
#
# Indices 1 2 3 4 5 6 
#
# 1 0.006673 -0.002609 -0.001712 -0.000730 -0.000529 -0.000941
# 2 -0.002609 0.008378 0.000025 0.003485 -0.000557 0.002143
# 3 -0.001712 0.000025 0.009820 0.005059 -0.001932 0.000009
# 4 -0.000730 0.003485 0.005059 0.032090 -0.005083 -0.003735
# 5 -0.000529 -0.000557 -0.001932 -0.005083 0.019764 0.000524
# 6 -0.000941 0.002143 0.000009 -0.003735 0.000524 0.018813
#
#
# Mechanical properties :
#
#
# Convention : Reuss Voigt Hill
#
# Bulk Modulus (GPa) = 61.42224 76.62374 69.02299
# Shear Modulus (GPa) = 45.63888 52.23187 48.93537
#
# Velocity S-wave (km/s) = 4.13393 4.42246 4.28063
# Velocity P-wave (km/s) = 6.76648 7.40062 7.09064
#
# Compressibility (1/GPa) = 0.01628075
#
# Stress axis : x y z
#
# Youngs Moduli (GPa) = 149.85055 119.36527 101.82993
#
# Poissons Ratio (x) = 0.31140 0.17428
# Poissons Ratio (y) = 0.39093 -0.00255
# Poissons Ratio (z) = 0.25647 -0.00299
#
# Static dielectric constant tensor:
#      x y z
#    x 2.094180 -0.074550 -0.044760 
#    y -0.074550 2.169390 0.069990 
#    z -0.044760 0.069990 2.119260 
# 
# From -- ./inp_files/103799.got.cif
#   From: 2010.05.17/outbox.cif.g08.bks.cpg/sg2_52_cif.got.tgz:103799.got - 2010.06.03 11:33:40.
