data_PCOD9065424
_publ_section_title
;
Structure prediction by ZEFSAII (Michael W. Deem and Ramdas Pophale) SiO2 
 PCOD9065424
Probable space group: P -1
;
_chemical_formula_sum "Si O2"
_cell_formula_units_Z 12
_cell_length_a 12.729062
_cell_length_b 16.222405
_cell_length_c 9.687708
_cell_angle_alpha 44.236756
_cell_angle_beta 143.013643
_cell_angle_gamma 154.797698
_cell_volume 512.329701
_symmetry_space_group_name_H-M "P -1"
_symmetry_group_IT_number 2
_symmetry_cell_setting 'triclinic'
loop_
_space_group_symop_operation_xyz
x,y,z
-x,-y,-z
loop_
_atom_site_type_symbol
_atom_site_label
_atom_site_fract_x
_atom_site_fract_y
_atom_site_fract_z
Si Si1 0.661123 0.640080 0.844723
Si Si2 0.676482 0.280327 0.959663
Si Si3 0.334154 0.911548 0.579297
Si Si4 0.632224 0.657268 0.339812
Si Si5 0.122583 0.435831 0.670082
Si Si6 0.727911 0.928845 0.474751
O O1 0.453432 0.446137 0.770291
O O2 0.460499 0.598366 0.797945
O O3 0.772893 0.811979 0.670917
O O4 0.910488 0.686550 0.104159
O O5 0.524323 0.303059 0.856796
O O6 0.507102 0.174084 0.765337
O O7 0.623216 0.140452 0.172257
O O8 0.000000 0.500000 0.000000
O O9 0.038273 0.694479 0.478270
O O10 0.500000 0.000000 0.500000
O O11 0.354336 0.055523 0.484341
O O12 0.500000 0.500000 0.500000
O O13 0.963728 0.848627 0.492161
O O14 0.000000 0.500000 0.500000
#
# Coordination Sequence:
#
# PCOD9065424 Si02
#       6
#     2   2   2   2   2   2
#     4  11  25  46  77 109 149 205 256 322 392 463
#     4  12  27  50  80 111 155 209 265 326 392 469
#     4  12  27  45  74 117 155 198 259 327 394 467
#     4  12  25  47  77 108 150 198 262 324 389 462
#     4  11  24  48  73 107 159 203 252 318 392 475
#     4  12  26  49  78 112 155 202 265 322 396 470
#
# _framework density 23.422415999999998
#
# number of rings (size 3 to 8) (size 9 to 14) (size 15 to 20)
#    0.000    0.333    3.333    5.000    2.333    3.333 
#    0.000    0.000    0.000    0.000    0.000    0.000 
#    0.000    0.000    0.000    0.000    0.000    0.000 
#
# Total GULP energy -66960.238416 kJ/mol
# GULP energy per Si atom -5580.019868 kJ/mol
# Density = 2.336911 g / cm^3
# Si number density = 23.422416 Si / 1000 Ang^3
#
#
#
# Elastic Constant Matrix: (Units=GPa)
#
#
# Indices 1 2 3 4 5 6 
#
# 1 151.8932 51.4906 48.7407 4.1521 11.2662 -25.2065
# 2 51.4906 127.1618 60.8341 9.2904 -3.1372 -18.3560
# 3 48.7407 60.8341 145.3627 -0.7710 3.5229 -21.9864
# 4 4.1521 9.2904 -0.7710 33.5523 -7.5004 -1.9430
# 5 11.2662 -3.1372 3.5229 -7.5004 38.2535 -4.6550
# 6 -25.2065 -18.3560 -21.9864 -1.9430 -4.6550 53.9427
#
#
#
# Elastic Compliance Matrix: (Units=1/GPa)
#
#
# Indices 1 2 3 4 5 6 
#
# 1 0.008440 -0.002405 -0.001420 -0.000821 -0.002433 0.002307
# 2 -0.002405 0.010973 -0.003660 -0.002395 0.001618 0.001171
# 3 -0.001420 -0.003660 0.009183 0.001461 -0.000214 0.001868
# 4 -0.000821 -0.002395 0.001461 0.032082 0.006335 0.001099
# 5 -0.002433 0.001618 -0.000214 0.006335 0.028497 0.002014
# 6 0.002307 0.001171 0.001868 0.001099 0.002014 0.020990
#
#
# Mechanical properties :
#
#
# Convention : Reuss Voigt Hill
#
# Bulk Modulus (GPa) = 73.39497 82.94984 78.17240
# Shear Modulus (GPa) = 38.55676 42.70652 40.63164
#
# Velocity S-wave (km/s) = 4.06168 4.27467 4.16953
# Velocity P-wave (km/s) = 7.30751 7.73662 7.52512
#
# Compressibility (1/GPa) = 0.01362491
#
# Stress axis : x y z
#
# Youngs Moduli (GPa) = 118.47830 91.13138 108.89953
#
# Poissons Ratio (x) = 0.21921 0.15462
# Poissons Ratio (y) = 0.28499 0.39862
# Poissons Ratio (z) = 0.16822 0.33358
#
# Static dielectric constant tensor:
#      x y z
#    x 1.933560 0.134050 -0.006130 
#    y 0.134050 1.898830 -0.045630 
#    z -0.006130 -0.045630 2.073120 
# 
# From -- ./inp_files/272002.got.cif
#   From: 2010.05.17/outbox.cif.g08.bks.cpg/sg2_137_cif.got.tgz:272002.got - 2010.06.03 11:33:40.
