data_PCOD9065098
_publ_section_title
;
Structure prediction by ZEFSAII (Michael W. Deem and Ramdas Pophale) SiO2 
 PCOD9065098
Probable space group: P -1
;
_chemical_formula_sum "Si O2"
_cell_formula_units_Z 13
_cell_length_a 5.296791
_cell_length_b 16.223748
_cell_length_c 20.413130
_cell_angle_alpha 162.131650
_cell_angle_beta 77.408523
_cell_angle_gamma 103.633732
_cell_volume 522.951318
_symmetry_space_group_name_H-M "P -1"
_symmetry_group_IT_number 2
_symmetry_cell_setting 'triclinic'
loop_
_space_group_symop_operation_xyz
x,y,z
-x,-y,-z
loop_
_atom_site_type_symbol
_atom_site_label
_atom_site_fract_x
_atom_site_fract_y
_atom_site_fract_z
Si Si1 0.124253 0.668060 0.959427
Si Si2 0.135106 0.505127 0.282216
Si Si3 0.409741 0.169494 0.536302
Si Si4 0.291564 0.008868 0.961177
Si Si5 0.500000 0.500000 0.500000
Si Si6 0.307070 0.231718 0.434392
Si Si7 0.224013 0.566432 0.092481
O O1 0.049665 0.674679 0.892801
O O2 0.867407 0.613874 0.976863
O O3 0.280685 0.406086 0.759798
O O4 0.270003 0.942149 0.183284
O O5 0.281013 0.749917 0.416969
O O6 0.965958 0.633351 0.443832
O O7 0.327999 0.297638 0.140944
O O8 0.372156 0.188000 0.473454
O O9 0.277789 0.881019 0.346043
O O10 0.334218 0.761328 0.723978
O O11 0.500000 0.000000 0.000000
O O12 0.000000 0.000000 0.000000
O O13 0.490265 0.416203 0.515759
O O14 0.500000 0.500000 0.000000
O O15 0.000000 0.500000 0.000000
#
# Coordination Sequence:
#
# PCOD9065098 Si02
#       7
#     2   2   2   2   1   2   2
#     4  11  26  46  76 108 147 199 253 312 390 453
#     4  11  26  46  74 107 154 199 257 323 377 462
#     4  11  25  47  74 105 153 197 252 315 379 461
#     4  12  28  50  73 111 154 199 261 319 380 460
#     4  12  26  44  80 104 152 208 256 314 398 442
#     4  11  24  47  71 110 149 200 258 317 382 460
#     4  12  27  48  79 112 152 197 250 314 384 463
#
# _framework density 24.858906999999999
#
# number of rings (size 3 to 8) (size 9 to 14) (size 15 to 20)
#    0.000    0.615    3.077    3.231    8.615    6.154 
#    0.000    0.000    0.000    0.000    0.000    0.000 
#    0.000    0.000    0.000    0.000    0.000    0.000 
#
# Total GULP energy -72545.778607 kJ/mol
# GULP energy per Si atom -5580.444508 kJ/mol
# Density = 2.480233 g / cm^3
# Si number density = 24.858907 Si / 1000 Ang^3
#
#
#
# Elastic Constant Matrix: (Units=GPa)
#
#
# Indices 1 2 3 4 5 6 
#
# 1 94.0468 0.7538 30.3186 -18.1915 -10.7418 11.1883
# 2 0.7538 74.6264 4.2225 -0.6400 0.5672 12.8785
# 3 30.3186 4.2225 172.9210 -10.3524 -10.2803 1.2278
# 4 -18.1915 -0.6400 -10.3524 38.4459 9.7990 -9.8475
# 5 -10.7418 0.5672 -10.2803 9.7990 39.4236 -2.6941
# 6 11.1883 12.8785 1.2278 -9.8475 -2.6941 32.1193
#
#
#
# Elastic Compliance Matrix: (Units=1/GPa)
#
#
# Indices 1 2 3 4 5 6 
#
# 1 0.012607 0.000534 -0.001847 0.004258 0.001676 -0.003089
# 2 0.000534 0.014516 -0.000494 -0.001188 -0.000333 -0.006379
# 3 -0.001847 -0.000494 0.006218 0.000775 0.000996 0.000925
# 4 0.004258 -0.001188 0.000775 0.031844 -0.005973 0.008225
# 5 0.001676 -0.000333 0.000996 -0.005973 0.027571 -0.000007
# 6 -0.003089 -0.006379 0.000925 0.008225 -0.000007 0.037254
#
#
# Mechanical properties :
#
#
# Convention : Reuss Voigt Hill
#
# Bulk Modulus (GPa) = 33.63911 45.79822 39.71866
# Shear Modulus (GPa) = 34.83567 42.41773 38.62670
#
# Velocity S-wave (km/s) = 3.74750 4.13527 3.94615
# Velocity P-wave (km/s) = 5.68211 6.42369 6.06425
#
# Compressibility (1/GPa) = 0.02972730
#
# Stress axis : x y z
#
# Youngs Moduli (GPa) = 79.32288 68.89003 160.82577
#
# Poissons Ratio (x) = -0.03678 0.29703
# Poissons Ratio (y) = -0.04236 0.07940
# Poissons Ratio (z) = 0.14650 0.03401
#
# Static dielectric constant tensor:
#      x y z
#    x 2.039710 0.006160 0.018950 
#    y 0.006160 1.976120 0.031780 
#    z 0.018950 0.031780 1.959190 
# 
# From -- ./inp_files/6570.got.cif
#   From: 2010.05.17/outbox.cif.g08.bks.cpg/sg2_4_cif.got.tgz:6570.got - 2010.06.03 11:33:40.
