data_PCOD9065326
_publ_section_title
;
Structure prediction by ZEFSAII (Michael W. Deem and Ramdas Pophale) SiO2 
 PCOD9065326
Probable space group: P -1
;
_chemical_formula_sum "Si O2"
_cell_formula_units_Z 16
_cell_length_a 21.981086
_cell_length_b 9.065318
_cell_length_c 8.212508
_cell_angle_alpha 85.754881
_cell_angle_beta 122.733629
_cell_angle_gamma 140.016547
_cell_volume 687.236420
_symmetry_space_group_name_H-M "P -1"
_symmetry_group_IT_number 2
_symmetry_cell_setting 'triclinic'
loop_
_space_group_symop_operation_xyz
x,y,z
-x,-y,-z
loop_
_atom_site_type_symbol
_atom_site_label
_atom_site_fract_x
_atom_site_fract_y
_atom_site_fract_z
Si Si1 0.899476 0.127140 0.769297
Si Si2 0.349918 0.792496 0.371611
Si Si3 0.944675 0.710321 0.520877
Si Si4 0.095765 0.721645 0.880766
Si Si5 0.599668 0.558022 0.232577
Si Si6 0.589682 0.783312 0.704179
Si Si7 0.944888 0.834542 0.161360
Si Si8 0.346451 0.673896 0.744794
O O1 0.030095 0.446164 0.847457
O O2 0.942517 0.031365 0.818596
O O3 0.747751 0.891038 0.484023
O O4 0.891912 0.174416 0.936045
O O5 0.327958 0.696224 0.530628
O O6 0.500000 0.000000 0.500000
O O7 0.365107 0.997365 0.360534
O O8 0.215734 0.491810 0.098420
O O9 0.988222 0.829592 0.393004
O O10 0.781120 0.474216 0.327682
O O11 0.981135 0.606312 0.616164
O O12 0.033514 0.960213 0.764935
O O13 0.257510 0.005298 0.023532
O O14 0.509406 0.344613 0.277687
O O15 0.647764 0.493603 0.215772
O O16 0.500000 0.500000 0.000000
O O17 0.500000 0.500000 0.500000
O O18 0.500000 0.000000 0.000000
#
# Coordination Sequence:
#
# PCOD9065326 Si02
#       8
#     2   2   2   2   2   2   2   2
#     4  11  24  48  67 104 139 186 238 285 359 421
#     4  12  26  47  74 100 144 194 242 293 352 435
#     4  11  27  43  72 106 141 185 234 301 351 419
#     4  11  26  43  74 103 143 184 235 296 350 422
#     4  12  29  47  73 105 147 189 235 299 360 427
#     4  12  27  47  70 110 143 191 239 292 362 424
#     4  11  25  46  69 103 142 184 243 288 356 422
#     4  12  28  47  72 108 143 188 240 298 361 420
#
# _framework density 23.281654
#
# number of rings (size 3 to 8) (size 9 to 14) (size 15 to 20)
#    0.000    0.500    5.000    1.500   10.500    1.500 
#    0.000    0.000    0.000    0.000    0.000    0.000 
#    0.000    0.000    0.000    0.000    0.000    0.000 
#
# Total GULP energy -89577.888111 kJ/mol
# GULP energy per Si atom -5598.618007 kJ/mol
# Density = 2.322866 g / cm^3
# Si number density = 23.281654 Si / 1000 Ang^3
#
#
#
# Elastic Constant Matrix: (Units=GPa)
#
#
# Indices 1 2 3 4 5 6 
#
# 1 79.1534 1.5066 18.2256 7.6414 16.7939 -1.4648
# 2 1.5066 59.0927 38.4422 12.5799 6.3433 -16.5850
# 3 18.2256 38.4422 126.8168 21.9079 14.7526 -13.0400
# 4 7.6414 12.5799 21.9079 43.9923 2.8011 10.9049
# 5 16.7939 6.3433 14.7526 2.8011 43.5271 3.1690
# 6 -1.4648 -16.5850 -13.0400 10.9049 3.1690 39.4358
#
#
#
# Elastic Compliance Matrix: (Units=1/GPa)
#
#
# Indices 1 2 3 4 5 6 
#
# 1 0.014363 0.002343 -0.001468 -0.002635 -0.005375 0.002194
# 2 0.002343 0.025432 -0.005153 -0.007755 -0.003200 0.011480
# 3 -0.001468 -0.005153 0.010949 -0.004261 -0.002320 0.002763
# 4 -0.002635 -0.007755 -0.004261 0.030701 0.002596 -0.013466
# 5 -0.005375 -0.003200 -0.002320 0.002596 0.026510 -0.005161
# 6 0.002194 0.011480 0.002763 -0.013466 -0.005161 0.035319
#
#
# Mechanical properties :
#
#
# Convention : Reuss Voigt Hill
#
# Bulk Modulus (GPa) = 23.70506 42.37909 33.04208
# Shear Modulus (GPa) = 30.13995 39.18363 34.66179
#
# Velocity S-wave (km/s) = 3.60193 4.10692 3.86269
# Velocity P-wave (km/s) = 5.24428 6.38211 5.84097
#
# Compressibility (1/GPa) = 0.04218508
#
# Stress axis : x y z
#
# Youngs Moduli (GPa) = 69.62506 39.32097 91.33508
#
# Poissons Ratio (x) = -0.09211 0.13409
# Poissons Ratio (y) = -0.16310 0.47069
# Poissons Ratio (z) = 0.10222 0.20264
#
# Static dielectric constant tensor:
#      x y z
#    x 1.905590 -0.052170 -0.005210 
#    y -0.052170 1.881240 -0.022530 
#    z -0.005210 -0.022530 1.849520 
# 
# From -- ./inp_files/223205.got.cif
#   From: 2010.05.17/outbox.cif.g08.bks.cpg/sg2_112_cif.got.tgz:223205.got - 2010.06.03 11:33:40.
