data_PCOD9065589
_publ_section_title
;
Structure prediction by ZEFSAII (Michael W. Deem and Ramdas Pophale) SiO2 
 PCOD9065589
Probable space group: P -1
;
_chemical_formula_sum "Si O2"
_cell_formula_units_Z 12
_cell_length_a 5.774217
_cell_length_b 13.750897
_cell_length_c 16.631372
_cell_angle_alpha 23.904826
_cell_angle_beta 93.027587
_cell_angle_gamma 87.014322
_cell_volume 517.661571
_symmetry_space_group_name_H-M "P -1"
_symmetry_group_IT_number 2
_symmetry_cell_setting 'triclinic'
loop_
_space_group_symop_operation_xyz
x,y,z
-x,-y,-z
loop_
_atom_site_type_symbol
_atom_site_label
_atom_site_fract_x
_atom_site_fract_y
_atom_site_fract_z
Si Si1 0.581901 0.984064 0.136503
Si Si2 0.585905 0.515790 0.776196
Si Si3 0.151045 0.192665 0.880973
Si Si4 0.152369 0.926051 0.477225
Si Si5 0.273730 0.418603 0.098378
Si Si6 0.153920 0.248230 0.522482
O O1 0.675447 0.821217 0.182923
O O2 0.706444 0.856736 0.314914
O O3 0.635058 0.253912 0.931592
O O4 0.295630 0.070261 0.055484
O O5 0.314770 0.646041 0.698430
O O6 0.734244 0.489571 0.879903
O O7 0.657031 0.702689 0.574917
O O8 0.018023 0.478345 0.672538
O O9 0.000000 0.000000 0.000000
O O10 0.990324 0.923387 0.397153
O O11 0.314885 0.121442 0.324704
O O12 0.000000 0.000000 0.500000
O O13 0.500000 0.500000 0.000000
O O14 0.000000 0.500000 0.000000
#
# Coordination Sequence:
#
# PCOD9065589 Si02
#       6
#     2   2   2   2   2   2
#     4  11  26  46  75 111 146 198 257 316 397 469
#     4  12  26  47  74 110 152 196 267 325 382 479
#     4  11  24  49  74 107 154 191 253 328 386 475
#     4  12  26  49  73 109 159 206 258 325 390 468
#     4  12  28  47  77 112 155 211 268 326 400 471
#     4  12  26  48  78 110 152 205 255 321 397 463
#
# _framework density 23.181166000000001
#
# number of rings (size 3 to 8) (size 9 to 14) (size 15 to 20)
#    0.000    0.333    5.000    3.000    4.667    2.000 
#    0.000    0.000    0.000    0.000    0.000    0.000 
#    0.000    0.000    0.000    0.000    0.000    0.000 
#
# Total GULP energy -67054.583805 kJ/mol
# GULP energy per Si atom -5587.881984 kJ/mol
# Density = 2.312840 g / cm^3
# Si number density = 23.181166 Si / 1000 Ang^3
#
#
#
# Elastic Constant Matrix: (Units=GPa)
#
#
# Indices 1 2 3 4 5 6 
#
# 1 95.2666 48.9072 53.9742 6.0791 4.0981 10.8403
# 2 48.9072 135.1257 48.0822 -4.4682 17.5604 10.0915
# 3 53.9742 48.0822 98.0760 -2.6897 17.4889 1.1046
# 4 6.0791 -4.4682 -2.6897 53.9327 12.1590 12.5234
# 5 4.0981 17.5604 17.4889 12.1590 47.4699 -0.3027
# 6 10.8403 10.0915 1.1046 12.5234 -0.3027 54.3025
#
#
#
# Elastic Compliance Matrix: (Units=1/GPa)
#
#
# Indices 1 2 3 4 5 6 
#
# 1 0.017516 -0.003760 -0.008542 -0.003136 0.003817 -0.001880
# 2 -0.003760 0.010181 -0.002273 0.002253 -0.003192 -0.001633
# 3 -0.008542 -0.002273 0.017021 0.002557 -0.005340 0.001162
# 4 -0.003136 0.002253 0.002557 0.021975 -0.007165 -0.004952
# 5 0.003817 -0.003192 -0.005340 -0.007165 0.025731 0.001736
# 6 -0.001880 -0.001633 0.001162 -0.004952 0.001736 0.020222
#
#
# Mechanical properties :
#
#
# Convention : Reuss Voigt Hill
#
# Bulk Modulus (GPa) = 64.23043 70.04393 67.13718
# Shear Modulus (GPa) = 34.01698 42.97466 38.49582
#
# Velocity S-wave (km/s) = 3.83487 4.31032 4.07953
# Velocity P-wave (km/s) = 6.88306 7.41979 7.15646
#
# Compressibility (1/GPa) = 0.01556894
#
# Stress axis : x y z
#
# Youngs Moduli (GPa) = 57.08953 98.21924 58.75150
#
# Poissons Ratio (x) = 0.36927 0.50186
# Poissons Ratio (y) = 0.21463 0.13355
# Poissons Ratio (z) = 0.48766 0.22326
#
# Static dielectric constant tensor:
#      x y z
#    x 2.060340 0.019190 0.053540 
#    y 0.019190 1.838030 0.007360 
#    z 0.053540 0.007360 1.909310 
# 
# From -- ./inp_files/36781.got.cif
#   From: 2010.05.17/outbox.cif.g08.bks.cpg/sg2_19_cif.got.tgz:36781.got - 2010.06.03 11:33:40.
