data_PCOD9065635
_publ_section_title
;
Structure prediction by ZEFSAII (Michael W. Deem and Ramdas Pophale) SiO2 
 PCOD9065635
Probable space group: P -1
;
_chemical_formula_sum "Si O2"
_cell_formula_units_Z 14
_cell_length_a 19.878759
_cell_length_b 5.191232
_cell_length_c 8.090702
_cell_angle_alpha 93.818017
_cell_angle_beta 141.658316
_cell_angle_gamma 87.804471
_cell_volume 516.663542
_symmetry_space_group_name_H-M "P -1"
_symmetry_group_IT_number 2
_symmetry_cell_setting 'triclinic'
loop_
_space_group_symop_operation_xyz
x,y,z
-x,-y,-z
loop_
_atom_site_type_symbol
_atom_site_label
_atom_site_fract_x
_atom_site_fract_y
_atom_site_fract_z
Si Si1 0.329748 0.890287 0.883400
Si Si2 0.390641 0.658832 0.312885
Si Si3 0.885070 0.095941 0.669016
Si Si4 0.617131 0.626422 0.211239
Si Si5 0.985524 0.603052 0.727720
Si Si6 0.265540 0.012190 0.310624
Si Si7 0.168556 0.354335 0.884305
O O1 0.204477 0.962818 0.652311
O O2 0.323496 0.606510 0.774856
O O3 0.389788 0.863063 0.170213
O O4 0.386135 0.114839 0.894020
O O5 0.500000 0.500000 0.500000
O O6 0.356547 0.813891 0.418416
O O7 0.285548 0.473515 0.068912
O O8 0.936348 0.369693 0.731412
O O9 0.809007 0.073007 0.682681
O O10 0.969154 0.866645 0.804244
O O11 0.672834 0.728393 0.490950
O O12 0.500000 0.500000 0.000000
O O13 0.914435 0.635312 0.426368
O O14 0.106391 0.529464 0.907034
O O15 0.192307 0.090640 0.016552
#
# Coordination Sequence:
#
# PCOD9065635 Si02
#       7
#     2   2   2   2   2   2   2
#     4  11  25  49  81 110 158 214 262 321 406 486
#     4  12  30  52  80 116 165 212 275 337 401 474
#     4  11  24  49  81 115 162 204 266 323 416 465
#     4  11  27  51  79 110 155 216 273 328 399 476
#     4  11  26  50  85 119 157 220 257 334 399 496
#     4  11  29  49  81 120 164 206 273 342 399 478
#     4  11  28  49  82 118 163 207 277 322 408 474
#
# _framework density 27.096938999999999
#
# number of rings (size 3 to 8) (size 9 to 14) (size 15 to 20)
#    0.000    0.857    1.429    3.000   12.000    4.000 
#    0.000    0.714    0.000    0.000    0.000    0.000 
#    0.000    0.000    0.000    0.000    0.000    0.000 
#
# Total GULP energy -78586.739319 kJ/mol
# GULP energy per Si atom -5613.338523 kJ/mol
# Density = 2.703527 g / cm^3
# Si number density = 27.096939 Si / 1000 Ang^3
#
#
#
# Elastic Constant Matrix: (Units=GPa)
#
#
# Indices 1 2 3 4 5 6 
#
# 1 144.1600 88.3122 79.6494 -24.4985 7.9787 -1.1756
# 2 88.3122 186.2896 46.3479 -16.1096 3.6758 -19.2867
# 3 79.6494 46.3479 124.9320 -18.5185 10.6125 -1.1544
# 4 -24.4985 -16.1096 -18.5185 51.9691 -3.9667 3.4410
# 5 7.9787 3.6758 10.6125 -3.9667 55.4620 -16.9582
# 6 -1.1756 -19.2867 -1.1544 3.4410 -16.9582 64.2762
#
#
#
# Elastic Compliance Matrix: (Units=1/GPa)
#
#
# Indices 1 2 3 4 5 6 
#
# 1 0.014228 -0.004982 -0.006759 0.002810 -0.000743 -0.001702
# 2 -0.004982 0.007934 0.000189 0.000082 0.000936 0.002535
# 3 -0.006759 0.000189 0.012549 0.001253 -0.001440 -0.000289
# 4 0.002810 0.000082 0.001253 0.021142 0.000595 -0.000877
# 5 -0.000743 0.000936 -0.001440 0.000595 0.020077 0.005506
# 6 -0.001702 0.002535 -0.000289 -0.000877 0.005506 0.017782
#
#
# Mechanical properties :
#
#
# Convention : Reuss Voigt Hill
#
# Bulk Modulus (GPa) = 86.15547 98.22227 92.18887
# Shear Modulus (GPa) = 41.43084 50.41295 45.92189
#
# Velocity S-wave (km/s) = 3.91447 4.31799 4.12117
# Velocity P-wave (km/s) = 7.23153 7.82223 7.53267
#
# Compressibility (1/GPa) = 0.01160692
#
# Stress axis : x y z
#
# Youngs Moduli (GPa) = 70.28632 126.04393 79.69032
#
# Poissons Ratio (x) = 0.62792 0.53859
# Poissons Ratio (y) = 0.35015 -0.01505
# Poissons Ratio (z) = 0.47503 -0.02380
#
# Static dielectric constant tensor:
#      x y z
#    x 2.123640 -0.069360 -0.053860 
#    y -0.069360 2.162780 0.026570 
#    z -0.053860 0.026570 2.190580 
# 
# From -- ./inp_files/340573.got.cif
#   From: 2010.05.17/outbox.cif.g08.bks.cpg/sg2_171_cif.got.tgz:340573.got - 2010.06.03 11:33:40.
