data_PCOD9065949
_publ_section_title
;
Structure prediction by ZEFSAII (Michael W. Deem and Ramdas Pophale) SiO2 
 PCOD9065949
Probable space group: P -1
;
_chemical_formula_sum "Si O2"
_cell_formula_units_Z 10
_cell_length_a 15.547364
_cell_length_b 5.315253
_cell_length_c 12.240831
_cell_angle_alpha 67.787861
_cell_angle_beta 150.828206
_cell_angle_gamma 121.422552
_cell_volume 413.447331
_symmetry_space_group_name_H-M "P -1"
_symmetry_group_IT_number 2
_symmetry_cell_setting 'triclinic'
loop_
_space_group_symop_operation_xyz
x,y,z
-x,-y,-z
loop_
_atom_site_type_symbol
_atom_site_label
_atom_site_fract_x
_atom_site_fract_y
_atom_site_fract_z
Si Si1 0.502589 0.798559 0.406268
Si Si2 0.837355 0.818531 0.508646
Si Si3 0.240773 0.321909 0.800409
Si Si4 0.191532 0.658543 0.259378
Si Si5 0.448950 0.884400 0.092980
O O1 0.500000 0.500000 0.500000
O O2 0.344904 0.833868 0.304249
O O3 0.412302 0.749963 0.195099
O O4 0.723876 0.056524 0.610686
O O5 0.812924 0.655957 0.389426
O O6 0.805096 0.598596 0.612504
O O7 0.670903 0.939025 0.309147
O O8 0.050123 0.088549 0.690743
O O9 0.324702 0.626911 0.911933
O O10 0.390312 0.162694 0.987398
O O11 0.000000 0.500000 0.000000
#
# Coordination Sequence:
#
# PCOD9065949 Si02
#       5
#     2   2   2   2   2
#     4  11  25  44  69 103 140 183 245 297 354 440
#     4  11  25  47  73 108 146 188 249 296 364 439
#     4  11  28  46  74 110 144 194 242 303 361 445
#     4  11  25  45  72 101 145 191 240 299 367 426
#     4  12  25  48  76 102 150 192 241 301 374 420
#
# _framework density 24.186878
#
# number of rings (size 3 to 8) (size 9 to 14) (size 15 to 20)
#    0.000    0.800    2.000    3.600    5.600   10.400 
#    0.000    0.000    0.000    0.000    0.000    0.000 
#    0.000    0.000    0.000    0.000    0.000    0.000 
#
# Total GULP energy -55804.323598 kJ/mol
# GULP energy per Si atom -5580.432360 kJ/mol
# Density = 2.413183 g / cm^3
# Si number density = 24.186878 Si / 1000 Ang^3
#
#
#
# Elastic Constant Matrix: (Units=GPa)
#
#
# Indices 1 2 3 4 5 6 
#
# 1 118.5853 38.8798 30.7613 -0.7532 -28.7646 22.8801
# 2 38.8798 149.9368 79.9288 1.2358 -19.3771 1.4570
# 3 30.7613 79.9288 135.4432 21.2027 -18.1003 12.4985
# 4 -0.7532 1.2358 21.2027 41.2268 25.2215 -8.8650
# 5 -28.7646 -19.3771 -18.1003 25.2215 54.0091 -2.1386
# 6 22.8801 1.4570 12.4985 -8.8650 -2.1386 41.1287
#
#
#
# Elastic Compliance Matrix: (Units=1/GPa)
#
#
# Indices 1 2 3 4 5 6 
#
# 1 0.013335 -0.003421 0.002993 -0.010183 0.011244 -0.009817
# 2 -0.003421 0.011179 -0.007824 0.006831 -0.003418 0.005179
# 3 0.002993 -0.007824 0.016673 -0.017931 0.012365 -0.009676
# 4 -0.010183 0.006831 -0.017931 0.059862 -0.036069 0.021899
# 5 0.011244 -0.003418 0.012365 -0.036069 0.043655 -0.015396
# 6 -0.009817 0.005179 -0.009676 0.021899 -0.015396 0.036452
#
#
# Mechanical properties :
#
#
# Convention : Reuss Voigt Hill
#
# Bulk Modulus (GPa) = 40.51535 78.12276 59.31905
# Shear Modulus (GPa) = 24.28508 44.23260 34.25884
#
# Velocity S-wave (km/s) = 3.17213 4.28107 3.76762
# Velocity P-wave (km/s) = 5.49580 7.53701 6.59585
#
# Compressibility (1/GPa) = 0.02468201
#
# Stress axis : x y z
#
# Youngs Moduli (GPa) = 74.99212 89.45235 59.97687
#
# Poissons Ratio (x) = 0.30599 -0.17949
# Poissons Ratio (y) = 0.25652 0.46928
# Poissons Ratio (z) = -0.22442 0.69991
#
# Static dielectric constant tensor:
#      x y z
#    x 2.796510 -0.390940 -0.594010 
#    y -0.390940 2.059500 0.260990 
#    z -0.594010 0.260990 2.308750 
# 
# From -- ./inp_files/19386.got.cif
#   From: 2010.05.17/outbox.cif.g08.bks.cpg/sg2_10_cif.got.tgz:19386.got - 2010.06.03 11:33:40.
