data_PCOD9065044
_publ_section_title
;
Structure prediction by ZEFSAII (Michael W. Deem and Ramdas Pophale) SiO2 
 PCOD9065044
Probable space group: P -1
;
_chemical_formula_sum "Si O2"
_cell_formula_units_Z 16
_cell_length_a 5.390788
_cell_length_b 6.429424
_cell_length_c 27.899360
_cell_angle_alpha 49.993470
_cell_angle_beta 73.309617
_cell_angle_gamma 73.548310
_cell_volume 703.044069
_symmetry_space_group_name_H-M "P -1"
_symmetry_group_IT_number 2
_symmetry_cell_setting 'triclinic'
loop_
_space_group_symop_operation_xyz
x,y,z
-x,-y,-z
loop_
_atom_site_type_symbol
_atom_site_label
_atom_site_fract_x
_atom_site_fract_y
_atom_site_fract_z
Si Si1 0.202101 0.651964 0.496109
Si Si2 0.919400 0.713275 0.605027
Si Si3 0.621711 0.508440 0.315780
Si Si4 0.843808 0.116003 0.846176
Si Si5 0.290957 0.626262 0.875233
Si Si6 0.137101 0.616069 0.779203
Si Si7 0.332358 0.008892 0.220785
Si Si8 0.395495 0.247885 0.008839
O O1 0.500000 0.500000 0.500000
O O2 0.000000 0.500000 0.500000
O O3 0.090152 0.669086 0.553755
O O4 0.173469 0.962526 0.432254
O O5 0.648961 0.584153 0.637094
O O6 0.120985 0.588000 0.653295
O O7 0.688298 0.386422 0.277141
O O8 0.547271 0.838946 0.267334
O O9 0.695976 0.179045 0.795454
O O10 0.950924 0.383631 0.817669
O O11 0.695860 0.952066 0.916785
O O12 0.092263 0.898732 0.851617
O O13 0.273430 0.537987 0.834281
O O14 0.575033 0.722295 0.848692
O O15 0.229031 0.435047 0.950564
O O16 0.940669 0.897941 0.752658
O O17 0.500000 0.500000 0.000000
O O18 0.500000 0.000000 0.000000
#
# Coordination Sequence:
#
# PCOD9065044 Si02
#       8
#     2   2   2   2   2   2   2   2
#     4  11  24  49  80 110 154 199 243 307 370 433
#     4  11  27  47  73 116 151 196 252 306 365 446
#     4  12  26  47  72 107 158 195 252 310 368 458
#     4  11  24  47  69  98 139 189 254 322 405 466
#     4  11  25  45  69  98 137 189 249 317 396 473
#     4  11  27  43  72 100 141 201 246 316 387 469
#     4  11  25  45  68  99 144 191 249 309 386 462
#     4  12  27  44  73 103 139 192 260 338 412 500
#
# _framework density 22.758177
#
# number of rings (size 3 to 8) (size 9 to 14) (size 15 to 20)
#    0.000    0.750    2.500    3.375   10.500    5.500 
#    0.000    0.000    0.000    0.000    0.000    0.000 
#    0.000    0.000    0.000    0.000    0.000    0.000 
#
# Total GULP energy -89186.016997 kJ/mol
# GULP energy per Si atom -5574.126062 kJ/mol
# Density = 2.270638 g / cm^3
# Si number density = 22.758177 Si / 1000 Ang^3
#
#
#
# Elastic Constant Matrix: (Units=GPa)
#
#
# Indices 1 2 3 4 5 6 
#
# 1 98.7630 28.7930 27.4928 -8.5856 8.8777 -7.6989
# 2 28.7930 94.7077 14.3769 0.8277 6.1492 0.7770
# 3 27.4928 14.3769 84.2950 -14.0349 9.4419 -9.3280
# 4 -8.5856 0.8277 -14.0349 29.0356 2.6262 -1.3154
# 5 8.8777 6.1492 9.4419 2.6262 50.2457 -1.8175
# 6 -7.6989 0.7770 -9.3280 -1.3154 -1.8175 47.0268
#
#
#
# Elastic Compliance Matrix: (Units=1/GPa)
#
#
# Indices 1 2 3 4 5 6 
#
# 1 0.012301 -0.003279 -0.002693 0.002621 -0.001347 0.001555
# 2 -0.003279 0.011819 -0.001327 -0.001946 -0.000555 -0.001071
# 3 -0.002693 -0.001327 0.014623 0.006640 -0.002364 0.002576
# 4 0.002621 -0.001946 0.006640 0.038913 -0.003408 0.002735
# 5 -0.001347 -0.000555 -0.002364 -0.003408 0.020831 0.000030
# 6 0.001555 -0.001071 0.002576 0.002735 0.000030 0.022125
#
#
# Mechanical properties :
#
#
# Convention : Reuss Voigt Hill
#
# Bulk Modulus (GPa) = 41.41676 46.56567 43.99121
# Shear Modulus (GPa) = 34.90166 39.06849 36.98507
#
# Velocity S-wave (km/s) = 3.92035 4.14778 4.03567
# Velocity P-wave (km/s) = 6.22337 6.59122 6.40994
#
# Compressibility (1/GPa) = 0.02414482
#
# Stress axis : x y z
#
# Youngs Moduli (GPa) = 81.29330 84.61002 68.38441
#
# Poissons Ratio (x) = 0.27745 0.18419
# Poissons Ratio (y) = 0.26657 0.09073
# Poissons Ratio (z) = 0.21895 0.11225
#
# Static dielectric constant tensor:
#      x y z
#    x 1.970110 0.028110 0.034880 
#    y 0.028110 1.910090 -0.006350 
#    z 0.034880 -0.006350 1.949840 
# 
# From -- ./inp_files/614804.got.cif
#   From: 2010.05.17/outbox.cif.g08.bks.cpg/sg2_308_cif.got.tgz:614804.got - 2010.06.03 11:33:40.
