data_PCOD9065861
_publ_section_title
;
Structure prediction by ZEFSAII (Michael W. Deem and Ramdas Pophale) SiO2 
 PCOD9065861
Probable space group: P -1
;
_chemical_formula_sum "Si O2"
_cell_formula_units_Z 14
_cell_length_a 9.238572
_cell_length_b 19.079703
_cell_length_c 9.437776
_cell_angle_alpha 28.645644
_cell_angle_beta 61.135408
_cell_angle_gamma 72.868993
_cell_volume 664.590458
_symmetry_space_group_name_H-M "P -1"
_symmetry_group_IT_number 2
_symmetry_cell_setting 'triclinic'
loop_
_space_group_symop_operation_xyz
x,y,z
-x,-y,-z
loop_
_atom_site_type_symbol
_atom_site_label
_atom_site_fract_x
_atom_site_fract_y
_atom_site_fract_z
Si Si1 0.518396 0.793706 0.203387
Si Si2 0.940588 0.101435 0.959221
Si Si3 0.452962 0.058525 0.570814
Si Si4 0.562577 0.347237 0.206544
Si Si5 0.043698 0.587241 0.177910
Si Si6 0.861728 0.401293 0.352616
Si Si7 0.913398 0.843030 0.897928
O O1 0.506678 0.770700 0.420269
O O2 0.340601 0.662088 0.477758
O O3 0.704577 0.780259 0.090093
O O4 0.501662 0.950271 0.861292
O O5 0.922999 0.255683 0.624340
O O6 0.051710 0.141956 0.977095
O O7 0.750006 0.991619 0.272092
O O8 0.000000 0.000000 0.000000
O O9 0.510834 0.235202 0.289302
O O10 0.500000 0.000000 0.500000
O O11 0.500000 0.500000 0.000000
O O12 0.772517 0.407701 0.985981
O O13 0.000000 0.500000 0.500000
O O14 0.889259 0.508095 0.285865
O O15 0.028808 0.748974 0.940326
O O16 0.000000 0.500000 0.000000
O O17 0.000000 0.000000 0.500000
#
# Coordination Sequence:
#
# PCOD9065861 Si02
#       7
#     2   2   2   2   2   2   2
#     4  11  25  47  71 105 143 190 240 287 355 436
#     4  11  25  43  71  97 139 180 234 285 345 425
#     4  11  25  47  71 103 140 184 237 297 352 413
#     4  12  26  45  75 107 144 191 240 291 359 430
#     4  12  25  46  70 100 151 182 232 300 357 415
#     4  11  25  46  69 104 140 186 235 291 357 418
#     4  12  26  46  71 106 139 187 237 292 357 418
#
# _framework density 21.065605999999999
#
# number of rings (size 3 to 8) (size 9 to 14) (size 15 to 20)
#    0.000    0.571    2.857    4.714    6.000    1.714 
#    2.571    0.000    0.000    0.000    0.000    0.000 
#    0.000    0.000    0.000    0.000    0.000    0.000 
#
# Total GULP energy -78022.358195 kJ/mol
# GULP energy per Si atom -5573.025585 kJ/mol
# Density = 2.101766 g / cm^3
# Si number density = 21.065606 Si / 1000 Ang^3
#
#
#
# Elastic Constant Matrix: (Units=GPa)
#
#
# Indices 1 2 3 4 5 6 
#
# 1 117.5547 52.6124 42.9715 5.1133 -19.2044 -6.6421
# 2 52.6124 163.8213 44.6412 -3.6904 0.1088 -7.4458
# 3 42.9715 44.6412 66.7235 -3.9236 -14.1660 -7.0340
# 4 5.1133 -3.6904 -3.9236 41.7296 -9.5042 -11.5074
# 5 -19.2044 0.1088 -14.1660 -9.5042 32.3714 8.7775
# 6 -6.6421 -7.4458 -7.0340 -11.5074 8.7775 44.1707
#
#
#
# Elastic Compliance Matrix: (Units=1/GPa)
#
#
# Indices 1 2 3 4 5 6 
#
# 1 0.012454 -0.002590 -0.005423 -0.001371 0.004822 -0.000743
# 2 -0.002590 0.008222 -0.004532 0.000036 -0.003819 0.001043
# 3 -0.005423 -0.004532 0.023710 0.004847 0.008095 0.001851
# 4 -0.001371 0.000036 0.004847 0.028126 0.007846 0.006340
# 5 0.004822 -0.003819 0.008095 0.007846 0.040889 -0.004711
# 6 -0.000743 0.001043 0.001851 0.006340 -0.004711 0.025586
#
#
# Mechanical properties :
#
#
# Convention : Reuss Voigt Hill
#
# Bulk Modulus (GPa) = 51.82099 69.83887 60.82993
# Shear Modulus (GPa) = 29.32435 37.51264 33.41850
#
# Velocity S-wave (km/s) = 3.73506 4.22447 3.98729
# Velocity P-wave (km/s) = 6.57679 7.55115 7.08075
#
# Compressibility (1/GPa) = 0.01929720
#
# Stress axis : x y z
#
# Youngs Moduli (GPa) = 80.29870 121.63218 42.17579
#
# Poissons Ratio (x) = 0.31499 0.22871
# Poissons Ratio (y) = 0.20795 0.19112
# Poissons Ratio (z) = 0.43545 0.55118
#
# Static dielectric constant tensor:
#      x y z
#    x 1.760530 0.065750 -0.034680 
#    y 0.065750 1.728180 0.051440 
#    z -0.034680 0.051440 1.526080 
# 
# From -- ./inp_files/156867.got.cif
#   From: 2010.05.17/outbox.cif.g08.bks.cpg/sg2_79_cif.got.tgz:156867.got - 2010.06.03 11:33:40.
