data_PCOD9066441
_publ_section_title
;
Structure prediction by ZEFSAII (Michael W. Deem and Ramdas Pophale) SiO2 
 PCOD9066441
Probable space group: P -1
;
_chemical_formula_sum "Si O2"
_cell_formula_units_Z 14
_cell_length_a 12.669577
_cell_length_b 8.961287
_cell_length_c 24.415860
_cell_angle_alpha 140.343923
_cell_angle_beta 154.978106
_cell_angle_gamma 31.910856
_cell_volume 619.773401
_symmetry_space_group_name_H-M "P -1"
_symmetry_group_IT_number 2
_symmetry_cell_setting 'triclinic'
loop_
_space_group_symop_operation_xyz
x,y,z
-x,-y,-z
loop_
_atom_site_type_symbol
_atom_site_label
_atom_site_fract_x
_atom_site_fract_y
_atom_site_fract_z
Si Si1 0.801993 0.492428 0.651402
Si Si2 0.516805 0.138501 0.698681
Si Si3 0.046685 0.784148 0.007064
Si Si4 0.664093 0.757762 0.898355
Si Si5 0.425920 0.650507 0.324708
Si Si6 0.867032 0.781356 0.158733
Si Si7 0.039109 0.701949 0.444597
O O1 0.500000 0.500000 0.500000
O O2 0.991611 0.390978 0.656062
O O3 0.977845 0.298366 0.730793
O O4 0.704185 0.807578 0.706254
O O5 0.688081 0.265673 0.842784
O O6 0.505621 0.187727 0.642150
O O7 0.199492 0.264985 0.614283
O O8 0.115444 0.494675 0.931867
O O9 0.741600 0.920760 0.937841
O O10 0.000000 0.000000 0.000000
O O11 0.514706 0.624246 0.757218
O O12 0.464022 0.948417 0.908255
O O13 0.000000 0.500000 0.000000
O O14 0.638644 0.532057 0.443988
O O15 0.079807 0.822340 0.230514
O O16 0.000000 0.000000 0.500000
#
# Coordination Sequence:
#
# PCOD9066441 Si02
#       7
#     2   2   2   2   2   2   2
#     4  12  24  45  70 107 136 187 243 287 357 431
#     4  12  26  46  70 105 148 181 240 299 349 427
#     4  11  25  46  68 108 143 182 240 290 356 427
#     4  11  25  47  71 102 144 186 237 297 355 427
#     4  11  25  46  68 109 143 185 238 293 363 426
#     4  11  25  45  79 100 146 191 231 297 362 427
#     4  12  25  44  73  98 144 192 236 292 351 421
#
# _framework density 22.588902000000001
#
# number of rings (size 3 to 8) (size 9 to 14) (size 15 to 20)
#    0.000    0.571    5.714    1.286    4.000    5.714 
#    0.000    0.000    0.000    0.000    0.000    0.000 
#    0.000    0.000    0.000    0.000    0.000    0.000 
#
# Total GULP energy -78372.016333 kJ/mol
# GULP energy per Si atom -5598.001167 kJ/mol
# Density = 2.253749 g / cm^3
# Si number density = 22.588902 Si / 1000 Ang^3
#
#
#
# Elastic Constant Matrix: (Units=GPa)
#
#
# Indices 1 2 3 4 5 6 
#
# 1 168.4561 42.9527 18.6731 -10.8031 16.6142 -11.9942
# 2 42.9527 66.6726 18.3984 -13.7962 13.3812 -26.8765
# 3 18.6731 18.3984 69.2173 0.6001 -2.8692 -4.1073
# 4 -10.8031 -13.7962 0.6001 24.7330 0.0882 -5.6860
# 5 16.6142 13.3812 -2.8692 0.0882 47.7105 -4.8503
# 6 -11.9942 -26.8765 -4.1073 -5.6860 -4.8503 49.9813
#
#
#
# Elastic Compliance Matrix: (Units=1/GPa)
#
#
# Indices 1 2 3 4 5 6 
#
# 1 0.007266 -0.004279 -0.000931 0.000654 -0.001459 -0.000701
# 2 -0.004279 0.032015 -0.006758 0.020159 -0.006171 0.017328
# 3 -0.000931 -0.006758 0.016495 -0.005233 0.002935 -0.002812
# 4 0.000654 0.020159 -0.005233 0.055893 -0.004625 0.016477
# 5 -0.001459 -0.006171 0.002935 -0.004625 0.023211 -0.001701
# 6 -0.000701 0.017328 -0.002812 0.016477 -0.001701 0.030635
#
#
# Mechanical properties :
#
#
# Convention : Reuss Voigt Hill
#
# Bulk Modulus (GPa) = 31.40562 51.59939 41.50250
# Shear Modulus (GPa) = 24.99198 39.43975 32.21586
#
# Velocity S-wave (km/s) = 3.32984 4.18302 3.78058
# Velocity P-wave (km/s) = 5.35883 6.79872 6.12126
#
# Compressibility (1/GPa) = 0.03184144
#
# Stress axis : x y z
#
# Youngs Moduli (GPa) = 137.62093 31.23527 60.62526
#
# Poissons Ratio (x) = 0.13365 0.05642
# Poissons Ratio (y) = 0.58886 0.40970
# Poissons Ratio (z) = 0.12807 0.21108
#
# Static dielectric constant tensor:
#      x y z
#    x 1.879270 0.005970 -0.009490 
#    y 0.005970 1.863770 -0.043560 
#    z -0.009490 -0.043560 1.873130 
# 
# From -- ./inp_files/308925.got.cif
#   From: 2010.05.17/outbox.cif.g08.bks.cpg/sg2_155_cif.got.tgz:308925.got - 2010.06.03 11:33:40.
