data_PCOD9066893
_publ_section_title
;
Structure prediction by ZEFSAII (Michael W. Deem and Ramdas Pophale) SiO2 
 PCOD9066893
Probable space group: P -1
;
_chemical_formula_sum "Si O2"
_cell_formula_units_Z 16
_cell_length_a 14.435570
_cell_length_b 12.644674
_cell_length_c 11.732008
_cell_angle_alpha 63.271905
_cell_angle_beta 138.486807
_cell_angle_gamma 148.589198
_cell_volume 618.742398
_symmetry_space_group_name_H-M "P -1"
_symmetry_group_IT_number 2
_symmetry_cell_setting 'triclinic'
loop_
_space_group_symop_operation_xyz
x,y,z
-x,-y,-z
loop_
_atom_site_type_symbol
_atom_site_label
_atom_site_fract_x
_atom_site_fract_y
_atom_site_fract_z
Si Si1 0.225579 0.059949 0.674784
Si Si2 0.170681 0.577845 0.228265
Si Si3 0.660166 0.753111 0.085654
Si Si4 0.749862 0.974478 0.859956
Si Si5 0.328957 0.867753 0.574112
Si Si6 0.941349 0.781315 0.196701
Si Si7 0.683737 0.532598 0.712830
Si Si8 0.215575 0.784664 0.765421
O O1 0.299236 0.112213 0.852150
O O2 0.489464 0.304704 0.724910
O O3 0.127546 0.858394 0.641819
O O4 0.000000 0.000000 0.500000
O O5 0.460161 0.863724 0.355955
O O6 0.215260 0.473796 0.294943
O O7 0.000241 0.457818 0.246833
O O8 0.000000 0.500000 0.000000
O O9 0.923742 0.857954 0.250874
O O10 0.391514 0.480282 0.015263
O O11 0.603472 0.767587 0.902927
O O12 0.520266 0.910331 0.668447
O O13 0.863538 0.021284 0.818719
O O14 0.036639 0.222851 0.075115
O O15 0.267750 0.779922 0.688413
O O16 0.048044 0.725579 0.338654
O O17 0.500000 0.500000 0.500000
O O18 0.500000 0.000000 0.000000
#
# Coordination Sequence:
#
# PCOD9066893 Si02
#       8
#     2   2   2   2   2   2   2   2
#     4  12  23  42  68 102 138 174 222 283 343 406
#     4  12  23  43  65 103 142 174 218 280 345 405
#     4  11  25  47  71  94 138 177 231 286 336 402
#     4  12  25  46  69 100 136 180 231 282 337 404
#     4  12  26  43  71 100 141 179 229 277 337 417
#     4  11  27  48  68  96 133 186 231 282 335 399
#     4  12  24  41  69 105 139 177 222 281 350 405
#     4  12  23  41  68 101 137 177 217 275 348 400
#
# _framework density 25.858902
#
# number of rings (size 3 to 8) (size 9 to 14) (size 15 to 20)
#    0.000    0.250    5.000    4.500    1.750    2.500 
#    0.000    0.000    0.000    0.000    0.000    0.000 
#    0.000    0.000    0.000    0.000    0.000    0.000 
#
# Total GULP energy -89644.791360 kJ/mol
# GULP energy per Si atom -5602.799460 kJ/mol
# Density = 2.580005 g / cm^3
# Si number density = 25.858902 Si / 1000 Ang^3
#
#
#
# Elastic Constant Matrix: (Units=GPa)
#
#
# Indices 1 2 3 4 5 6 
#
# 1 109.3261 28.0234 25.4461 2.3040 16.5372 23.4814
# 2 28.0234 107.7528 8.3298 -7.5631 -2.1764 27.6246
# 3 25.4461 8.3298 99.7075 -17.9472 25.7555 -1.4503
# 4 2.3040 -7.5631 -17.9472 36.7185 -1.4065 0.3890
# 5 16.5372 -2.1764 25.7555 -1.4065 38.2160 -9.9922
# 6 23.4814 27.6246 -1.4503 0.3890 -9.9922 56.9302
#
#
#
# Elastic Compliance Matrix: (Units=1/GPa)
#
#
# Indices 1 2 3 4 5 6 
#
# 1 0.012051 -0.001968 -0.002013 -0.002298 -0.005360 -0.004992
# 2 -0.001968 0.011147 -0.000201 0.002390 0.000526 -0.004526
# 3 -0.002013 -0.000201 0.013884 0.006555 -0.008315 -0.000223
# 4 -0.002298 0.002390 0.006555 0.030993 -0.002320 -0.000664
# 5 -0.005360 0.000526 -0.008315 -0.002320 0.036154 0.008105
# 6 -0.004992 -0.004526 -0.000223 -0.000664 0.008105 0.023242
#
#
# Mechanical properties :
#
#
# Convention : Reuss Voigt Hill
#
# Bulk Modulus (GPa) = 34.82023 48.93168 41.87595
# Shear Modulus (GPa) = 34.38612 43.37208 38.87910
#
# Velocity S-wave (km/s) = 3.65054 4.09988 3.88172
# Velocity P-wave (km/s) = 5.59136 6.43239 6.02656
#
# Compressibility (1/GPa) = 0.02871894
#
# Stress axis : x y z
#
# Youngs Moduli (GPa) = 82.97752 89.71353 72.02433
#
# Poissons Ratio (x) = 0.17659 0.14497
# Poissons Ratio (y) = 0.16333 0.01444
# Poissons Ratio (z) = 0.16701 0.01799
#
# Static dielectric constant tensor:
#      x y z
#    x 2.054880 -0.013390 0.017340 
#    y -0.013390 1.988140 -0.006440 
#    z 0.017340 -0.006440 2.151580 
# 
# From -- ./inp_files/455639.got.cif
#   From: 2010.05.17/outbox.cif.g08.bks.cpg/sg2_228_cif.got.tgz:455639.got - 2010.06.03 11:33:40.
