data_PCOD9066105
_publ_section_title
;
Structure prediction by ZEFSAII (Michael W. Deem and Ramdas Pophale) SiO2 
 PCOD9066105
Probable space group: P -1
;
_chemical_formula_sum "Si O2"
_cell_formula_units_Z 16
_cell_length_a 9.244544
_cell_length_b 21.714571
_cell_length_c 8.056419
_cell_angle_alpha 69.203407
_cell_angle_beta 63.644625
_cell_angle_gamma 28.956657
_cell_volume 699.524328
_symmetry_space_group_name_H-M "P -1"
_symmetry_group_IT_number 2
_symmetry_cell_setting 'triclinic'
loop_
_space_group_symop_operation_xyz
x,y,z
-x,-y,-z
loop_
_atom_site_type_symbol
_atom_site_label
_atom_site_fract_x
_atom_site_fract_y
_atom_site_fract_z
Si Si1 0.669146 0.807349 0.719409
Si Si2 0.745818 0.646743 0.012206
Si Si3 0.694005 0.068651 0.525608
Si Si4 0.475405 0.378061 0.334370
Si Si5 0.484409 0.002809 0.809090
Si Si6 0.756589 0.269221 0.939664
Si Si7 0.299758 0.633609 0.438604
Si Si8 0.787873 0.662665 0.360553
O O1 0.370118 0.898181 0.668673
O O2 0.939972 0.739303 0.527214
O O3 0.596096 0.892957 0.795761
O O4 0.804963 0.695942 0.848099
O O5 0.427253 0.732963 0.008393
O O6 0.725128 0.664575 0.201601
O O7 0.000000 0.500000 0.000000
O O8 0.680637 0.995260 0.640247
O O9 0.398162 0.205897 0.635729
O O10 0.000000 0.000000 0.500000
O O11 0.633825 0.341150 0.463662
O O12 0.354877 0.344798 0.442187
O O13 0.160115 0.531808 0.325845
O O14 0.688306 0.310812 0.126318
O O15 0.116321 0.138119 0.833056
O O16 0.500000 0.000000 0.000000
O O17 0.613683 0.369500 0.782604
O O18 0.500000 0.500000 0.500000
#
# Coordination Sequence:
#
# PCOD9066105 Si02
#       8
#     2   2   2   2   2   2   2   2
#     4  12  28  50  77 111 157 200 260 318 385 467
#     4  12  25  48  79 115 149 203 256 318 386 467
#     4  12  29  48  78 110 152 207 259 315 383 459
#     4  11  25  44  76 108 152 199 247 323 385 454
#     4  12  29  52  75 112 155 204 262 320 384 461
#     4  12  26  47  78 110 156 198 259 315 389 460
#     4  12  26  46  75 110 151 199 250 318 393 457
#     4  11  25  46  73 111 151 194 260 315 380 455
#
# _framework density 22.872686999999999
#
# number of rings (size 3 to 8) (size 9 to 14) (size 15 to 20)
#    0.000    0.250    3.750    4.125    8.750    1.000 
#    0.000    0.000    0.000    0.000    0.000    0.000 
#    0.000    0.000    0.000    0.000    0.000    0.000 
#
# Total GULP energy -89581.805859 kJ/mol
# GULP energy per Si atom -5598.862866 kJ/mol
# Density = 2.282063 g / cm^3
# Si number density = 22.872687 Si / 1000 Ang^3
#
#
#
# Elastic Constant Matrix: (Units=GPa)
#
#
# Indices 1 2 3 4 5 6 
#
# 1 118.5066 48.9033 32.3505 -2.7543 4.9530 0.3628
# 2 48.9033 84.5653 26.7662 -10.0461 -10.7220 13.2206
# 3 32.3505 26.7662 137.7438 -11.0843 2.5525 17.6033
# 4 -2.7543 -10.0461 -11.0843 31.7212 -0.2052 -3.2224
# 5 4.9530 -10.7220 2.5525 -0.2052 41.9903 3.6214
# 6 0.3628 13.2206 17.6033 -3.2224 3.6214 48.9043
#
#
#
# Elastic Compliance Matrix: (Units=1/GPa)
#
#
# Indices 1 2 3 4 5 6 
#
# 1 0.012132 -0.007515 -0.001812 -0.001704 -0.003484 0.002739
# 2 -0.007515 0.018527 -0.000984 0.004427 0.006109 -0.004759
# 3 -0.001812 -0.000984 0.008388 0.002199 -0.000315 -0.002572
# 4 -0.001704 0.004427 0.002199 0.033570 0.001350 0.000136
# 5 -0.003484 0.006109 -0.000315 0.001350 0.026101 -0.003356
# 6 0.002739 -0.004759 -0.002572 0.000136 -0.003356 0.022898
#
#
# Mechanical properties :
#
#
# Convention : Reuss Voigt Hill
#
# Bulk Modulus (GPa) = 54.27121 61.87285 58.07203
# Shear Modulus (GPa) = 33.69798 40.04286 36.87042
#
# Velocity S-wave (km/s) = 3.84250 4.18866 4.01931
# Velocity P-wave (km/s) = 6.59283 7.10653 6.85450
#
# Compressibility (1/GPa) = 0.01842598
#
# Stress axis : x y z
#
# Youngs Moduli (GPa) = 82.43000 53.97599 119.21850
#
# Poissons Ratio (x) = 0.40561 0.21598
# Poissons Ratio (y) = 0.61942 0.11731
# Poissons Ratio (z) = 0.14933 0.05311
#
# Static dielectric constant tensor:
#      x y z
#    x 1.932710 -0.026670 -0.055380 
#    y -0.026670 1.382010 0.012690 
#    z -0.055380 0.012690 1.911600 
# 
# From -- ./inp_files/223384.got.cif
#   From: 2010.05.17/outbox.cif.g08.bks.cpg/sg2_112_cif.got.tgz:223384.got - 2010.06.03 11:33:40.
