data_PCOD9066870
_publ_section_title
;
Structure prediction by ZEFSAII (Michael W. Deem and Ramdas Pophale) SiO2 
 PCOD9066870
Probable space group: P -1
;
_chemical_formula_sum "Si O2"
_cell_formula_units_Z 15
_cell_length_a 12.975496
_cell_length_b 6.953394
_cell_length_c 11.542321
_cell_angle_alpha 78.442286
_cell_angle_beta 76.120744
_cell_angle_gamma 40.522079
_cell_volume 656.611376
_symmetry_space_group_name_H-M "P -1"
_symmetry_group_IT_number 2
_symmetry_cell_setting 'triclinic'
loop_
_space_group_symop_operation_xyz
x,y,z
-x,-y,-z
loop_
_atom_site_type_symbol
_atom_site_label
_atom_site_fract_x
_atom_site_fract_y
_atom_site_fract_z
Si Si1 0.029841 0.415986 0.218201
Si Si2 0.677382 0.224411 0.439400
Si Si3 0.878336 0.306771 0.428877
Si Si4 0.000000 0.500000 0.000000
Si Si5 0.467714 0.138453 0.163874
Si Si6 0.726983 0.080840 0.175671
Si Si7 0.259149 0.490218 0.957038
Si Si8 0.235639 0.267454 0.383790
O O1 0.102479 0.445064 0.296982
O O2 0.960663 0.322205 0.307635
O O3 0.132914 0.234091 0.099506
O O4 0.887655 0.727639 0.146004
O O5 0.500000 0.500000 0.500000
O O6 0.752260 0.335387 0.404591
O O7 0.703421 0.103481 0.318564
O O8 0.752586 0.970359 0.543032
O O9 0.807048 0.546639 0.516191
O O10 0.000000 0.000000 0.500000
O O11 0.100940 0.582525 0.964489
O O12 0.571673 0.189032 0.153875
O O13 0.391816 0.144118 0.297807
O O14 0.593815 0.809076 0.118270
O O15 0.324015 0.383366 0.084316
O O16 0.754039 0.264198 0.105985
#
# Coordination Sequence:
#
# PCOD9066870 Si02
#       8
#     2   2   2   1   2   2   2   2
#     4  12  25  47  68 104 141 185 240 297 350 421
#     4  12  26  42  71 107 138 187 233 290 364 425
#     4  12  25  47  71 100 142 190 233 297 356 413
#     4  12  24  48  74 104 138 184 242 292 346 422
#     4  11  25  47  71 103 146 188 231 295 355 424
#     4  12  25  45  71 102 142 185 238 290 356 423
#     4  11  25  48  72 104 145 185 237 296 353 419
#     4  12  25  46  71 105 144 184 239 292 357 430
#
# _framework density 22.844564999999999
#
# number of rings (size 3 to 8) (size 9 to 14) (size 15 to 20)
#    0.000    0.267    5.333    4.000    1.867    1.600 
#    2.400    0.000    0.000    0.000    0.000    0.000 
#    0.000    0.000    0.000    0.000    0.000    0.000 
#
# Total GULP energy -83769.748727 kJ/mol
# GULP energy per Si atom -5584.649915 kJ/mol
# Density = 2.279257 g / cm^3
# Si number density = 22.844565 Si / 1000 Ang^3
#
#
#
# Elastic Constant Matrix: (Units=GPa)
#
#
# Indices 1 2 3 4 5 6 
#
# 1 141.5938 29.6078 32.2616 -6.7315 -9.2507 31.3617
# 2 29.6078 55.8264 37.0422 -13.6616 -7.6868 11.8544
# 3 32.2616 37.0422 150.8858 -0.4291 -16.0792 18.3671
# 4 -6.7315 -13.6616 -0.4291 29.0861 5.2080 -7.0481
# 5 -9.2507 -7.6868 -16.0792 5.2080 56.6178 -3.7347
# 6 31.3617 11.8544 18.3671 -7.0481 -3.7347 29.1521
#
#
#
# Elastic Compliance Matrix: (Units=1/GPa)
#
#
# Indices 1 2 3 4 5 6 
#
# 1 0.009876 -0.003559 -0.000013 -0.001813 0.000665 -0.009522
# 2 -0.003559 0.026456 -0.005589 0.011306 0.000342 -0.000631
# 3 -0.000013 -0.005589 0.008650 -0.003751 0.001787 -0.003841
# 4 -0.001813 0.011306 -0.003751 0.042066 -0.003070 0.009493
# 5 0.000665 0.000342 0.001787 -0.003070 0.018585 -0.000342
# 6 -0.009522 -0.000631 -0.003841 0.009493 -0.000342 0.049475
#
#
# Mechanical properties :
#
#
# Convention : Reuss Voigt Hill
#
# Bulk Modulus (GPa) = 37.50889 60.68101 49.09495
# Shear Modulus (GPa) = 27.42489 39.59748 33.51119
#
# Velocity S-wave (km/s) = 3.46858 4.16786 3.83420
# Velocity P-wave (km/s) = 5.70055 7.05561 6.41396
#
# Compressibility (1/GPa) = 0.02666035
#
# Stress axis : x y z
#
# Youngs Moduli (GPa) = 101.25547 37.79820 115.61140
#
# Poissons Ratio (x) = 0.13453 0.00150
# Poissons Ratio (y) = 0.36039 0.64611
# Poissons Ratio (z) = 0.00132 0.21124
#
# Static dielectric constant tensor:
#      x y z
#    x 1.829890 -0.066970 0.048790 
#    y -0.066970 1.866440 0.140980 
#    z 0.048790 0.140980 2.002380 
# 
# From -- ./inp_files/46383.got.cif
#   From: 2010.05.17/outbox.cif.g08.bks.cpg/sg2_24_cif.got.tgz:46383.got - 2010.06.03 11:33:40.
