data_PCOD9066455
_publ_section_title
;
Structure prediction by ZEFSAII (Michael W. Deem and Ramdas Pophale) SiO2 
 PCOD9066455
Probable space group: P -1
;
_chemical_formula_sum "Si O2"
_cell_formula_units_Z 16
_cell_length_a 11.789541
_cell_length_b 9.316630
_cell_length_c 9.501974
_cell_angle_alpha 103.290403
_cell_angle_beta 137.280161
_cell_angle_gamma 78.720836
_cell_volume 688.523869
_symmetry_space_group_name_H-M "P -1"
_symmetry_group_IT_number 2
_symmetry_cell_setting 'triclinic'
loop_
_space_group_symop_operation_xyz
x,y,z
-x,-y,-z
loop_
_atom_site_type_symbol
_atom_site_label
_atom_site_fract_x
_atom_site_fract_y
_atom_site_fract_z
Si Si1 0.812351 0.084485 0.625714
Si Si2 0.330604 0.084587 0.313616
Si Si3 0.819718 0.968338 0.137666
Si Si4 0.193606 0.392557 0.268554
Si Si5 0.305200 0.723473 0.929943
Si Si6 0.332935 0.150863 0.750164
Si Si7 0.195823 0.651893 0.129671
Si Si8 0.820664 0.538272 0.413638
O O1 0.750054 0.235611 0.674870
O O2 0.992532 0.096716 0.723568
O O3 0.818645 0.974173 0.739491
O O4 0.694663 0.000317 0.393182
O O5 0.328730 0.258772 0.374253
O O6 0.500000 0.000000 0.500000
O O7 0.281097 0.051710 0.102661
O O8 0.726499 0.885238 0.156405
O O9 0.827072 0.145217 0.207158
O O10 0.231815 0.490501 0.190101
O O11 0.184232 0.480353 0.426851
O O12 0.006754 0.332766 0.064608
O O13 0.296007 0.576686 0.795810
O O14 0.479781 0.798598 0.081440
O O15 0.273058 0.683960 0.055260
O O16 0.226367 0.290772 0.622540
O O17 0.000000 0.500000 0.500000
#
# Coordination Sequence:
#
# PCOD9066455 Si02
#       8
#     2   2   2   2   2   2   2   2
#     4  12  24  46  76 110 140 196 256 309 365 444
#     4  12  25  47  76 108 152 193 244 317 381 435
#     4  12  26  46  77 104 148 197 254 308 368 450
#     4  11  25  48  75 113 146 195 254 309 370 451
#     4  12  26  48  69 108 150 196 240 313 379 436
#     4  12  29  47  71 108 151 195 253 308 377 440
#     4  11  25  45  81 110 146 192 255 309 377 442
#     4  12  26  46  74 103 151 199 245 300 374 456
#
# _framework density 23.238122000000001
#
# number of rings (size 3 to 8) (size 9 to 14) (size 15 to 20)
#    0.000    0.250    5.000    3.750    5.250    0.000 
#    0.000    1.250    0.000    0.000    0.000    0.000 
#    0.000    0.000    0.000    0.000    0.000    0.000 
#
# Total GULP energy -89620.462252 kJ/mol
# GULP energy per Si atom -5601.278891 kJ/mol
# Density = 2.318523 g / cm^3
# Si number density = 23.238122 Si / 1000 Ang^3
#
#
#
# Elastic Constant Matrix: (Units=GPa)
#
#
# Indices 1 2 3 4 5 6 
#
# 1 135.1663 36.4197 41.1818 8.2235 -5.0946 37.8977
# 2 36.4197 74.1023 16.1694 7.8361 2.2800 6.0484
# 3 41.1818 16.1694 92.2531 33.0997 1.1635 10.4934
# 4 8.2235 7.8361 33.0997 45.4946 3.3399 -6.5318
# 5 -5.0946 2.2800 1.1635 3.3399 32.9284 -10.5824
# 6 37.8977 6.0484 10.4934 -6.5318 -10.5824 44.2783
#
#
#
# Elastic Compliance Matrix: (Units=1/GPa)
#
#
# Indices 1 2 3 4 5 6 
#
# 1 0.012256 -0.004458 -0.003600 -0.000103 -0.000611 -0.009189
# 2 -0.004458 0.015858 -0.000438 -0.001335 -0.001231 0.001262
# 3 -0.003600 -0.000438 0.017237 -0.012175 -0.000846 -0.002942
# 4 -0.000103 -0.001335 -0.012175 0.032232 -0.000239 0.007853
# 5 -0.000611 -0.001231 -0.000846 -0.000239 0.033242 0.008801
# 6 -0.009189 0.001262 -0.002942 0.007853 0.008801 0.034236
#
#
# Mechanical properties :
#
#
# Convention : Reuss Voigt Hill
#
# Bulk Modulus (GPa) = 35.26362 54.34037 44.80200
# Shear Modulus (GPa) = 29.15336 38.39032 33.77184
#
# Velocity S-wave (km/s) = 3.54580 4.06894 3.81635
# Velocity P-wave (km/s) = 5.65433 6.74611 6.22420
#
# Compressibility (1/GPa) = 0.02835784
#
# Stress axis : x y z
#
# Youngs Moduli (GPa) = 81.59321 63.06088 58.01390
#
# Poissons Ratio (x) = 0.28115 0.20884
# Poissons Ratio (y) = 0.36377 0.02543
# Poissons Ratio (z) = 0.29372 0.02764
#
# Static dielectric constant tensor:
#      x y z
#    x 1.871100 -0.028230 0.018390 
#    y -0.028230 1.909940 0.027430 
#    z 0.018390 0.027430 1.895050 
# 
# From -- ./inp_files/244780.got.cif
#   From: 2010.05.17/outbox.cif.g08.bks.cpg/sg2_123_cif.got.tgz:244780.got - 2010.06.03 11:33:40.
