data_PCOD9066706
_publ_section_title
;
Structure prediction by ZEFSAII (Michael W. Deem and Ramdas Pophale) SiO2 
 PCOD9066706
Probable space group: P -1
;
_chemical_formula_sum "Si O2"
_cell_formula_units_Z 15
_cell_length_a 5.268764
_cell_length_b 12.616975
_cell_length_c 25.570366
_cell_angle_alpha 21.798680
_cell_angle_beta 59.089549
_cell_angle_gamma 61.289190
_cell_volume 541.536644
_symmetry_space_group_name_H-M "P -1"
_symmetry_group_IT_number 2
_symmetry_cell_setting 'triclinic'
loop_
_space_group_symop_operation_xyz
x,y,z
-x,-y,-z
loop_
_atom_site_type_symbol
_atom_site_label
_atom_site_fract_x
_atom_site_fract_y
_atom_site_fract_z
Si Si1 0.725854 0.753556 0.107012
Si Si2 0.336652 0.507886 0.940041
Si Si3 0.437651 0.542901 0.406968
Si Si4 0.308823 0.957556 0.318505
Si Si5 0.437487 0.288858 0.288338
Si Si6 0.767028 0.794326 0.508623
Si Si7 0.738255 0.978900 0.119415
Si Si8 0.000000 0.000000 0.500000
O O1 0.564371 0.470175 0.238039
O O2 0.754265 0.822816 0.133205
O O3 0.998744 0.800852 0.017192
O O4 0.500000 0.000000 0.000000
O O5 0.406250 0.630688 0.818290
O O6 0.537085 0.813600 0.932386
O O7 0.522590 0.746361 0.843899
O O8 0.000000 0.500000 0.000000
O O9 0.262027 0.755043 0.366374
O O10 0.513803 0.252372 0.563303
O O11 0.278434 0.478951 0.398133
O O12 0.728785 0.728360 0.277783
O O13 0.987706 0.995635 0.359997
O O14 0.444229 0.955207 0.461918
O O15 0.086557 0.289784 0.320351
O O16 0.906425 0.809396 0.543313
#
# Coordination Sequence:
#
# PCOD9066706 Si02
#       8
#     2   2   2   2   2   2   2   1
#     4  11  25  46  74 107 161 201 260 316 395 472
#     4  12  27  50  78 113 158 207 264 319 389 473
#     4  11  26  46  75 109 152 202 255 319 390 462
#     4  11  26  49  73 110 154 198 261 322 380 472
#     4  12  26  47  75 114 151 203 257 324 388 470
#     4  12  24  47  75 111 148 199 253 326 394 455
#     4  11  27  48  75 115 151 208 258 323 392 466
#     4  12  26  44  76 106 150 184 258 320 380 456
#
# _framework density 27.698958000000001
#
# number of rings (size 3 to 8) (size 9 to 14) (size 15 to 20)
#    0.000    0.533    4.000    2.400    3.733    6.933 
#    0.000    0.000    0.000    0.000    0.000    0.000 
#    0.000    0.000    0.000    0.000    0.000    0.000 
#
# Total GULP energy -83753.534493 kJ/mol
# GULP energy per Si atom -5583.568966 kJ/mol
# Density = 2.763591 g / cm^3
# Si number density = 27.698958 Si / 1000 Ang^3
#
#
#
# Elastic Constant Matrix: (Units=GPa)
#
#
# Indices 1 2 3 4 5 6 
#
# 1 90.8590 57.1247 36.6134 -8.4422 -15.8207 11.6855
# 2 57.1247 173.8432 43.4077 -15.8855 -8.2281 15.1800
# 3 36.6134 43.4077 169.5543 12.5945 -35.4833 -3.1066
# 4 -8.4422 -15.8855 12.5945 50.7643 -2.5258 -16.1502
# 5 -15.8207 -8.2281 -35.4833 -2.5258 54.7644 -1.4696
# 6 11.6855 15.1800 -3.1066 -16.1502 -1.4696 60.1509
#
#
#
# Elastic Compliance Matrix: (Units=1/GPa)
#
#
# Indices 1 2 3 4 5 6 
#
# 1 0.015101 -0.004140 -0.001781 0.001287 0.002604 -0.001572
# 2 -0.004140 0.007645 -0.001394 0.001769 -0.000889 -0.000744
# 3 -0.001781 -0.001394 0.007690 -0.002244 0.004171 0.000594
# 4 0.001287 0.001769 -0.002244 0.022728 0.000374 0.005299
# 5 0.002604 -0.000889 0.004171 0.000374 0.021614 0.000562
# 6 -0.001572 -0.000744 0.000594 0.005299 0.000562 0.018585
#
#
# Mechanical properties :
#
#
# Convention : Reuss Voigt Hill
#
# Bulk Modulus (GPa) = 63.26285 78.72757 70.99521
# Shear Modulus (GPa) = 44.14571 52.94330 48.54451
#
# Velocity S-wave (km/s) = 3.99653 4.37668 4.19092
# Velocity P-wave (km/s) = 6.64721 7.35015 7.00750
#
# Compressibility (1/GPa) = 0.01580707
#
# Stress axis : x y z
#
# Youngs Moduli (GPa) = 66.21889 130.79945 130.04318
#
# Poissons Ratio (x) = 0.54145 0.23156
# Poissons Ratio (y) = 0.27412 0.18134
# Poissons Ratio (z) = 0.11791 0.18240
#
# Static dielectric constant tensor:
#      x y z
#    x 1.068920 0.490780 0.127700 
#    y 0.490780 1.926300 -0.049900 
#    z 0.127700 -0.049900 2.177540 
# 
# From -- ./inp_files/604373.got.cif
#   From: 2010.05.17/outbox.cif.g08.bks.cpg/sg2_303_cif.got.tgz:604373.got - 2010.06.03 11:33:40.
