data_PCOD9066125
_publ_section_title
;
Structure prediction by ZEFSAII (Michael W. Deem and Ramdas Pophale) SiO2 
 PCOD9066125
Probable space group: P -1
;
_chemical_formula_sum "Si O2"
_cell_formula_units_Z 12
_cell_length_a 5.111656
_cell_length_b 24.066626
_cell_length_c 14.209898
_cell_angle_alpha 157.760611
_cell_angle_beta 52.012930
_cell_angle_gamma 120.047157
_cell_volume 507.318048
_symmetry_space_group_name_H-M "P -1"
_symmetry_group_IT_number 2
_symmetry_cell_setting 'triclinic'
loop_
_space_group_symop_operation_xyz
x,y,z
-x,-y,-z
loop_
_atom_site_type_symbol
_atom_site_label
_atom_site_fract_x
_atom_site_fract_y
_atom_site_fract_z
Si Si1 0.772725 0.595792 0.619597
Si Si2 0.827289 0.620994 0.150101
Si Si3 0.145758 0.623174 0.389695
Si Si4 0.938078 0.094487 0.446800
Si Si5 0.148200 0.096477 0.194069
Si Si6 0.636140 0.059329 0.723561
O O1 0.500000 0.500000 0.500000
O O2 0.000000 0.500000 0.500000
O O3 0.038515 0.609547 0.498487
O O4 0.556130 0.764197 0.958001
O O5 0.467179 0.690967 0.391534
O O6 0.050772 0.739120 0.259847
O O7 0.780892 0.534098 0.928699
O O8 0.000000 0.500000 0.000000
O O9 0.832774 0.743236 0.601220
O O10 0.949053 0.118377 0.369886
O O11 0.611174 0.024598 0.411010
O O12 0.258383 0.989507 0.267275
O O13 0.500000 0.000000 0.000000
O O14 0.000000 0.000000 0.000000
O O15 0.000000 0.000000 0.500000
#
# Coordination Sequence:
#
# PCOD9066125 Si02
#       6
#     2   2   2   2   2   2
#     4  12  30  53  80 112 155 212 263 325 382 461
#     4  11  25  44  79 115 155 204 246 324 391 468
#     4  11  26  47  72 116 156 195 265 310 396 463
#     4  12  25  47  76 112 152 197 256 315 389 460
#     4  12  24  42  73 107 147 192 238 320 390 452
#     4  12  29  52  79 113 153 210 266 317 385 465
#
# _framework density 23.653798999999999
#
# number of rings (size 3 to 8) (size 9 to 14) (size 15 to 20)
#    0.000    0.333    1.667    6.500    7.000    0.000 
#    0.000    0.000    0.000    0.000    0.000    0.000 
#    0.000    0.000    0.000    0.000    0.000    0.000 
#
# Total GULP energy -67059.066162 kJ/mol
# GULP energy per Si atom -5588.255513 kJ/mol
# Density = 2.359996 g / cm^3
# Si number density = 23.653799 Si / 1000 Ang^3
#
#
#
# Elastic Constant Matrix: (Units=GPa)
#
#
# Indices 1 2 3 4 5 6 
#
# 1 166.1629 49.7532 59.6108 25.7850 -2.7048 -1.4757
# 2 49.7532 129.4118 70.6861 3.9883 -5.4891 -23.8378
# 3 59.6108 70.6861 150.3510 13.9187 -2.2560 6.1385
# 4 25.7850 3.9883 13.9187 39.1863 -8.8908 2.7691
# 5 -2.7048 -5.4891 -2.2560 -8.8908 45.2258 18.0409
# 6 -1.4757 -23.8378 6.1385 2.7691 18.0409 56.8819
#
#
#
# Elastic Compliance Matrix: (Units=1/GPa)
#
#
# Indices 1 2 3 4 5 6 
#
# 1 0.007952 -0.001937 -0.001834 -0.004563 -0.000772 0.000060
# 2 -0.001937 0.012501 -0.005491 0.001292 -0.001030 0.006045
# 3 -0.001834 -0.005491 0.010254 -0.001406 0.000927 -0.003681
# 4 -0.004563 0.001292 -0.001406 0.030731 0.007124 -0.003181
# 5 -0.000772 -0.001030 0.000927 0.007124 0.027185 -0.009521
# 6 0.000060 0.006045 -0.003681 -0.003181 -0.009521 0.023687
#
#
# Mechanical properties :
#
#
# Convention : Reuss Voigt Hill
#
# Bulk Modulus (GPa) = 82.07584 89.55845 85.81714
# Shear Modulus (GPa) = 37.06579 45.98382 41.52480
#
# Velocity S-wave (km/s) = 3.96284 4.41390 4.19444
# Velocity P-wave (km/s) = 7.46411 7.99507 7.73415
#
# Compressibility (1/GPa) = 0.01218385
#
# Stress axis : x y z
#
# Youngs Moduli (GPa) = 125.75316 79.99156 97.52019
#
# Poissons Ratio (x) = 0.15492 0.17884
# Poissons Ratio (y) = 0.24354 0.53552
# Poissons Ratio (z) = 0.23061 0.43926
#
# Static dielectric constant tensor:
#      x y z
#    x 2.226130 0.543340 -0.428200 
#    y 0.543340 2.965600 -0.907950 
#    z -0.428200 -0.907950 2.693010 
# 
# From -- ./inp_files/368535.got.cif
#   From: 2010.05.17/outbox.cif.g08.bks.cpg/sg2_185_cif.got.tgz:368535.got - 2010.06.03 11:33:40.
