data_PCOD9066927
_publ_section_title
;
Structure prediction by ZEFSAII (Michael W. Deem and Ramdas Pophale) SiO2 
 PCOD9066927
Probable space group: P -1
;
_chemical_formula_sum "Si O2"
_cell_formula_units_Z 16
_cell_length_a 13.585529
_cell_length_b 12.256941
_cell_length_c 17.728768
_cell_angle_alpha 150.830410
_cell_angle_beta 31.000546
_cell_angle_gamma 128.859026
_cell_volume 649.225698
_symmetry_space_group_name_H-M "P -1"
_symmetry_group_IT_number 2
_symmetry_cell_setting 'triclinic'
loop_
_space_group_symop_operation_xyz
x,y,z
-x,-y,-z
loop_
_atom_site_type_symbol
_atom_site_label
_atom_site_fract_x
_atom_site_fract_y
_atom_site_fract_z
Si Si1 0.207463 0.139811 0.574313
Si Si2 0.302632 0.211025 0.905196
Si Si3 0.094534 0.383704 0.505919
Si Si4 0.421894 0.407422 0.799331
Si Si5 0.149185 0.852428 0.716902
Si Si6 0.795632 0.388968 0.089013
Si Si7 0.744683 0.989635 0.964080
Si Si8 0.689618 0.021586 0.746932
O O1 0.181340 0.422712 0.754017
O O2 0.164533 0.059427 0.472651
O O3 0.449570 0.944028 0.323433
O O4 0.026741 0.175568 0.775778
O O5 0.311794 0.325934 0.887366
O O6 0.194472 0.028662 0.851244
O O7 0.154495 0.435909 0.195960
O O8 0.192560 0.579656 0.556515
O O9 0.134473 0.246827 0.316218
O O10 0.204874 0.165204 0.364498
O O11 0.676274 0.211445 0.503769
O O12 0.321908 0.430236 0.795796
O O13 0.382441 0.689360 0.011454
O O14 0.911189 0.975914 0.910424
O O15 0.677247 0.245452 0.115146
O O16 0.530058 0.991795 0.136488
#
# Coordination Sequence:
#
# PCOD9066927 Si02
#       8
#     2   2   2   2   2   2   2   2
#     4  11  27  46  71 107 141 185 234 287 351 415
#     4  12  28  46  71 107 144 185 231 291 351 413
#     4  12  26  47  71 105 143 184 235 288 350 415
#     4  12  25  47  74 101 144 185 235 288 349 415
#     4  12  26  47  72 103 142 188 231 288 354 414
#     4  11  25  47  73 102 142 185 237 286 346 419
#     4  12  26  46  74 104 139 190 233 287 351 413
#     4  12  27  47  73 105 140 187 235 291 345 413
#
# _framework density 24.644741
#
# number of rings (size 3 to 8) (size 9 to 14) (size 15 to 20)
#    0.000    0.250    3.750    4.500    8.750    2.000 
#    0.000    0.000    0.000    0.000    0.000    0.000 
#    0.000    0.000    0.000    0.000    0.000    0.000 
#
# Total GULP energy -89743.014374 kJ/mol
# GULP energy per Si atom -5608.938398 kJ/mol
# Density = 2.458865 g / cm^3
# Si number density = 24.644741 Si / 1000 Ang^3
#
#
#
# Elastic Constant Matrix: (Units=GPa)
#
#
# Indices 1 2 3 4 5 6 
#
# 1 84.3944 6.0895 7.4057 -2.9449 -17.9907 -12.1618
# 2 6.0895 92.6217 -3.8391 15.9991 -8.3870 -8.8990
# 3 7.4057 -3.8391 69.9251 -22.3445 -4.6596 -10.1485
# 4 -2.9449 15.9991 -22.3445 18.8039 2.6202 -5.4051
# 5 -17.9907 -8.3870 -4.6596 2.6202 43.5239 -5.2890
# 6 -12.1618 -8.8990 -10.1485 -5.4051 -5.2890 33.9721
#
#
#
# Elastic Compliance Matrix: (Units=1/GPa)
#
#
# Indices 1 2 3 4 5 6 
#
# 1 0.014467 -0.000671 0.002119 0.006654 0.006616 0.007725
# 2 -0.000671 0.014048 -0.004948 -0.018499 0.002950 -0.000523
# 3 0.002119 -0.004948 0.030931 0.045653 0.002473 0.016351
# 4 0.006654 -0.018499 0.045653 0.133532 -0.000026 0.032416
# 5 0.006616 0.002950 0.002473 -0.000026 0.027537 0.008163
# 6 0.007725 -0.000523 0.016351 0.032416 0.008163 0.043377
#
#
# Mechanical properties :
#
#
# Convention : Reuss Voigt Hill
#
# Bulk Modulus (GPa) = 19.06742 29.58370 24.32556
# Shear Modulus (GPa) = 17.33848 35.07899 26.20873
#
# Velocity S-wave (km/s) = 2.65530 3.77687 3.26461
# Velocity P-wave (km/s) = 4.14181 5.57224 4.90940
#
# Compressibility (1/GPa) = 0.05244549
#
# Stress axis : x y z
#
# Youngs Moduli (GPa) = 69.12115 71.18460 32.33001
#
# Poissons Ratio (x) = 0.04780 -0.06851
# Poissons Ratio (y) = 0.04641 0.15998
# Poissons Ratio (z) = -0.14648 0.35224
#
# Static dielectric constant tensor:
#      x y z
#    x 1.947130 0.003350 -0.016000 
#    y 0.003350 1.921490 -0.018350 
#    z -0.016000 -0.018350 1.939860 
# 
# From -- ./inp_files/392752.got.cif
#   From: 2010.05.17/outbox.cif.g08.bks.cpg/sg2_197_cif.got.tgz:392752.got - 2010.06.03 11:33:40.
