data_PCOD9066527
_publ_section_title
;
Structure prediction by ZEFSAII (Michael W. Deem and Ramdas Pophale) SiO2 
 PCOD9066527
Probable space group: P -1
;
_chemical_formula_sum "Si O2"
_cell_formula_units_Z 11
_cell_length_a 13.019156
_cell_length_b 7.407585
_cell_length_c 5.450378
_cell_angle_alpha 62.416037
_cell_angle_beta 122.417835
_cell_angle_gamma 111.138780
_cell_volume 388.823422
_symmetry_space_group_name_H-M "P -1"
_symmetry_group_IT_number 2
_symmetry_cell_setting 'triclinic'
loop_
_space_group_symop_operation_xyz
x,y,z
-x,-y,-z
loop_
_atom_site_type_symbol
_atom_site_label
_atom_site_fract_x
_atom_site_fract_y
_atom_site_fract_z
Si Si1 0.000000 0.500000 0.500000
Si Si2 0.036884 0.825361 0.978779
Si Si3 0.423847 0.165751 0.688875
Si Si4 0.610489 0.400781 0.463347
Si Si5 0.763947 0.409858 0.165392
Si Si6 0.840936 0.015148 0.380459
O O1 0.866611 0.602986 0.221473
O O2 0.954706 0.398897 0.776124
O O3 0.931347 0.848822 0.629461
O O4 0.163994 0.927375 0.946695
O O5 0.000000 0.000000 0.000000
O O6 0.487597 0.241484 0.466509
O O7 0.427510 0.371893 0.726276
O O8 0.283200 0.063899 0.587821
O O9 0.500000 0.000000 0.000000
O O10 0.678155 0.365153 0.319744
O O11 0.691296 0.401703 0.821250
O O12 0.870987 0.254224 0.373265
#
# Coordination Sequence:
#
# PCOD9066527 Si02
#       6
#     1   2   2   2   2   2
#     4  12  26  44  78 104 152 200 246 312 380 446
#     4  11  25  46  70 110 148 199 249 315 373 454
#     4  11  25  49  78 108 150 203 249 318 373 456
#     4  11  28  51  73 115 149 201 253 310 382 455
#     4  12  26  49  77 109 156 195 256 311 380 452
#     4  11  25  48  75 109 156 195 259 313 383 449
#
# _framework density 28.290479000000001
#
# number of rings (size 3 to 8) (size 9 to 14) (size 15 to 20)
#    0.000    0.727    3.636    2.182    2.545    6.545 
#    6.545    0.000    0.000    0.000    0.000    0.000 
#    0.000    0.000    0.000    0.000    0.000    0.000 
#
# Total GULP energy -61316.619354 kJ/mol
# GULP energy per Si atom -5574.238123 kJ/mol
# Density = 2.822609 g / cm^3
# Si number density = 28.290479 Si / 1000 Ang^3
#
#
#
# Elastic Constant Matrix: (Units=GPa)
#
#
# Indices 1 2 3 4 5 6 
#
# 1 179.6774 39.8618 62.3650 6.4066 -21.2508 -2.4967
# 2 39.8618 97.8025 56.6944 -19.0282 -11.6349 -19.2042
# 3 62.3650 56.6944 176.0022 -20.0271 -1.2564 -0.0540
# 4 6.4066 -19.0282 -20.0271 59.5875 -9.6092 4.6658
# 5 -21.2508 -11.6349 -1.2564 -9.6092 56.1467 -4.0270
# 6 -2.4967 -19.2042 -0.0540 4.6658 -4.0270 58.2820
#
#
#
# Elastic Compliance Matrix: (Units=1/GPa)
#
#
# Indices 1 2 3 4 5 6 
#
# 1 0.006964 -0.001724 -0.002090 -0.001688 0.001942 -0.000002
# 2 -0.001724 0.015292 -0.003839 0.003954 0.003457 0.004884
# 3 -0.002090 -0.003839 0.007826 0.001548 -0.001258 -0.001558
# 4 -0.001688 0.003954 0.001548 0.019319 0.003516 -0.000072
# 5 0.001942 0.003457 -0.001258 0.003516 0.020002 0.002322
# 6 -0.000002 0.004884 -0.001558 -0.000072 0.002322 0.018932
#
#
# Mechanical properties :
#
#
# Convention : Reuss Voigt Hill
#
# Bulk Modulus (GPa) = 67.68464 85.70274 76.69369
# Shear Modulus (GPa) = 46.05469 54.44063 50.24766
#
# Velocity S-wave (km/s) = 4.03913 4.39149 4.21899
# Velocity P-wave (km/s) = 6.76236 7.48821 7.13452
#
# Compressibility (1/GPa) = 0.01477440
#
# Stress axis : x y z
#
# Youngs Moduli (GPa) = 143.60593 65.39226 127.78367
#
# Poissons Ratio (x) = 0.11276 0.26710
# Poissons Ratio (y) = 0.24763 0.49055
# Poissons Ratio (z) = 0.30017 0.25104
#
# Static dielectric constant tensor:
#      x y z
#    x 2.241430 -0.167270 0.038900 
#    y -0.167270 1.306980 0.427450 
#    z 0.038900 0.427450 2.484290 
# 
# From -- ./inp_files/58832.got.cif
#   From: 2010.05.17/outbox.cif.g08.bks.cpg/sg2_30_cif.got.tgz:58832.got - 2010.06.03 11:33:40.
