data_PCOD9066851
_publ_section_title
;
Structure prediction by ZEFSAII (Michael W. Deem and Ramdas Pophale) SiO2 
 PCOD9066851
Probable space group: P -1
;
_chemical_formula_sum "Si O2"
_cell_formula_units_Z 12
_cell_length_a 14.724843
_cell_length_b 24.210060
_cell_length_c 4.906575
_cell_angle_alpha 81.171432
_cell_angle_beta 104.838347
_cell_angle_gamma 163.300821
_cell_volume 458.539652
_symmetry_space_group_name_H-M "P -1"
_symmetry_group_IT_number 2
_symmetry_cell_setting 'triclinic'
loop_
_space_group_symop_operation_xyz
x,y,z
-x,-y,-z
loop_
_atom_site_type_symbol
_atom_site_label
_atom_site_fract_x
_atom_site_fract_y
_atom_site_fract_z
Si Si1 0.678728 0.925269 0.499793
Si Si2 0.245834 0.764251 0.645445
Si Si3 0.277826 0.223404 0.091805
Si Si4 0.081115 0.838487 0.830557
Si Si5 0.555268 0.321016 0.716803
Si Si6 0.845648 0.637552 0.288474
O O1 0.425635 0.821519 0.547578
O O2 0.478702 0.764242 0.295687
O O3 0.913532 0.097698 0.352408
O O4 0.919874 0.033616 0.825023
O O5 0.916534 0.550526 0.707082
O O6 0.128177 0.750183 0.389759
O O7 0.522853 0.942186 0.946026
O O8 0.483146 0.300964 0.979500
O O9 0.276930 0.191949 0.403524
O O10 0.497673 0.405120 0.158501
O O11 0.915036 0.701701 0.590305
O O12 0.893526 0.715068 0.057559
#
# Coordination Sequence:
#
# PCOD9066851 Si02
#       6
#     2   2   2   2   2   2
#     4  12  28  45  74 110 140 181 237 294 349 407
#     4  11  26  46  74 107 139 184 237 291 345 412
#     4  11  27  49  74 100 142 191 232 284 353 419
#     4  12  26  43  74 102 146 180 234 288 348 415
#     4  11  27  49  74 100 144 187 233 286 353 421
#     4  11  25  47  70 100 142 191 230 278 354 420
#
# _framework density 26.170037000000001
#
# number of rings (size 3 to 8) (size 9 to 14) (size 15 to 20)
#    0.000    0.667    1.667    4.500   11.667    2.000 
#    0.000    0.000    0.000    0.000    0.000    0.000 
#    0.000    0.000    0.000    0.000    0.000    0.000 
#
# Total GULP energy -67405.042336 kJ/mol
# GULP energy per Si atom -5617.086861 kJ/mol
# Density = 2.611047 g / cm^3
# Si number density = 26.170037 Si / 1000 Ang^3
#
#
#
# Elastic Constant Matrix: (Units=GPa)
#
#
# Indices 1 2 3 4 5 6 
#
# 1 119.0003 34.7223 37.8650 22.9158 -12.6730 0.2209
# 2 34.7223 124.1140 40.3211 6.7672 -0.5140 -15.3568
# 3 37.8650 40.3211 109.2725 -1.1792 -26.3402 -3.4309
# 4 22.9158 6.7672 -1.1792 35.5219 -8.6687 -13.1406
# 5 -12.6730 -0.5140 -26.3402 -8.6687 26.2544 0.3459
# 6 0.2209 -15.3568 -3.4309 -13.1406 0.3459 47.6590
#
#
#
# Elastic Compliance Matrix: (Units=1/GPa)
#
#
# Indices 1 2 3 4 5 6 
#
# 1 0.011805 -0.002010 -0.003803 -0.008877 -0.001043 -0.003416
# 2 -0.002010 0.010450 -0.004451 -0.001201 -0.005664 0.002766
# 3 -0.003803 -0.004451 0.016504 0.008909 0.017549 0.002101
# 4 -0.008877 -0.001201 0.008909 0.043493 0.018830 0.012151
# 5 -0.001043 -0.005664 0.017549 0.018830 0.061243 0.004190
# 6 -0.003416 0.002766 0.002101 0.012151 0.004190 0.025361
#
#
# Mechanical properties :
#
#
# Convention : Reuss Voigt Hill
#
# Bulk Modulus (GPa) = 54.85435 64.24483 59.54959
# Shear Modulus (GPa) = 25.58076 37.85229 31.71653
#
# Velocity S-wave (km/s) = 3.12986 3.80728 3.48507
# Velocity P-wave (km/s) = 5.83675 6.62793 6.24488
#
# Compressibility (1/GPa) = 0.01823009
#
# Stress axis : x y z
#
# Youngs Moduli (GPa) = 84.71191 95.69757 60.59175
#
# Poissons Ratio (x) = 0.19234 0.23045
# Poissons Ratio (y) = 0.17026 0.26968
# Poissons Ratio (z) = 0.32219 0.42593
#
# Static dielectric constant tensor:
#      x y z
#    x 2.056680 0.048190 0.031770 
#    y 0.048190 2.034660 0.041260 
#    z 0.031770 0.041260 2.004000 
# 
# From -- ./inp_files/101110.got.cif
#   From: 2010.05.17/outbox.cif.g08.bks.cpg/sg2_51_cif.got.tgz:101110.got - 2010.06.03 11:33:40.
