data_PCOD9066883
_publ_section_title
;
Structure prediction by ZEFSAII (Michael W. Deem and Ramdas Pophale) SiO2 
 PCOD9066883
Probable space group: P -1
;
_chemical_formula_sum "Si O2"
_cell_formula_units_Z 10
_cell_length_a 8.373068
_cell_length_b 7.251340
_cell_length_c 6.937486
_cell_angle_alpha 98.241170
_cell_angle_beta 105.826506
_cell_angle_gamma 103.869807
_cell_volume 383.484458
_symmetry_space_group_name_H-M "P -1"
_symmetry_group_IT_number 2
_symmetry_cell_setting 'triclinic'
loop_
_space_group_symop_operation_xyz
x,y,z
-x,-y,-z
loop_
_atom_site_type_symbol
_atom_site_label
_atom_site_fract_x
_atom_site_fract_y
_atom_site_fract_z
Si Si1 0.469401 0.279896 0.535008
Si Si2 0.388157 0.138795 0.897761
Si Si3 0.977835 0.480216 0.216405
Si Si4 0.788125 0.220833 0.408976
Si Si5 0.163176 0.167686 0.168639
O O1 0.500000 0.500000 0.500000
O O2 0.479810 0.269117 0.768191
O O3 0.618234 0.209493 0.472460
O O4 0.288594 0.134463 0.372809
O O5 0.224289 0.981697 0.721829
O O6 0.302543 0.235187 0.049793
O O7 0.500000 0.000000 0.000000
O O8 0.055716 0.681240 0.381846
O O9 0.095059 0.335526 0.264650
O O10 0.802833 0.369452 0.253534
O O11 0.000000 0.500000 0.000000
O O12 0.000000 0.000000 0.000000
#
# Coordination Sequence:
#
# PCOD9066883 Si02
#       5
#     2   2   2   2   2
#     4  12  28  48  76 108 151 196 252 306 368 443
#     4  12  28  46  78 109 147 194 250 307 368 439
#     4  11  27  45  75 106 152 192 244 304 373 438
#     4  11  25  47  71 107 144 196 244 300 369 438
#     4  12  27  47  72 111 146 194 249 308 370 437
#
# _framework density 26.076675000000002
#
# number of rings (size 3 to 8) (size 9 to 14) (size 15 to 20)
#    0.000    0.400    6.000    0.600    8.400    1.600 
#    0.000    0.000    0.000    0.000    0.000    0.000 
#    0.000    0.000    0.000    0.000    0.000    0.000 
#
# Total GULP energy -55915.554195 kJ/mol
# GULP energy per Si atom -5591.555420 kJ/mol
# Density = 2.601732 g / cm^3
# Si number density = 26.076675 Si / 1000 Ang^3
#
#
#
# Elastic Constant Matrix: (Units=GPa)
#
#
# Indices 1 2 3 4 5 6 
#
# 1 106.5632 18.3750 32.0169 -19.9959 -23.2248 7.3397
# 2 18.3750 89.2022 45.9059 -5.8589 4.9648 7.7430
# 3 32.0169 45.9059 176.6565 -23.6180 -27.6631 18.2024
# 4 -19.9959 -5.8589 -23.6180 63.7941 8.0001 -9.3337
# 5 -23.2248 4.9648 -27.6631 8.0001 48.2722 6.0156
# 6 7.3397 7.7430 18.2024 -9.3337 6.0156 32.5870
#
#
#
# Elastic Compliance Matrix: (Units=1/GPa)
#
#
# Indices 1 2 3 4 5 6 
#
# 1 0.011658 -0.002333 -0.000043 0.002348 0.005738 -0.002434
# 2 -0.002333 0.014000 -0.004044 -0.000293 -0.004866 0.000272
# 3 -0.000043 -0.004044 0.008176 0.001352 0.005380 -0.004202
# 4 0.002348 -0.000293 0.001352 0.017678 -0.001509 0.004127
# 5 0.005738 -0.004866 0.005380 -0.001509 0.028409 -0.008818
# 6 -0.002434 0.000272 -0.004202 0.004127 -0.008818 0.036328
#
#
# Mechanical properties :
#
#
# Convention : Reuss Voigt Hill
#
# Bulk Modulus (GPa) = 47.63547 62.77972 55.20759
# Shear Modulus (GPa) = 36.74069 47.33896 42.03983
#
# Velocity S-wave (km/s) = 3.75767 4.26535 4.01953
# Velocity P-wave (km/s) = 6.09376 6.95592 6.53907
#
# Compressibility (1/GPa) = 0.02099276
#
# Stress axis : x y z
#
# Youngs Moduli (GPa) = 85.77560 71.42664 122.31323
#
# Poissons Ratio (x) = 0.16665 0.00530
# Poissons Ratio (y) = 0.20012 0.49468
# Poissons Ratio (z) = 0.00372 0.28888
#
# Static dielectric constant tensor:
#      x y z
#    x 2.045090 0.068580 0.070680 
#    y 0.068580 2.183280 -0.061570 
#    z 0.070680 -0.061570 2.063780 
# 
# From -- ./inp_files/15526.got.cif
#   From: 2010.05.17/outbox.cif.g08.bks.cpg/sg2_8_cif.got.tgz:15526.got - 2010.06.03 11:33:40.
