data_PCOD9066925
_publ_section_title
;
Structure prediction by ZEFSAII (Michael W. Deem and Ramdas Pophale) SiO2 
 PCOD9066925
Probable space group: P -1
;
_chemical_formula_sum "Si O2"
_cell_formula_units_Z 16
_cell_length_a 9.175191
_cell_length_b 12.099423
_cell_length_c 9.330508
_cell_angle_alpha 52.109576
_cell_angle_beta 114.976349
_cell_angle_gamma 97.107479
_cell_volume 727.578216
_symmetry_space_group_name_H-M "P -1"
_symmetry_group_IT_number 2
_symmetry_cell_setting 'triclinic'
loop_
_space_group_symop_operation_xyz
x,y,z
-x,-y,-z
loop_
_atom_site_type_symbol
_atom_site_label
_atom_site_fract_x
_atom_site_fract_y
_atom_site_fract_z
Si Si1 0.273443 0.936400 0.346431
Si Si2 0.974460 0.573624 0.273921
Si Si3 0.003676 0.076795 0.591430
Si Si4 0.210220 0.319913 0.432204
Si Si5 0.485322 0.648813 0.292357
Si Si6 0.412066 0.394315 0.957084
Si Si7 0.859568 0.156665 0.924729
Si Si8 0.626778 0.808669 0.667404
O O1 0.188279 0.930117 0.163465
O O2 0.466818 0.881079 0.455090
O O3 0.174314 0.849607 0.479678
O O4 0.265406 0.082675 0.314483
O O5 0.786229 0.572666 0.157144
O O6 0.000000 0.500000 0.500000
O O7 0.099081 0.471407 0.302718
O O8 0.022912 0.731057 0.160516
O O9 0.109908 0.196849 0.520421
O O10 0.000000 0.000000 0.500000
O O11 0.073730 0.956136 0.834116
O O12 0.366396 0.289224 0.626098
O O13 0.270590 0.306877 0.303190
O O14 0.500000 0.500000 0.500000
O O15 0.519778 0.619806 0.163118
O O16 0.310081 0.745621 0.171018
O O17 0.500000 0.500000 0.000000
O O18 0.446895 0.249022 0.176262
#
# Coordination Sequence:
#
# PCOD9066925 Si02
#       8
#     2   2   2   2   2   2   2   2
#     4  11  25  47  73 101 154 190 247 298 375 440
#     4  12  26  48  79 112 145 197 254 312 373 449
#     4  12  28  46  70 112 148 196 252 310 365 441
#     4  12  25  47  78 104 154 189 252 310 367 443
#     4  12  25  49  74 111 146 193 250 309 375 448
#     4  12  29  45  74 108 150 190 249 305 385 441
#     4  12  27  46  82 105 153 201 249 304 380 446
#     4  11  26  47  71 108 146 200 241 310 369 447
#
# _framework density 21.990763000000001
#
# number of rings (size 3 to 8) (size 9 to 14) (size 15 to 20)
#    0.000    0.250    5.000    2.625    7.000    1.000 
#    0.000    0.000    0.000    0.000    0.000    0.000 
#    0.000    0.000    0.000    0.000    0.000    0.000 
#
# Total GULP energy -89487.286777 kJ/mol
# GULP energy per Si atom -5592.955424 kJ/mol
# Density = 2.194071 g / cm^3
# Si number density = 21.990763 Si / 1000 Ang^3
#
#
#
# Elastic Constant Matrix: (Units=GPa)
#
#
# Indices 1 2 3 4 5 6 
#
# 1 95.6915 43.6764 26.3827 29.4185 2.4135 -2.0570
# 2 43.6764 115.9691 45.9201 33.7336 -5.3367 9.3798
# 3 26.3827 45.9201 106.6116 26.3426 -8.2506 2.2937
# 4 29.4185 33.7336 26.3426 40.9620 -1.9150 -1.6935
# 5 2.4135 -5.3367 -8.2506 -1.9150 52.3029 4.7708
# 6 -2.0570 9.3798 2.2937 -1.6935 4.7708 63.1687
#
#
#
# Elastic Compliance Matrix: (Units=1/GPa)
#
#
# Indices 1 2 3 4 5 6 
#
# 1 0.014377 -0.003207 -0.000474 -0.007410 -0.001416 0.000870
# 2 -0.003207 0.013221 -0.003147 -0.006607 0.000960 -0.002203
# 3 -0.000474 -0.003147 0.012165 -0.004832 0.001464 -0.000230
# 4 -0.007410 -0.006607 -0.004832 0.038370 0.000134 0.001934
# 5 -0.001416 0.000960 0.001464 0.000134 0.019676 -0.001724
# 6 0.000870 -0.002203 -0.000230 0.001934 -0.001724 0.016376
#
#
# Mechanical properties :
#
#
# Convention : Reuss Voigt Hill
#
# Bulk Modulus (GPa) = 38.30322 61.13673 49.71997
# Shear Modulus (GPa) = 36.61839 44.77291 40.69565
#
# Velocity S-wave (km/s) = 4.08508 4.51709 4.30650
# Velocity P-wave (km/s) = 6.30128 7.42071 6.88379
#
# Compressibility (1/GPa) = 0.02610747
#
# Stress axis : x y z
#
# Youngs Moduli (GPa) = 69.55454 75.63604 82.20465
#
# Poissons Ratio (x) = 0.24259 0.03895
# Poissons Ratio (y) = 0.22308 0.25868
# Poissons Ratio (z) = 0.03296 0.23801
#
# Static dielectric constant tensor:
#      x y z
#    x 1.944130 0.078460 0.055440 
#    y 0.078460 1.870500 -0.011480 
#    z 0.055440 -0.011480 1.826350 
# 
# From -- ./inp_files/185361.got.cif
#   From: 2010.05.17/outbox.cif.g08.bks.cpg/sg2_93_cif.got.tgz:185361.got - 2010.06.03 11:33:40.
