data_PCOD9066684
_publ_section_title
;
Structure prediction by ZEFSAII (Michael W. Deem and Ramdas Pophale) SiO2 
 PCOD9066684
Probable space group: P -1
;
_chemical_formula_sum "Si O2"
_cell_formula_units_Z 15
_cell_length_a 11.400009
_cell_length_b 9.205388
_cell_length_c 17.016195
_cell_angle_alpha 40.713908
_cell_angle_beta 37.511271
_cell_angle_gamma 40.063520
_cell_volume 645.909131
_symmetry_space_group_name_H-M "P -1"
_symmetry_group_IT_number 2
_symmetry_cell_setting 'triclinic'
loop_
_space_group_symop_operation_xyz
x,y,z
-x,-y,-z
loop_
_atom_site_type_symbol
_atom_site_label
_atom_site_fract_x
_atom_site_fract_y
_atom_site_fract_z
Si Si1 0.143029 0.107681 0.123848
Si Si2 0.019228 0.748038 0.249617
Si Si3 0.326960 0.208983 0.279243
Si Si4 0.686975 0.783135 0.534200
Si Si5 0.000000 0.000000 0.500000
Si Si6 0.811443 0.910500 0.139674
Si Si7 0.690567 0.292542 0.671095
Si Si8 0.233742 0.432337 0.821486
O O1 0.914269 0.283249 0.208033
O O2 0.274827 0.926679 0.196202
O O3 0.226561 0.294077 0.963230
O O4 0.111177 0.947932 0.135893
O O5 0.910369 0.733872 0.395208
O O6 0.831281 0.827558 0.253690
O O7 0.203150 0.500852 0.222416
O O8 0.321326 0.146945 0.399567
O O9 0.197773 0.084817 0.351243
O O10 0.574291 0.106528 0.167172
O O11 0.660074 0.531504 0.640158
O O12 0.500000 0.000000 0.500000
O O13 0.111883 0.788387 0.459536
O O14 0.852951 0.681849 0.154827
O O15 0.000000 0.000000 0.000000
O O16 0.474936 0.376662 0.701961
#
# Coordination Sequence:
#
# PCOD9066684 Si02
#       8
#     2   2   2   2   1   2   2   2
#     4  11  25  46  74 100 144 187 245 296 353 426
#     4  12  24  46  72 108 138 194 240 294 362 430
#     4  12  26  48  72 105 149 187 241 294 359 435
#     4  12  24  45  76 106 143 192 241 296 361 435
#     4  12  26  44  72 106 146 192 232 290 366 426
#     4  12  27  48  72 103 147 188 242 299 359 423
#     4  12  25  47  72 105 147 187 237 299 360 427
#     4  11  26  47  71 107 140 189 244 299 354 422
#
# _framework density 23.223082000000002
#
# number of rings (size 3 to 8) (size 9 to 14) (size 15 to 20)
#    0.000    0.267    6.667    2.400    1.867    0.533 
#    2.400    2.667    0.000    0.000    0.000    0.000 
#    0.000    0.000    0.000    0.000    0.000    0.000 
#
# Total GULP energy -83710.172443 kJ/mol
# GULP energy per Si atom -5580.678163 kJ/mol
# Density = 2.317022 g / cm^3
# Si number density = 23.223082 Si / 1000 Ang^3
#
#
#
# Elastic Constant Matrix: (Units=GPa)
#
#
# Indices 1 2 3 4 5 6 
#
# 1 93.9591 39.0757 9.1477 -6.0293 -19.6633 -2.9623
# 2 39.0757 153.5219 16.2320 -3.4953 -20.6355 -11.7645
# 3 9.1477 16.2320 46.8219 5.2359 -11.9375 -7.4192
# 4 -6.0293 -3.4953 5.2359 39.0644 -1.8449 -1.5941
# 5 -19.6633 -20.6355 -11.9375 -1.8449 37.5565 7.7973
# 6 -2.9623 -11.7645 -7.4192 -1.5941 7.7973 37.1814
#
#
#
# Elastic Compliance Matrix: (Units=1/GPa)
#
#
# Indices 1 2 3 4 5 6 
#
# 1 0.013017 -0.002529 -0.000644 0.002091 0.005523 -0.000960
# 2 -0.002529 0.007737 -0.001466 0.000664 0.002177 0.001526
# 3 -0.000644 -0.001466 0.024290 -0.003090 0.005807 0.002981
# 4 0.002091 0.000664 -0.003090 0.026496 0.001665 0.000547
# 5 0.005523 0.002177 0.005807 0.001665 0.033616 -0.004690
# 6 -0.000960 0.001526 0.002981 0.000547 -0.004690 0.028904
#
#
# Mechanical properties :
#
#
# Convention : Reuss Voigt Hill
#
# Bulk Modulus (GPa) = 27.95869 47.02373 37.49121
# Shear Modulus (GPa) = 32.20427 38.08363 35.14395
#
# Velocity S-wave (km/s) = 3.72793 4.05397 3.89436
# Velocity P-wave (km/s) = 5.53130 6.49658 6.03327
#
# Compressibility (1/GPa) = 0.03576705
#
# Stress axis : x y z
#
# Youngs Moduli (GPa) = 76.82239 129.24938 41.16908
#
# Poissons Ratio (x) = 0.32683 0.02653
# Poissons Ratio (y) = 0.19426 0.06033
# Poissons Ratio (z) = 0.04950 0.18942
#
# Static dielectric constant tensor:
#      x y z
#    x 1.855800 -0.029520 0.008690 
#    y -0.029520 1.848510 -0.004830 
#    z 0.008690 -0.004830 1.938470 
# 
# From -- ./inp_files/397093.got.cif
#   From: 2010.05.17/outbox.cif.g08.bks.cpg/sg2_199_cif.got.tgz:397093.got - 2010.06.03 11:33:40.
