data_PCOD9066437
_publ_section_title
;
Structure prediction by ZEFSAII (Michael W. Deem and Ramdas Pophale) SiO2 
 PCOD9066437
Probable space group: P -1
;
_chemical_formula_sum "Si O2"
_cell_formula_units_Z 15
_cell_length_a 11.319298
_cell_length_b 11.515817
_cell_length_c 11.653658
_cell_angle_alpha 26.044517
_cell_angle_beta 118.068706
_cell_angle_gamma 120.373080
_cell_volume 574.904199
_symmetry_space_group_name_H-M "P -1"
_symmetry_group_IT_number 2
_symmetry_cell_setting 'triclinic'
loop_
_space_group_symop_operation_xyz
x,y,z
-x,-y,-z
loop_
_atom_site_type_symbol
_atom_site_label
_atom_site_fract_x
_atom_site_fract_y
_atom_site_fract_z
Si Si1 0.207125 0.635052 0.518035
Si Si2 0.853617 0.867211 0.235057
Si Si3 0.337684 0.795213 0.067057
Si Si4 0.288068 0.202410 0.382226
Si Si5 0.000000 0.000000 0.000000
Si Si6 0.076065 0.361317 0.290358
Si Si7 0.524349 0.218426 0.634372
Si Si8 0.223562 0.605518 0.822999
O O1 0.155124 0.334908 0.700846
O O2 0.355845 0.756969 0.424988
O O3 0.212233 0.588122 0.696737
O O4 0.110885 0.837509 0.259952
O O5 0.908264 0.755071 0.472265
O O6 0.712165 0.949210 0.123921
O O7 0.958197 0.114955 0.005589
O O8 0.195854 0.632041 0.096445
O O9 0.395902 0.656964 0.324260
O O10 0.447255 0.925903 0.906923
O O11 0.137830 0.175659 0.394161
O O12 0.401704 0.323705 0.422245
O O13 0.306591 0.906964 0.621300
O O14 0.292722 0.385676 0.110263
O O15 0.925815 0.416140 0.167192
#
# Coordination Sequence:
#
# PCOD9066437 Si02
#       8
#     2   2   2   2   1   2   2   2
#     4  12  28  45  76 113 154 205 253 325 393 472
#     4  12  24  42  78 117 147 192 245 342 398 456
#     4  11  25  45  78 118 152 192 251 339 400 454
#     4  12  29  51  75 111 159 218 262 311 372 476
#     4  12  24  46  68 116 158 186 252 320 412 448
#     4  12  25  48  80 115 149 194 266 332 392 447
#     4  11  25  49  74 111 156 203 257 314 395 466
#     4  12  31  50  78 110 159 215 264 313 379 467
#
# _framework density 26.091301999999999
#
# number of rings (size 3 to 8) (size 9 to 14) (size 15 to 20)
#    0.000    0.267    5.333    2.000    5.600    5.333 
#    0.000    0.000    0.000    0.000    0.000    0.000 
#    0.000    0.000    0.000    0.000    0.000    0.000 
#
# Total GULP energy -83869.572018 kJ/mol
# GULP energy per Si atom -5591.304801 kJ/mol
# Density = 2.603192 g / cm^3
# Si number density = 26.091302 Si / 1000 Ang^3
#
#
#
# Elastic Constant Matrix: (Units=GPa)
#
#
# Indices 1 2 3 4 5 6 
#
# 1 119.9408 21.1562 43.8103 14.3688 -22.0050 15.0170
# 2 21.1562 95.5185 60.6061 20.7120 -7.1841 -9.3059
# 3 43.8103 60.6061 137.7334 44.3062 0.2162 5.4175
# 4 14.3688 20.7120 44.3062 48.9669 3.6733 -0.1106
# 5 -22.0050 -7.1841 0.2162 3.6733 43.1019 12.1653
# 6 15.0170 -9.3059 5.4175 -0.1106 12.1653 37.1441
#
#
#
# Elastic Compliance Matrix: (Units=1/GPa)
#
#
# Indices 1 2 3 4 5 6 
#
# 1 0.012092 -0.000682 -0.002844 -0.001323 0.008262 -0.007355
# 2 -0.000682 0.015466 -0.006658 -0.000377 0.000937 0.004814
# 3 -0.002844 -0.006658 0.014077 -0.008998 -0.001248 -0.002189
# 4 -0.001323 -0.000377 -0.008998 0.029426 -0.004099 0.003183
# 5 0.008262 0.000937 -0.001248 -0.004099 0.031689 -0.013315
# 6 -0.007355 0.004814 -0.002189 0.003183 -0.013315 0.035791
#
#
# Mechanical properties :
#
#
# Convention : Reuss Voigt Hill
#
# Bulk Modulus (GPa) = 47.02228 67.14867 57.08547
# Shear Modulus (GPa) = 30.12086 41.01725 35.56905
#
# Velocity S-wave (km/s) = 3.40139 3.96923 3.69623
# Velocity P-wave (km/s) = 5.78682 6.84093 6.33583
#
# Compressibility (1/GPa) = 0.02126651
#
# Stress axis : x y z
#
# Youngs Moduli (GPa) = 82.70073 64.65870 71.03555
#
# Poissons Ratio (x) = 0.04408 0.20206
# Poissons Ratio (y) = 0.05638 0.47296
# Poissons Ratio (z) = 0.23524 0.43051
#
# Static dielectric constant tensor:
#      x y z
#    x 1.792460 -0.164650 0.297440 
#    y -0.164650 2.011530 0.080350 
#    z 0.297440 0.080350 1.703950 
# 
# From -- ./inp_files/427303.got.cif
#   From: 2010.05.17/outbox.cif.g08.bks.cpg/sg2_214_cif.got.tgz:427303.got - 2010.06.03 11:33:40.
