data_PCOD9066867
_publ_section_title
;
Structure prediction by ZEFSAII (Michael W. Deem and Ramdas Pophale) SiO2 
 PCOD9066867
Probable space group: P -1
;
_chemical_formula_sum "Si O2"
_cell_formula_units_Z 13
_cell_length_a 14.952771
_cell_length_b 8.804185
_cell_length_c 5.477231
_cell_angle_alpha 126.383722
_cell_angle_beta 99.259532
_cell_angle_gamma 61.429281
_cell_volume 502.063908
_symmetry_space_group_name_H-M "P -1"
_symmetry_group_IT_number 2
_symmetry_cell_setting 'triclinic'
loop_
_space_group_symop_operation_xyz
x,y,z
-x,-y,-z
loop_
_atom_site_type_symbol
_atom_site_label
_atom_site_fract_x
_atom_site_fract_y
_atom_site_fract_z
Si Si1 0.357228 0.474606 0.366054
Si Si2 0.612494 0.961329 0.416573
Si Si3 0.171280 0.804969 0.287506
Si Si4 0.582903 0.197511 0.103522
Si Si5 0.775100 0.563486 0.350400
Si Si6 0.000000 0.500000 0.500000
Si Si7 0.018259 0.263128 0.687130
O O1 0.273253 0.663218 0.347166
O O2 0.459366 0.296319 0.112923
O O3 0.399311 0.596762 0.677167
O O4 0.301523 0.367962 0.390968
O O5 0.606150 0.073383 0.258449
O O6 0.500000 0.000000 0.500000
O O7 0.706750 0.716343 0.244358
O O8 0.639834 0.071156 0.764133
O O9 0.076030 0.762352 0.279389
O O10 0.126605 0.054303 0.576182
O O11 0.195623 0.686307 0.923492
O O12 0.875729 0.586688 0.465896
O O13 0.992885 0.715566 0.586527
O O14 0.000000 0.500000 0.000000
#
# Coordination Sequence:
#
# PCOD9066867 Si02
#       7
#     2   2   2   2   2   1   2
#     4  11  26  47  72 107 154 197 255 321 394 466
#     4  12  26  49  79 114 154 205 262 324 390 464
#     4  11  26  46  72 107 147 200 253 326 389 466
#     4  11  28  47  76 114 156 204 258 322 396 468
#     4  12  27  44  75 107 155 199 261 324 389 469
#     4  12  26  46  70 110 144 200 258 314 394 466
#     4  11  25  47  71 101 145 194 254 319 382 467
#
# _framework density 25.893118999999999
#
# number of rings (size 3 to 8) (size 9 to 14) (size 15 to 20)
#    0.000    0.615    4.615    1.385    6.462    4.308 
#    0.000    0.000    0.000    0.000    0.000    0.000 
#    0.000    0.000    0.000    0.000    0.000    0.000 
#
# Total GULP energy -72383.216503 kJ/mol
# GULP energy per Si atom -5567.939731 kJ/mol
# Density = 2.583419 g / cm^3
# Si number density = 25.893119 Si / 1000 Ang^3
#
#
#
# Elastic Constant Matrix: (Units=GPa)
#
#
# Indices 1 2 3 4 5 6 
#
# 1 117.0585 36.5145 29.6585 -1.0946 -12.9346 -28.0450
# 2 36.5145 141.8582 30.8225 12.0056 -12.6904 -29.4969
# 3 29.6585 30.8225 124.3523 29.5489 -6.0996 -2.7381
# 4 -1.0946 12.0056 29.5489 39.0746 0.6468 -2.9114
# 5 -12.9346 -12.6904 -6.0996 0.6468 26.7127 -3.9076
# 6 -28.0450 -29.4969 -2.7381 -2.9114 -3.9076 46.1204
#
#
#
# Elastic Compliance Matrix: (Units=1/GPa)
#
#
# Indices 1 2 3 4 5 6 
#
# 1 0.011944 -0.000646 -0.003020 0.003270 0.005786 0.007368
# 2 -0.000646 0.009260 -0.001452 -0.001414 0.004630 0.005746
# 3 -0.003020 -0.001452 0.011013 -0.008164 0.000179 -0.002611
# 4 0.003270 -0.001414 -0.008164 0.032504 -0.001369 0.002535
# 5 0.005786 0.004630 0.000179 -0.001369 0.043992 0.010131
# 6 0.007368 0.005746 -0.002611 0.002535 0.010131 0.030701
#
#
# Mechanical properties :
#
#
# Convention : Reuss Voigt Hill
#
# Bulk Modulus (GPa) = 45.48923 64.13998 54.81461
# Shear Modulus (GPa) = 31.85225 41.46643 36.65934
#
# Velocity S-wave (km/s) = 3.51114 4.00615 3.76679
# Velocity P-wave (km/s) = 5.83470 6.79881 6.33512
#
# Compressibility (1/GPa) = 0.02198322
#
# Stress axis : x y z
#
# Youngs Moduli (GPa) = 83.72275 107.99705 90.80222
#
# Poissons Ratio (x) = 0.06971 0.27419
# Poissons Ratio (y) = 0.05404 0.13181
# Poissons Ratio (z) = 0.25281 0.15677
#
# Static dielectric constant tensor:
#      x y z
#    x 2.004440 0.015680 0.053520 
#    y 0.015680 2.233290 -0.137620 
#    z 0.053520 -0.137620 2.236930 
# 
# From -- ./inp_files/91256.got.cif
#   From: 2010.05.17/outbox.cif.g08.bks.cpg/sg2_46_cif.got.tgz:91256.got - 2010.06.03 11:33:40.
