data_PCOD9066255
_publ_section_title
;
Structure prediction by ZEFSAII (Michael W. Deem and Ramdas Pophale) SiO2 
 PCOD9066255
Probable space group: P -1
;
_chemical_formula_sum "Si O2"
_cell_formula_units_Z 13
_cell_length_a 16.993889
_cell_length_b 11.582017
_cell_length_c 14.331261
_cell_angle_alpha 34.886608
_cell_angle_beta 146.287362
_cell_angle_gamma 158.875175
_cell_volume 550.191707
_symmetry_space_group_name_H-M "P -1"
_symmetry_group_IT_number 2
_symmetry_cell_setting 'triclinic'
loop_
_space_group_symop_operation_xyz
x,y,z
-x,-y,-z
loop_
_atom_site_type_symbol
_atom_site_label
_atom_site_fract_x
_atom_site_fract_y
_atom_site_fract_z
Si Si1 0.000000 0.000000 0.000000
Si Si2 0.569945 0.153223 0.569499
Si Si3 0.056029 0.328086 0.161108
Si Si4 0.199396 0.059342 0.329546
Si Si5 0.489253 0.764288 0.187954
Si Si6 0.046969 0.905477 0.498147
Si Si7 0.286903 0.109959 0.057104
O O1 0.000725 0.857240 0.190840
O O2 0.157005 0.008611 0.092955
O O3 0.374930 0.076521 0.471017
O O4 0.810291 0.536989 0.536644
O O5 0.500000 0.000000 0.500000
O O6 0.616843 0.008297 0.772451
O O7 0.326447 0.607639 0.220862
O O8 0.016196 0.112878 0.341817
O O9 0.000000 0.500000 0.000000
O O10 0.896557 0.080763 0.080961
O O11 0.347419 0.435424 0.207665
O O12 0.109405 0.947291 0.421059
O O13 0.735401 0.950768 0.331697
O O14 0.500000 0.000000 0.000000
O O15 0.500000 0.500000 0.000000
#
# Coordination Sequence:
#
# PCOD9066255 Si02
#       7
#     1   2   2   2   2   2   2
#     4  12  24  46  74 102 148 188 250 294 368 446
#     4  12  27  45  70 107 142 191 246 298 366 447
#     4  11  25  45  72 109 143 193 248 309 372 441
#     4  11  26  46  71 105 146 189 243 305 368 441
#     4  11  25  46  72 105 143 193 243 308 377 440
#     4  11  26  48  72 105 149 189 245 307 376 438
#     4  12  27  48  72 106 151 196 247 306 375 445
#
# _framework density 23.628129000000001
#
# number of rings (size 3 to 8) (size 9 to 14) (size 15 to 20)
#    0.000    0.615    4.615    3.692    6.462    2.462 
#    0.000    0.000    0.000    0.000    0.000    0.000 
#    0.000    0.000    0.000    0.000    0.000    0.000 
#
# Total GULP energy -72519.353064 kJ/mol
# GULP energy per Si atom -5578.411774 kJ/mol
# Density = 2.357435 g / cm^3
# Si number density = 23.628129 Si / 1000 Ang^3
#
#
#
# Elastic Constant Matrix: (Units=GPa)
#
#
# Indices 1 2 3 4 5 6 
#
# 1 114.9181 28.0088 29.4920 2.0859 27.0950 2.9553
# 2 28.0088 85.6019 36.1019 -10.0820 3.0528 4.1400
# 3 29.4920 36.1019 183.4378 -7.8400 32.8807 8.4045
# 4 2.0859 -10.0820 -7.8400 49.0831 -1.8322 6.6184
# 5 27.0950 3.0528 32.8807 -1.8322 53.7626 6.7965
# 6 2.9553 4.1400 8.4045 6.6184 6.7965 23.2420
#
#
#
# Elastic Compliance Matrix: (Units=1/GPa)
#
#
# Indices 1 2 3 4 5 6 
#
# 1 0.010880 -0.003529 -0.000222 -0.001606 -0.005373 0.001354
# 2 -0.003529 0.014310 -0.002511 0.003201 0.002987 -0.002977
# 3 -0.000222 -0.002511 0.006717 0.000567 -0.003704 -0.001032
# 4 -0.001606 0.003201 0.000567 0.022275 0.001987 -0.007495
# 5 -0.005373 0.002987 -0.003704 0.001987 0.024251 -0.006167
# 6 0.001354 -0.002977 -0.001032 -0.007495 -0.006167 0.047695
#
#
# Mechanical properties :
#
#
# Convention : Reuss Voigt Hill
#
# Bulk Modulus (GPa) = 51.59472 63.46258 57.52865
# Shear Modulus (GPa) = 34.45574 44.57456 39.51515
#
# Velocity S-wave (km/s) = 3.82285 4.34810 4.09391
# Velocity P-wave (km/s) = 6.43188 7.21978 6.83719
#
# Compressibility (1/GPa) = 0.01938183
#
# Stress axis : x y z
#
# Youngs Moduli (GPa) = 91.91004 69.87958 148.88118
#
# Poissons Ratio (x) = 0.24662 0.03309
# Poissons Ratio (y) = 0.32437 0.37387
# Poissons Ratio (z) = 0.02043 0.17548
#
# Static dielectric constant tensor:
#      x y z
#    x 1.975800 -0.067360 -0.005550 
#    y -0.067360 1.966650 -0.012990 
#    z -0.005550 -0.012990 1.969440 
# 
# From -- ./inp_files/173375.got.cif
#   From: 2010.05.17/outbox.cif.g08.bks.cpg/sg2_87_cif.got.tgz:173375.got - 2010.06.03 11:33:40.
