data_PCOD9066032
_publ_section_title
;
Structure prediction by ZEFSAII (Michael W. Deem and Ramdas Pophale) SiO2 
 PCOD9066032
Probable space group: P -1
;
_chemical_formula_sum "Si O2"
_cell_formula_units_Z 16
_cell_length_a 6.715406
_cell_length_b 22.775601
_cell_length_c 5.221303
_cell_angle_alpha 53.289613
_cell_angle_beta 106.526342
_cell_angle_gamma 95.494912
_cell_volume 610.878579
_symmetry_space_group_name_H-M "P -1"
_symmetry_group_IT_number 2
_symmetry_cell_setting 'triclinic'
loop_
_space_group_symop_operation_xyz
x,y,z
-x,-y,-z
loop_
_atom_site_type_symbol
_atom_site_label
_atom_site_fract_x
_atom_site_fract_y
_atom_site_fract_z
Si Si1 0.164814 0.433937 0.148288
Si Si2 0.370505 0.774082 0.695051
Si Si3 0.957357 0.641172 0.208457
Si Si4 0.337706 0.038155 0.047925
Si Si5 0.032586 0.152129 0.868482
Si Si6 0.308250 0.244836 0.508439
Si Si7 0.263767 0.904395 0.688360
Si Si8 0.445007 0.640533 0.404331
O O1 0.408513 0.435215 0.304075
O O2 0.124844 0.369512 0.507583
O O3 0.000000 0.500000 0.000000
O O4 0.119698 0.415674 0.884018
O O5 0.161242 0.788947 0.418063
O O6 0.547629 0.804828 0.506514
O O7 0.311410 0.824840 0.785141
O O8 0.442711 0.690640 0.016684
O O9 0.204265 0.629613 0.365654
O O10 0.876560 0.716830 0.838674
O O11 0.511832 0.073925 0.187580
O O12 0.227378 0.969923 0.301380
O O13 0.141934 0.101751 0.809753
O O14 0.500000 0.000000 0.000000
O O15 0.217667 0.205316 0.823443
O O16 0.929211 0.101427 0.170923
O O17 0.459397 0.305413 0.496712
#
# Coordination Sequence:
#
# PCOD9066032 Si02
#       8
#     2   2   2   2   2   2   2   2
#     4  11  26  47  76 114 156 201 252 310 369 442
#     4  12  24  43  68 103 138 187 244 306 371 450
#     4  11  25  46  78 108 151 205 249 309 376 440
#     4  11  25  48  67  95 137 185 243 308 368 461
#     4  12  24  42  69 101 137 189 240 305 385 444
#     4  11  25  45  70 105 149 192 248 313 372 452
#     4  11  26  43  68  98 135 184 244 302 383 448
#     4  11  25  44  72 106 149 194 255 300 370 448
#
# _framework density 26.191784999999999
#
# number of rings (size 3 to 8) (size 9 to 14) (size 15 to 20)
#    0.000    0.750    2.500    4.500    1.750    9.000 
#    2.250    0.000    0.000    0.000    0.000    0.000 
#    0.000    0.000    0.000    0.000    0.000    0.000 
#
# Total GULP energy -89235.656310 kJ/mol
# GULP energy per Si atom -5577.228519 kJ/mol
# Density = 2.613217 g / cm^3
# Si number density = 26.191785 Si / 1000 Ang^3
#
#
#
# Elastic Constant Matrix: (Units=GPa)
#
#
# Indices 1 2 3 4 5 6 
#
# 1 158.5611 4.6029 44.3888 3.8888 10.9844 -25.0468
# 2 4.6029 39.8881 3.4326 3.7527 8.7696 -24.2595
# 3 44.3888 3.4326 101.0066 -5.9245 2.3675 -13.9056
# 4 3.8888 3.7527 -5.9245 41.0062 -9.5219 10.4720
# 5 10.9844 8.7696 2.3675 -9.5219 65.5900 -1.5593
# 6 -25.0468 -24.2595 -13.9056 10.4720 -1.5593 35.9930
#
#
#
# Elastic Compliance Matrix: (Units=1/GPa)
#
#
# Indices 1 2 3 4 5 6 
#
# 1 0.009125 0.007638 -0.002895 -0.005720 -0.002992 0.011914
# 2 0.007638 0.060586 0.000765 -0.022185 -0.011382 0.052408
# 3 -0.002895 0.000765 0.011576 0.001257 0.000209 0.002616
# 4 -0.005720 -0.022185 0.001257 0.036436 0.008486 -0.028681
# 5 -0.002992 -0.011382 0.000209 0.008486 0.018224 -0.011352
# 6 0.011914 0.052408 0.002616 -0.028681 -0.011352 0.080260
#
#
# Mechanical properties :
#
#
# Convention : Reuss Voigt Hill
#
# Bulk Modulus (GPa) = 10.83389 44.92271 27.87830
# Shear Modulus (GPa) = 21.19023 44.98661 33.08842
#
# Velocity S-wave (km/s) = 2.84745 4.14887 3.55817
# Velocity P-wave (km/s) = 3.86730 6.33558 5.24860
#
# Compressibility (1/GPa) = 0.09230296
#
# Stress axis : x y z
#
# Youngs Moduli (GPa) = 109.58979 16.50544 86.38890
#
# Poissons Ratio (x) = -0.12607 0.25008
# Poissons Ratio (y) = -0.83706 -0.06607
# Poissons Ratio (z) = 0.31724 -0.01262
#
# Static dielectric constant tensor:
#      x y z
#    x 2.132660 -0.023260 -0.013640 
#    y -0.023260 2.165720 -0.003120 
#    z -0.013640 -0.003120 2.250510 
# 
# From -- ./inp_files/14313.got.cif
#   From: 2010.05.17/outbox.cif.g08.bks.cpg/sg2_8_cif.got.tgz:14313.got - 2010.06.03 11:33:40.
