data_PCOD9066701
_publ_section_title
;
Structure prediction by ZEFSAII (Michael W. Deem and Ramdas Pophale) SiO2 
 PCOD9066701
Probable space group: P -1
;
_chemical_formula_sum "Si O2"
_cell_formula_units_Z 14
_cell_length_a 11.743212
_cell_length_b 9.381777
_cell_length_c 8.777054
_cell_angle_alpha 80.523829
_cell_angle_beta 38.906091
_cell_angle_gamma 83.140869
_cell_volume 598.966104
_symmetry_space_group_name_H-M "P -1"
_symmetry_group_IT_number 2
_symmetry_cell_setting 'triclinic'
loop_
_space_group_symop_operation_xyz
x,y,z
-x,-y,-z
loop_
_atom_site_type_symbol
_atom_site_label
_atom_site_fract_x
_atom_site_fract_y
_atom_site_fract_z
Si Si1 0.827581 0.464263 0.797976
Si Si2 0.718452 0.782353 0.926656
Si Si3 0.990594 0.345019 0.953429
Si Si4 0.756280 0.893191 0.360653
Si Si5 0.101612 0.864620 0.633881
Si Si6 0.356295 0.984252 0.829015
Si Si7 0.372821 0.779105 0.113089
O O1 0.750278 0.612372 0.918580
O O2 0.677637 0.377039 0.872910
O O3 0.000000 0.500000 0.500000
O O4 0.882910 0.369887 0.904023
O O5 0.919778 0.848988 0.724957
O O6 0.584493 0.810475 0.920059
O O7 0.616194 0.852664 0.165306
O O8 0.173353 0.265393 0.720408
O O9 0.000000 0.500000 0.000000
O O10 0.918048 0.237059 0.178922
O O11 0.539970 0.906579 0.601902
O O12 0.851914 0.974128 0.386619
O O13 0.783872 0.995201 0.164406
O O14 0.263653 0.803987 0.375938
O O15 0.297107 0.893080 0.051709
#
# Coordination Sequence:
#
# PCOD9066701 Si02
#       7
#     2   2   2   2   2   2   2
#     4  12  26  47  74 104 141 194 237 288 361 425
#     4  12  25  48  70 105 148 185 240 296 351 424
#     4  12  24  47  74 104 142 188 236 294 357 420
#     4  11  25  46  74 107 144 184 244 296 354 422
#     4  12  25  46  75 105 144 189 240 293 355 423
#     4  11  25  47  72 108 141 190 237 297 357 418
#     4  12  27  47  71 107 148 185 241 289 359 421
#
# _framework density 23.373608999999998
#
# number of rings (size 3 to 8) (size 9 to 14) (size 15 to 20)
#    0.000    0.286    5.714    2.143    4.000    0.571 
#    2.571    0.714    0.000    0.000    0.000    0.000 
#    0.000    0.000    0.000    0.000    0.000    0.000 
#
# Total GULP energy -78251.664900 kJ/mol
# GULP energy per Si atom -5589.404636 kJ/mol
# Density = 2.332041 g / cm^3
# Si number density = 23.373609 Si / 1000 Ang^3
#
#
#
# Elastic Constant Matrix: (Units=GPa)
#
#
# Indices 1 2 3 4 5 6 
#
# 1 161.0398 50.3707 31.6243 0.7063 -14.9125 20.7581
# 2 50.3707 157.7464 48.1277 46.8124 -5.5734 16.8051
# 3 31.6243 48.1277 88.2775 12.8039 5.9686 -0.8624
# 4 0.7063 46.8124 12.8039 41.9479 -2.9994 3.6186
# 5 -14.9125 -5.5734 5.9686 -2.9994 30.7294 -0.5104
# 6 20.7581 16.8051 -0.8624 3.6186 -0.5104 47.2094
#
#
#
# Elastic Compliance Matrix: (Units=1/GPa)
#
#
# Indices 1 2 3 4 5 6 
#
# 1 0.008298 -0.002656 -0.002451 0.004146 0.004376 -0.003018
# 2 -0.002656 0.012319 -0.004048 -0.012229 0.000499 -0.002349
# 3 -0.002451 -0.004048 0.014846 -0.000557 -0.004816 0.002781
# 4 0.004146 -0.012229 -0.000557 0.037874 0.003593 -0.000344
# 5 0.004376 0.000499 -0.004816 0.003593 0.036008 -0.002076
# 6 -0.003018 -0.002349 0.002781 -0.000344 -0.002076 0.023400
#
#
# Mechanical properties :
#
#
# Convention : Reuss Voigt Hill
#
# Bulk Modulus (GPa) = 58.29633 74.14544 66.22089
# Shear Modulus (GPa) = 31.89333 42.44010 37.16671
#
# Velocity S-wave (km/s) = 3.69792 4.26576 3.99195
# Velocity P-wave (km/s) = 6.57481 7.48685 7.04560
#
# Compressibility (1/GPa) = 0.01715374
#
# Stress axis : x y z
#
# Youngs Moduli (GPa) = 120.51386 81.17351 67.35610
#
# Poissons Ratio (x) = 0.21558 0.16511
# Poissons Ratio (y) = 0.32006 0.27265
# Poissons Ratio (z) = 0.29541 0.32858
#
# Static dielectric constant tensor:
#      x y z
#    x 1.912430 0.013890 0.031180 
#    y 0.013890 1.877170 0.008370 
#    z 0.031180 0.008370 1.934020 
# 
# From -- ./inp_files/191064.got.cif
#   From: 2010.05.17/outbox.cif.g08.bks.cpg/sg2_96_cif.got.tgz:191064.got - 2010.06.03 11:33:40.
