data_PCOD9066777
_publ_section_title
;
Structure prediction by ZEFSAII (Michael W. Deem and Ramdas Pophale) SiO2 
 PCOD9066777
Probable space group: P -1
;
_chemical_formula_sum "Si O2"
_cell_formula_units_Z 8
_cell_length_a 9.619247
_cell_length_b 17.676371
_cell_length_c 17.231012
_cell_angle_alpha 16.156544
_cell_angle_beta 30.245546
_cell_angle_gamma 25.160303
_cell_volume 346.238001
_symmetry_space_group_name_H-M "P -1"
_symmetry_group_IT_number 2
_symmetry_cell_setting 'triclinic'
loop_
_space_group_symop_operation_xyz
x,y,z
-x,-y,-z
loop_
_atom_site_type_symbol
_atom_site_label
_atom_site_fract_x
_atom_site_fract_y
_atom_site_fract_z
Si Si1 0.776957 0.917274 0.138150
Si Si2 0.393691 0.255045 0.458173
Si Si3 0.612485 0.680992 0.212469
Si Si4 0.355684 0.408461 0.087443
O O1 0.567144 0.860425 0.358014
O O2 0.030467 0.577014 0.309755
O O3 0.571212 0.198287 0.899915
O O4 0.000000 0.000000 0.000000
O O5 0.633921 0.370418 0.203346
O O6 0.436679 0.964959 0.670440
O O7 0.500000 0.500000 0.500000
O O8 0.997522 0.490466 0.198919
O O9 0.500000 0.000000 0.000000
O O10 0.500000 0.500000 0.000000
#
# Coordination Sequence:
#
# PCOD9066777 Si02
#       4
#     2   2   2   2
#     4  11  26  48  78 107 150 197 240 303 369 441
#     4  11  25  46  76 107 146 195 247 294 374 431
#     4  12  30  48  74 109 150 194 249 300 368 437
#     4  12  26  46  74 110 152 193 242 308 367 433
#
# _framework density 23.105492999999999
#
# number of rings (size 3 to 8) (size 9 to 14) (size 15 to 20)
#    0.000    0.500    2.500    3.750   10.500    2.000 
#    0.000    0.000    0.000    0.000    0.000    0.000 
#    0.000    0.000    0.000    0.000    0.000    0.000 
#
# Total GULP energy -44836.444708 kJ/mol
# GULP energy per Si atom -5604.555588 kJ/mol
# Density = 2.305290 g / cm^3
# Si number density = 23.105493 Si / 1000 Ang^3
#
#
#
# Elastic Constant Matrix: (Units=GPa)
#
#
# Indices 1 2 3 4 5 6 
#
# 1 132.3682 72.0721 70.7840 0.2598 16.9448 -9.1203
# 2 72.0721 183.1324 101.4413 18.8822 0.0838 5.2837
# 3 70.7840 101.4413 208.8567 26.1098 -7.1863 4.7825
# 4 0.2598 18.8822 26.1098 76.6757 22.8472 -8.6864
# 5 16.9448 0.0838 -7.1863 22.8472 49.9754 -4.5657
# 6 -9.1203 5.2837 4.7825 -8.6864 -4.5657 22.6415
#
#
#
# Elastic Compliance Matrix: (Units=1/GPa)
#
#
# Indices 1 2 3 4 5 6 
#
# 1 0.012801 -0.003820 -0.003471 0.004806 -0.006359 0.007342
# 2 -0.003820 0.008681 -0.002520 -0.002135 0.001572 -0.003535
# 3 -0.003471 -0.002520 0.007813 -0.003448 0.003602 -0.003057
# 4 0.004806 -0.002135 -0.003448 0.018608 -0.009869 0.008311
# 5 -0.006359 0.001572 0.003602 -0.009869 0.027008 -0.002029
# 6 0.007342 -0.003535 -0.003057 0.008311 -0.002029 0.051374
#
#
# Mechanical properties :
#
#
# Convention : Reuss Voigt Hill
#
# Bulk Modulus (GPa) = 103.36733 112.55021 107.95877
# Shear Modulus (GPa) = 33.52760 48.52920 41.02840
#
# Velocity S-wave (km/s) = 3.81342 4.58791 4.21848
# Velocity P-wave (km/s) = 8.01398 8.76826 8.39959
#
# Compressibility (1/GPa) = 0.00967424
#
# Stress axis : x y z
#
# Youngs Moduli (GPa) = 78.11841 115.19392 127.98966
#
# Poissons Ratio (x) = 0.44001 0.44425
# Poissons Ratio (y) = 0.29839 0.32251
# Poissons Ratio (z) = 0.27115 0.29027
#
# Static dielectric constant tensor:
#      x y z
#    x 1.916540 0.002380 0.035680 
#    y 0.002380 1.892340 0.013910 
#    z 0.035680 0.013910 1.869160 
# 
# From -- ./inp_files/414162.got.cif
#   From: 2010.05.17/outbox.cif.g08.bks.cpg/sg2_208_cif.got.tgz:414162.got - 2010.06.03 11:33:40.
