data_PCOD9066800
_publ_section_title
;
Structure prediction by ZEFSAII (Michael W. Deem and Ramdas Pophale) SiO2 
 PCOD9066800
Probable space group: P -1
;
_chemical_formula_sum "Si O2"
_cell_formula_units_Z 16
_cell_length_a 27.372709
_cell_length_b 16.177709
_cell_length_c 5.166662
_cell_angle_alpha 124.070790
_cell_angle_beta 123.677648
_cell_angle_gamma 20.277731
_cell_volume 653.458738
_symmetry_space_group_name_H-M "P -1"
_symmetry_group_IT_number 2
_symmetry_cell_setting 'triclinic'
loop_
_space_group_symop_operation_xyz
x,y,z
-x,-y,-z
loop_
_atom_site_type_symbol
_atom_site_label
_atom_site_fract_x
_atom_site_fract_y
_atom_site_fract_z
Si Si1 0.944045 0.196109 0.753525
Si Si2 0.237710 0.153760 0.511786
Si Si3 0.405801 0.078450 0.673290
Si Si4 0.926392 0.915320 0.556943
Si Si5 0.679165 0.614660 0.365141
Si Si6 0.944686 0.661989 0.331096
Si Si7 0.467218 0.667209 0.125176
Si Si8 0.634251 0.473884 0.765651
O O1 0.782654 0.454494 0.634902
O O2 0.029419 0.133879 0.694628
O O3 0.000000 0.000000 0.500000
O O4 0.979109 0.169612 0.104595
O O5 0.333976 0.101581 0.662305
O O6 0.205397 0.142154 0.655109
O O7 0.081317 0.445839 0.540935
O O8 0.307336 0.959346 0.192859
O O9 0.304277 0.309682 0.619323
O O10 0.516289 0.863256 0.414351
O O11 0.500000 0.000000 0.000000
O O12 0.937002 0.784092 0.419799
O O13 0.767156 0.196735 0.630668
O O14 0.697042 0.485867 0.031621
O O15 0.000000 0.500000 0.000000
O O16 0.546228 0.607297 0.477914
O O17 0.500000 0.500000 0.000000
O O18 0.538690 0.583066 0.914323
#
# Coordination Sequence:
#
# PCOD9066800 Si02
#       8
#     2   2   2   2   2   2   2   2
#     4  12  27  47  77 113 155 205 257 321 394 468
#     4  11  26  49  74 111 149 199 259 318 388 456
#     4  11  25  46  77 108 157 199 260 317 391 468
#     4  12  28  49  78 111 158 207 262 323 390 468
#     4  11  26  43  73 113 150 204 254 319 395 459
#     4  11  29  48  78 107 153 207 262 323 384 470
#     4  12  27  46  78 108 147 196 255 320 380 461
#     4  12  26  47  75 110 150 196 252 316 388 461
#
# _framework density 24.485094
#
# number of rings (size 3 to 8) (size 9 to 14) (size 15 to 20)
#    0.000    0.500    2.500    3.750   10.500    2.000 
#    0.000    0.000    0.000    0.000    0.000    0.000 
#    0.000    0.000    0.000    0.000    0.000    0.000 
#
# Total GULP energy -89578.120679 kJ/mol
# GULP energy per Si atom -5598.632542 kJ/mol
# Density = 2.442936 g / cm^3
# Si number density = 24.485094 Si / 1000 Ang^3
#
#
#
# Elastic Constant Matrix: (Units=GPa)
#
#
# Indices 1 2 3 4 5 6 
#
# 1 123.7709 42.6803 1.4475 15.3997 27.1585 -12.0535
# 2 42.6803 120.5952 1.4778 21.2768 -0.7410 7.4016
# 3 1.4475 1.4778 41.7768 1.2540 1.0392 -3.4000
# 4 15.3997 21.2768 1.2540 44.7294 10.5324 -5.0406
# 5 27.1585 -0.7410 1.0392 10.5324 45.9340 11.2288
# 6 -12.0535 7.4016 -3.4000 -5.0406 11.2288 46.8679
#
#
#
# Elastic Compliance Matrix: (Units=1/GPa)
#
#
# Indices 1 2 3 4 5 6 
#
# 1 0.012268 -0.004958 0.000456 0.000968 -0.009095 0.006254
# 2 -0.004958 0.011388 -0.000617 -0.005596 0.005652 -0.005074
# 3 0.000456 -0.000617 0.024164 0.000049 -0.001402 0.002309
# 4 0.000968 -0.005596 0.000049 0.027355 -0.008427 0.006097
# 5 -0.009095 0.005652 -0.001402 -0.008427 0.032120 -0.011935
# 6 0.006254 -0.005074 0.002309 0.006097 -0.011935 0.027429
#
#
# Mechanical properties :
#
#
# Convention : Reuss Voigt Hill
#
# Bulk Modulus (GPa) = 26.60736 41.92823 34.26780
# Shear Modulus (GPa) = 31.74842 43.54209 37.64526
#
# Velocity S-wave (km/s) = 3.60480 4.22158 3.92532
# Velocity P-wave (km/s) = 5.31192 6.39714 5.87962
#
# Compressibility (1/GPa) = 0.03758359
#
# Stress axis : x y z
#
# Youngs Moduli (GPa) = 81.51310 87.81301 41.38378
#
# Poissons Ratio (x) = 0.43537 -0.01889
# Poissons Ratio (y) = 0.40414 0.02552
# Poissons Ratio (z) = -0.03721 0.05415
#
# Static dielectric constant tensor:
#      x y z
#    x 1.981560 -0.056260 0.002670 
#    y -0.056260 1.965640 -0.018060 
#    z 0.002670 -0.018060 1.922800 
# 
# From -- ./inp_files/128765.got.cif
#   From: 2010.05.17/outbox.cif.g08.bks.cpg/sg2_65_cif.got.tgz:128765.got - 2010.06.03 11:33:40.
