data_PCOD9066181
_publ_section_title
;
Structure prediction by ZEFSAII (Michael W. Deem and Ramdas Pophale) SiO2 
 PCOD9066181
Probable space group: P -1
;
_chemical_formula_sum "Si O2"
_cell_formula_units_Z 16
_cell_length_a 10.417374
_cell_length_b 12.578924
_cell_length_c 6.221345
_cell_angle_alpha 80.376366
_cell_angle_beta 61.924843
_cell_angle_gamma 90.198303
_cell_volume 706.021236
_symmetry_space_group_name_H-M "P -1"
_symmetry_group_IT_number 2
_symmetry_cell_setting 'triclinic'
loop_
_space_group_symop_operation_xyz
x,y,z
-x,-y,-z
loop_
_atom_site_type_symbol
_atom_site_label
_atom_site_fract_x
_atom_site_fract_y
_atom_site_fract_z
Si Si1 0.698625 0.740736 0.661332
Si Si2 0.200490 0.115819 0.820415
Si Si3 0.556583 0.413245 0.310984
Si Si4 0.934513 0.066681 0.331995
Si Si5 0.233387 0.466205 0.237975
Si Si6 0.064067 0.524014 0.703311
Si Si7 0.461536 0.121333 0.938115
Si Si8 0.258675 0.738802 0.493672
O O1 0.803071 0.788768 0.378342
O O2 0.571106 0.663959 0.673463
O O3 0.772731 0.658466 0.783840
O O4 0.634184 0.836332 0.808182
O O5 0.359418 0.117196 0.806322
O O6 0.149795 0.010222 0.754773
O O7 0.079817 0.124134 0.091897
O O8 0.500000 0.500000 0.500000
O O9 0.661527 0.331433 0.367005
O O10 0.638704 0.473688 0.022518
O O11 0.822502 0.153971 0.441200
O O12 0.000000 0.000000 0.500000
O O13 0.204555 0.467843 0.519436
O O14 0.087487 0.517810 0.275360
O O15 0.125554 0.648959 0.570941
O O16 0.000000 0.500000 0.000000
O O17 0.602056 0.210602 0.775078
O O18 0.500000 0.000000 0.000000
#
# Coordination Sequence:
#
# PCOD9066181 Si02
#       8
#     2   2   2   2   2   2   2   2
#     4  12  26  43  76 101 146 194 242 305 382 434
#     4  11  26  47  73 104 144 185 246 306 372 441
#     4  12  25  46  73 107 152 194 251 310 368 447
#     4  11  27  49  72 109 145 190 242 306 369 456
#     4  11  26  44  70 105 143 193 248 294 370 451
#     4  11  25  45  70 104 147 187 246 307 360 450
#     4  12  27  48  74 108 144 190 256 311 375 452
#     4  12  25  45  77 100 149 193 237 305 380 424
#
# _framework density 22.662208
#
# number of rings (size 3 to 8) (size 9 to 14) (size 15 to 20)
#    0.000    0.500    2.500    4.875    7.000    1.000 
#    2.250    0.000    0.000    0.000    0.000    0.000 
#    0.000    0.000    0.000    0.000    0.000    0.000 
#
# Total GULP energy -89116.776221 kJ/mol
# GULP energy per Si atom -5569.798514 kJ/mol
# Density = 2.261063 g / cm^3
# Si number density = 22.662208 Si / 1000 Ang^3
#
#
#
# Elastic Constant Matrix: (Units=GPa)
#
#
# Indices 1 2 3 4 5 6 
#
# 1 81.9048 15.6290 16.5311 12.6415 -3.6546 1.5256
# 2 15.6290 81.3278 35.3436 1.2322 1.7058 -11.6385
# 3 16.5311 35.3436 145.9337 -16.1747 -25.3445 -6.5428
# 4 12.6415 1.2322 -16.1747 44.6337 8.0286 -4.9843
# 5 -3.6546 1.7058 -25.3445 8.0286 28.5840 -7.4097
# 6 1.5256 -11.6385 -6.5428 -4.9843 -7.4097 47.8792
#
#
#
# Elastic Compliance Matrix: (Units=1/GPa)
#
#
# Indices 1 2 3 4 5 6 
#
# 1 0.013737 -0.002234 -0.001309 -0.004766 0.001707 -0.001392
# 2 -0.002234 0.014889 -0.003953 -0.000217 -0.003967 0.002514
# 3 -0.001309 -0.003953 0.009837 0.002734 0.008550 0.002033
# 4 -0.004766 -0.000217 0.002734 0.025888 -0.004816 0.002423
# 5 0.001707 -0.003967 0.008550 -0.004816 0.046133 0.006788
# 6 -0.001392 0.002514 0.002033 0.002423 0.006788 0.023122
#
#
# Mechanical properties :
#
#
# Convention : Reuss Voigt Hill
#
# Bulk Modulus (GPa) = 42.60512 49.35264 45.97888
# Shear Modulus (GPa) = 31.96460 40.33021 36.14741
#
# Velocity S-wave (km/s) = 3.75971 4.22314 3.99814
# Velocity P-wave (km/s) = 6.13907 6.75312 6.45340
#
# Compressibility (1/GPa) = 0.02347136
#
# Stress axis : x y z
#
# Youngs Moduli (GPa) = 72.79351 67.16177 101.65452
#
# Poissons Ratio (x) = 0.15002 0.13311
# Poissons Ratio (y) = 0.16259 0.40187
# Poissons Ratio (z) = 0.09532 0.26551
#
# Static dielectric constant tensor:
#      x y z
#    x 2.160970 0.024830 0.289090 
#    y 0.024830 1.913510 0.106630 
#    z 0.289090 0.106630 2.182320 
# 
# From -- ./inp_files/69619.got.cif
#   From: 2010.05.17/outbox.cif.g08.bks.cpg/sg2_35_cif.got.tgz:69619.got - 2010.06.03 11:33:40.
