data_PCOD9066679
_publ_section_title
;
Structure prediction by ZEFSAII (Michael W. Deem and Ramdas Pophale) SiO2 
 PCOD9066679
Probable space group: P -1
;
_chemical_formula_sum "Si O2"
_cell_formula_units_Z 16
_cell_length_a 28.435412
_cell_length_b 16.153199
_cell_length_c 19.588063
_cell_angle_alpha 18.838596
_cell_angle_beta 161.764273
_cell_angle_gamma 161.504023
_cell_volume 792.839621
_symmetry_space_group_name_H-M "P -1"
_symmetry_group_IT_number 2
_symmetry_cell_setting 'triclinic'
loop_
_space_group_symop_operation_xyz
x,y,z
-x,-y,-z
loop_
_atom_site_type_symbol
_atom_site_label
_atom_site_fract_x
_atom_site_fract_y
_atom_site_fract_z
Si Si1 0.295866 0.699201 0.147091
Si Si2 0.940297 0.131456 0.106141
Si Si3 0.514777 0.639109 0.612755
Si Si4 0.890572 0.099004 0.725811
Si Si5 0.937269 0.212724 0.548465
Si Si6 0.448709 0.934333 0.901767
Si Si7 0.146734 0.086209 0.692638
Si Si8 0.365266 0.765294 0.444567
O O1 0.373449 0.585881 0.401895
O O2 0.103836 0.441093 0.069415
O O3 0.419265 0.805811 0.168412
O O4 0.275484 0.971341 0.934312
O O5 0.936191 0.081017 0.220874
O O6 0.766961 0.128807 0.846538
O O7 0.968712 0.888688 0.296438
O O8 0.460343 0.722851 0.543202
O O9 0.691911 0.905640 0.621596
O O10 0.541144 0.357209 0.876299
O O11 0.921131 0.064364 0.715553
O O12 0.956423 0.439528 0.564959
O O13 0.000000 0.000000 0.000000
O O14 0.744259 0.123566 0.329073
O O15 0.500000 0.000000 0.000000
O O16 0.250636 0.436437 0.573383
O O17 0.000000 0.000000 0.500000
O O18 0.500000 0.000000 0.500000
#
# Coordination Sequence:
#
# PCOD9066679 Si02
#       8
#     2   2   2   2   2   2   2   2
#     4  12  25  46  74 102 142 185 242 297 354 424
#     4  12  28  45  73 105 146 183 239 296 356 425
#     4  12  25  47  74 102 142 189 238 300 355 418
#     4  11  25  46  73  96 145 191 232 284 360 422
#     4  11  27  45  68 108 138 186 237 287 354 434
#     4  12  27  44  72 108 142 183 239 297 356 422
#     4  12  25  48  74 101 141 195 239 288 360 428
#     4  12  29  46  73 111 144 190 241 296 360 426
#
# _framework density 20.180626
#
# number of rings (size 3 to 8) (size 9 to 14) (size 15 to 20)
#    0.000    0.250    6.250    1.875    7.000    2.500 
#    0.000    0.000    0.000    0.000    0.000    0.000 
#    0.000    0.000    0.000    0.000    0.000    0.000 
#
# Total GULP energy -89577.463104 kJ/mol
# GULP energy per Si atom -5598.591444 kJ/mol
# Density = 2.013469 g / cm^3
# Si number density = 20.180626 Si / 1000 Ang^3
#
#
#
# Elastic Constant Matrix: (Units=GPa)
#
#
# Indices 1 2 3 4 5 6 
#
# 1 82.2252 9.5560 -1.7453 -3.8157 6.3164 -5.5920
# 2 9.5560 90.7546 -3.9134 4.5786 -6.8433 -0.3624
# 3 -1.7453 -3.9134 82.6425 7.9313 3.4596 -15.0671
# 4 -3.8157 4.5786 7.9313 31.0079 -1.3895 -4.8093
# 5 6.3164 -6.8433 3.4596 -1.3895 36.9266 -0.8052
# 6 -5.5920 -0.3624 -15.0671 -4.8093 -0.8052 34.5689
#
#
#
# Elastic Compliance Matrix: (Units=1/GPa)
#
#
# Indices 1 2 3 4 5 6 
#
# 1 0.012806 -0.001594 0.000568 0.001948 -0.002411 0.002517
# 2 -0.001594 0.011481 0.000584 -0.001955 0.002270 -0.000102
# 3 0.000568 0.000584 0.013461 -0.002651 -0.001228 0.005568
# 4 0.001948 -0.001955 -0.002651 0.034103 0.000921 0.003905
# 5 -0.002411 0.002270 -0.001228 0.000921 0.028061 -0.000120
# 6 0.002517 -0.000102 0.005568 0.003905 -0.000120 0.032301
#
#
# Mechanical properties :
#
#
# Convention : Reuss Voigt Hill
#
# Bulk Modulus (GPa) = 27.12704 29.26854 28.19779
# Shear Modulus (GPa) = 34.39142 37.28235 35.83688
#
# Velocity S-wave (km/s) = 4.13265 4.30284 4.21860
# Velocity P-wave (km/s) = 6.02022 6.26264 6.14263
#
# Compressibility (1/GPa) = 0.03686358
#
# Stress axis : x y z
#
# Youngs Moduli (GPa) = 78.08946 87.09954 74.28946
#
# Poissons Ratio (x) = 0.13883 -0.04218
# Poissons Ratio (y) = 0.12447 -0.04338
# Poissons Ratio (z) = -0.04434 -0.05087
#
# Static dielectric constant tensor:
#      x y z
#    x 1.692120 0.002510 0.000440 
#    y 0.002510 1.703500 -0.006780 
#    z 0.000440 -0.006780 1.713750 
# 
# From -- ./inp_files/81225.got.cif
#   From: 2010.05.17/outbox.cif.g08.bks.cpg/sg2_41_cif.got.tgz:81225.got - 2010.06.03 11:33:40.
