data_PCOD9066623
_publ_section_title
;
Structure prediction by ZEFSAII (Michael W. Deem and Ramdas Pophale) SiO2 
 PCOD9066623
Probable space group: P -1
;
_chemical_formula_sum "Si O2"
_cell_formula_units_Z 16
_cell_length_a 9.223418
_cell_length_b 5.877428
_cell_length_c 14.612174
_cell_angle_alpha 72.469844
_cell_angle_beta 63.516674
_cell_angle_gamma 74.209897
_cell_volume 667.206933
_symmetry_space_group_name_H-M "P -1"
_symmetry_group_IT_number 2
_symmetry_cell_setting 'triclinic'
loop_
_space_group_symop_operation_xyz
x,y,z
-x,-y,-z
loop_
_atom_site_type_symbol
_atom_site_label
_atom_site_fract_x
_atom_site_fract_y
_atom_site_fract_z
Si Si1 0.867188 0.968385 0.617757
Si Si2 0.258774 0.423258 0.218348
Si Si3 0.545529 0.271437 0.445179
Si Si4 0.880806 0.165198 0.278267
Si Si5 0.561496 0.350251 0.717881
Si Si6 0.680246 0.853764 0.948702
Si Si7 0.025395 0.832847 0.143582
Si Si8 0.213477 0.362827 0.875499
O O1 0.799010 0.716995 0.661390
O O2 0.958774 0.927773 0.694990
O O3 0.708685 0.176048 0.647010
O O4 0.000000 0.000000 0.500000
O O5 0.377064 0.594263 0.205203
O O6 0.331391 0.244568 0.138937
O O7 0.103868 0.580120 0.195795
O O8 0.500000 0.500000 0.500000
O O9 0.740580 0.223558 0.385294
O O10 0.478287 0.396088 0.354557
O O11 0.500000 0.000000 0.500000
O O12 0.854947 0.385532 0.186233
O O13 0.877044 0.941312 0.239525
O O14 0.386790 0.259499 0.789127
O O15 0.826273 0.011916 0.907458
O O16 0.735916 0.636680 0.032451
O O17 0.500000 0.000000 0.000000
O O18 0.933370 0.789335 0.081490
#
# Coordination Sequence:
#
# PCOD9066623 Si02
#       8
#     2   2   2   2   2   2   2   2
#     4  12  25  46  74 107 148 200 252 318 390 466
#     4  12  25  48  74 107 157 191 262 320 389 483
#     4  11  28  49  76 115 160 212 274 331 400 477
#     4  11  25  46  72 110 152 198 255 323 392 470
#     4  11  27  47  76 110 150 206 257 324 394 470
#     4  12  27  48  77 111 151 200 258 320 400 485
#     4  12  24  47  75 108 153 197 254 323 394 470
#     4  11  26  47  75 108 150 199 256 320 401 467
#
# _framework density 23.980567000000001
#
# number of rings (size 3 to 8) (size 9 to 14) (size 15 to 20)
#    0.000    0.500    3.750    2.625    7.000    9.500 
#    0.000    0.000    0.000    0.000    0.000    0.000 
#    0.000    0.000    0.000    0.000    0.000    0.000 
#
# Total GULP energy -89262.995679 kJ/mol
# GULP energy per Si atom -5578.937230 kJ/mol
# Density = 2.392599 g / cm^3
# Si number density = 23.980567 Si / 1000 Ang^3
#
#
#
# Elastic Constant Matrix: (Units=GPa)
#
#
# Indices 1 2 3 4 5 6 
#
# 1 141.2393 32.6398 32.5344 2.2780 0.6988 -9.5478
# 2 32.6398 88.3429 34.0852 1.5144 -24.5393 -20.6160
# 3 32.5344 34.0852 90.6052 -6.1834 -11.9484 -5.5832
# 4 2.2780 1.5144 -6.1834 43.3828 -9.4653 -0.3258
# 5 0.6988 -24.5393 -11.9484 -9.4653 42.5435 3.7080
# 6 -9.5478 -20.6160 -5.5832 -0.3258 3.7080 43.3728
#
#
#
# Elastic Compliance Matrix: (Units=1/GPa)
#
#
# Indices 1 2 3 4 5 6 
#
# 1 0.008335 -0.002811 -0.002358 -0.001270 -0.002740 0.000420
# 2 -0.002811 0.017932 -0.004096 0.000922 0.008867 0.006626
# 3 -0.002358 -0.004096 0.013854 0.002725 0.002248 -0.000854
# 4 -0.001270 0.000922 0.002725 0.024972 0.006865 0.000110
# 5 -0.002740 0.008867 0.002248 0.006865 0.030708 0.001327
# 6 0.000420 0.006626 -0.000854 0.000110 0.001327 0.026075
#
#
# Mechanical properties :
#
#
# Convention : Reuss Voigt Hill
#
# Bulk Modulus (GPa) = 46.31372 57.63402 51.97387
# Shear Modulus (GPa) = 33.87452 40.58833 37.23143
#
# Velocity S-wave (km/s) = 3.76251 4.11853 3.94454
# Velocity P-wave (km/s) = 6.18306 6.83390 6.51661
#
# Compressibility (1/GPa) = 0.02159188
#
# Stress axis : x y z
#
# Youngs Moduli (GPa) = 119.97086 55.76620 72.18067
#
# Poissons Ratio (x) = 0.15678 0.17017
# Poissons Ratio (y) = 0.33728 0.29565
# Poissons Ratio (z) = 0.28284 0.22841
#
# Static dielectric constant tensor:
#      x y z
#    x 1.967310 0.058930 -0.014300 
#    y 0.058930 1.982510 -0.023110 
#    z -0.014300 -0.023110 1.949290 
# 
# From -- ./inp_files/488248.got.cif
#   From: 2010.05.17/outbox.cif.g08.bks.cpg/sg2_245_cif.got.tgz:488248.got - 2010.06.03 11:33:40.
