data_PCOD9066758
_publ_section_title
;
Structure prediction by ZEFSAII (Michael W. Deem and Ramdas Pophale) SiO2 
 PCOD9066758
Probable space group: P -1
;
_chemical_formula_sum "Si O2"
_cell_formula_units_Z 16
_cell_length_a 5.540753
_cell_length_b 11.735430
_cell_length_c 16.312114
_cell_angle_alpha 127.560417
_cell_angle_beta 59.992419
_cell_angle_gamma 118.636046
_cell_volume 704.215921
_symmetry_space_group_name_H-M "P -1"
_symmetry_group_IT_number 2
_symmetry_cell_setting 'triclinic'
loop_
_space_group_symop_operation_xyz
x,y,z
-x,-y,-z
loop_
_atom_site_type_symbol
_atom_site_label
_atom_site_fract_x
_atom_site_fract_y
_atom_site_fract_z
Si Si1 0.624258 0.247157 0.570963
Si Si2 0.075223 0.990893 0.579084
Si Si3 0.687003 0.386758 0.203775
Si Si4 0.717977 0.378140 0.781886
Si Si5 0.329291 0.588339 0.968754
Si Si6 0.654421 0.484922 0.552352
Si Si7 0.712101 0.058337 0.071198
Si Si8 0.375342 0.879785 0.196492
O O1 0.371651 0.115854 0.589923
O O2 0.690405 0.368648 0.684500
O O3 0.535511 0.319468 0.536906
O O4 0.884638 0.171408 0.479263
O O5 0.869389 0.042614 0.699998
O O6 0.000000 0.000000 0.500000
O O7 0.585740 0.366081 0.118772
O O8 0.450345 0.407345 0.318246
O O9 0.789887 0.237820 0.137756
O O10 0.948357 0.537795 0.223312
O O11 0.533576 0.478123 0.900370
O O12 0.598576 0.210548 0.763126
O O13 0.342416 0.737539 0.081009
O O14 0.000000 0.500000 0.000000
O O15 0.500000 0.500000 0.500000
O O16 0.000000 0.500000 0.500000
O O17 0.574244 0.003024 0.158931
O O18 0.500000 0.000000 0.000000
O O19 0.000000 0.000000 0.000000
#
# Coordination Sequence:
#
# PCOD9066758 Si02
#       8
#     2   2   2   2   2   2   2   2
#     4  11  25  47  76 108 153 194 259 320 388 450
#     4  11  25  46  75 109 149 196 247 327 390 459
#     4  12  27  49  76 109 156 204 253 326 386 456
#     4  12  24  46  79 111 150 195 265 326 384 450
#     4  12  24  42  76 113 146 194 261 320 386 448
#     4  12  29  49  78 111 152 207 263 315 385 470
#     4  12  30  51  74 108 161 206 255 311 385 470
#     4  12  25  45  75 110 150 200 257 312 388 465
#
# _framework density 22.720303999999999
#
# number of rings (size 3 to 8) (size 9 to 14) (size 15 to 20)
#    0.000    0.250    5.000    3.375    5.250    1.000 
#    0.000    0.000    0.000    0.000    0.000    0.000 
#    0.000    0.000    0.000    0.000    0.000    0.000 
#
# Total GULP energy -89257.508300 kJ/mol
# GULP energy per Si atom -5578.594269 kJ/mol
# Density = 2.266859 g / cm^3
# Si number density = 22.720304 Si / 1000 Ang^3
#
#
#
# Elastic Constant Matrix: (Units=GPa)
#
#
# Indices 1 2 3 4 5 6 
#
# 1 100.9854 24.1683 68.9207 -8.0011 -4.4089 -20.1871
# 2 24.1683 94.0771 29.1564 -9.1398 -7.0570 -37.6103
# 3 68.9207 29.1564 199.5501 -6.7932 -31.4555 -17.4410
# 4 -8.0011 -9.1398 -6.7932 39.5126 -0.2776 -4.6763
# 5 -4.4089 -7.0570 -31.4555 -0.2776 47.3749 -0.3731
# 6 -20.1871 -37.6103 -17.4410 -4.6763 -0.3731 41.3413
#
#
#
# Elastic Compliance Matrix: (Units=1/GPa)
#
#
# Indices 1 2 3 4 5 6 
#
# 1 0.014270 0.000048 -0.004642 0.002723 -0.001689 0.005346
# 2 0.000048 0.018551 -0.000592 0.006274 0.002548 0.017383
# 3 -0.004642 -0.000592 0.007444 0.000282 0.004427 0.000407
# 4 0.002723 0.006274 0.000282 0.028603 0.001625 0.010407
# 5 -0.001689 0.002548 0.004427 0.001625 0.024309 0.003764
# 6 0.005346 0.017383 0.000407 0.010407 0.003764 0.043996
#
#
# Mechanical properties :
#
#
# Convention : Reuss Voigt Hill
#
# Bulk Modulus (GPa) = 33.45385 71.01150 52.23268
# Shear Modulus (GPa) = 31.74416 43.80355 37.77386
#
# Velocity S-wave (km/s) = 3.74193 4.39560 4.08187
# Velocity P-wave (km/s) = 5.78149 7.55541 6.72718
#
# Compressibility (1/GPa) = 0.02989192
#
# Stress axis : x y z
#
# Youngs Moduli (GPa) = 70.07944 53.90564 134.33623
#
# Poissons Ratio (x) = -0.00258 0.62354
# Poissons Ratio (y) = -0.00335 0.07959
# Poissons Ratio (z) = 0.32528 0.03194
#
# Static dielectric constant tensor:
#      x y z
#    x 2.187830 -0.027060 -0.055790 
#    y -0.027060 1.853240 -0.028340 
#    z -0.055790 -0.028340 1.846760 
# 
# From -- ./inp_files/549527.got.cif
#   From: 2010.05.17/outbox.cif.g08.bks.cpg/sg2_275_cif.got.tgz:549527.got - 2010.06.03 11:33:40.
