data_PCOD9066346
_publ_section_title
;
Structure prediction by ZEFSAII (Michael W. Deem and Ramdas Pophale) SiO2 
 PCOD9066346
Probable space group: P -1
;
_chemical_formula_sum "Si O2"
_cell_formula_units_Z 12
_cell_length_a 8.796206
_cell_length_b 15.084548
_cell_length_c 9.469808
_cell_angle_alpha 135.742326
_cell_angle_beta 147.233633
_cell_angle_gamma 53.533651
_cell_volume 474.491255
_symmetry_space_group_name_H-M "P -1"
_symmetry_group_IT_number 2
_symmetry_cell_setting 'triclinic'
loop_
_space_group_symop_operation_xyz
x,y,z
-x,-y,-z
loop_
_atom_site_type_symbol
_atom_site_label
_atom_site_fract_x
_atom_site_fract_y
_atom_site_fract_z
Si Si1 0.205960 0.893805 0.600117
Si Si2 0.005337 0.615534 0.243371
Si Si3 0.089894 0.923363 0.842239
Si Si4 0.144704 0.449763 0.411356
Si Si5 0.635975 0.281296 0.709710
Si Si6 0.452687 0.225486 0.817436
O O1 0.115921 0.747436 0.411509
O O2 0.275461 0.953245 0.878285
O O3 0.366185 0.844594 0.530059
O O4 0.000000 0.000000 0.500000
O O5 0.168437 0.561765 0.443898
O O6 0.699121 0.652564 0.101379
O O7 0.000000 0.500000 0.000000
O O8 0.788887 0.884663 0.494974
O O9 0.272351 0.814027 0.931106
O O10 0.000000 0.000000 0.000000
O O11 0.432053 0.382624 0.596153
O O12 0.000000 0.500000 0.500000
O O13 0.938585 0.344565 0.055435
O O14 0.513225 0.247428 0.727170
#
# Coordination Sequence:
#
# PCOD9066346 Si02
#       6
#     2   2   2   2   2   2
#     4  11  27  49  75 111 150 198 251 308 371 442
#     4  11  25  48  76 110 153 195 247 308 372 441
#     4  11  25  48  75 105 149 200 249 303 373 444
#     4  12  26  46  77 114 150 196 248 305 374 444
#     4  12  26  46  76 111 152 193 249 307 372 443
#     4  11  25  45  74 112 145 195 249 309 369 440
#
# _framework density 25.290244999999999
#
# number of rings (size 3 to 8) (size 9 to 14) (size 15 to 20)
#    0.000    0.667    3.333    3.000    4.667    2.000 
#    0.000    5.000    0.000    0.000    0.000    0.000 
#    0.000    0.000    0.000    0.000    0.000    0.000 
#
# Total GULP energy -67018.215003 kJ/mol
# GULP energy per Si atom -5584.851250 kJ/mol
# Density = 2.523268 g / cm^3
# Si number density = 25.290245 Si / 1000 Ang^3
#
#
#
# Elastic Constant Matrix: (Units=GPa)
#
#
# Indices 1 2 3 4 5 6 
#
# 1 91.8839 35.7448 31.8093 -6.3108 -65.6283 -26.4073
# 2 35.7448 157.3119 40.9266 -27.2653 -47.8957 -4.2562
# 3 31.8093 40.9266 128.9162 19.7959 -32.1097 0.9632
# 4 -6.3108 -27.2653 19.7959 54.1977 -6.9343 -17.1151
# 5 -65.6283 -47.8957 -32.1097 -6.9343 53.6617 12.8934
# 6 -26.4073 -4.2562 0.9632 -17.1151 12.8934 48.1546
#
#
#
# Elastic Compliance Matrix: (Units=1/GPa)
#
#
# Indices 1 2 3 4 5 6 
#
# 1 -0.093838 -0.035536 0.009688 -0.062727 -0.139225 -0.039811
# 2 -0.035536 -0.002123 0.001096 -0.015444 -0.043439 -0.013556
# 3 0.009688 0.001096 0.009504 0.000741 0.018480 0.000535
# 4 -0.062727 -0.015444 0.000741 -0.013514 -0.087694 -0.017101
# 5 -0.139225 -0.043439 0.018480 -0.087694 -0.175102 -0.064842
# 6 -0.039811 -0.013556 0.000535 -0.017101 -0.064842 0.009009
#
#
# Mechanical properties :
#
#
# Convention : Reuss Voigt Hill
#
# Bulk Modulus (GPa) = -7.35498 66.11929 29.38216
# Shear Modulus (GPa) = -19.09285 49.17820 15.04267
#
# Velocity S-wave (km/s) = -2.75061 4.41449 2.44150
# Velocity P-wave (km/s) = 3.60588 7.22389 4.42618
#
# Compressibility (1/GPa) = -0.13596236
#
# Stress axis : x y z
#
# Youngs Moduli (GPa) = -10.65669 -471.11689 105.21992
#
# Poissons Ratio (x) = -16.74172 -1.01934
# Poissons Ratio (y) = -0.37870 -0.11528
# Poissons Ratio (z) = 0.10324 0.51617
#
# Static dielectric constant tensor:
#      x y z
#    x 2.117750 0.120720 0.083940 
#    y 0.120720 1.863750 0.154050 
#    z 0.083940 0.154050 2.065600 
# 
# From -- ./inp_files/31149.got.cif
#   From: 2010.05.17/outbox.cif.g08.bks.cpg/sg2_16_cif.got.tgz:31149.got - 2010.06.03 11:33:40.
