data_PCOD9066854
_publ_section_title
;
Structure prediction by ZEFSAII (Michael W. Deem and Ramdas Pophale) SiO2 
 PCOD9066854
Probable space group: P -1
;
_chemical_formula_sum "Si O2"
_cell_formula_units_Z 16
_cell_length_a 21.328184
_cell_length_b 18.202776
_cell_length_c 12.071977
_cell_angle_alpha 29.471709
_cell_angle_beta 36.294659
_cell_angle_gamma 18.542291
_cell_volume 727.596496
_symmetry_space_group_name_H-M "P -1"
_symmetry_group_IT_number 2
_symmetry_cell_setting 'triclinic'
loop_
_space_group_symop_operation_xyz
x,y,z
-x,-y,-z
loop_
_atom_site_type_symbol
_atom_site_label
_atom_site_fract_x
_atom_site_fract_y
_atom_site_fract_z
Si Si1 0.454661 0.438230 0.049104
Si Si2 0.971656 0.410006 0.061700
Si Si3 0.663997 0.205443 0.591048
Si Si4 0.112511 0.136023 0.835673
Si Si5 0.416996 0.256164 0.740627
Si Si6 0.904649 0.063786 0.245892
Si Si7 0.269572 0.424905 0.487287
Si Si8 0.014192 0.457970 0.353450
O O1 0.371417 0.389880 0.288602
O O2 0.661073 0.157943 0.064144
O O3 0.500000 0.500000 0.000000
O O4 0.285597 0.708969 0.859899
O O5 0.809997 0.480735 0.237055
O O6 0.185770 0.075220 0.180933
O O7 0.000000 0.500000 0.000000
O O8 0.892297 0.591037 0.828467
O O9 0.500000 0.500000 0.500000
O O10 0.545452 0.235701 0.636848
O O11 0.813857 0.130836 0.405633
O O12 0.008573 0.376929 0.748236
O O13 0.107778 0.214821 0.615359
O O14 0.004023 0.107299 0.035090
O O15 0.404830 0.268349 0.609013
O O16 0.500000 0.000000 0.000000
O O17 0.068425 0.750433 0.383774
O O18 0.195950 0.354988 0.637881
#
# Coordination Sequence:
#
# PCOD9066854 Si02
#       8
#     2   2   2   2   2   2   2   2
#     4  12  24  41  72 101 135 185 236 284 353 424
#     4  12  24  49  76 104 147 190 243 305 353 434
#     4  12  29  46  72 111 145 188 241 302 368 432
#     4  11  27  47  69 106 142 191 229 298 364 421
#     4  12  26  46  72 107 138 194 245 293 367 432
#     4  12  25  48  69 102 145 179 237 293 358 427
#     4  12  23  45  73 101 139 184 238 301 345 428
#     4  11  25  47  70 102 147 183 236 294 359 417
#
# _framework density 21.990210999999999
#
# number of rings (size 3 to 8) (size 9 to 14) (size 15 to 20)
#    0.000    0.250    6.250    1.875    5.250    1.000 
#    0.000    0.000    0.000    0.000    0.000    0.000 
#    0.000    0.000    0.000    0.000    0.000    0.000 
#
# Total GULP energy -89509.123603 kJ/mol
# GULP energy per Si atom -5594.320225 kJ/mol
# Density = 2.194016 g / cm^3
# Si number density = 21.990211 Si / 1000 Ang^3
#
#
#
# Elastic Constant Matrix: (Units=GPa)
#
#
# Indices 1 2 3 4 5 6 
#
# 1 49.7058 7.5058 31.1358 -12.3158 21.5411 5.2362
# 2 7.5058 94.9831 32.8461 -9.4460 3.5189 -10.2660
# 3 31.1358 32.8461 108.4665 -2.8586 16.6946 1.0215
# 4 -12.3158 -9.4460 -2.8586 44.0648 -2.6921 3.7765
# 5 21.5411 3.5189 16.6946 -2.6921 27.2954 -6.2092
# 6 5.2362 -10.2660 1.0215 3.7765 -6.2092 27.6355
#
#
#
# Elastic Compliance Matrix: (Units=1/GPa)
#
#
# Indices 1 2 3 4 5 6 
#
# 1 0.042991 -0.000620 -0.006700 0.010912 -0.032524 -0.016927
# 2 -0.000620 0.012657 -0.004077 0.001988 0.002757 0.005318
# 3 -0.006700 -0.004077 0.012699 -0.001984 -0.002372 -0.000976
# 4 0.010912 0.001988 -0.001984 0.026183 -0.006504 -0.006295
# 5 -0.032524 0.002757 -0.002372 -0.006504 0.068095 0.023463
# 6 -0.016927 0.005318 -0.000976 -0.006295 0.023463 0.047536
#
#
# Mechanical properties :
#
#
# Convention : Reuss Voigt Hill
#
# Bulk Modulus (GPa) = 21.95205 44.01453 32.98329
# Shear Modulus (GPa) = 20.14994 31.91033 26.03013
#
# Velocity S-wave (km/s) = 3.03035 3.81348 3.44425
# Velocity P-wave (km/s) = 4.71682 6.28086 5.55417
#
# Compressibility (1/GPa) = 0.04555383
#
# Stress axis : x y z
#
# Youngs Moduli (GPa) = 23.26082 79.00521 78.74449
#
# Poissons Ratio (x) = 0.04896 0.52760
# Poissons Ratio (y) = 0.01441 0.32104
# Poissons Ratio (z) = 0.15585 0.32211
#
# Static dielectric constant tensor:
#      x y z
#    x 1.775980 -0.009590 0.026840 
#    y -0.009590 1.730410 -0.027290 
#    z 0.026840 -0.027290 1.836260 
# 
# From -- ./inp_files/472331.got.cif
#   From: 2010.05.17/outbox.cif.g08.bks.cpg/sg2_237_cif.got.tgz:472331.got - 2010.06.03 11:33:40.
