data_PCOD9066858
_publ_section_title
;
Structure prediction by ZEFSAII (Michael W. Deem and Ramdas Pophale) SiO2 
 PCOD9066858
Probable space group: P -1
;
_chemical_formula_sum "Si O2"
_cell_formula_units_Z 11
_cell_length_a 11.532373
_cell_length_b 10.104809
_cell_length_c 9.488672
_cell_angle_alpha 136.818803
_cell_angle_beta 51.196991
_cell_angle_gamma 135.939232
_cell_volume 513.814624
_symmetry_space_group_name_H-M "P -1"
_symmetry_group_IT_number 2
_symmetry_cell_setting 'triclinic'
loop_
_space_group_symop_operation_xyz
x,y,z
-x,-y,-z
loop_
_atom_site_type_symbol
_atom_site_label
_atom_site_fract_x
_atom_site_fract_y
_atom_site_fract_z
Si Si1 0.500000 0.000000 0.000000
Si Si2 0.954754 0.840054 0.544073
Si Si3 0.337426 0.966920 0.407892
Si Si4 0.522507 0.736436 0.212205
Si Si5 0.861918 0.391366 0.145386
Si Si6 0.871443 0.028979 0.017893
O O1 0.409135 0.000607 0.222239
O O2 0.684397 0.202170 0.073293
O O3 0.845860 0.588828 0.382565
O O4 0.137356 0.885801 0.498463
O O5 0.860194 0.901511 0.782868
O O6 0.000000 0.000000 0.500000
O O7 0.371909 0.781558 0.311761
O O8 0.435707 0.191696 0.601001
O O9 0.500000 0.500000 0.000000
O O10 0.688597 0.919566 0.144990
O O11 0.928123 0.277680 0.120664
O O12 0.000000 0.500000 0.000000
O O13 0.000000 0.000000 0.000000
#
# Coordination Sequence:
#
# PCOD9066858 Si02
#       6
#     1   2   2   2   2   2
#     4  12  24  46  74 106 140 202 242 298 378 440
#     4  12  26  46  75 108 144 198 251 306 377 443
#     4  11  25  47  70 105 150 184 252 302 368 446
#     4  11  27  47  71 106 150 195 243 306 378 446
#     4  12  26  48  76 104 156 193 248 314 371 445
#     4  12  26  47  73 111 142 193 255 299 381 445
#
# _framework density 21.408498999999999
#
# number of rings (size 3 to 8) (size 9 to 14) (size 15 to 20)
#    0.000    0.364    7.273    0.000    5.091    2.182 
#    0.000    2.727    0.000    0.000    0.000    0.000 
#    0.000    0.000    0.000    0.000    0.000    0.000 
#
# Total GULP energy -61300.697791 kJ/mol
# GULP energy per Si atom -5572.790708 kJ/mol
# Density = 2.135977 g / cm^3
# Si number density = 21.408499 Si / 1000 Ang^3
#
#
#
# Elastic Constant Matrix: (Units=GPa)
#
#
# Indices 1 2 3 4 5 6 
#
# 1 99.1625 34.8361 15.9092 25.8084 1.3686 2.4991
# 2 34.8361 77.6574 16.6067 13.0380 2.3474 -11.0294
# 3 15.9092 16.6067 146.7017 16.4630 34.1500 -13.4366
# 4 25.8084 13.0380 16.4630 52.2799 1.1392 -5.8547
# 5 1.3686 2.3474 34.1500 1.1392 37.7184 -4.6378
# 6 2.4991 -11.0294 -13.4366 -5.8547 -4.6378 34.6757
#
#
#
# Elastic Compliance Matrix: (Units=1/GPa)
#
#
# Indices 1 2 3 4 5 6 
#
# 1 0.013728 -0.005650 -0.000599 -0.005624 0.000079 -0.003958
# 2 -0.005650 0.016404 -0.000852 -0.000453 0.000621 0.005301
# 3 -0.000599 -0.000852 0.009242 -0.002010 -0.007993 0.001945
# 4 -0.005624 -0.000453 -0.002010 0.023015 0.001801 0.003609
# 5 0.000079 0.000621 -0.007993 0.001801 0.033891 0.001931
# 6 -0.003958 0.005301 0.001945 0.003609 0.001931 0.032431
#
#
# Mechanical properties :
#
#
# Convention : Reuss Voigt Hill
#
# Bulk Modulus (GPa) = 39.72776 50.91397 45.32086
# Shear Modulus (GPa) = 33.04560 42.01276 37.52918
#
# Velocity S-wave (km/s) = 3.93310 4.43474 4.19143
# Velocity P-wave (km/s) = 6.26282 7.07505 6.68129
#
# Compressibility (1/GPa) = 0.02517132
#
# Stress axis : x y z
#
# Youngs Moduli (GPa) = 72.84426 60.95982 108.19596
#
# Poissons Ratio (x) = 0.34444 0.06479
# Poissons Ratio (y) = 0.41160 0.09223
# Poissons Ratio (z) = 0.04362 0.05197
#
# Static dielectric constant tensor:
#      x y z
#    x 1.849960 -0.085270 0.021860 
#    y -0.085270 1.843210 -0.034190 
#    z 0.021860 -0.034190 1.785630 
# 
# From -- ./inp_files/131388.got.cif
#   From: 2010.05.17/outbox.cif.g08.bks.cpg/sg2_66_cif.got.tgz:131388.got - 2010.06.03 11:33:40.
