data_PCOD9066719
_publ_section_title
;
Structure prediction by ZEFSAII (Michael W. Deem and Ramdas Pophale) SiO2 
 PCOD9066719
Probable space group: P -1
;
_chemical_formula_sum "Si O2"
_cell_formula_units_Z 15
_cell_length_a 12.703801
_cell_length_b 12.223002
_cell_length_c 9.091177
_cell_angle_alpha 48.810613
_cell_angle_beta 59.393954
_cell_angle_gamma 42.950057
_cell_volume 722.817608
_symmetry_space_group_name_H-M "P -1"
_symmetry_group_IT_number 2
_symmetry_cell_setting 'triclinic'
loop_
_space_group_symop_operation_xyz
x,y,z
-x,-y,-z
loop_
_atom_site_type_symbol
_atom_site_label
_atom_site_fract_x
_atom_site_fract_y
_atom_site_fract_z
Si Si1 0.975358 0.615838 0.272568
Si Si2 0.396447 0.962115 0.288017
Si Si3 0.863560 0.071755 0.416880
Si Si4 0.767216 0.466353 0.061458
Si Si5 0.275236 0.297898 0.859493
Si Si6 0.500000 0.000000 0.500000
Si Si7 0.523513 0.313646 0.100849
Si Si8 0.122927 0.019520 0.831615
O O1 0.852292 0.640253 0.226452
O O2 0.000000 0.500000 0.500000
O O3 0.897743 0.815570 0.217103
O O4 0.130069 0.541258 0.136923
O O5 0.282728 0.908408 0.434081
O O6 0.561134 0.791458 0.256795
O O7 0.428767 0.025743 0.360970
O O8 0.312443 0.132477 0.083193
O O9 0.812809 0.265538 0.221076
O O10 0.907320 0.947685 0.350216
O O11 0.000000 0.000000 0.500000
O O12 0.792733 0.528770 0.140686
O O13 0.585894 0.615709 0.025173
O O14 0.520561 0.801705 0.674717
O O15 0.706409 0.161050 0.094387
O O16 0.500000 0.500000 0.000000
O O17 0.000000 0.000000 0.000000
#
# Coordination Sequence:
#
# PCOD9066719 Si02
#       8
#     2   2   2   2   2   1   2   2
#     4  12  29  46  73 109 149 197 256 309 382 461
#     4  11  25  46  74 110 143 193 252 304 388 453
#     4  12  27  47  75 104 153 200 242 313 393 460
#     4  12  26  50  71 108 148 194 250 314 381 455
#     4  11  27  45  72 107 146 190 242 318 375 452
#     4  12  22  44  80 108 152 194 256 312 392 454
#     4  12  24  45  76 109 150 193 254 318 378 455
#     4  12  26  49  72 107 147 197 250 311 383 454
#
# _framework density 20.752123999999998
#
# number of rings (size 3 to 8) (size 9 to 14) (size 15 to 20)
#    0.000    0.267    5.333    2.000    9.333    0.533 
#    2.400    0.000    0.000    0.000    0.000    0.000 
#    0.000    0.000    0.000    0.000    0.000    0.000 
#
# Total GULP energy -83549.840852 kJ/mol
# GULP energy per Si atom -5569.989390 kJ/mol
# Density = 2.070489 g / cm^3
# Si number density = 20.752124 Si / 1000 Ang^3
#
#
#
# Elastic Constant Matrix: (Units=GPa)
#
#
# Indices 1 2 3 4 5 6 
#
# 1 163.9876 72.4461 81.1642 10.3933 18.6144 4.3220
# 2 72.4461 98.2188 28.8182 4.2388 -0.1072 9.9353
# 3 81.1642 28.8182 116.6385 9.7488 -2.7478 -6.6101
# 4 10.3933 4.2388 9.7488 29.5704 0.9076 -2.7694
# 5 18.6144 -0.1072 -2.7478 0.9076 48.7720 -4.6654
# 6 4.3220 9.9353 -6.6101 -2.7694 -4.6654 47.0837
#
#
#
# Elastic Compliance Matrix: (Units=1/GPa)
#
#
# Indices 1 2 3 4 5 6 
#
# 1 0.014620 -0.008159 -0.008287 -0.001184 -0.006183 -0.001466
# 2 -0.008159 0.015920 0.001721 -0.000270 0.003052 -0.002082
# 3 -0.008287 0.001721 0.014331 -0.001935 0.004270 0.002719
# 4 -0.001184 -0.000270 -0.001935 0.035097 -0.000125 0.001946
# 5 -0.006183 0.003052 0.004270 -0.000125 0.023384 0.002833
# 6 -0.001466 -0.002082 0.002719 0.001946 0.002833 0.022590
#
#
# Mechanical properties :
#
#
# Convention : Reuss Voigt Hill
#
# Bulk Modulus (GPa) = 64.84996 82.63356 73.74176
# Shear Modulus (GPa) = 31.14609 38.17963 34.66286
#
# Velocity S-wave (km/s) = 3.87830 4.29394 4.09140
# Velocity P-wave (km/s) = 7.16747 8.03054 7.61125
#
# Compressibility (1/GPa) = 0.01542021
#
# Stress axis : x y z
#
# Youngs Moduli (GPa) = 68.40012 62.81218 69.77637
#
# Poissons Ratio (x) = 0.51251 0.57825
# Poissons Ratio (y) = 0.55810 -0.12007
# Poissons Ratio (z) = 0.56684 -0.10809
#
# Static dielectric constant tensor:
#      x y z
#    x 1.727570 0.014740 0.000320 
#    y 0.014740 1.781510 0.056610 
#    z 0.000320 0.056610 1.752220 
# 
# From -- ./inp_files/261453.got.cif
#   From: 2010.05.17/outbox.cif.g08.bks.cpg/sg2_131_cif.got.tgz:261453.got - 2010.06.03 11:33:40.
