data_PCOD9066658
_publ_section_title
;
Structure prediction by ZEFSAII (Michael W. Deem and Ramdas Pophale) SiO2 
 PCOD9066658
Probable space group: P -1
;
_chemical_formula_sum "Si O2"
_cell_formula_units_Z 11
_cell_length_a 9.920787
_cell_length_b 5.075138
_cell_length_c 10.054987
_cell_angle_alpha 83.034404
_cell_angle_beta 66.677069
_cell_angle_gamma 108.463384
_cell_volume 422.914093
_symmetry_space_group_name_H-M "P -1"
_symmetry_group_IT_number 2
_symmetry_cell_setting 'triclinic'
loop_
_space_group_symop_operation_xyz
x,y,z
-x,-y,-z
loop_
_atom_site_type_symbol
_atom_site_label
_atom_site_fract_x
_atom_site_fract_y
_atom_site_fract_z
Si Si1 0.509082 0.667412 0.123690
Si Si2 0.759360 0.709045 0.233644
Si Si3 0.234891 0.762230 0.125905
Si Si4 0.105049 0.839831 0.420003
Si Si5 0.689860 0.132708 0.422928
Si Si6 0.000000 0.500000 0.000000
O O1 0.596035 0.583967 0.215910
O O2 0.328729 0.644709 0.202543
O O3 0.500000 0.500000 0.000000
O O4 0.630185 0.001253 0.031343
O O5 0.742614 0.475285 0.367535
O O6 0.903122 0.694361 0.091258
O O7 0.765598 0.007920 0.279521
O O8 0.152368 0.912958 0.244721
O O9 0.107741 0.548246 0.090470
O O10 0.254183 0.938255 0.455008
O O11 0.000000 0.500000 0.500000
O O12 0.000000 0.000000 0.500000
O O13 0.500000 0.000000 0.500000
#
# Coordination Sequence:
#
# PCOD9066658 Si02
#       6
#     2   2   2   2   2   1
#     4  11  25  46  73 106 142 191 241 308 365 427
#     4  12  27  47  75 109 149 187 249 298 373 434
#     4  11  26  46  74 107 147 188 249 302 371 436
#     4  12  28  48  74 108 150 196 240 298 367 440
#     4  12  27  49  75 106 145 198 246 300 355 439
#     4  12  24  46  72 108 144 186 234 310 370 428
#
# _framework density 26.010009
#
# number of rings (size 3 to 8) (size 9 to 14) (size 15 to 20)
#    0.000    0.364    1.818    6.000    7.636    4.364 
#    0.000    0.000    0.000    0.000    0.000    0.000 
#    0.000    0.000    0.000    0.000    0.000    0.000 
#
# Total GULP energy -61391.950076 kJ/mol
# GULP energy per Si atom -5581.086371 kJ/mol
# Density = 2.595081 g / cm^3
# Si number density = 26.010009 Si / 1000 Ang^3
#
#
#
# Elastic Constant Matrix: (Units=GPa)
#
#
# Indices 1 2 3 4 5 6 
#
# 1 172.1413 38.8005 53.5366 15.7704 8.0110 7.0771
# 2 38.8005 95.0636 8.4235 16.1840 -5.6860 -9.6886
# 3 53.5366 8.4235 83.3721 35.5322 7.4033 1.6133
# 4 15.7704 16.1840 35.5322 45.8305 -2.0883 -0.6949
# 5 8.0110 -5.6860 7.4033 -2.0883 51.6038 9.1067
# 6 7.0771 -9.6886 1.6133 -0.6949 9.1067 36.8833
#
#
#
# Elastic Compliance Matrix: (Units=1/GPa)
#
#
# Indices 1 2 3 4 5 6 
#
# 1 0.008419 -0.003670 -0.006372 0.003294 -0.000281 -0.002169
# 2 -0.003670 0.013146 0.003442 -0.005963 0.000623 0.003741
# 3 -0.006372 0.003442 0.023299 -0.017198 -0.002936 0.001509
# 4 0.003294 -0.005963 -0.017198 0.036240 0.003032 -0.001512
# 5 -0.000281 0.000623 -0.002936 0.003032 0.020873 -0.004751
# 6 -0.002169 0.003741 0.001509 -0.001512 -0.004751 0.029590
#
#
# Mechanical properties :
#
#
# Convention : Reuss Voigt Hill
#
# Bulk Modulus (GPa) = 31.58148 61.34425 46.46286
# Shear Modulus (GPa) = 32.19131 43.51796 37.85463
#
# Velocity S-wave (km/s) = 3.52184 4.09482 3.81909
# Velocity P-wave (km/s) = 5.35782 6.78180 6.11143
#
# Compressibility (1/GPa) = 0.03166413
#
# Stress axis : x y z
#
# Youngs Moduli (GPa) = 118.78429 76.06955 42.91974
#
# Poissons Ratio (x) = 0.27918 0.27348
# Poissons Ratio (y) = 0.43595 -0.14773
# Poissons Ratio (z) = 0.75688 -0.26184
#
# Static dielectric constant tensor:
#      x y z
#    x 2.018100 -0.065290 -0.008590 
#    y -0.065290 2.041480 -0.017530 
#    z -0.008590 -0.017530 1.995440 
# 
# From -- ./inp_files/17563.got.cif
#   From: 2010.05.17/outbox.cif.g08.bks.cpg/sg2_9_cif.got.tgz:17563.got - 2010.06.03 11:33:40.
