data_PCOD9066975
_publ_section_title
;
Structure prediction by ZEFSAII (Michael W. Deem and Ramdas Pophale) SiO2 
 PCOD9066975
Probable space group: P -1
;
_chemical_formula_sum "Si O2"
_cell_formula_units_Z 14
_cell_length_a 16.930917
_cell_length_b 6.244521
_cell_length_c 9.288977
_cell_angle_alpha 68.018049
_cell_angle_beta 140.256580
_cell_angle_gamma 105.377194
_cell_volume 581.822836
_symmetry_space_group_name_H-M "P -1"
_symmetry_group_IT_number 2
_symmetry_cell_setting 'triclinic'
loop_
_space_group_symop_operation_xyz
x,y,z
-x,-y,-z
loop_
_atom_site_type_symbol
_atom_site_label
_atom_site_fract_x
_atom_site_fract_y
_atom_site_fract_z
Si Si1 0.505220 0.436481 0.775154
Si Si2 0.087099 0.805457 0.249347
Si Si3 0.931726 0.376980 0.220480
Si Si4 0.861534 0.004921 0.445242
Si Si5 0.575343 0.088351 0.718280
Si Si6 0.631679 0.727102 0.096995
Si Si7 0.255352 0.680463 0.252455
O O1 0.558602 0.314559 0.737783
O O2 0.426843 0.314100 0.820270
O O3 0.392884 0.595187 0.509658
O O4 0.618791 0.523420 0.012222
O O5 0.171353 0.923054 0.457145
O O6 0.172904 0.695288 0.273636
O O7 0.012860 0.604917 0.277106
O O8 0.000000 0.000000 0.000000
O O9 0.884727 0.239819 0.329168
O O10 0.819850 0.453384 0.938467
O O11 0.016466 0.164571 0.325921
O O12 0.761302 0.845592 0.270897
O O13 0.714805 0.083838 0.850748
O O14 0.500000 0.000000 0.500000
O O15 0.545040 0.910330 0.845711
#
# Coordination Sequence:
#
# PCOD9066975 Si02
#       7
#     2   2   2   2   2   2   2
#     4  11  27  48  72 108 151 193 245 307 362 447
#     4  12  27  46  74 109 148 193 247 312 372 441
#     4  11  25  49  70 108 146 193 253 302 376 443
#     4  11  25  48  76 105 148 198 248 307 370 446
#     4  12  26  47  72 110 147 193 247 301 372 439
#     4  11  25  47  74 106 146 196 247 296 375 439
#     4  12  25  47  72 107 142 194 241 300 379 433
#
# _framework density 24.062306
#
# number of rings (size 3 to 8) (size 9 to 14) (size 15 to 20)
#    0.000    0.571    4.286    2.571    4.000    3.429 
#    5.143    0.000    0.000    0.000    0.000    0.000 
#    0.000    0.000    0.000    0.000    0.000    0.000 
#
# Total GULP energy -77969.249080 kJ/mol
# GULP energy per Si atom -5569.232077 kJ/mol
# Density = 2.400754 g / cm^3
# Si number density = 24.062306 Si / 1000 Ang^3
#
#
#
# Elastic Constant Matrix: (Units=GPa)
#
#
# Indices 1 2 3 4 5 6 
#
# 1 102.6508 48.7862 58.5370 19.9938 -24.8820 10.8055
# 2 48.7862 64.2435 47.0844 15.5427 -4.5133 23.2220
# 3 58.5370 47.0844 123.2882 27.2682 -23.4847 2.7628
# 4 19.9938 15.5427 27.2682 34.9111 2.4689 -1.4320
# 5 -24.8820 -4.5133 -23.4847 2.4689 37.1965 -1.5902
# 6 10.8055 23.2220 2.7628 -1.4320 -1.5902 22.8370
#
#
#
# Elastic Compliance Matrix: (Units=1/GPa)
#
#
# Indices 1 2 3 4 5 6 
#
# 1 0.020784 -0.015746 -0.000553 -0.005051 0.012269 0.006781
# 2 -0.015746 0.056382 -0.014428 -0.005818 -0.014532 -0.049513
# 3 -0.000553 -0.014428 0.016852 -0.006556 0.009517 0.013146
# 4 -0.005051 -0.005818 -0.006556 0.040434 -0.010442 0.010907
# 5 0.012269 -0.014532 0.009517 -0.010442 0.040456 0.009983
# 6 0.006781 -0.049513 0.013146 0.010907 0.009983 0.090717
#
#
# Mechanical properties :
#
#
# Convention : Reuss Voigt Hill
#
# Bulk Modulus (GPa) = 30.70823 66.55531 48.63177
# Shear Modulus (GPa) = 14.79583 28.04056 21.41819
#
# Velocity S-wave (km/s) = 2.48240 3.41740 2.98671
# Velocity P-wave (km/s) = 4.58324 6.57960 5.66997
#
# Compressibility (1/GPa) = 0.03256456
#
# Stress axis : x y z
#
# Youngs Moduli (GPa) = 48.11361 17.73625 59.33999
#
# Poissons Ratio (x) = 0.27927 0.03280
# Poissons Ratio (y) = 0.75758 0.85618
# Poissons Ratio (z) = 0.02659 0.25590
#
# Static dielectric constant tensor:
#      x y z
#    x 1.896590 0.012060 -0.041430 
#    y 0.012060 2.206970 0.084830 
#    z -0.041430 0.084830 2.149350 
# 
# From -- ./inp_files/53785.got.cif
#   From: 2010.05.17/outbox.cif.g08.bks.cpg/sg2_27_cif.got.tgz:53785.got - 2010.06.03 11:33:40.
