data_PCOD9066675
_publ_section_title
;
Structure prediction by ZEFSAII (Michael W. Deem and Ramdas Pophale) SiO2 
 PCOD9066675
Probable space group: P -1
;
_chemical_formula_sum "Si O2"
_cell_formula_units_Z 16
_cell_length_a 9.169331
_cell_length_b 17.132630
_cell_length_c 12.808102
_cell_angle_alpha 30.618451
_cell_angle_beta 43.901483
_cell_angle_gamma 49.108119
_cell_volume 707.201910
_symmetry_space_group_name_H-M "P -1"
_symmetry_group_IT_number 2
_symmetry_cell_setting 'triclinic'
loop_
_space_group_symop_operation_xyz
x,y,z
-x,-y,-z
loop_
_atom_site_type_symbol
_atom_site_label
_atom_site_fract_x
_atom_site_fract_y
_atom_site_fract_z
Si Si1 0.649856 0.404456 0.189745
Si Si2 0.724434 0.657212 0.702044
Si Si3 0.746413 0.001694 0.350145
Si Si4 0.999977 0.132463 0.259793
Si Si5 0.522723 0.393942 0.507237
Si Si6 0.199875 0.872962 0.035449
Si Si7 0.514417 0.880965 0.037376
Si Si8 0.094905 0.529744 0.527238
O O1 0.456625 0.336374 0.302620
O O2 0.856115 0.285609 0.196491
O O3 0.621941 0.421906 0.310279
O O4 0.654675 0.572236 0.940229
O O5 0.804201 0.823932 0.490048
O O6 0.917620 0.542978 0.690650
O O7 0.500000 0.000000 0.500000
O O8 0.885524 0.059939 0.303927
O O9 0.753802 0.124143 0.113306
O O10 0.241596 0.162358 0.072430
O O11 0.000000 0.000000 0.500000
O O12 0.500000 0.500000 0.500000
O O13 0.276747 0.393449 0.606955
O O14 0.613160 0.242273 0.693105
O O15 0.386243 0.930380 0.942930
O O16 0.176756 0.698655 0.281746
O O17 0.000000 0.000000 0.000000
O O18 0.500000 0.000000 0.000000
O O19 0.000000 0.500000 0.500000
#
# Coordination Sequence:
#
# PCOD9066675 Si02
#       8
#     2   2   2   2   2   2   2   2
#     4  11  26  47  74 108 148 192 248 306 373 441
#     4  11  25  46  73 111 145 191 249 310 361 435
#     4  12  26  43  74 106 149 190 251 298 369 444
#     4  12  27  47  74 108 151 198 240 308 382 444
#     4  12  27  49  74 107 149 198 244 305 377 448
#     4  12  27  47  73 108 142 194 251 310 364 443
#     4  12  28  47  74 107 153 194 250 307 377 443
#     4  12  26  44  77 106 148 195 252 302 371 439
#
# _framework density 22.624374
#
# number of rings (size 3 to 8) (size 9 to 14) (size 15 to 20)
#    0.000    0.250    5.000    3.000    8.750    2.000 
#    0.000    1.875    0.000    0.000    0.000    0.000 
#    0.000    0.000    0.000    0.000    0.000    0.000 
#
# Total GULP energy -89280.216103 kJ/mol
# GULP energy per Si atom -5580.013506 kJ/mol
# Density = 2.257288 g / cm^3
# Si number density = 22.624374 Si / 1000 Ang^3
#
#
#
# Elastic Constant Matrix: (Units=GPa)
#
#
# Indices 1 2 3 4 5 6 
#
# 1 155.1711 28.3932 33.2410 19.1037 28.7472 14.1738
# 2 28.3932 96.6113 13.9324 19.3670 8.0697 4.2397
# 3 33.2410 13.9324 112.5471 18.2687 32.1948 16.9408
# 4 19.1037 19.3670 18.2687 41.8771 7.9615 -4.3608
# 5 28.7472 8.0697 32.1948 7.9615 35.8826 6.3368
# 6 14.1738 4.2397 16.9408 -4.3608 6.3368 49.2970
#
#
#
# Elastic Compliance Matrix: (Units=1/GPa)
#
#
# Indices 1 2 3 4 5 6 
#
# 1 0.008135 -0.001422 -0.000094 -0.002175 -0.005332 -0.001691
# 2 -0.001422 0.011810 -0.000039 -0.004857 -0.000229 -0.000994
# 3 -0.000094 -0.000039 0.012974 -0.004055 -0.010040 -0.003496
# 4 -0.002175 -0.004857 -0.004055 0.029620 -0.001015 0.005187
# 5 -0.005332 -0.000229 -0.010040 -0.001015 0.041500 -0.000421
# 6 -0.001691 -0.000994 -0.003496 0.005187 -0.000421 0.022572
#
#
# Mechanical properties :
#
#
# Convention : Reuss Voigt Hill
#
# Bulk Modulus (GPa) = 33.54425 57.27363 45.40894
# Shear Modulus (GPa) = 35.80249 44.66219 40.23234
#
# Velocity S-wave (km/s) = 3.98235 4.44788 4.22153
# Velocity P-wave (km/s) = 6.00035 7.19362 6.62391
#
# Compressibility (1/GPa) = 0.02981137
#
# Stress axis : x y z
#
# Youngs Moduli (GPa) = 122.92849 84.67077 77.07724
#
# Poissons Ratio (x) = 0.12037 0.00722
# Poissons Ratio (y) = 0.17476 0.00298
# Poissons Ratio (z) = 0.01152 0.00327
#
# Static dielectric constant tensor:
#      x y z
#    x 1.773580 0.011980 -0.012570 
#    y 0.011980 1.936210 -0.007290 
#    z -0.012570 -0.007290 1.824080 
# 
# From -- ./inp_files/402619.got.cif
#   From: 2010.05.17/outbox.cif.g08.bks.cpg/sg2_202_cif.got.tgz:402619.got - 2010.06.03 11:33:40.
