data_PCOD9066135
_publ_section_title
;
Structure prediction by ZEFSAII (Michael W. Deem and Ramdas Pophale) SiO2 
 PCOD9066135
Probable space group: P -1
;
_chemical_formula_sum "Si O2"
_cell_formula_units_Z 12
_cell_length_a 12.704229
_cell_length_b 11.505289
_cell_length_c 6.459460
_cell_angle_alpha 54.900048
_cell_angle_beta 133.442900
_cell_angle_gamma 136.380532
_cell_volume 467.259405
_symmetry_space_group_name_H-M "P -1"
_symmetry_group_IT_number 2
_symmetry_cell_setting 'triclinic'
loop_
_space_group_symop_operation_xyz
x,y,z
-x,-y,-z
loop_
_atom_site_type_symbol
_atom_site_label
_atom_site_fract_x
_atom_site_fract_y
_atom_site_fract_z
Si Si1 0.440125 0.809510 0.176132
Si Si2 0.211174 0.978968 0.379629
Si Si3 0.828729 0.276969 0.736332
Si Si4 0.673373 0.421378 0.138964
Si Si5 0.698113 0.727580 0.030588
Si Si6 0.032798 0.185164 0.398966
O O1 0.624879 0.854769 0.461227
O O2 0.300296 0.757410 0.217141
O O3 0.362535 0.672391 0.030706
O O4 0.500000 0.000000 0.000000
O O5 0.254994 0.872412 0.396073
O O6 0.088585 0.854713 0.521558
O O7 0.167087 0.078425 0.054490
O O8 0.831961 0.428221 0.463960
O O9 0.981533 0.268312 0.062993
O O10 0.701896 0.604453 0.995060
O O11 0.490412 0.311078 0.131429
O O12 0.771046 0.697481 0.372585
O O13 0.000000 0.000000 0.500000
#
# Coordination Sequence:
#
# PCOD9066135 Si02
#       6
#     2   2   2   2   2   2
#     4  12  21  39  71 100 126 173 229 266 317 392
#     4  12  23  42  72  98 129 171 224 277 318 388
#     4  12  23  42  69  99 128 173 223 265 327 385
#     4  11  25  46  65  99 136 174 217 269 330 387
#     4  11  25  45  66  98 140 170 214 277 328 387
#     4  12  25  42  69 103 128 172 223 269 333 386
#
# _framework density 25.681664999999999
#
# number of rings (size 3 to 8) (size 9 to 14) (size 15 to 20)
#    0.000    0.333    6.667    3.000    0.000    1.333 
#    3.000    3.333    0.000    0.000    0.000    0.000 
#    0.000    0.000    0.000    0.000    0.000    0.000 
#
# Total GULP energy -67067.649551 kJ/mol
# GULP energy per Si atom -5588.970796 kJ/mol
# Density = 2.562321 g / cm^3
# Si number density = 25.681665 Si / 1000 Ang^3
#
#
#
# Elastic Constant Matrix: (Units=GPa)
#
#
# Indices 1 2 3 4 5 6 
#
# 1 143.0346 45.7405 31.7664 -3.1905 -12.2268 -26.3509
# 2 45.7405 54.6089 2.0817 -1.8355 -1.1284 -33.3505
# 3 31.7664 2.0817 143.9437 10.8114 19.3908 -13.5615
# 4 -3.1905 -1.8355 10.8114 27.7127 -5.8883 3.4375
# 5 -12.2268 -1.1284 19.3908 -5.8883 34.5447 12.7866
# 6 -26.3509 -33.3505 -13.5615 3.4375 12.7866 52.3359
#
#
#
# Elastic Compliance Matrix: (Units=1/GPa)
#
#
# Indices 1 2 3 4 5 6 
#
# 1 0.012201 -0.013698 -0.004862 0.005333 0.009963 -0.006630
# 2 -0.013698 0.048482 0.009196 -0.010726 -0.022297 0.032533
# 3 -0.004862 0.009196 0.011171 -0.008264 -0.012792 0.009975
# 4 0.005333 -0.010726 -0.008264 0.044966 0.018979 -0.013882
# 5 0.009963 -0.022297 -0.012792 0.018979 0.051950 -0.026445
# 6 -0.006630 0.032533 0.009975 -0.013882 -0.026445 0.046458
#
#
# Mechanical properties :
#
#
# Convention : Reuss Voigt Hill
#
# Bulk Modulus (GPa) = 18.82326 55.64049 37.23188
# Shear Modulus (GPa) = 19.86782 40.38523 30.12653
#
# Velocity S-wave (km/s) = 2.78442 3.96982 3.42873
# Velocity P-wave (km/s) = 4.20508 6.53644 5.49581
#
# Compressibility (1/GPa) = 0.05312576
#
# Stress axis : x y z
#
# Youngs Moduli (GPa) = 81.96279 20.62630 89.51990
#
# Poissons Ratio (x) = 0.28254 0.43523
# Poissons Ratio (y) = 1.12272 -0.82323
# Poissons Ratio (z) = 0.39849 -0.18968
#
# Static dielectric constant tensor:
#      x y z
#    x 1.989680 0.027580 0.067240 
#    y 0.027580 1.951980 0.027900 
#    z 0.067240 0.027900 2.291410 
# 
# From -- ./inp_files/26523.got.cif
#   From: 2010.05.17/outbox.cif.g08.bks.cpg/sg2_14_cif.got.tgz:26523.got - 2010.06.03 11:33:40.
