data_PCOD9066002
_publ_section_title
;
Structure prediction by ZEFSAII (Michael W. Deem and Ramdas Pophale) SiO2 
 PCOD9066002
Probable space group: P -1
;
_chemical_formula_sum "Si O2"
_cell_formula_units_Z 12
_cell_length_a 9.056459
_cell_length_b 8.784860
_cell_length_c 9.517969
_cell_angle_alpha 114.462808
_cell_angle_beta 43.678162
_cell_angle_gamma 106.744799
_cell_volume 475.935913
_symmetry_space_group_name_H-M "P -1"
_symmetry_group_IT_number 2
_symmetry_cell_setting 'triclinic'
loop_
_space_group_symop_operation_xyz
x,y,z
-x,-y,-z
loop_
_atom_site_type_symbol
_atom_site_label
_atom_site_fract_x
_atom_site_fract_y
_atom_site_fract_z
Si Si1 0.553753 0.222849 0.395068
Si Si2 0.582566 0.816903 0.828731
Si Si3 0.223928 0.103090 0.783037
Si Si4 0.042016 0.581141 0.848460
Si Si5 0.300678 0.618685 0.143341
Si Si6 0.957039 0.108539 0.429081
O O1 0.407277 0.215095 0.355890
O O2 0.411084 0.212730 0.627692
O O3 0.712935 0.376999 0.335990
O O4 0.679288 0.042842 0.242545
O O5 0.820830 0.798621 0.719039
O O6 0.394557 0.704230 0.972865
O O7 0.500000 0.000000 0.000000
O O8 0.107770 0.010471 0.698751
O O9 0.069498 0.236231 0.010903
O O10 0.917971 0.470716 0.779874
O O11 0.000000 0.500000 0.000000
O O12 0.233914 0.760369 0.355524
O O13 0.500000 0.500000 0.000000
O O14 0.000000 0.000000 0.500000
#
# Coordination Sequence:
#
# PCOD9066002 Si02
#       6
#     2   2   2   2   2   2
#     4  11  25  44  71 104 138 187 241 286 351 426
#     4  12  24  45  78 102 141 193 241 289 353 435
#     4  11  26  45  74 101 142 187 245 286 346 434
#     4  12  26  46  69 104 145 183 232 298 364 414
#     4  12  30  47  69 110 148 181 236 306 363 412
#     4  12  24  47  76 103 138 191 244 282 350 436
#
# _framework density 25.213479
#
# number of rings (size 3 to 8) (size 9 to 14) (size 15 to 20)
#    0.000    0.333    5.000    2.500    9.333    2.667 
#    0.000    0.000    0.000    0.000    0.000    0.000 
#    0.000    0.000    0.000    0.000    0.000    0.000 
#
# Total GULP energy -67294.530305 kJ/mol
# GULP energy per Si atom -5607.877525 kJ/mol
# Density = 2.515609 g / cm^3
# Si number density = 25.213479 Si / 1000 Ang^3
#
#
#
# Elastic Constant Matrix: (Units=GPa)
#
#
# Indices 1 2 3 4 5 6 
#
# 1 112.0750 42.6759 7.0649 -4.0756 -2.6644 24.4814
# 2 42.6759 83.9176 31.4317 -19.4398 -5.5088 25.8762
# 3 7.0649 31.4317 67.0901 -8.7661 -23.6124 8.8127
# 4 -4.0756 -19.4398 -8.7661 55.1053 7.2260 -19.1883
# 5 -2.6644 -5.5088 -23.6124 7.2260 41.0388 1.9783
# 6 24.4814 25.8762 8.8127 -19.1883 1.9783 44.6012
#
#
#
# Elastic Compliance Matrix: (Units=1/GPa)
#
#
# Indices 1 2 3 4 5 6 
#
# 1 0.012130 -0.006162 0.002674 -0.002867 0.002242 -0.004944
# 2 -0.006162 0.020683 -0.009019 0.004129 -0.003303 -0.004912
# 3 0.002674 -0.009019 0.023434 -0.001695 0.012849 -0.002164
# 4 -0.002867 0.004129 -0.001695 0.023181 -0.005157 0.009715
# 5 0.002242 -0.003303 0.012849 -0.005157 0.032636 -0.005519
# 6 -0.004944 -0.004912 -0.002164 0.009715 -0.005519 0.032836
#
#
# Mechanical properties :
#
#
# Convention : Reuss Voigt Hill
#
# Bulk Modulus (GPa) = 32.01927 47.26975 39.64451
# Shear Modulus (GPa) = 27.72769 40.27640 34.00205
#
# Velocity S-wave (km/s) = 3.31980 4.00110 3.67627
# Velocity P-wave (km/s) = 5.23656 6.33511 5.81185
#
# Compressibility (1/GPa) = 0.03123119
#
# Stress axis : x y z
#
# Youngs Moduli (GPa) = 82.44360 48.35003 42.67280
#
# Poissons Ratio (x) = 0.29795 -0.11409
# Poissons Ratio (y) = 0.50805 0.38485
# Poissons Ratio (z) = -0.22042 0.43605
#
# Static dielectric constant tensor:
#      x y z
#    x 2.640850 -1.519070 -0.296940 
#    y -1.519070 5.272920 0.589850 
#    z -0.296940 0.589850 2.083180 
# 
# From -- ./inp_files/159481.got.cif
#   From: 2010.05.17/outbox.cif.g08.bks.cpg/sg2_80_cif.got.tgz:159481.got - 2010.06.03 11:33:40.
