data_PCOD9067674
_publ_section_title
;
Structure prediction by ZEFSAII (Michael W. Deem and Ramdas Pophale) SiO2 
 PCOD9067674
Probable space group: P -1
;
_chemical_formula_sum "Si O2"
_cell_formula_units_Z 12
_cell_length_a 14.578037
_cell_length_b 13.871164
_cell_length_c 8.778224
_cell_angle_alpha 121.471586
_cell_angle_beta 58.982863
_cell_angle_gamma 158.962723
_cell_volume 541.196395
_symmetry_space_group_name_H-M "P -1"
_symmetry_group_IT_number 2
_symmetry_cell_setting 'triclinic'
loop_
_space_group_symop_operation_xyz
x,y,z
-x,-y,-z
loop_
_atom_site_type_symbol
_atom_site_label
_atom_site_fract_x
_atom_site_fract_y
_atom_site_fract_z
Si Si1 0.086171 0.398093 0.716843
Si Si2 0.240505 0.297637 0.977789
Si Si3 0.295695 0.850465 0.933273
Si Si4 0.638135 0.021238 0.344706
Si Si5 0.236579 0.299706 0.619378
Si Si6 0.157342 0.438801 0.351150
O O1 0.181898 0.619964 0.783045
O O2 0.230945 0.428875 0.690642
O O3 0.040973 0.306946 0.509874
O O4 0.879253 0.233693 0.886705
O O5 0.240294 0.291923 0.791848
O O6 0.500000 0.500000 0.000000
O O7 0.178038 0.360757 0.146591
O O8 0.000000 0.000000 0.000000
O O9 0.396783 0.015498 0.837706
O O10 0.500000 0.000000 0.000000
O O11 0.458786 0.759867 0.370351
O O12 0.500000 0.000000 0.500000
O O13 0.939256 0.310421 0.360504
O O14 0.500000 0.500000 0.500000
O O15 0.000000 0.000000 0.500000
#
# Coordination Sequence:
#
# PCOD9067674 Si02
#       6
#     2   2   2   2   2   2
#     4  11  26  45  70 106 141 189 235 293 357 418
#     4  12  26  49  74 106 140 186 240 294 356 421
#     4  11  26  43  71 101 148 185 237 289 352 427
#     4  12  25  44  68 103 140 185 233 281 352 415
#     4  12  28  49  77 105 144 188 241 298 358 426
#     4  12  26  45  73 102 143 184 234 291 348 422
#
# _framework density 22.173096999999999
#
# number of rings (size 3 to 8) (size 9 to 14) (size 15 to 20)
#    0.000    0.333    1.667    6.500    9.333    0.000 
#    0.000    0.000    0.000    0.000    0.000    0.000 
#    0.000    0.000    0.000    0.000    0.000    0.000 
#
# Total GULP energy -66869.816236 kJ/mol
# GULP energy per Si atom -5572.484686 kJ/mol
# Density = 2.212263 g / cm^3
# Si number density = 22.173097 Si / 1000 Ang^3
#
#
#
# Elastic Constant Matrix: (Units=GPa)
#
#
# Indices 1 2 3 4 5 6 
#
# 1 119.4390 33.5187 63.7060 -23.2137 5.3795 26.2243
# 2 33.5187 98.3101 49.7056 -16.5700 -7.0859 17.9159
# 3 63.7060 49.7056 194.1228 -37.0756 12.3658 11.5363
# 4 -23.2137 -16.5700 -37.0756 35.5603 6.1531 -0.3927
# 5 5.3795 -7.0859 12.3658 6.1531 55.9101 -6.3259
# 6 26.2243 17.9159 11.5363 -0.3927 -6.3259 34.2159
#
#
#
# Elastic Compliance Matrix: (Units=1/GPa)
#
#
# Indices 1 2 3 4 5 6 
#
# 1 0.013156 -0.000809 -0.002188 0.006283 -0.002632 -0.009337
# 2 -0.000809 0.013157 -0.002331 0.002881 0.001355 -0.005200
# 3 -0.002188 -0.002331 0.007783 0.006028 -0.002483 -0.000117
# 4 0.006283 0.002881 0.006028 0.040981 -0.007124 -0.009203
# 5 -0.002632 0.001355 -0.002483 -0.007124 0.020302 0.005817
# 6 -0.009337 -0.005200 -0.000117 -0.009203 0.005817 0.040114
#
#
# Mechanical properties :
#
#
# Convention : Reuss Voigt Hill
#
# Bulk Modulus (GPa) = 42.65984 78.41470 60.53727
# Shear Modulus (GPa) = 32.47582 42.80003 37.63793
#
# Velocity S-wave (km/s) = 3.83123 4.39825 4.12449
# Velocity P-wave (km/s) = 6.23316 7.82524 7.07413
#
# Compressibility (1/GPa) = 0.02344125
#
# Stress axis : x y z
#
# Youngs Moduli (GPa) = 76.01094 76.00625 128.49219
#
# Poissons Ratio (x) = 0.06146 0.28114
# Poissons Ratio (y) = 0.06146 0.29946
# Poissons Ratio (z) = 0.16631 0.17714
#
# Static dielectric constant tensor:
#      x y z
#    x 1.826590 -0.143330 -0.053290 
#    y -0.143330 3.400620 0.410570 
#    z -0.053290 0.410570 1.787380 
# 
# From -- ./inp_files/39579.got.cif
#   From: 2010.05.17/outbox.cif.g08.bks.cpg/sg2_20_cif.got.tgz:39579.got - 2010.06.03 11:33:40.
