data_PCOD9067090
_publ_section_title
;
Structure prediction by ZEFSAII (Michael W. Deem and Ramdas Pophale) SiO2 
 PCOD9067090
Probable space group: P -1
;
_chemical_formula_sum "Si O2"
_cell_formula_units_Z 13
_cell_length_a 8.734954
_cell_length_b 15.434214
_cell_length_c 9.534555
_cell_angle_alpha 68.924356
_cell_angle_beta 107.005527
_cell_angle_gamma 150.809084
_cell_volume 584.338858
_symmetry_space_group_name_H-M "P -1"
_symmetry_group_IT_number 2
_symmetry_cell_setting 'triclinic'
loop_
_space_group_symop_operation_xyz
x,y,z
-x,-y,-z
loop_
_atom_site_type_symbol
_atom_site_label
_atom_site_fract_x
_atom_site_fract_y
_atom_site_fract_z
Si Si1 0.212273 0.658173 0.082661
Si Si2 0.229815 0.873368 0.712550
Si Si3 0.205798 0.549188 0.642060
Si Si4 0.653927 0.935195 0.623791
Si Si5 0.495595 0.496968 0.329061
Si Si6 0.500000 0.000000 0.000000
Si Si7 0.815692 0.841038 0.153988
O O1 0.482754 0.721749 0.158949
O O2 0.001745 0.577302 0.205602
O O3 0.380104 0.839920 0.990486
O O4 0.000000 0.500000 0.000000
O O5 0.448048 0.901183 0.686710
O O6 0.355406 0.976393 0.833617
O O7 0.858174 0.663101 0.730527
O O8 0.262442 0.970220 0.549719
O O9 0.456869 0.747429 0.645977
O O10 0.370156 0.537518 0.645095
O O11 0.000000 0.500000 0.500000
O O12 0.962905 0.055918 0.714003
O O13 0.500000 0.500000 0.500000
O O14 0.722526 0.685209 0.200396
O O15 0.000000 0.000000 0.000000
#
# Coordination Sequence:
#
# PCOD9067090 Si02
#       7
#     2   2   2   2   2   1   2
#     4  12  28  52  75 111 164 207 258 329 400 475
#     4  11  25  47  78 110 155 204 260 328 395 477
#     4  12  27  46  78 114 153 204 262 324 400 476
#     4  11  25  47  78 110 151 204 264 323 396 469
#     4  12  26  49  78 115 161 206 266 330 402 477
#     4  12  26  44  80 106 152 202 264 314 402 460
#     4  12  26  46  79 112 156 203 263 327 396 464
#
# _framework density 22.247363
#
# number of rings (size 3 to 8) (size 9 to 14) (size 15 to 20)
#    0.000    0.308    1.538    7.385    8.615    0.615 
#    2.769    2.308    0.000    0.000    0.000    0.000 
#    0.000    0.000    0.000    0.000    0.000    0.000 
#
# Total GULP energy -72429.428581 kJ/mol
# GULP energy per Si atom -5571.494506 kJ/mol
# Density = 2.219673 g / cm^3
# Si number density = 22.247363 Si / 1000 Ang^3
#
#
#
# Elastic Constant Matrix: (Units=GPa)
#
#
# Indices 1 2 3 4 5 6 
#
# 1 242.5644 233.5663 102.2623 12.8887 -34.7645 -94.0432
# 2 233.5663 373.0067 143.8144 14.5939 -41.1791 -118.9202
# 3 102.2623 143.8144 180.2294 15.6454 -24.6826 -42.3657
# 4 12.8887 14.5939 15.6454 48.8804 -4.8066 21.5031
# 5 -34.7645 -41.1791 -24.6826 -4.8066 43.1702 22.0016
# 6 -94.0432 -118.9202 -42.3657 21.5031 22.0016 96.7950
#
#
#
# Elastic Compliance Matrix: (Units=1/GPa)
#
#
# Indices 1 2 3 4 5 6 
#
# 1 0.011843 -0.005062 -0.000952 -0.003606 0.000986 0.005448
# 2 -0.005062 0.008535 -0.002543 -0.002679 -0.000295 0.005116
# 3 -0.000952 -0.002543 0.008343 -0.001274 0.001690 -0.000499
# 4 -0.003606 -0.002679 -0.001274 0.029703 0.004783 -0.015039
# 5 0.000986 -0.000295 0.001690 0.004783 0.028317 -0.006164
# 6 0.005448 0.005116 -0.000499 -0.015039 -0.006164 0.026434
#
#
# Mechanical properties :
#
#
# Convention : Reuss Voigt Hill
#
# Bulk Modulus (GPa) = 86.15934 195.00961 140.58447
# Shear Modulus (GPa) = 37.26960 58.84629 48.05795
#
# Velocity S-wave (km/s) = 4.09741 5.14862 4.65280
# Velocity P-wave (km/s) = 7.82285 11.09909 9.60174
#
# Compressibility (1/GPa) = 0.01160640
#
# Stress axis : x y z
#
# Youngs Moduli (GPa) = 84.43480 117.16924 119.86558
#
# Poissons Ratio (x) = 0.59314 0.11409
# Poissons Ratio (y) = 0.42743 0.30483
# Poissons Ratio (z) = 0.08037 0.29798
#
# Static dielectric constant tensor:
#      x y z
#    x 1.773110 -0.013500 0.027700 
#    y -0.013500 1.794780 -0.023040 
#    z 0.027700 -0.023040 1.859730 
# 
# From -- ./inp_files/200999.got.cif
#   From: 2010.05.17/outbox.cif.g08.bks.cpg/sg2_101_cif.got.tgz:200999.got - 2010.06.03 11:33:40.
