data_PCOD9067652
_publ_section_title
;
Structure prediction by ZEFSAII (Michael W. Deem and Ramdas Pophale) SiO2 
 PCOD9067652
Probable space group: P -1
;
_chemical_formula_sum "Si O2"
_cell_formula_units_Z 10
_cell_length_a 9.710528
_cell_length_b 14.314504
_cell_length_c 5.375291
_cell_angle_alpha 74.638419
_cell_angle_beta 80.511291
_cell_angle_gamma 28.605623
_cell_volume 341.218224
_symmetry_space_group_name_H-M "P -1"
_symmetry_group_IT_number 2
_symmetry_cell_setting 'triclinic'
loop_
_space_group_symop_operation_xyz
x,y,z
-x,-y,-z
loop_
_atom_site_type_symbol
_atom_site_label
_atom_site_fract_x
_atom_site_fract_y
_atom_site_fract_z
Si Si1 0.606063 0.580395 0.918325
Si Si2 0.719645 0.722488 0.800169
Si Si3 0.007411 0.058808 0.203674
Si Si4 0.203256 0.617704 0.495800
Si Si5 0.364832 0.008701 0.294111
O O1 0.534518 0.737113 0.803296
O O2 0.309433 0.700347 0.887039
O O3 0.804940 0.426091 0.739968
O O4 0.730069 0.494480 0.216858
O O5 0.653709 0.865457 0.859041
O O6 0.670277 0.796092 0.482760
O O7 0.000000 0.500000 0.000000
O O8 0.258996 0.985857 0.167074
O O9 0.000000 0.000000 0.500000
O O10 0.000000 0.000000 0.000000
O O11 0.500000 0.500000 0.500000
O O12 0.894405 0.848035 0.515416
#
# Coordination Sequence:
#
# PCOD9067652 Si02
#       5
#     2   2   2   2   2
#     4  12  26  48  78 114 163 210 261 343 399 474
#     4  11  25  53  78 121 165 220 273 335 403 495
#     4  12  26  48  79 122 160 206 274 336 402 483
#     4  12  26  47  79 120 158 204 272 332 406 482
#     4  11  26  49  84 121 162 220 271 335 416 485
#
# _framework density 29.306754000000002
#
# number of rings (size 3 to 8) (size 9 to 14) (size 15 to 20)
#    0.000    0.400    6.000    1.800    0.000    0.800 
#    0.000    2.000    0.000    0.000    0.000    0.000 
#    0.000    0.000    0.000    0.000    0.000    0.000 
#
# Total GULP energy -55889.434806 kJ/mol
# GULP energy per Si atom -5588.943481 kJ/mol
# Density = 2.924005 g / cm^3
# Si number density = 29.306754 Si / 1000 Ang^3
#
#
#
# Elastic Constant Matrix: (Units=GPa)
#
#
# Indices 1 2 3 4 5 6 
#
# 1 210.2057 29.2293 69.2114 -1.6670 -1.5117 27.1336
# 2 29.2293 109.1306 48.6450 -4.9388 -9.9296 24.2059
# 3 69.2114 48.6450 179.3254 -27.9427 -3.9966 41.4658
# 4 -1.6670 -4.9388 -27.9427 88.3989 6.2502 7.9830
# 5 -1.5117 -9.9296 -3.9966 6.2502 62.7206 -3.5524
# 6 27.1336 24.2059 41.4658 7.9830 -3.5524 64.3251
#
#
#
# Elastic Compliance Matrix: (Units=1/GPa)
#
#
# Indices 1 2 3 4 5 6 
#
# 1 0.005553 -0.000477 -0.001872 -0.000427 -0.000070 -0.000907
# 2 -0.000477 0.010936 -0.002184 0.000029 0.001440 -0.002430
# 3 -0.001872 -0.002184 0.008276 0.002856 -0.000380 -0.004099
# 4 -0.000427 0.000029 0.002856 0.012597 -0.001266 -0.003305
# 5 -0.000070 0.001440 -0.000380 -0.001266 0.016317 0.000791
# 6 -0.000907 -0.002430 -0.004099 -0.003305 0.000791 0.019939
#
#
# Mechanical properties :
#
#
# Convention : Reuss Voigt Hill
#
# Bulk Modulus (GPa) = 63.70082 88.09256 75.89669
# Shear Modulus (GPa) = 56.87216 66.52732 61.69974
#
# Velocity S-wave (km/s) = 4.40998 4.76966 4.59334
# Velocity P-wave (km/s) = 6.90751 7.77540 7.35427
#
# Compressibility (1/GPa) = 0.01569838
#
# Stress axis : x y z
#
# Youngs Moduli (GPa) = 180.07582 91.44115 120.83693
#
# Poissons Ratio (x) = 0.04365 0.22623
# Poissons Ratio (y) = 0.08596 0.26387
# Poissons Ratio (z) = 0.33713 0.19968
#
# Static dielectric constant tensor:
#      x y z
#    x 2.390210 -0.270460 -0.108080 
#    y -0.270460 0.895180 -1.343200 
#    z -0.108080 -1.343200 1.128010 
# 
# From -- ./inp_files/77876.got.cif
#   From: 2010.05.17/outbox.cif.g08.bks.cpg/sg2_39_cif.got.tgz:77876.got - 2010.06.03 11:33:40.
