data_PCOD9067781
_publ_section_title
;
Structure prediction by ZEFSAII (Michael W. Deem and Ramdas Pophale) SiO2 
 PCOD9067781
Probable space group: P -1
;
_chemical_formula_sum "Si O2"
_cell_formula_units_Z 16
_cell_length_a 9.302171
_cell_length_b 5.260907
_cell_length_c 21.144194
_cell_angle_alpha 53.674098
_cell_angle_beta 55.458594
_cell_angle_gamma 53.991630
_cell_volume 635.253556
_symmetry_space_group_name_H-M "P -1"
_symmetry_group_IT_number 2
_symmetry_cell_setting 'triclinic'
loop_
_space_group_symop_operation_xyz
x,y,z
-x,-y,-z
loop_
_atom_site_type_symbol
_atom_site_label
_atom_site_fract_x
_atom_site_fract_y
_atom_site_fract_z
Si Si1 0.611936 0.628450 0.002635
Si Si2 0.145304 0.221070 0.281236
Si Si3 0.093927 0.633220 0.564790
Si Si4 0.477705 0.713238 0.810582
Si Si5 0.593470 0.532002 0.673315
Si Si6 0.310182 0.031058 0.506714
Si Si7 0.991008 0.624058 0.056117
Si Si8 0.218643 0.469371 0.760034
O O1 0.634611 0.405515 0.092764
O O2 0.500000 0.500000 0.000000
O O3 0.809235 0.607558 0.929863
O O4 0.500000 0.000000 0.000000
O O5 0.330689 0.287952 0.204592
O O6 0.044795 0.418771 0.340573
O O7 0.974983 0.328698 0.257806
O O8 0.245967 0.824501 0.334673
O O9 0.157681 0.328136 0.543314
O O10 0.258603 0.702264 0.554364
O O11 0.000000 0.000000 0.500000
O O12 0.561317 0.490705 0.761229
O O13 0.334175 0.078491 0.767586
O O14 0.662202 0.822027 0.590185
O O15 0.380559 0.618913 0.688199
O O16 0.500000 0.000000 0.500000
O O17 0.833093 0.575956 0.146909
O O18 0.000000 0.500000 0.000000
O O19 0.000000 0.000000 0.000000
#
# Coordination Sequence:
#
# PCOD9067781 Si02
#       8
#     2   2   2   2   2   2   2   2
#     4  12  27  47  75 105 141 188 240 294 356 426
#     4  11  26  45  72 103 145 188 240 291 363 424
#     4  12  25  47  73 105 141 191 240 297 353 426
#     4  11  26  46  71 102 148 184 236 298 357 424
#     4  11  26  46  69 104 145 189 233 302 355 426
#     4  12  27  46  75 104 145 189 244 295 360 423
#     4  12  25  47  73 101 141 186 236 294 353 421
#     4  11  26  46  70 105 141 190 236 294 360 427
#
# _framework density 25.186793000000002
#
# number of rings (size 3 to 8) (size 9 to 14) (size 15 to 20)
#    0.000    0.500    2.500    4.500   10.500    1.000 
#    0.000    0.000    0.000    0.000    0.000    0.000 
#    0.000    0.000    0.000    0.000    0.000    0.000 
#
# Total GULP energy -89494.620763 kJ/mol
# GULP energy per Si atom -5593.413798 kJ/mol
# Density = 2.512947 g / cm^3
# Si number density = 25.186793 Si / 1000 Ang^3
#
#
#
# Elastic Constant Matrix: (Units=GPa)
#
#
# Indices 1 2 3 4 5 6 
#
# 1 147.7544 35.4968 18.2209 4.9795 -4.3570 -16.3077
# 2 35.4968 89.0320 15.6516 28.3306 -14.5005 -5.6163
# 3 18.2209 15.6516 116.4363 20.4821 -14.8882 1.4122
# 4 4.9795 28.3306 20.4821 31.7968 1.0084 3.2970
# 5 -4.3570 -14.5005 -14.8882 1.0084 47.6054 5.9768
# 6 -16.3077 -5.6163 1.4122 3.2970 5.9768 46.2352
#
#
#
# Elastic Compliance Matrix: (Units=1/GPa)
#
#
# Indices 1 2 3 4 5 6 
#
# 1 0.008016 -0.003957 -0.001442 0.002996 -0.001280 0.002343
# 2 -0.003957 0.019417 0.002037 -0.018340 0.006405 0.001381
# 3 -0.001442 0.002037 0.010550 -0.008461 0.004030 -0.000501
# 4 0.002996 -0.018340 -0.008461 0.053419 -0.008637 -0.003605
# 5 -0.001280 0.006405 0.004030 -0.008637 0.024579 -0.002358
# 6 0.002343 0.001381 -0.000501 -0.003605 -0.002358 0.023200
#
#
# Mechanical properties :
#
#
# Convention : Reuss Voigt Hill
#
# Bulk Modulus (GPa) = 31.98872 54.66237 43.32554
# Shear Modulus (GPa) = 31.98491 44.05103 38.01797
#
# Velocity S-wave (km/s) = 3.56744 4.18661 3.88937
# Velocity P-wave (km/s) = 5.44950 6.71716 6.11626
#
# Compressibility (1/GPa) = 0.03126102
#
# Stress axis : x y z
#
# Youngs Moduli (GPa) = 124.74760 51.50053 94.78754
#
# Poissons Ratio (x) = 0.20378 0.13666
# Poissons Ratio (y) = 0.49360 -0.19311
# Poissons Ratio (z) = 0.17985 -0.10492
#
# Static dielectric constant tensor:
#      x y z
#    x 2.055180 -0.135000 0.234300 
#    y -0.135000 1.771790 0.331710 
#    z 0.234300 0.331710 1.253980 
# 
# From -- ./inp_files/551292.got.cif
#   From: 2010.05.17/outbox.cif.g08.bks.cpg/sg2_276_cif.got.tgz:551292.got - 2010.06.03 11:33:40.
