data_PCOD9067806
_publ_section_title
;
Structure prediction by ZEFSAII (Michael W. Deem and Ramdas Pophale) SiO2 
 PCOD9067806
Probable space group: P -1
;
_chemical_formula_sum "Si O2"
_cell_formula_units_Z 14
_cell_length_a 14.814795
_cell_length_b 5.595256
_cell_length_c 11.498560
_cell_angle_alpha 55.263285
_cell_angle_beta 44.810689
_cell_angle_gamma 58.088451
_cell_volume 539.148400
_symmetry_space_group_name_H-M "P -1"
_symmetry_group_IT_number 2
_symmetry_cell_setting 'triclinic'
loop_
_space_group_symop_operation_xyz
x,y,z
-x,-y,-z
loop_
_atom_site_type_symbol
_atom_site_label
_atom_site_fract_x
_atom_site_fract_y
_atom_site_fract_z
Si Si1 0.301414 0.335716 0.015392
Si Si2 0.917499 0.959555 0.973238
Si Si3 0.608842 0.224337 0.526748
Si Si4 0.172296 0.552245 0.845471
Si Si5 0.212598 0.898220 0.387255
Si Si6 0.453009 0.769146 0.877463
Si Si7 0.060653 0.780644 0.353584
O O1 0.186112 0.476393 0.991056
O O2 0.377321 0.595097 0.904200
O O3 0.383300 0.057084 0.940865
O O4 0.257279 0.187221 0.212746
O O5 0.036233 0.721617 0.870386
O O6 0.889273 0.187320 0.830826
O O7 0.804632 0.774082 0.145478
O O8 0.000000 0.000000 0.000000
O O9 0.500000 0.500000 0.500000
O O10 0.728597 0.235830 0.328403
O O11 0.676524 0.258534 0.581275
O O12 0.555780 0.922797 0.670713
O O13 0.183047 0.741033 0.339620
O O14 0.067468 0.970740 0.557811
O O15 0.500000 0.500000 0.000000
O O16 0.000000 0.500000 0.500000
#
# Coordination Sequence:
#
# PCOD9067806 Si02
#       7
#     2   2   2   2   2   2   2
#     4  12  27  50  80 110 158 213 266 326 401 485
#     4  11  26  45  75 109 153 204 266 333 408 477
#     4  12  26  51  76 116 162 212 269 334 401 483
#     4  11  26  48  71 110 156 205 266 327 408 474
#     4  11  26  47  76 109 160 206 267 331 404 484
#     4  12  28  50  78 114 154 210 268 326 397 480
#     4  11  26  45  73 114 150 204 269 334 404 476
#
# _framework density 25.966877
#
# number of rings (size 3 to 8) (size 9 to 14) (size 15 to 20)
#    0.000    0.571    5.714    0.429    8.000    0.571 
#    2.571    0.000    0.000    0.000    0.000    0.000 
#    0.000    0.000    0.000    0.000    0.000    0.000 
#
# Total GULP energy -78108.238287 kJ/mol
# GULP energy per Si atom -5579.159878 kJ/mol
# Density = 2.590777 g / cm^3
# Si number density = 25.966877 Si / 1000 Ang^3
#
#
#
# Elastic Constant Matrix: (Units=GPa)
#
#
# Indices 1 2 3 4 5 6 
#
# 1 220.4256 56.5237 53.8251 -34.1620 18.3881 19.9653
# 2 56.5237 88.4694 31.6571 -19.5428 9.0435 6.0537
# 3 53.8251 31.6571 155.5949 -29.6676 7.6583 15.8777
# 4 -34.1620 -19.5428 -29.6676 39.1665 -0.2556 -0.7277
# 5 18.3881 9.0435 7.6583 -0.2556 58.1046 -10.1403
# 6 19.9653 6.0537 15.8777 -0.7277 -10.1403 55.1181
#
#
#
# Elastic Compliance Matrix: (Units=1/GPa)
#
#
# Indices 1 2 3 4 5 6 
#
# 1 0.006275 -0.002651 -0.000638 0.003616 -0.001838 -0.002088
# 2 -0.002651 0.014464 -0.001144 0.004020 -0.001329 -0.000490
# 3 -0.000638 -0.001144 0.008090 0.004955 -0.001031 -0.002098
# 4 0.003616 0.004020 0.004955 0.034367 -0.002839 -0.003247
# 5 -0.001838 -0.001329 -0.001031 -0.002839 0.018916 0.004551
# 6 -0.002088 -0.000490 -0.002098 -0.003247 0.004551 0.020352
#
#
# Mechanical properties :
#
#
# Convention : Reuss Voigt Hill
#
# Bulk Modulus (GPa) = 50.09299 83.16684 66.62992
# Shear Modulus (GPa) = 42.37815 51.97676 47.17746
#
# Velocity S-wave (km/s) = 4.04419 4.47884 4.26706
# Velocity P-wave (km/s) = 6.41407 7.67100 7.07052
#
# Compressibility (1/GPa) = 0.01996287
#
# Stress axis : x y z
#
# Youngs Moduli (GPa) = 159.35358 69.13674 123.60956
#
# Poissons Ratio (x) = 0.18331 0.07890
# Poissons Ratio (y) = 0.42251 0.14136
# Poissons Ratio (z) = 0.10172 0.07906
#
# Static dielectric constant tensor:
#      x y z
#    x 2.045090 0.025750 0.056610 
#    y 0.025750 2.472880 0.234240 
#    z 0.056610 0.234240 1.842680 
# 
# From -- ./inp_files/441550.got.cif
#   From: 2010.05.17/outbox.cif.g08.bks.cpg/sg2_221_cif.got.tgz:441550.got - 2010.06.03 11:33:40.
