data_PCOD9067880
_publ_section_title
;
Structure prediction by ZEFSAII (Michael W. Deem and Ramdas Pophale) SiO2 
 PCOD9067880
Probable space group: P -1
;
_chemical_formula_sum "Si O2"
_cell_formula_units_Z 16
_cell_length_a 12.200930
_cell_length_b 9.393467
_cell_length_c 22.226174
_cell_angle_alpha 151.318772
_cell_angle_beta 36.073117
_cell_angle_gamma 132.475660
_cell_volume 714.685989
_symmetry_space_group_name_H-M "P -1"
_symmetry_group_IT_number 2
_symmetry_cell_setting 'triclinic'
loop_
_space_group_symop_operation_xyz
x,y,z
-x,-y,-z
loop_
_atom_site_type_symbol
_atom_site_label
_atom_site_fract_x
_atom_site_fract_y
_atom_site_fract_z
Si Si1 0.197637 0.768738 0.961339
Si Si2 0.135082 0.755459 0.535928
Si Si3 0.710141 0.583641 0.438673
Si Si4 0.494459 0.397946 0.765318
Si Si5 0.625508 0.222489 0.768972
Si Si6 0.811757 0.055626 0.284464
Si Si7 0.923300 0.591437 0.223020
Si Si8 0.247335 0.270613 0.027107
O O1 0.372037 0.682949 0.896082
O O2 0.175866 0.487351 0.823586
O O3 0.218768 0.028484 0.000230
O O4 0.009087 0.851198 0.113368
O O5 0.315201 0.681173 0.385866
O O6 0.206289 0.800214 0.588426
O O7 0.000000 0.500000 0.500000
O O8 0.025844 0.074037 0.682258
O O9 0.500000 0.500000 0.500000
O O10 0.819336 0.321157 0.331763
O O11 0.786327 0.586081 0.338428
O O12 0.715038 0.905297 0.586386
O O13 0.549698 0.420693 0.818713
O O14 0.360708 0.132086 0.722284
O O15 0.756443 0.411386 0.819607
O O16 0.447311 0.181401 0.874295
O O17 0.093528 0.335257 0.066926
#
# Coordination Sequence:
#
# PCOD9067880 Si02
#       8
#     2   2   2   2   2   2   2   2
#     4  12  27  45  74 107 144 193 241 294 362 429
#     4  12  30  47  72 107 146 190 240 299 368 424
#     4  12  24  42  76 101 137 184 238 295 352 421
#     4  12  26  48  73 103 150 186 244 294 353 440
#     4  11  26  46  71 105 142 191 239 293 365 419
#     4  12  26  47  72 110 143 194 240 296 359 430
#     4  12  25  47  71 103 144 184 242 298 350 428
#     4  11  27  45  71 104 147 188 235 300 355 430
#
# _framework density 22.387454000000002
#
# number of rings (size 3 to 8) (size 9 to 14) (size 15 to 20)
#    0.000    0.250    5.000    2.625    8.750    2.000 
#    0.000    0.000    0.000    0.000    0.000    0.000 
#    0.000    0.000    0.000    0.000    0.000    0.000 
#
# Total GULP energy -89635.333419 kJ/mol
# GULP energy per Si atom -5602.208339 kJ/mol
# Density = 2.233650 g / cm^3
# Si number density = 22.387454 Si / 1000 Ang^3
#
#
#
# Elastic Constant Matrix: (Units=GPa)
#
#
# Indices 1 2 3 4 5 6 
#
# 1 64.2226 0.9305 -2.9180 -0.9486 -2.5463 -18.6803
# 2 0.9305 103.8592 27.1316 -8.5496 -5.5594 -17.5306
# 3 -2.9180 27.1316 64.7197 -1.8689 -5.2655 3.8321
# 4 -0.9486 -8.5496 -1.8689 34.5741 -16.3427 -1.9813
# 5 -2.5463 -5.5594 -5.2655 -16.3427 38.5202 6.3506
# 6 -18.6803 -17.5306 3.8321 -1.9813 6.3506 29.9075
#
#
#
# Elastic Compliance Matrix: (Units=1/GPa)
#
#
# Indices 1 2 3 4 5 6 
#
# 1 0.019595 0.002610 -0.000979 0.001962 0.000060 0.014012
# 2 0.002610 0.013260 -0.005798 0.004303 0.001450 0.010123
# 3 -0.000979 -0.005798 0.018514 0.000568 0.003022 -0.006986
# 4 0.001962 0.004303 0.000568 0.038036 0.016523 0.002686
# 5 0.000060 0.001450 0.003022 0.016523 0.034543 -0.005740
# 6 0.014012 0.010123 -0.006986 0.002686 -0.005740 0.050414
#
#
# Mechanical properties :
#
#
# Convention : Reuss Voigt Hill
#
# Bulk Modulus (GPa) = 23.23681 31.45441 27.34561
# Shear Modulus (GPa) = 25.37531 34.44419 29.90975
#
# Velocity S-wave (km/s) = 3.37034 3.92669 3.65911
# Velocity P-wave (km/s) = 5.05446 5.88549 5.48574
#
# Compressibility (1/GPa) = 0.04303517
#
# Stress axis : x y z
#
# Youngs Moduli (GPa) = 51.03216 75.41328 54.01361
#
# Poissons Ratio (x) = -0.19682 0.05286
# Poissons Ratio (y) = -0.13319 0.31319
# Poissons Ratio (z) = 0.04995 0.43728
#
# Static dielectric constant tensor:
#      x y z
#    x 1.798000 -0.007450 -0.026960 
#    y -0.007450 1.803510 0.042730 
#    z -0.026960 0.042730 1.816170 
# 
# From -- ./inp_files/205323.got.cif
#   From: 2010.05.17/outbox.cif.g08.bks.cpg/sg2_103_cif.got.tgz:205323.got - 2010.06.03 11:33:40.
