data_PCOD9067842
_publ_section_title
;
Structure prediction by ZEFSAII (Michael W. Deem and Ramdas Pophale) SiO2 
 PCOD9067842
Probable space group: P -1
;
_chemical_formula_sum "Si O2"
_cell_formula_units_Z 16
_cell_length_a 15.649672
_cell_length_b 6.227621
_cell_length_c 9.132309
_cell_angle_alpha 83.052940
_cell_angle_beta 116.224711
_cell_angle_gamma 116.932171
_cell_volume 708.330580
_symmetry_space_group_name_H-M "P -1"
_symmetry_group_IT_number 2
_symmetry_cell_setting 'triclinic'
loop_
_space_group_symop_operation_xyz
x,y,z
-x,-y,-z
loop_
_atom_site_type_symbol
_atom_site_label
_atom_site_fract_x
_atom_site_fract_y
_atom_site_fract_z
Si Si1 0.030373 0.789368 0.463825
Si Si2 0.728627 0.902875 0.296310
Si Si3 0.539528 0.015993 0.267458
Si Si4 0.823410 0.335448 0.830721
Si Si5 0.293338 0.525592 0.490522
Si Si6 0.650140 0.901696 0.922275
Si Si7 0.978379 0.760734 0.089617
Si Si8 0.590550 0.503019 0.673004
O O1 0.986347 0.782693 0.267904
O O2 0.000000 0.500000 0.500000
O O3 0.157698 0.908375 0.572267
O O4 0.000000 0.000000 0.500000
O O5 0.719638 0.648367 0.369999
O O6 0.631571 0.956235 0.275238
O O7 0.719543 0.908681 0.114354
O O8 0.602627 0.228589 0.413057
O O9 0.459579 0.090475 0.110683
O O10 0.453256 0.773408 0.295135
O O11 0.795938 0.405891 0.644184
O O12 0.923084 0.285402 0.882130
O O13 0.724249 0.112216 0.848393
O O14 0.867054 0.551626 0.964353
O O15 0.309579 0.399374 0.367265
O O16 0.611183 0.657509 0.820468
O O17 0.000000 0.000000 0.000000
O O18 0.500000 0.500000 0.500000
#
# Coordination Sequence:
#
# PCOD9067842 Si02
#       8
#     2   2   2   2   2   2   2   2
#     4  12  31  55  82 114 161 205 257 325 404 466
#     4  12  29  46  75 109 149 196 250 313 384 455
#     4  12  24  45  72 103 151 194 249 299 379 451
#     4  11  26  45  77 108 146 193 258 311 386 454
#     4  12  25  45  74 106 146 196 246 308 371 459
#     4  12  27  45  71 106 151 193 247 308 377 455
#     4  11  27  49  79 109 146 196 261 326 386 464
#     4  12  23  43  70 103 143 194 242 295 367 445
#
# _framework density 22.588322999999999
#
# number of rings (size 3 to 8) (size 9 to 14) (size 15 to 20)
#    0.000    0.250    3.750    3.750   12.250    3.000 
#    0.000    0.000    0.000    0.000    0.000    0.000 
#    0.000    0.000    0.000    0.000    0.000    0.000 
#
# Total GULP energy -89268.310235 kJ/mol
# GULP energy per Si atom -5579.269390 kJ/mol
# Density = 2.253691 g / cm^3
# Si number density = 22.588323 Si / 1000 Ang^3
#
#
#
# Elastic Constant Matrix: (Units=GPa)
#
#
# Indices 1 2 3 4 5 6 
#
# 1 47.6338 17.3936 12.5745 -11.2605 13.8873 -2.3729
# 2 17.3936 139.2559 59.5615 -0.9382 0.4104 -3.0002
# 3 12.5745 59.5615 133.6057 2.3050 9.5172 -15.2055
# 4 -11.2605 -0.9382 2.3050 30.2977 -2.2847 12.1930
# 5 13.8873 0.4104 9.5172 -2.2847 42.7710 2.6388
# 6 -2.3729 -3.0002 -15.2055 12.1930 2.6388 20.6176
#
#
#
# Elastic Compliance Matrix: (Units=1/GPa)
#
#
# Indices 1 2 3 4 5 6 
#
# 1 0.027006 -0.002760 -0.001404 0.011052 -0.007599 -0.003892
# 2 -0.002760 0.009350 -0.004418 0.000983 0.002031 -0.003057
# 3 -0.001404 -0.004418 0.011248 -0.006455 -0.003072 0.011702
# 4 0.011052 0.000983 -0.006455 0.051607 0.002706 -0.034212
# 5 -0.007599 0.002031 -0.003072 0.002706 0.027145 -0.007919
# 6 -0.003892 -0.003057 0.011702 -0.034212 -0.007919 0.077486
#
#
# Mechanical properties :
#
#
# Convention : Reuss Voigt Hill
#
# Bulk Modulus (GPa) = 32.84992 55.50605 44.17798
# Shear Modulus (GPa) = 21.63077 34.13499 27.88288
#
# Velocity S-wave (km/s) = 3.09788 3.89161 3.51721
# Velocity P-wave (km/s) = 5.23166 6.69470 6.00788
#
# Compressibility (1/GPa) = 0.03044148
#
# Stress axis : x y z
#
# Youngs Moduli (GPa) = 37.02885 106.94995 88.90213
#
# Poissons Ratio (x) = 0.29516 0.12479
# Poissons Ratio (y) = 0.10219 0.39277
# Poissons Ratio (z) = 0.05198 0.47251
#
# Static dielectric constant tensor:
#      x y z
#    x 1.890150 -0.074080 0.006850 
#    y -0.074080 1.878660 -0.025680 
#    z 0.006850 -0.025680 1.830680 
# 
# From -- ./inp_files/323592.got.cif
#   From: 2010.05.17/outbox.cif.g08.bks.cpg/sg2_162_cif.got.tgz:323592.got - 2010.06.03 11:33:40.
