data_PCOD9067749
_publ_section_title
;
Structure prediction by ZEFSAII (Michael W. Deem and Ramdas Pophale) SiO2 
 PCOD9067749
Probable space group: P -1
;
_chemical_formula_sum "Si O2"
_cell_formula_units_Z 16
_cell_length_a 11.756275
_cell_length_b 9.502251
_cell_length_c 14.143323
_cell_angle_alpha 76.162546
_cell_angle_beta 70.273396
_cell_angle_gamma 24.159952
_cell_volume 598.923114
_symmetry_space_group_name_H-M "P -1"
_symmetry_group_IT_number 2
_symmetry_cell_setting 'triclinic'
loop_
_space_group_symop_operation_xyz
x,y,z
-x,-y,-z
loop_
_atom_site_type_symbol
_atom_site_label
_atom_site_fract_x
_atom_site_fract_y
_atom_site_fract_z
Si Si1 0.723775 0.792035 0.098531
Si Si2 0.906290 0.601312 0.295021
Si Si3 0.287118 0.471187 0.184224
Si Si4 0.670764 0.384838 0.351444
Si Si5 0.194490 0.868573 0.077879
Si Si6 0.521122 0.715004 0.629305
Si Si7 0.958376 0.842958 0.574346
Si Si8 0.414003 0.371386 0.867215
O O1 0.805670 0.678333 0.204001
O O2 0.541975 0.848842 0.110692
O O3 0.542292 0.139624 0.095054
O O4 0.000000 0.500000 0.000000
O O5 0.042015 0.313674 0.351544
O O6 0.114999 0.511664 0.242946
O O7 0.645481 0.949905 0.376130
O O8 0.105028 0.805056 0.146137
O O9 0.415383 0.380505 0.262693
O O10 0.666724 0.218130 0.361012
O O11 0.929355 0.164947 0.377534
O O12 0.645470 0.499805 0.241234
O O13 0.365386 0.760002 0.426939
O O14 0.311609 0.845499 0.131534
O O15 0.500000 0.500000 0.000000
O O16 0.901154 0.255318 0.054017
O O17 0.808026 0.412475 0.533994
#
# Coordination Sequence:
#
# PCOD9067749 Si02
#       8
#     2   2   2   2   2   2   2   2
#     4  11  26  45  69 102 139 184 233 285 346 415
#     4  11  26  45  70  99 141 183 230 285 349 414
#     4  11  26  45  70 100 141 183 229 288 349 412
#     4  12  25  47  72 103 140 182 233 287 346 410
#     4  12  27  46  74 104 138 183 235 288 350 411
#     4  11  26  45  70 102 138 182 229 290 346 410
#     4  12  27  46  73 103 139 184 236 284 345 416
#     4  12  25  47  74 100 143 182 230 291 344 412
#
# _framework density 26.714615999999999
#
# number of rings (size 3 to 8) (size 9 to 14) (size 15 to 20)
#    0.000    0.500    2.500    4.500   10.500    1.000 
#    0.000    0.000    0.000    0.000    0.000    0.000 
#    0.000    0.000    0.000    0.000    0.000    0.000 
#
# Total GULP energy -89855.319208 kJ/mol
# GULP energy per Si atom -5615.957451 kJ/mol
# Density = 2.665381 g / cm^3
# Si number density = 26.714616 Si / 1000 Ang^3
#
#
#
# Elastic Constant Matrix: (Units=GPa)
#
#
# Indices 1 2 3 4 5 6 
#
# 1 164.1459 47.9099 43.1395 -4.8073 4.9663 18.2095
# 2 47.9099 131.4555 21.3288 6.3620 5.1520 19.7840
# 3 43.1395 21.3288 105.5986 25.8738 0.9768 9.4243
# 4 -4.8073 6.3620 25.8738 46.6210 -3.1108 -5.6011
# 5 4.9663 5.1520 0.9768 -3.1108 40.5226 0.8845
# 6 18.2095 19.7840 9.4243 -5.6011 0.8845 52.2945
#
#
#
# Elastic Compliance Matrix: (Units=1/GPa)
#
#
# Indices 1 2 3 4 5 6 
#
# 1 0.007841 -0.002296 -0.003348 0.002843 -0.000349 -0.000948
# 2 -0.002296 0.009011 -0.000200 -0.001747 -0.000934 -0.002745
# 3 -0.003348 -0.000200 0.012957 -0.007768 -0.000431 -0.001918
# 4 0.002843 -0.001747 -0.007768 0.026899 0.002040 0.003917
# 5 -0.000349 -0.000934 -0.000431 0.002040 0.024999 0.000348
# 6 -0.000948 -0.002745 -0.001918 0.003917 0.000348 0.021250
#
#
# Mechanical properties :
#
#
# Convention : Reuss Voigt Hill
#
# Bulk Modulus (GPa) = 55.18950 69.55072 62.37011
# Shear Modulus (GPa) = 41.43022 47.14240 44.28631
#
# Velocity S-wave (km/s) = 3.94235 4.20535 4.07597
# Velocity P-wave (km/s) = 6.43635 7.04778 6.74899
#
# Compressibility (1/GPa) = 0.01811939
#
# Stress axis : x y z
#
# Youngs Moduli (GPa) = 127.53172 110.98087 77.18074
#
# Poissons Ratio (x) = 0.25478 0.25843
# Poissons Ratio (y) = 0.29278 0.01547
# Poissons Ratio (z) = 0.42702 0.02224
#
# Static dielectric constant tensor:
#      x y z
#    x 2.020750 -0.014890 -0.011030 
#    y -0.014890 2.078930 0.091330 
#    z -0.011030 0.091330 2.203270 
# 
# From -- ./inp_files/85092.got.cif
#   From: 2010.05.17/outbox.cif.g08.bks.cpg/sg2_43_cif.got.tgz:85092.got - 2010.06.03 11:33:40.
