data_PCOD9067878
_publ_section_title
;
Structure prediction by ZEFSAII (Michael W. Deem and Ramdas Pophale) SiO2 
 PCOD9067878
Probable space group: P -1
;
_chemical_formula_sum "Si O2"
_cell_formula_units_Z 16
_cell_length_a 8.312693
_cell_length_b 21.790546
_cell_length_c 11.284787
_cell_angle_alpha 131.628860
_cell_angle_beta 116.517239
_cell_angle_gamma 26.487593
_cell_volume 610.506058
_symmetry_space_group_name_H-M "P -1"
_symmetry_group_IT_number 2
_symmetry_cell_setting 'triclinic'
loop_
_space_group_symop_operation_xyz
x,y,z
-x,-y,-z
loop_
_atom_site_type_symbol
_atom_site_label
_atom_site_fract_x
_atom_site_fract_y
_atom_site_fract_z
Si Si1 0.003588 0.077993 0.319488
Si Si2 0.523100 0.552841 0.460984
Si Si3 0.232071 0.531567 0.192589
Si Si4 0.586778 0.039822 0.488832
Si Si5 0.285809 0.393300 0.249370
Si Si6 0.863972 0.963070 0.034338
Si Si7 0.059372 0.337297 0.986824
Si Si8 0.820292 0.862657 0.100905
O O1 0.824960 0.239245 0.425744
O O2 0.040150 0.068406 0.462123
O O3 0.465958 0.870382 0.161213
O O4 0.768019 0.092480 0.219209
O O5 0.500000 0.500000 0.500000
O O6 0.825259 0.498028 0.544194
O O7 0.543433 0.476743 0.266608
O O8 0.805155 0.746158 0.357976
O O9 0.186407 0.532111 0.039864
O O10 0.228932 0.457129 0.184298
O O11 0.500000 0.000000 0.500000
O O12 0.636736 0.994395 0.311953
O O13 0.053254 0.403747 0.178105
O O14 0.770366 0.180874 0.123743
O O15 0.993949 0.853279 0.048024
O O16 0.504334 0.061347 0.977989
O O17 0.931505 0.301584 0.946635
#
# Coordination Sequence:
#
# PCOD9067878 Si02
#       8
#     2   2   2   2   2   2   2   2
#     4  10  18  34  53  81 101 135 181 220 259 300
#     4  10  18  28  49  77 105 129 170 217 258 297
#     4  10  18  31  51  81 102 132 171 221 262 300
#     4  11  18  33  59  79 102 134 181 223 255 302
#     4  10  20  32  50  79 108 133 170 217 264 309
#     4  10  23  34  52  78 112 141 171 215 263 322
#     4  10  18  32  55  73 100 136 177 219 250 306
#     4  11  20  36  54  78 105 141 181 212 265 310
#
# _framework density 26.207764999999998
#
# number of rings (size 3 to 8) (size 9 to 14) (size 15 to 20)
#    0.000    1.750    3.750    2.625    0.000    2.500 
#    0.000    0.625    0.000    3.000    0.000   21.000 
#    0.000    0.000    0.000    0.000    0.000    0.000 
#
# Total GULP energy -89302.008045 kJ/mol
# GULP energy per Si atom -5581.375503 kJ/mol
# Density = 2.614811 g / cm^3
# Si number density = 26.207765 Si / 1000 Ang^3
#
#
#
# Elastic Constant Matrix: (Units=GPa)
#
#
# Indices 1 2 3 4 5 6 
#
# 1 64.7155 18.0987 29.7026 -4.5982 13.2015 7.0605
# 2 18.0987 79.7156 -0.7146 -10.3291 2.9609 15.7729
# 3 29.7026 -0.7146 105.1087 -33.4276 33.4046 -12.3814
# 4 -4.5982 -10.3291 -33.4276 47.5709 4.4322 4.0349
# 5 13.2015 2.9609 33.4046 4.4322 38.5874 2.1490
# 6 7.0605 15.7729 -12.3814 4.0349 2.1490 31.1227
#
#
#
# Elastic Compliance Matrix: (Units=1/GPa)
#
#
# Indices 1 2 3 4 5 6 
#
# 1 0.020428 -0.004291 -0.008219 -0.004404 0.001253 -0.005245
# 2 -0.004291 0.015722 0.003709 0.006437 -0.003348 -0.006122
# 3 -0.008219 0.003709 0.027064 0.020419 -0.023790 0.009747
# 4 -0.004404 0.006437 0.020419 0.038112 -0.021173 0.002381
# 5 0.001253 -0.003348 -0.023790 -0.021173 0.049255 -0.008708
# 6 -0.005245 -0.006122 0.009747 0.002381 -0.008708 0.040593
#
#
# Mechanical properties :
#
#
# Convention : Reuss Voigt Hill
#
# Bulk Modulus (GPa) = 21.92346 38.19035 30.05691
# Shear Modulus (GPa) = 22.32340 36.95308 29.63824
#
# Velocity S-wave (km/s) = 2.92170 3.75908 3.36653
# Velocity P-wave (km/s) = 4.44581 5.78314 5.15800
#
# Compressibility (1/GPa) = 0.04561324
#
# Stress axis : x y z
#
# Youngs Moduli (GPa) = 48.95212 63.60594 36.94895
#
# Poissons Ratio (x) = 0.27295 0.30367
# Poissons Ratio (y) = 0.21006 -0.13706
# Poissons Ratio (z) = 0.40232 -0.23594
#
# Static dielectric constant tensor:
#      x y z
#    x 2.144210 -0.015600 0.028720 
#    y -0.015600 2.224100 -0.020200 
#    z 0.028720 -0.020200 2.070940 
# 
# From -- ./inp_files/269545.got.cif
#   From: 2010.05.17/outbox.cif.g08.bks.cpg/sg2_135_cif.got.tgz:269545.got - 2010.06.03 11:33:40.
