data_PCOD9067057
_publ_section_title
;
Structure prediction by ZEFSAII (Michael W. Deem and Ramdas Pophale) SiO2 
 PCOD9067057
Probable space group: P -1
;
_chemical_formula_sum "Si O2"
_cell_formula_units_Z 12
_cell_length_a 8.857265
_cell_length_b 15.936908
_cell_length_c 8.675375
_cell_angle_alpha 121.526109
_cell_angle_beta 57.339090
_cell_angle_gamma 151.669630
_cell_volume 485.723906
_symmetry_space_group_name_H-M "P -1"
_symmetry_group_IT_number 2
_symmetry_cell_setting 'triclinic'
loop_
_space_group_symop_operation_xyz
x,y,z
-x,-y,-z
loop_
_atom_site_type_symbol
_atom_site_label
_atom_site_fract_x
_atom_site_fract_y
_atom_site_fract_z
Si Si1 0.302103 0.062723 0.399052
Si Si2 0.229661 0.199520 0.058504
Si Si3 0.025793 0.295613 0.708687
Si Si4 0.304943 0.697661 0.879706
Si Si5 0.700242 0.380202 0.700851
Si Si6 0.225587 0.402920 0.350954
O O1 0.473812 0.146499 0.218668
O O2 0.549310 0.218022 0.540121
O O3 0.172190 0.896330 0.351575
O O4 0.000000 0.000000 0.500000
O O5 0.485617 0.290889 0.141382
O O6 0.069037 0.232189 0.202690
O O7 0.411781 0.285619 0.878896
O O8 0.000000 0.000000 0.000000
O O9 0.089663 0.346940 0.543799
O O10 0.387400 0.442077 0.715179
O O11 0.835971 0.291356 0.906185
O O12 0.006222 0.515441 0.775406
O O13 0.795015 0.506729 0.646588
#
# Coordination Sequence:
#
# PCOD9067057 Si02
#       6
#     2   2   2   2   2   2
#     4  12  25  49  76 110 148 198 248 303 369 443
#     4  12  27  49  77 109 150 198 251 304 374 442
#     4  11  25  47  77 107 152 195 250 301 370 437
#     4  12  28  47  77 111 151 192 248 316 363 436
#     4  12  26  46  78 112 149 194 253 301 373 435
#     4  11  25  47  78 106 149 201 242 304 374 441
#
# _framework density 24.705393999999998
#
# number of rings (size 3 to 8) (size 9 to 14) (size 15 to 20)
#    0.000    0.333    3.333    5.000    2.333    2.667 
#    0.000    2.500    0.000    0.000    0.000    0.000 
#    0.000    0.000    0.000    0.000    0.000    0.000 
#
# Total GULP energy -67347.064024 kJ/mol
# GULP energy per Si atom -5612.255335 kJ/mol
# Density = 2.464916 g / cm^3
# Si number density = 24.705394 Si / 1000 Ang^3
#
#
#
# Elastic Constant Matrix: (Units=GPa)
#
#
# Indices 1 2 3 4 5 6 
#
# 1 72.5815 46.3510 11.9332 23.3498 -0.8946 -10.2911
# 2 46.3510 164.7728 63.7456 15.0757 -8.7072 -25.2210
# 3 11.9332 63.7456 124.9882 -8.7660 -4.6322 -19.0465
# 4 23.3498 15.0757 -8.7660 58.1857 -6.3817 -6.1635
# 5 -0.8946 -8.7072 -4.6322 -6.3817 35.5984 3.0110
# 6 -10.2911 -25.2210 -19.0465 -6.1635 3.0110 48.1603
#
#
#
# Elastic Compliance Matrix: (Units=1/GPa)
#
#
# Indices 1 2 3 4 5 6 
#
# 1 0.018989 -0.004810 0.000260 -0.006444 -0.001900 0.000936
# 2 -0.004810 0.009452 -0.004037 -0.000752 0.001350 0.002145
# 3 0.000260 -0.004037 0.010641 0.002885 0.000712 0.002474
# 4 -0.006444 -0.000752 0.002885 0.020995 0.003638 0.001830
# 5 -0.001900 0.001350 0.000712 0.003638 0.029184 -0.000777
# 6 0.000936 0.002145 0.002474 0.001830 -0.000777 0.023348
#
#
# Mechanical properties :
#
#
# Convention : Reuss Voigt Hill
#
# Bulk Modulus (GPa) = 45.64541 67.37801 56.51171
# Shear Modulus (GPa) = 36.47355 44.40971 40.44163
#
# Velocity S-wave (km/s) = 3.84648 4.24438 4.05032
# Velocity P-wave (km/s) = 6.18411 7.16599 6.69308
#
# Compressibility (1/GPa) = 0.02190801
#
# Stress axis : x y z
#
# Youngs Moduli (GPa) = 52.66282 105.79305 93.97801
#
# Poissons Ratio (x) = 0.50886 -0.02448
# Poissons Ratio (y) = 0.25330 0.37944
# Poissons Ratio (z) = -0.01372 0.42714
#
# Static dielectric constant tensor:
#      x y z
#    x 1.968340 0.036820 -0.015790 
#    y 0.036820 1.963940 0.029660 
#    z -0.015790 0.029660 1.942370 
# 
# From -- ./inp_files/208653.got.cif
#   From: 2010.05.17/outbox.cif.g08.bks.cpg/sg2_105_cif.got.tgz:208653.got - 2010.06.03 11:33:40.
