data_PCOD9067641
_publ_section_title
;
Structure prediction by ZEFSAII (Michael W. Deem and Ramdas Pophale) SiO2 
 PCOD9067641
Probable space group: P -1
;
_chemical_formula_sum "Si O2"
_cell_formula_units_Z 14
_cell_length_a 5.365188
_cell_length_b 8.885221
_cell_length_c 19.389608
_cell_angle_alpha 47.031907
_cell_angle_beta 76.534844
_cell_angle_gamma 57.294129
_cell_volume 555.185920
_symmetry_space_group_name_H-M "P -1"
_symmetry_group_IT_number 2
_symmetry_cell_setting 'triclinic'
loop_
_space_group_symop_operation_xyz
x,y,z
-x,-y,-z
loop_
_atom_site_type_symbol
_atom_site_label
_atom_site_fract_x
_atom_site_fract_y
_atom_site_fract_z
Si Si1 0.954169 0.512255 0.108797
Si Si2 0.132346 0.013279 0.061757
Si Si3 0.740806 0.458278 0.556615
Si Si4 0.182697 0.903928 0.717496
Si Si5 0.703494 0.657617 0.213173
Si Si6 0.727076 0.216686 0.407753
Si Si7 0.573115 0.128549 0.150714
O O1 0.859705 0.313926 0.185621
O O2 0.979428 0.569045 0.169973
O O3 0.255516 0.379421 0.085008
O O4 0.761537 0.792041 0.007424
O O5 0.857964 0.119038 0.100961
O O6 0.407406 0.754865 0.152561
O O7 0.000000 0.000000 0.000000
O O8 0.500000 0.500000 0.500000
O O9 0.575479 0.651439 0.568655
O O10 0.000000 0.500000 0.500000
O O11 0.889457 0.177293 0.657569
O O12 0.285742 0.863789 0.644059
O O13 0.409297 0.902019 0.758552
O O14 0.784380 0.433415 0.325080
O O15 0.606065 0.891723 0.190433
O O16 0.000000 0.000000 0.500000
#
# Coordination Sequence:
#
# PCOD9067641 Si02
#       7
#     2   2   2   2   2   2   2
#     4  11  26  46  76 107 153 196 264 315 389 469
#     4  12  26  48  75 111 154 212 258 319 397 471
#     4  12  28  51  82 118 160 209 272 336 408 481
#     4  11  28  48  77 116 156 204 265 324 407 475
#     4  11  27  49  74 109 160 194 265 324 391 475
#     4  11  25  52  79 114 156 206 267 333 409 481
#     4  12  26  45  76 112 152 204 260 322 393 471
#
# _framework density 25.21678
#
# number of rings (size 3 to 8) (size 9 to 14) (size 15 to 20)
#    0.000    0.571    2.857    3.429    8.000    4.000 
#    2.571    0.000    0.000    0.000    0.000    0.000 
#    0.000    0.000    0.000    0.000    0.000    0.000 
#
# Total GULP energy -78325.776453 kJ/mol
# GULP energy per Si atom -5594.698318 kJ/mol
# Density = 2.515939 g / cm^3
# Si number density = 25.216780 Si / 1000 Ang^3
#
#
#
# Elastic Constant Matrix: (Units=GPa)
#
#
# Indices 1 2 3 4 5 6 
#
# 1 72.3000 51.7927 41.1225 4.1029 -3.9801 8.3007
# 2 51.7927 206.4070 68.0759 5.1285 11.6671 -20.5285
# 3 41.1225 68.0759 147.2819 -22.5821 -1.4447 5.6139
# 4 4.1029 5.1285 -22.5821 71.5968 0.5201 -2.9909
# 5 -3.9801 11.6671 -1.4447 0.5201 41.2247 16.0295
# 6 8.3007 -20.5285 5.6139 -2.9909 16.0295 42.6085
#
#
#
# Elastic Compliance Matrix: (Units=1/GPa)
#
#
# Indices 1 2 3 4 5 6 
#
# 1 0.021222 -0.005482 -0.003327 -0.002307 0.007075 -0.009161
# 2 -0.005482 0.008225 -0.002736 -0.000780 -0.005878 0.007548
# 3 -0.003327 -0.002736 0.009595 0.003304 0.001651 -0.002324
# 4 -0.002307 -0.000780 0.003304 0.015236 -0.000414 0.000864
# 5 0.007075 -0.005878 0.001651 -0.000414 0.033266 -0.016972
# 6 -0.009161 0.007548 -0.002324 0.000864 -0.016972 0.035642
#
#
# Mechanical properties :
#
#
# Convention : Reuss Voigt Hill
#
# Bulk Modulus (GPa) = 62.68567 83.10790 72.89678
# Shear Modulus (GPa) = 32.98297 48.75250 40.86774
#
# Velocity S-wave (km/s) = 3.62052 4.40174 4.03011
# Velocity P-wave (km/s) = 6.51078 7.67220 7.11523
#
# Compressibility (1/GPa) = 0.01595261
#
# Stress axis : x y z
#
# Youngs Moduli (GPa) = 47.11990 121.58090 104.22505
#
# Poissons Ratio (x) = 0.66646 0.34675
# Poissons Ratio (y) = 0.25829 0.28517
# Poissons Ratio (z) = 0.15677 0.33266
#
# Static dielectric constant tensor:
#      x y z
#    x 2.097970 -0.017640 0.024460 
#    y -0.017640 1.998580 -0.002590 
#    z 0.024460 -0.002590 2.021550 
# 
# From -- ./inp_files/547734.got.cif
#   From: 2010.05.17/outbox.cif.g08.bks.cpg/sg2_274_cif.got.tgz:547734.got - 2010.06.03 11:33:40.
