data_PCOD9067403
_publ_section_title
;
Structure prediction by ZEFSAII (Michael W. Deem and Ramdas Pophale) SiO2 
 PCOD9067403
Probable space group: P -1
;
_chemical_formula_sum "Si O2"
_cell_formula_units_Z 15
_cell_length_a 23.131251
_cell_length_b 14.155515
_cell_length_c 5.688844
_cell_angle_alpha 91.617863
_cell_angle_beta 78.419450
_cell_angle_gamma 158.598957
_cell_volume 596.669709
_symmetry_space_group_name_H-M "P -1"
_symmetry_group_IT_number 2
_symmetry_cell_setting 'triclinic'
loop_
_space_group_symop_operation_xyz
x,y,z
-x,-y,-z
loop_
_atom_site_type_symbol
_atom_site_label
_atom_site_fract_x
_atom_site_fract_y
_atom_site_fract_z
Si Si1 0.744579 0.201108 0.658055
Si Si2 0.808856 0.493574 0.405262
Si Si3 0.060809 0.665498 0.763411
Si Si4 0.500000 0.500000 0.000000
Si Si5 0.950776 0.839984 0.699699
Si Si6 0.627498 0.369458 0.245549
Si Si7 0.358070 0.415782 0.526826
Si Si8 0.197918 0.043850 0.965460
O O1 0.774048 0.330632 0.457785
O O2 0.818414 0.213341 0.503219
O O3 0.876532 0.423780 0.779848
O O4 0.529934 0.873604 0.835596
O O5 0.834022 0.585049 0.638852
O O6 0.662917 0.327648 0.358014
O O7 0.006338 0.801160 0.148535
O O8 0.169817 0.916502 0.801971
O O9 0.000000 0.500000 0.000000
O O10 0.544984 0.483556 0.764778
O O11 0.282722 0.140599 0.148592
O O12 0.820426 0.683053 0.994644
O O13 0.000000 0.000000 0.500000
O O14 0.142987 0.090156 0.635793
O O15 0.581097 0.386056 0.456103
O O16 0.362801 0.362623 0.766382
#
# Coordination Sequence:
#
# PCOD9067403 Si02
#       8
#     2   2   2   1   2   2   2   2
#     4  11  27  47  74 113 141 196 262 298 366 449
#     4  12  24  46  75 106 154 198 240 309 373 440
#     4  11  25  49  75 100 153 197 239 316 373 428
#     4  12  28  42  76 106 144 188 250 304 358 448
#     4  12  24  45  71 104 150 196 239 297 375 440
#     4  12  27  46  76 109 155 194 250 306 363 453
#     4  12  25  47  71 109 146 190 242 308 376 436
#     4  12  25  46  73 106 146 192 247 302 378 439
#
# _framework density 25.139537000000001
#
# number of rings (size 3 to 8) (size 9 to 14) (size 15 to 20)
#    0.000    0.267    5.333    3.600    0.000    2.667 
#    0.000    0.000    0.000    0.000    0.000    0.000 
#    0.000    0.000    0.000    0.000    0.000    0.000 
#
# Total GULP energy -83799.408106 kJ/mol
# GULP energy per Si atom -5586.627207 kJ/mol
# Density = 2.508232 g / cm^3
# Si number density = 25.139537 Si / 1000 Ang^3
#
#
#
# Elastic Constant Matrix: (Units=GPa)
#
#
# Indices 1 2 3 4 5 6 
#
# 1 121.1193 31.5520 25.7859 -4.5149 -9.9735 -2.0138
# 2 31.5520 140.4018 0.6731 -4.5089 -21.0341 22.8595
# 3 25.7859 0.6731 67.2832 -0.8200 -19.2069 -6.0798
# 4 -4.5149 -4.5089 -0.8200 32.9036 -5.3082 -17.3770
# 5 -9.9735 -21.0341 -19.2069 -5.3082 38.2777 -0.4111
# 6 -2.0138 22.8595 -6.0798 -17.3770 -0.4111 36.9792
#
#
#
# Elastic Compliance Matrix: (Units=1/GPa)
#
#
# Indices 1 2 3 4 5 6 
#
# 1 0.009784 -0.002578 -0.003554 0.002211 -0.000316 0.002577
# 2 -0.002578 0.009446 0.001761 -0.001549 0.005120 -0.006361
# 3 -0.003554 0.001761 0.019603 0.004015 0.010477 0.003944
# 4 0.002211 -0.001549 0.004015 0.043686 0.008038 0.022356
# 5 -0.000316 0.005120 0.010477 0.008038 0.035257 0.002710
# 6 0.002577 -0.006361 0.003944 0.022356 0.002710 0.042299
#
#
# Mechanical properties :
#
#
# Convention : Reuss Voigt Hill
#
# Bulk Modulus (GPa) = 33.23161 49.42513 41.32837
# Shear Modulus (GPa) = 27.95679 39.68499 33.82089
#
# Velocity S-wave (km/s) = 3.33838 3.97746 3.67185
# Velocity P-wave (km/s) = 5.30163 6.38722 5.86958
#
# Compressibility (1/GPa) = 0.03009183
#
# Stress axis : x y z
#
# Youngs Moduli (GPa) = 102.21085 105.86289 51.01173
#
# Poissons Ratio (x) = 0.27287 0.18131
# Poissons Ratio (y) = 0.26346 -0.08984
# Poissons Ratio (z) = 0.36329 -0.18645
#
# Static dielectric constant tensor:
#      x y z
#    x 1.573460 -0.202980 -0.246790 
#    y -0.202980 1.862370 -0.140040 
#    z -0.246790 -0.140040 1.774530 
# 
# From -- ./inp_files/124299.got.cif
#   From: 2010.05.17/outbox.cif.g08.bks.cpg/sg2_63_cif.got.tgz:124299.got - 2010.06.03 11:33:40.
