data_PCOD9067538
_publ_section_title
;
Structure prediction by ZEFSAII (Michael W. Deem and Ramdas Pophale) SiO2 
 PCOD9067538
Probable space group: P -1
;
_chemical_formula_sum "Si O2"
_cell_formula_units_Z 14
_cell_length_a 11.080115
_cell_length_b 15.428457
_cell_length_c 8.255532
_cell_angle_alpha 50.991086
_cell_angle_beta 64.375795
_cell_angle_gamma 30.951694
_cell_volume 543.287442
_symmetry_space_group_name_H-M "P -1"
_symmetry_group_IT_number 2
_symmetry_cell_setting 'triclinic'
loop_
_space_group_symop_operation_xyz
x,y,z
-x,-y,-z
loop_
_atom_site_type_symbol
_atom_site_label
_atom_site_fract_x
_atom_site_fract_y
_atom_site_fract_z
Si Si1 0.021682 0.339286 0.270216
Si Si2 0.431505 0.538488 0.183139
Si Si3 0.268750 0.098090 0.094874
Si Si4 0.872098 0.543090 0.682955
Si Si5 0.005611 0.144117 0.728235
Si Si6 0.191089 0.887888 0.375025
Si Si7 0.543916 0.711626 0.922553
O O1 0.228333 0.157597 0.237089
O O2 0.116077 0.356079 0.330827
O O3 0.940548 0.283820 0.471517
O O4 0.789667 0.561903 0.058753
O O5 0.577863 0.345387 0.427613
O O6 0.151760 0.721715 0.179935
O O7 0.500000 0.500000 0.000000
O O8 0.499339 0.615264 0.107982
O O9 0.259747 0.970976 0.226335
O O10 0.035636 0.323251 0.892541
O O11 0.500000 0.000000 0.000000
O O12 0.605395 0.684154 0.726718
O O13 0.000000 0.500000 0.500000
O O14 0.927051 0.084496 0.751077
O O15 0.293844 0.948211 0.824108
O O16 0.000000 0.000000 0.500000
#
# Coordination Sequence:
#
# PCOD9067538 Si02
#       7
#     2   2   2   2   2   2   2
#     4  11  26  54  78 112 162 209 268 326 398 482
#     4  12  28  48  76 118 160 202 265 331 395 477
#     4  11  26  48  83 119 156 216 264 325 403 471
#     4  11  28  52  79 116 158 209 268 331 395 482
#     4  12  27  49  83 115 155 216 263 332 403 472
#     4  12  24  50  80 118 166 205 268 331 399 478
#     4  11  25  50  76 115 156 205 269 326 404 467
#
# _framework density 25.769045999999999
#
# number of rings (size 3 to 8) (size 9 to 14) (size 15 to 20)
#    0.000    0.571    2.857    4.286    6.000    1.714 
#    5.143    0.000    0.000    0.000    0.000    0.000 
#    0.000    0.000    0.000    0.000    0.000    0.000 
#
# Total GULP energy -78366.886441 kJ/mol
# GULP energy per Si atom -5597.634746 kJ/mol
# Density = 2.571039 g / cm^3
# Si number density = 25.769046 Si / 1000 Ang^3
#
#
#
# Elastic Constant Matrix: (Units=GPa)
#
#
# Indices 1 2 3 4 5 6 
#
# 1 91.9083 42.4608 21.7029 8.0407 -23.1461 6.6473
# 2 42.4608 207.0217 75.2089 25.0877 -5.8351 -28.2726
# 3 21.7029 75.2089 141.2181 1.2717 -28.2223 -1.1397
# 4 8.0407 25.0877 1.2717 60.4357 -8.7494 0.3215
# 5 -23.1461 -5.8351 -28.2223 -8.7494 43.1631 1.2173
# 6 6.6473 -28.2726 -1.1397 0.3215 1.2173 41.8529
#
#
#
# Elastic Compliance Matrix: (Units=1/GPa)
#
#
# Indices 1 2 3 4 5 6 
#
# 1 0.015059 -0.004368 0.001759 0.001107 0.009016 -0.005565
# 2 -0.004368 0.008743 -0.004968 -0.003755 -0.005357 0.006649
# 3 0.001759 -0.004968 0.011032 0.002796 0.008153 -0.003594
# 4 0.001107 -0.003755 0.002796 0.018754 0.005799 -0.002949
# 5 0.009016 -0.005357 0.008153 0.005799 0.033950 -0.005861
# 6 -0.005565 0.006649 -0.003594 -0.002949 -0.005861 0.029364
#
#
# Mechanical properties :
#
#
# Convention : Reuss Voigt Hill
#
# Bulk Modulus (GPa) = 50.81279 79.87703 65.34491
# Shear Modulus (GPa) = 36.07027 49.14205 42.60616
#
# Velocity S-wave (km/s) = 3.74538 4.37168 4.07060
# Velocity P-wave (km/s) = 6.20203 7.51975 6.89246
#
# Compressibility (1/GPa) = 0.01968008
#
# Stress axis : x y z
#
# Youngs Moduli (GPa) = 66.40432 114.37271 90.64395
#
# Poissons Ratio (x) = 0.49955 -0.15943
# Poissons Ratio (y) = 0.29004 0.45036
# Poissons Ratio (z) = -0.11679 0.56825
#
# Static dielectric constant tensor:
#      x y z
#    x 2.155350 -0.048010 0.011260 
#    y -0.048010 2.076250 0.073430 
#    z 0.011260 0.073430 2.070630 
# 
# From -- ./inp_files/271796.got.cif
#   From: 2010.05.17/outbox.cif.g08.bks.cpg/sg2_136_cif.got.tgz:271796.got - 2010.06.03 11:33:40.
