data_PCOD9067911
_publ_section_title
;
Structure prediction by ZEFSAII (Michael W. Deem and Ramdas Pophale) SiO2 
 PCOD9067911
Probable space group: P -1
;
_chemical_formula_sum "Si O2"
_cell_formula_units_Z 14
_cell_length_a 9.322321
_cell_length_b 8.463111
_cell_length_c 17.106844
_cell_angle_alpha 34.521218
_cell_angle_beta 121.760692
_cell_angle_gamma 124.482930
_cell_volume 625.270611
_symmetry_space_group_name_H-M "P -1"
_symmetry_group_IT_number 2
_symmetry_cell_setting 'triclinic'
loop_
_space_group_symop_operation_xyz
x,y,z
-x,-y,-z
loop_
_atom_site_type_symbol
_atom_site_label
_atom_site_fract_x
_atom_site_fract_y
_atom_site_fract_z
Si Si1 0.035767 0.337253 0.847434
Si Si2 0.576101 0.647581 0.043328
Si Si3 0.476603 0.623896 0.702327
Si Si4 0.902410 0.043125 0.322876
Si Si5 0.779129 0.198087 0.540743
Si Si6 0.215029 0.520111 0.405768
Si Si7 0.494702 0.202084 0.742812
O O1 0.242812 0.424578 0.860484
O O2 0.017934 0.611046 0.783352
O O3 0.919699 0.353795 0.732637
O O4 0.000000 0.000000 0.000000
O O5 0.483906 0.539098 0.142804
O O6 0.500000 0.500000 0.000000
O O7 0.590812 0.981394 0.897989
O O8 0.281756 0.655508 0.612950
O O9 0.515795 0.463048 0.702143
O O10 0.610428 0.936591 0.618601
O O11 0.843631 0.831330 0.468519
O O12 0.711377 0.970080 0.255284
O O13 0.055272 0.927228 0.374263
O O14 0.797757 0.398716 0.540516
O O15 0.403068 0.672175 0.358522
#
# Coordination Sequence:
#
# PCOD9067911 Si02
#       7
#     2   2   2   2   2   2   2
#     4  12  27  46  74 105 149 194 250 300 367 436
#     4  12  25  48  72 104 147 199 245 304 370 442
#     4  11  26  46  73 105 149 196 243 309 368 436
#     4  12  26  46  74 111 147 194 245 309 368 433
#     4  11  26  46  74 111 149 190 251 306 368 435
#     4  12  25  48  78 108 150 196 246 305 366 444
#     4  12  25  46  75 108 149 194 248 298 373 438
#
# _framework density 22.390305999999999
#
# number of rings (size 3 to 8) (size 9 to 14) (size 15 to 20)
#    0.000    0.286    4.286    4.286    2.000    1.143 
#    0.000    1.429    0.000    0.000    0.000    0.000 
#    0.000    0.000    0.000    0.000    0.000    0.000 
#
# Total GULP energy -78127.205004 kJ/mol
# GULP energy per Si atom -5580.514643 kJ/mol
# Density = 2.233934 g / cm^3
# Si number density = 22.390306 Si / 1000 Ang^3
#
#
#
# Elastic Constant Matrix: (Units=GPa)
#
#
# Indices 1 2 3 4 5 6 
#
# 1 87.4123 29.2968 19.6785 7.7278 12.3488 -3.7930
# 2 29.2968 126.6822 46.9595 -2.6716 3.5765 1.4788
# 3 19.6785 46.9595 129.9038 10.9481 0.9226 -21.9858
# 4 7.7278 -2.6716 10.9481 50.0360 1.2646 14.1577
# 5 12.3488 3.5765 0.9226 1.2646 36.9278 0.1912
# 6 -3.7930 1.4788 -21.9858 14.1577 0.1912 20.0623
#
#
#
# Elastic Compliance Matrix: (Units=1/GPa)
#
#
# Indices 1 2 3 4 5 6 
#
# 1 0.013694 -0.003469 0.000682 -0.004213 -0.004151 0.006605
# 2 -0.003469 0.011250 -0.006161 0.006014 0.000083 -0.012482
# 3 0.000682 -0.006161 0.014815 -0.010545 0.000234 0.024258
# 4 -0.004213 0.006014 -0.010545 0.033590 0.000129 -0.036501
# 5 -0.004151 0.000083 0.000234 0.000129 0.028454 -0.000896
# 6 0.006605 -0.012482 0.024258 -0.036501 -0.000896 0.104364
#
#
# Mechanical properties :
#
#
# Convention : Reuss Voigt Hill
#
# Bulk Modulus (GPa) = 45.73981 59.54089 52.64035
# Shear Modulus (GPa) = 21.61220 37.94278 29.77749
#
# Velocity S-wave (km/s) = 3.11021 4.12103 3.65077
# Velocity P-wave (km/s) = 5.77673 7.02096 6.42902
#
# Compressibility (1/GPa) = 0.02186279
#
# Stress axis : x y z
#
# Youngs Moduli (GPa) = 73.02216 88.88826 67.50060
#
# Poissons Ratio (x) = 0.30831 -0.04602
# Poissons Ratio (y) = 0.25328 0.41590
# Poissons Ratio (z) = -0.04978 0.54768
#
# Static dielectric constant tensor:
#      x y z
#    x 1.955060 -0.054080 -0.015620 
#    y -0.054080 1.902630 0.026400 
#    z -0.015620 0.026400 1.853360 
# 
# From -- ./inp_files/242606.got.cif
#   From: 2010.05.17/outbox.cif.g08.bks.cpg/sg2_122_cif.got.tgz:242606.got - 2010.06.03 11:33:40.
