data_PCOD9067241
_publ_section_title
;
Structure prediction by ZEFSAII (Michael W. Deem and Ramdas Pophale) SiO2 
 PCOD9067241
Probable space group: P -1
;
_chemical_formula_sum "Si O2"
_cell_formula_units_Z 13
_cell_length_a 11.598941
_cell_length_b 10.219084
_cell_length_c 13.641152
_cell_angle_alpha 147.122553
_cell_angle_beta 135.697039
_cell_angle_gamma 39.649239
_cell_volume 548.832037
_symmetry_space_group_name_H-M "P -1"
_symmetry_group_IT_number 2
_symmetry_cell_setting 'triclinic'
loop_
_space_group_symop_operation_xyz
x,y,z
-x,-y,-z
loop_
_atom_site_type_symbol
_atom_site_label
_atom_site_fract_x
_atom_site_fract_y
_atom_site_fract_z
Si Si1 0.189338 0.135079 0.125916
Si Si2 0.797144 0.376724 0.092354
Si Si3 0.635872 0.113393 0.112190
Si Si4 0.573225 0.999102 0.362632
Si Si5 0.691298 0.334852 0.785931
Si Si6 0.828428 0.992943 0.339667
Si Si7 0.000000 0.500000 0.000000
O O1 0.359888 0.129597 0.285602
O O2 0.188777 0.847265 0.962543
O O3 0.221548 0.127244 0.022577
O O4 0.998907 0.361850 0.191927
O O5 0.649537 0.677057 0.215071
O O6 0.759581 0.274745 0.900890
O O7 0.496158 0.384772 0.146605
O O8 0.741713 0.171912 0.302550
O O9 0.500000 0.000000 0.000000
O O10 0.671703 0.051677 0.360977
O O11 0.632454 0.120946 0.567133
O O12 0.849262 0.360389 0.832117
O O13 0.892185 0.698687 0.148845
O O14 0.000000 0.000000 0.500000
#
# Coordination Sequence:
#
# PCOD9067241 Si02
#       7
#     2   2   2   2   2   2   1
#     4  11  25  48  75 101 139 189 233 290 349 421
#     4  11  25  50  73  99 143 187 233 291 352 404
#     4  12  23  44  70 101 140 184 232 286 356 413
#     4  12  25  45  71 105 140 184 236 289 347 417
#     4  12  26  42  72 104 138 189 227 294 345 419
#     4  12  25  41  68 102 136 186 226 290 349 411
#     4  12  20  42  66  98 142 174 232 280 348 406
#
# _framework density 23.686662999999999
#
# number of rings (size 3 to 8) (size 9 to 14) (size 15 to 20)
#    0.000    0.308    7.692    1.385    0.000    2.462 
#    0.000    1.538    0.000    0.000    0.000    0.000 
#    0.000    0.000    0.000    0.000    0.000    0.000 
#
# Total GULP energy -72590.983690 kJ/mol
# GULP energy per Si atom -5583.921822 kJ/mol
# Density = 2.363275 g / cm^3
# Si number density = 23.686663 Si / 1000 Ang^3
#
#
#
# Elastic Constant Matrix: (Units=GPa)
#
#
# Indices 1 2 3 4 5 6 
#
# 1 69.1013 2.9579 7.3980 -8.8444 6.4482 -12.4812
# 2 2.9579 63.9931 16.0814 -27.3091 1.4021 -18.9933
# 3 7.3980 16.0814 136.1164 -23.6707 -4.3418 -11.5171
# 4 -8.8444 -27.3091 -23.6707 38.3264 -12.6785 7.7893
# 5 6.4482 1.4021 -4.3418 -12.6785 25.1964 -0.9565
# 6 -12.4812 -18.9933 -11.5171 7.7893 -0.9565 39.1886
#
#
#
# Elastic Compliance Matrix: (Units=1/GPa)
#
#
# Indices 1 2 3 4 5 6 
#
# 1 0.016039 0.002467 -0.000167 0.003470 -0.002315 0.005509
# 2 0.002467 0.027482 0.001689 0.022305 0.009749 0.010406
# 3 -0.000167 0.001689 0.008917 0.008159 0.005663 0.001902
# 4 0.003470 0.022305 0.008159 0.056215 0.027708 0.003816
# 5 -0.002315 0.009749 0.005663 0.027708 0.054713 0.001480
# 6 0.005509 0.010406 0.001902 0.003816 0.001480 0.032152
#
#
# Mechanical properties :
#
#
# Convention : Reuss Voigt Hill
#
# Bulk Modulus (GPa) = 16.55195 35.78725 26.16960
# Shear Modulus (GPa) = 24.07588 36.72718 30.40153
#
# Velocity S-wave (km/s) = 3.19161 3.94196 3.58647
# Velocity P-wave (km/s) = 4.53706 5.98834 5.31249
#
# Compressibility (1/GPa) = 0.06041583
#
# Stress axis : x y z
#
# Youngs Moduli (GPa) = 62.34775 36.38797 112.15073
#
# Poissons Ratio (x) = -0.08979 0.01878
# Poissons Ratio (y) = -0.15384 -0.18946
# Poissons Ratio (z) = 0.01044 -0.06147
#
# Static dielectric constant tensor:
#      x y z
#    x 1.986710 0.044570 -0.016160 
#    y 0.044570 1.763950 -0.095140 
#    z -0.016160 -0.095140 1.885200 
# 
# From -- ./inp_files/518483.got.cif
#   From: 2010.05.17/outbox.cif.g08.bks.cpg/sg2_260_cif.got.tgz:518483.got - 2010.06.03 11:33:40.
