data_PCOD9067036
_publ_section_title
;
Structure prediction by ZEFSAII (Michael W. Deem and Ramdas Pophale) SiO2 
 PCOD9067036
Probable space group: P -1
;
_chemical_formula_sum "Si O2"
_cell_formula_units_Z 16
_cell_length_a 12.017006
_cell_length_b 5.074715
_cell_length_c 20.624957
_cell_angle_alpha 68.341695
_cell_angle_beta 140.800355
_cell_angle_gamma 94.285593
_cell_volume 689.371914
_symmetry_space_group_name_H-M "P -1"
_symmetry_group_IT_number 2
_symmetry_cell_setting 'triclinic'
loop_
_space_group_symop_operation_xyz
x,y,z
-x,-y,-z
loop_
_atom_site_type_symbol
_atom_site_label
_atom_site_fract_x
_atom_site_fract_y
_atom_site_fract_z
Si Si1 0.337816 0.559067 0.246808
Si Si2 0.753693 0.563775 0.414604
Si Si3 0.797729 0.757753 0.896137
Si Si4 0.575801 0.585770 0.920796
Si Si5 0.024628 0.469155 0.351912
Si Si6 0.672318 0.061532 0.106369
Si Si7 0.366545 0.341682 0.421321
Si Si8 0.231967 0.785980 0.673298
O O1 0.548498 0.564038 0.340256
O O2 0.322707 0.312646 0.210829
O O3 0.292833 0.486068 0.305353
O O4 0.205996 0.902021 0.139281
O O5 0.883153 0.482562 0.543598
O O6 0.823915 0.324240 0.409963
O O7 0.258903 0.104868 0.646682
O O8 0.707720 0.715507 0.927688
O O9 0.000000 0.500000 0.000000
O O10 0.435018 0.530478 0.808712
O O11 0.418601 0.805784 0.877888
O O12 0.698056 0.314583 0.047271
O O13 0.193001 0.357875 0.387094
O O14 0.860068 0.773191 0.225755
O O15 0.920430 0.233864 0.341944
O O16 0.500000 0.000000 0.000000
O O17 0.500000 0.500000 0.500000
O O18 0.500000 0.000000 0.500000
#
# Coordination Sequence:
#
# PCOD9067036 Si02
#       8
#     2   2   2   2   2   2   2   2
#     4  12  25  51  75 111 150 205 250 323 391 448
#     4  12  25  46  78 112 153 192 251 313 391 456
#     4  12  28  48  80 110 150 199 267 319 384 457
#     4  11  25  47  76 105 155 200 248 313 397 442
#     4  12  28  48  79 112 157 204 265 309 397 472
#     4  11  26  48  72 109 153 201 249 316 381 466
#     4  12  29  51  76 108 158 206 258 316 382 466
#     4  12  25  47  76 117 150 194 248 322 384 459
#
# _framework density 23.209534999999999
#
# number of rings (size 3 to 8) (size 9 to 14) (size 15 to 20)
#    0.000    0.250    5.000    2.625    5.250    4.000 
#    0.000    0.000    0.000    0.000    0.000    0.000 
#    0.000    0.000    0.000    0.000    0.000    0.000 
#
# Total GULP energy -89666.731698 kJ/mol
# GULP energy per Si atom -5604.170731 kJ/mol
# Density = 2.315671 g / cm^3
# Si number density = 23.209535 Si / 1000 Ang^3
#
#
#
# Elastic Constant Matrix: (Units=GPa)
#
#
# Indices 1 2 3 4 5 6 
#
# 1 174.8190 32.9002 44.0940 -12.3459 -14.3681 -2.0846
# 2 32.9002 105.2386 20.7096 -6.9219 -12.2369 3.2029
# 3 44.0940 20.7096 126.5063 -15.2938 -1.7614 -1.7441
# 4 -12.3459 -6.9219 -15.2938 43.4525 0.1572 -2.1821
# 5 -14.3681 -12.2369 -1.7614 0.1572 45.1314 -0.5677
# 6 -2.0846 3.2029 -1.7441 -2.1821 -0.5677 25.2942
#
#
#
# Elastic Compliance Matrix: (Units=1/GPa)
#
#
# Indices 1 2 3 4 5 6 
#
# 1 0.006704 -0.001476 -0.001939 0.001018 0.001664 0.000731
# 2 -0.001476 0.010546 -0.001103 0.000793 0.002326 -0.001413
# 3 -0.001939 -0.001103 0.009068 0.002508 -0.000561 0.000809
# 4 0.001018 0.000793 0.002508 0.024424 0.000581 0.002276
# 5 0.001664 0.002326 -0.000561 0.000581 0.023299 0.000377
# 6 0.000731 -0.001413 0.000809 0.002276 0.000377 0.040034
#
#
# Mechanical properties :
#
#
# Convention : Reuss Voigt Hill
#
# Bulk Modulus (GPa) = 57.86380 66.88571 62.37475
# Shear Modulus (GPa) = 38.79792 43.36630 41.08211
#
# Velocity S-wave (km/s) = 4.09300 4.32727 4.21176
# Velocity P-wave (km/s) = 6.87910 7.33810 7.11231
#
# Compressibility (1/GPa) = 0.01728196
#
# Stress axis : x y z
#
# Youngs Moduli (GPa) = 149.15504 94.81896 110.28253
#
# Poissons Ratio (x) = 0.13997 0.21382
# Poissons Ratio (y) = 0.22018 0.12166
# Poissons Ratio (z) = 0.28919 0.10460
#
# Static dielectric constant tensor:
#      x y z
#    x 1.860390 -0.006380 -0.032450 
#    y -0.006380 1.904500 0.014330 
#    z -0.032450 0.014330 1.968230 
# 
# From -- ./inp_files/592749.got.cif
#   From: 2010.05.17/outbox.cif.g08.bks.cpg/sg2_297_cif.got.tgz:592749.got - 2010.06.03 11:33:40.
