data_PCOD9067858
_publ_section_title
;
Structure prediction by ZEFSAII (Michael W. Deem and Ramdas Pophale) SiO2 
 PCOD9067858
Probable space group: P -1
;
_chemical_formula_sum "Si O2"
_cell_formula_units_Z 16
_cell_length_a 19.313392
_cell_length_b 9.185141
_cell_length_c 15.483008
_cell_angle_alpha 38.844201
_cell_angle_beta 152.910799
_cell_angle_gamma 140.549193
_cell_volume 754.063176
_symmetry_space_group_name_H-M "P -1"
_symmetry_group_IT_number 2
_symmetry_cell_setting 'triclinic'
loop_
_space_group_symop_operation_xyz
x,y,z
-x,-y,-z
loop_
_atom_site_type_symbol
_atom_site_label
_atom_site_fract_x
_atom_site_fract_y
_atom_site_fract_z
Si Si1 0.594050 0.449988 0.209936
Si Si2 0.378868 0.052847 0.273090
Si Si3 0.329691 0.022445 0.886942
Si Si4 0.332142 0.077682 0.670868
Si Si5 0.120476 0.616472 0.946281
Si Si6 0.902284 0.769210 0.050412
Si Si7 0.778807 0.487461 0.712055
Si Si8 0.114689 0.695540 0.476465
O O1 0.483498 0.216413 0.240600
O O2 0.624763 0.689137 0.190506
O O3 0.760040 0.411640 0.384789
O O4 0.500000 0.500000 0.000000
O O5 0.500000 0.000000 0.500000
O O6 0.277570 0.793255 0.246580
O O7 0.265393 0.195637 0.124265
O O8 0.270388 0.973402 0.745273
O O9 0.206613 0.886563 0.885333
O O10 0.488410 0.941395 0.119486
O O11 0.221517 0.912636 0.552331
O O12 0.327536 0.349664 0.518917
O O13 0.111988 0.456057 0.925004
O O14 0.949805 0.596629 0.807151
O O15 0.208280 0.515006 0.168243
O O16 0.002380 0.765363 0.249247
O O17 0.000000 0.000000 0.000000
O O18 0.000000 0.500000 0.500000
#
# Coordination Sequence:
#
# PCOD9067858 Si02
#       8
#     2   2   2   2   2   2   2   2
#     4  12  25  47  71 104 142 185 239 288 354 414
#     4  12  27  47  73 104 141 187 238 295 350 423
#     4  11  26  46  72 103 143 187 232 292 353 419
#     4  11  26  46  69 106 141 185 237 288 356 418
#     4  11  26  46  70 103 141 187 232 292 355 419
#     4  12  25  47  71 102 142 187 241 289 353 417
#     4  11  26  47  70 104 142 186 234 290 355 417
#     4  12  27  46  72 105 141 189 237 293 351 421
#
# _framework density 21.218381999999998
#
# number of rings (size 3 to 8) (size 9 to 14) (size 15 to 20)
#    0.000    0.500    2.500    4.500   10.500    1.000 
#    0.000    0.000    0.000    0.000    0.000    0.000 
#    0.000    0.000    0.000    0.000    0.000    0.000 
#
# Total GULP energy -89544.606351 kJ/mol
# GULP energy per Si atom -5596.537897 kJ/mol
# Density = 2.117009 g / cm^3
# Si number density = 21.218382 Si / 1000 Ang^3
#
#
#
# Elastic Constant Matrix: (Units=GPa)
#
#
# Indices 1 2 3 4 5 6 
#
# 1 95.2245 14.4464 52.9242 -1.6572 -18.6067 19.8109
# 2 14.4464 50.9784 4.7286 -9.8004 -16.3119 15.8867
# 3 52.9242 4.7286 125.0813 2.4626 -20.2797 3.1748
# 4 -1.6572 -9.8004 2.4626 28.9009 -3.6209 -8.0706
# 5 -18.6067 -16.3119 -20.2797 -3.6209 47.4217 0.5666
# 6 19.8109 15.8867 3.1748 -8.0706 0.5666 55.1230
#
#
#
# Elastic Compliance Matrix: (Units=1/GPa)
#
#
# Indices 1 2 3 4 5 6 
#
# 1 0.015649 -0.001325 -0.005926 -0.000024 0.003208 -0.004938
# 2 -0.001325 0.026533 0.001138 0.008345 0.009804 -0.006115
# 3 -0.005926 0.001138 0.010870 -0.000233 0.002684 0.001114
# 4 -0.000024 0.008345 -0.000233 0.039080 0.005706 0.003280
# 5 0.003208 0.009804 0.002684 0.005706 0.027345 -0.003579
# 6 -0.004938 -0.006115 0.001114 0.003280 -0.003579 0.022131
#
#
# Mechanical properties :
#
#
# Convention : Reuss Voigt Hill
#
# Bulk Modulus (GPa) = 24.49274 46.16474 35.32874
# Shear Modulus (GPa) = 29.86087 39.56811 34.71449
#
# Velocity S-wave (km/s) = 3.75548 4.32302 4.04921
# Velocity P-wave (km/s) = 5.51118 6.83536 6.20868
#
# Compressibility (1/GPa) = 0.04082842
#
# Stress axis : x y z
#
# Youngs Moduli (GPa) = 63.89987 37.68879 91.99209
#
# Poissons Ratio (x) = 0.04992 0.54511
# Poissons Ratio (y) = 0.08464 -0.10467
# Poissons Ratio (z) = 0.37865 -0.04288
#
# Static dielectric constant tensor:
#      x y z
#    x 1.874010 -0.115250 0.045830 
#    y -0.115250 1.832380 -0.010790 
#    z 0.045830 -0.010790 1.748350 
# 
# From -- ./inp_files/537590.got.cif
#   From: 2010.05.17/outbox.cif.g08.bks.cpg/sg2_269_cif.got.tgz:537590.got - 2010.06.03 11:33:40.
