data_PCOD9067980
_publ_section_title
;
Structure prediction by ZEFSAII (Michael W. Deem and Ramdas Pophale) SiO2 
 PCOD9067980
Probable space group: P -1
;
_chemical_formula_sum "Si O2"
_cell_formula_units_Z 12
_cell_length_a 4.878610
_cell_length_b 6.865761
_cell_length_c 20.585934
_cell_angle_alpha 91.608033
_cell_angle_beta 105.043509
_cell_angle_gamma 48.920980
_cell_volume 492.250401
_symmetry_space_group_name_H-M "P -1"
_symmetry_group_IT_number 2
_symmetry_cell_setting 'triclinic'
loop_
_space_group_symop_operation_xyz
x,y,z
-x,-y,-z
loop_
_atom_site_type_symbol
_atom_site_label
_atom_site_fract_x
_atom_site_fract_y
_atom_site_fract_z
Si Si1 0.950490 0.249845 0.509097
Si Si2 0.010936 0.517708 0.612694
Si Si3 0.950489 0.749845 0.009097
Si Si4 0.389502 0.469557 0.294982
Si Si5 0.989063 0.982293 0.887306
Si Si6 0.610503 0.030438 0.205018
O O1 0.500000 0.500000 0.500000
O O2 0.078703 0.301857 0.452181
O O3 0.166666 0.251255 0.583392
O O4 0.000000 0.000000 0.500000
O O5 0.302627 0.502579 0.675158
O O6 0.678150 0.599235 0.640063
O O7 0.078703 0.801857 0.952181
O O8 0.166666 0.751255 0.083392
O O9 0.000000 0.500000 0.000000
O O10 0.500000 0.000000 0.000000
O O11 0.500006 0.249995 0.250001
O O12 0.000003 0.749996 0.249999
O O13 0.697371 0.997422 0.824842
O O14 0.321849 0.900766 0.859937
#
# Coordination Sequence:
#
# PCOD9067980 Si02
#       6
#     2   2   2   2   2   2
#     4  11  26  46  77 107 141 186 232 308 355 417
#     4  11  26  50  74 108 144 185 244 292 360 421
#     4  11  26  46  77 107 141 186 232 308 355 417
#     4  12  28  47  74 103 146 194 236 290 350 426
#     4  11  26  50  74 108 144 185 244 292 360 421
#     4  12  28  47  74 103 146 194 236 290 350 426
#
# _framework density 24.377835999999999
#
# number of rings (size 3 to 8) (size 9 to 14) (size 15 to 20)
#    0.000    0.667    3.333    2.000    4.667   10.667 
#    0.000    0.000    0.000    0.000    0.000    0.000 
#    0.000    0.000    0.000    0.000    0.000    0.000 
#
# Total GULP energy -67257.041578 kJ/mol
# GULP energy per Si atom -5604.753465 kJ/mol
# Density = 2.432235 g / cm^3
# Si number density = 24.377836 Si / 1000 Ang^3
#
#
#
# Elastic Constant Matrix: (Units=GPa)
#
#
# Indices 1 2 3 4 5 6 
#
# 1 101.9520 42.5489 12.7567 9.9994 -9.8259 24.8278
# 2 42.5489 238.7340 69.4100 38.7898 1.7355 29.9361
# 3 12.7567 69.4100 104.0533 37.2862 -11.0834 6.9244
# 4 9.9994 38.7898 37.2862 51.3767 13.0120 9.5389
# 5 -9.8259 1.7355 -11.0834 13.0120 75.6284 10.5476
# 6 24.8278 29.9361 6.9244 9.5389 10.5476 45.8267
#
#
#
# Elastic Compliance Matrix: (Units=1/GPa)
#
#
# Indices 1 2 3 4 5 6 
#
# 1 0.012214 -0.001384 0.000616 -0.001343 0.002801 -0.006171
# 2 -0.001384 0.005852 -0.003092 -0.001433 -0.000205 -0.002260
# 3 0.000616 -0.003092 0.015710 -0.010335 0.004161 0.000506
# 4 -0.001343 -0.001433 -0.010335 0.030280 -0.006650 -0.001547
# 5 0.002801 -0.000205 0.004161 -0.006650 0.015944 -0.004297
# 6 -0.006171 -0.002260 0.000506 -0.001547 -0.004297 0.027876
#
#
# Mechanical properties :
#
#
# Convention : Reuss Voigt Hill
#
# Bulk Modulus (GPa) = 38.37887 77.13006 57.75446
# Shear Modulus (GPa) = 40.23134 55.90128 48.06631
#
# Velocity S-wave (km/s) = 4.06683 4.79385 4.44522
# Velocity P-wave (km/s) = 6.15058 7.89616 7.07739
#
# Compressibility (1/GPa) = 0.02605601
#
# Stress axis : x y z
#
# Youngs Moduli (GPa) = 81.87635 170.87453 63.65221
#
# Poissons Ratio (x) = 0.23655 -0.03922
# Poissons Ratio (y) = 0.11334 0.19681
# Poissons Ratio (z) = -0.05045 0.52833
#
# Static dielectric constant tensor:
#      x y z
#    x 1.934270 -0.014830 0.063590 
#    y -0.014830 1.936210 -0.023730 
#    z 0.063590 -0.023730 1.989320 
# 
# From -- ./inp_files/101734.got.cif
#   From: 2010.05.17/outbox.cif.g08.bks.cpg/sg2_51_cif.got.tgz:101734.got - 2010.06.03 11:33:40.
