data_PCOD9067633
_publ_section_title
;
Structure prediction by ZEFSAII (Michael W. Deem and Ramdas Pophale) SiO2 
 PCOD9067633
Probable space group: P -1
;
_chemical_formula_sum "Si O2"
_cell_formula_units_Z 13
_cell_length_a 16.334200
_cell_length_b 11.061085
_cell_length_c 5.451913
_cell_angle_alpha 99.432988
_cell_angle_beta 106.821184
_cell_angle_gamma 33.001778
_cell_volume 507.649854
_symmetry_space_group_name_H-M "P -1"
_symmetry_group_IT_number 2
_symmetry_cell_setting 'triclinic'
loop_
_space_group_symop_operation_xyz
x,y,z
-x,-y,-z
loop_
_atom_site_type_symbol
_atom_site_label
_atom_site_fract_x
_atom_site_fract_y
_atom_site_fract_z
Si Si1 0.691687 0.162118 0.926872
Si Si2 0.139161 0.595223 0.532419
Si Si3 0.903380 0.036903 0.732148
Si Si4 0.616888 0.799348 0.738059
Si Si5 0.668382 0.964993 0.201020
Si Si6 0.000000 0.500000 0.500000
Si Si7 0.651632 0.450983 0.312780
O O1 0.529515 0.329973 0.705064
O O2 0.675121 0.312819 0.096235
O O3 0.833253 0.007997 0.814213
O O4 0.705372 0.039485 0.097158
O O5 0.068089 0.559502 0.575374
O O6 0.004930 0.859100 0.537344
O O7 0.780259 0.549123 0.696003
O O8 0.760315 0.286163 0.581487
O O9 0.711596 0.507269 0.270219
O O10 0.000000 0.000000 0.000000
O O11 0.500000 0.000000 0.500000
O O12 0.502743 0.833126 0.760615
O O13 0.660902 0.854675 0.980748
O O14 0.815519 0.769972 0.441238
#
# Coordination Sequence:
#
# PCOD9067633 Si02
#       7
#     2   2   2   2   2   1   2
#     4  11  26  50  82 112 151 205 260 318 384 466
#     4  12  27  47  77 112 156 203 252 316 386 457
#     4  12  27  49  79 116 160 202 252 325 393 457
#     4  11  25  52  76 108 156 207 258 311 380 466
#     4  11  27  50  79 114 152 204 260 319 387 459
#     4  12  28  46  74 120 154 198 250 320 396 448
#     4  11  26  49  76 113 152 206 260 314 385 458
#
# _framework density 25.608201000000001
#
# number of rings (size 3 to 8) (size 9 to 14) (size 15 to 20)
#    0.000    0.615    3.077    2.769    6.462    8.000 
#    0.000    0.000    0.000    0.000    0.000    0.000 
#    0.000    0.000    0.000    0.000    0.000    0.000 
#
# Total GULP energy -72502.613109 kJ/mol
# GULP energy per Si atom -5577.124085 kJ/mol
# Density = 2.554992 g / cm^3
# Si number density = 25.608201 Si / 1000 Ang^3
#
#
#
# Elastic Constant Matrix: (Units=GPa)
#
#
# Indices 1 2 3 4 5 6 
#
# 1 205.9937 43.6307 20.5232 4.0876 31.3050 8.4438
# 2 43.6307 100.6474 24.7025 21.2260 6.0527 0.9699
# 3 20.5232 24.7025 72.4903 -2.3882 26.7107 -0.2852
# 4 4.0876 21.2260 -2.3882 48.3669 6.3723 6.6529
# 5 31.3050 6.0527 26.7107 6.3723 42.6719 9.0618
# 6 8.4438 0.9699 -0.2852 6.6529 9.0618 52.4083
#
#
#
# Elastic Compliance Matrix: (Units=1/GPa)
#
#
# Indices 1 2 3 4 5 6 
#
# 1 0.006096 -0.002946 0.001150 0.001522 -0.004946 -0.000259
# 2 -0.002946 0.013785 -0.005871 -0.006758 0.004846 0.000208
# 3 0.001150 -0.005871 0.020898 0.005134 -0.014251 0.001850
# 4 0.001522 -0.006758 0.005134 0.024932 -0.006647 -0.002108
# 5 -0.004946 0.004846 -0.014251 -0.006647 0.037347 -0.004984
# 6 -0.000259 0.000208 0.001850 -0.002108 -0.004984 0.020258
#
#
# Mechanical properties :
#
#
# Convention : Reuss Voigt Hill
#
# Bulk Modulus (GPa) = 39.30091 61.87158 50.58624
# Shear Modulus (GPa) = 33.98302 48.04107 41.01204
#
# Velocity S-wave (km/s) = 3.64680 4.33598 4.00624
# Velocity P-wave (km/s) = 5.75435 7.02004 6.41847
#
# Compressibility (1/GPa) = 0.02544470
#
# Stress axis : x y z
#
# Youngs Moduli (GPa) = 164.04204 72.54076 47.85208
#
# Poissons Ratio (x) = 0.21368 -0.05501
# Poissons Ratio (y) = 0.48322 0.28094
# Poissons Ratio (z) = -0.18857 0.42589
#
# Static dielectric constant tensor:
#      x y z
#    x 2.004390 -0.008170 -0.058890 
#    y -0.008170 2.005450 0.005660 
#    z -0.058890 0.005660 2.059500 
# 
# From -- ./inp_files/108153.got.cif
#   From: 2010.05.17/outbox.cif.g08.bks.cpg/sg2_55_cif.got.tgz:108153.got - 2010.06.03 11:33:40.
