data_PCOD9068311
_publ_section_title
;
Structure prediction by ZEFSAII (Michael W. Deem and Ramdas Pophale) SiO2 
 PCOD9068311
Probable space group: P -1
;
_chemical_formula_sum "Si O2"
_cell_formula_units_Z 14
_cell_length_a 12.880816
_cell_length_b 5.111128
_cell_length_c 12.178532
_cell_angle_alpha 104.405741
_cell_angle_beta 52.179354
_cell_angle_gamma 112.626984
_cell_volume 584.512284
_symmetry_space_group_name_H-M "P -1"
_symmetry_group_IT_number 2
_symmetry_cell_setting 'triclinic'
loop_
_space_group_symop_operation_xyz
x,y,z
-x,-y,-z
loop_
_atom_site_type_symbol
_atom_site_label
_atom_site_fract_x
_atom_site_fract_y
_atom_site_fract_z
Si Si1 0.777239 0.903379 0.196782
Si Si2 0.939853 0.125821 0.905402
Si Si3 0.314926 0.918643 0.504076
Si Si4 0.901273 0.195299 0.563985
Si Si5 0.847578 0.492860 0.841242
Si Si6 0.475872 0.460206 0.340840
Si Si7 0.466020 0.686454 0.945252
O O1 0.911445 0.809927 0.128864
O O2 0.754625 0.087590 0.333459
O O3 0.634464 0.651701 0.261164
O O4 0.820561 0.062136 0.069284
O O5 0.909137 0.832171 0.824267
O O6 0.937927 0.384056 0.857511
O O7 0.434376 0.214647 0.433401
O O8 0.205688 0.908003 0.476677
O O9 0.380082 0.663775 0.429979
O O10 0.831413 0.281334 0.726457
O O11 0.000000 0.500000 0.500000
O O12 0.000000 0.000000 0.500000
O O13 0.696415 0.434486 0.982500
O O14 0.454579 0.321783 0.219235
O O15 0.500000 0.500000 0.000000
O O16 0.500000 0.000000 0.000000
#
# Coordination Sequence:
#
# PCOD9068311 Si02
#       7
#     2   2   2   2   2   2   2
#     4  11  26  49  72 105 144 191 242 288 357 419
#     4  11  27  45  75 104 140 187 243 298 344 421
#     4  12  27  46  72 107 145 188 234 290 356 429
#     4  12  25  45  73 103 143 184 237 291 355 420
#     4  12  24  46  70 104 139 182 236 298 353 407
#     4  12  26  46  71 105 143 187 237 290 356 423
#     4  12  25  44  70 101 139 183 232 286 353 421
#
# _framework density 23.951592999999999
#
# number of rings (size 3 to 8) (size 9 to 14) (size 15 to 20)
#    0.000    0.286    1.429    7.714    2.000    5.714 
#    0.000    0.000    0.000    0.000    0.000    0.000 
#    0.000    0.000    0.000    0.000    0.000    0.000 
#
# Total GULP energy -78482.561865 kJ/mol
# GULP energy per Si atom -5605.897276 kJ/mol
# Density = 2.389708 g / cm^3
# Si number density = 23.951593 Si / 1000 Ang^3
#
#
#
# Elastic Constant Matrix: (Units=GPa)
#
#
# Indices 1 2 3 4 5 6 
#
# 1 60.6051 23.2442 10.9081 18.3691 -2.5530 7.0529
# 2 23.2442 117.6478 38.0048 20.0819 -10.1923 -12.3839
# 3 10.9081 38.0048 163.7748 28.3714 13.4906 -0.1826
# 4 18.3691 20.0819 28.3714 37.5590 8.3809 -5.8746
# 5 -2.5530 -10.1923 13.4906 8.3809 33.5279 1.8022
# 6 7.0529 -12.3839 -0.1826 -5.8746 1.8022 45.7250
#
#
#
# Elastic Compliance Matrix: (Units=1/GPa)
#
#
# Indices 1 2 3 4 5 6 
#
# 1 0.021755 -0.002935 0.000917 -0.011461 0.003570 -0.005760
# 2 -0.002935 0.011076 -0.002160 -0.003470 0.004729 0.002812
# 3 0.000917 -0.002160 0.007547 -0.004647 -0.002397 -0.001199
# 4 -0.011461 -0.003470 -0.004647 0.040989 -0.010653 0.006495
# 5 0.003570 0.004729 -0.002397 -0.010653 0.035272 -0.002038
# 6 -0.005760 0.002812 -0.001199 0.006495 -0.002038 0.024430
#
#
# Mechanical properties :
#
#
# Convention : Reuss Voigt Hill
#
# Bulk Modulus (GPa) = 31.22854 54.03798 42.63326
# Shear Modulus (GPa) = 31.23057 41.35374 36.29216
#
# Velocity S-wave (km/s) = 3.61488 4.15969 3.89682
# Velocity P-wave (km/s) = 5.52174 6.75877 6.17133
#
# Compressibility (1/GPa) = 0.03202199
#
# Stress axis : x y z
#
# Youngs Moduli (GPa) = 45.96561 90.28866 132.49762
#
# Poissons Ratio (x) = 0.26503 -0.12151
# Poissons Ratio (y) = 0.13492 0.28618
# Poissons Ratio (z) = -0.04215 0.19501
#
# Static dielectric constant tensor:
#      x y z
#    x 3.954830 -0.106610 3.749230 
#    y -0.106610 1.901320 -0.244740 
#    z 3.749230 -0.244740 8.594260 
# 
# From -- ./inp_files/127267.got.cif
#   From: 2010.05.17/outbox.cif.g08.bks.cpg/sg2_64_cif.got.tgz:127267.got - 2010.06.03 11:33:40.
