data_PCOD9068171
_publ_section_title
;
Structure prediction by ZEFSAII (Michael W. Deem and Ramdas Pophale) SiO2 
 PCOD9068171
Probable space group: P -1
;
_chemical_formula_sum "Si O2"
_cell_formula_units_Z 16
_cell_length_a 20.784462
_cell_length_b 17.805179
_cell_length_c 12.025608
_cell_angle_alpha 29.779125
_cell_angle_beta 140.008333
_cell_angle_gamma 160.498239
_cell_volume 700.622970
_symmetry_space_group_name_H-M "P -1"
_symmetry_group_IT_number 2
_symmetry_cell_setting 'triclinic'
loop_
_space_group_symop_operation_xyz
x,y,z
-x,-y,-z
loop_
_atom_site_type_symbol
_atom_site_label
_atom_site_fract_x
_atom_site_fract_y
_atom_site_fract_z
Si Si1 0.886568 0.106238 0.742160
Si Si2 0.336549 0.653433 0.708559
Si Si3 0.017689 0.881622 0.379120
Si Si4 0.605483 0.259919 0.940324
Si Si5 0.822467 0.379736 0.888916
Si Si6 0.612495 0.515198 0.803769
Si Si7 0.420229 0.086707 0.516380
Si Si8 0.326369 0.334840 0.777085
O O1 0.910213 0.023461 0.775028
O O2 0.105728 0.406617 0.704478
O O3 0.792578 0.135974 0.529246
O O4 0.721364 0.828836 0.967380
O O5 0.409962 0.682907 0.650603
O O6 0.500000 0.000000 0.500000
O O7 0.355909 0.560885 0.953798
O O8 0.887130 0.558916 0.636206
O O9 0.878333 0.839060 0.283038
O O10 0.205473 0.128530 0.394175
O O11 0.390225 0.981629 0.949853
O O12 0.596149 0.101049 0.213118
O O13 0.777224 0.443770 0.842420
O O14 0.629625 0.442219 0.808887
O O15 0.000000 0.500000 0.000000
O O16 0.402858 0.327541 0.789582
O O17 0.498630 0.312576 0.418564
#
# Coordination Sequence:
#
# PCOD9068171 Si02
#       8
#     2   2   2   2   2   2   2   2
#     4  12  23  39  69 102 141 190 230 265 334 418
#     4  12  24  41  61 100 150 185 229 278 331 402
#     4  12  24  43  71 100 139 181 233 282 336 407
#     4  11  26  48  71 100 140 171 232 297 340 400
#     4  11  26  50  78  99 125 182 236 283 355 415
#     4  12  26  43  66 106 143 179 224 286 343 401
#     4  12  22  41  70  98 140 189 225 273 339 411
#     4  12  23  40  68 102 139 184 224 270 339 417
#
# _framework density 22.836818000000001
#
# number of rings (size 3 to 8) (size 9 to 14) (size 15 to 20)
#    0.000    0.250    7.500    2.250    0.000    2.000 
#    2.250    1.250    0.000    0.000    0.000    0.000 
#    0.000    0.000    0.000    0.000    0.000    0.000 
#
# Total GULP energy -89558.788764 kJ/mol
# GULP energy per Si atom -5597.424298 kJ/mol
# Density = 2.278484 g / cm^3
# Si number density = 22.836818 Si / 1000 Ang^3
#
#
#
# Elastic Constant Matrix: (Units=GPa)
#
#
# Indices 1 2 3 4 5 6 
#
# 1 126.9308 34.5421 -5.9940 -1.5111 6.0640 6.2547
# 2 34.5421 85.3324 4.0135 5.2309 15.2982 28.2178
# 3 -5.9940 4.0135 34.8843 -1.8983 -2.6775 4.7287
# 4 -1.5111 5.2309 -1.8983 33.3643 -0.6425 12.2319
# 5 6.0640 15.2982 -2.6775 -0.6425 26.4119 -0.1240
# 6 6.2547 28.2178 4.7287 12.2319 -0.1240 38.7799
#
#
#
# Elastic Compliance Matrix: (Units=1/GPa)
#
#
# Indices 1 2 3 4 5 6 
#
# 1 0.009068 -0.004325 0.001985 0.000774 0.000649 0.001200
# 2 -0.004325 0.020122 -0.001879 0.001554 -0.010882 -0.014240
# 3 0.001985 -0.001879 0.030213 0.003549 0.003764 -0.003745
# 4 0.000774 0.001554 0.003549 0.034585 0.000064 -0.012597
# 5 0.000649 -0.010882 0.003764 0.000064 0.044434 0.007476
# 6 0.001200 -0.014240 -0.003745 -0.012597 0.007476 0.040408
#
#
# Mechanical properties :
#
#
# Convention : Reuss Voigt Hill
#
# Bulk Modulus (GPa) = 19.62060 34.69675 27.15868
# Shear Modulus (GPa) = 24.47908 34.01695 29.24802
#
# Velocity S-wave (km/s) = 3.27756 3.86368 3.58262
# Velocity P-wave (km/s) = 4.78889 5.92708 5.38813
#
# Compressibility (1/GPa) = 0.05096683
#
# Stress axis : x y z
#
# Youngs Moduli (GPa) = 110.27779 49.69593 33.09833
#
# Poissons Ratio (x) = 0.21492 -0.06570
# Poissons Ratio (y) = 0.47691 0.06218
# Poissons Ratio (z) = -0.21889 0.09336
#
# Static dielectric constant tensor:
#      x y z
#    x 1.864670 0.000300 -0.005430 
#    y 0.000300 1.866520 -0.002240 
#    z -0.005430 -0.002240 1.871960 
# 
# From -- ./inp_files/472347.got.cif
#   From: 2010.05.17/outbox.cif.g08.bks.cpg/sg2_237_cif.got.tgz:472347.got - 2010.06.03 11:33:40.
