data_PCOD9068402
_publ_section_title
;
Structure prediction by ZEFSAII (Michael W. Deem and Ramdas Pophale) SiO2 
 PCOD9068402
Probable space group: P -1
;
_chemical_formula_sum "Si O2"
_cell_formula_units_Z 12
_cell_length_a 8.783417
_cell_length_b 9.875186
_cell_length_c 9.595167
_cell_angle_alpha 40.583827
_cell_angle_beta 103.287775
_cell_angle_gamma 94.787307
_cell_volume 521.459535
_symmetry_space_group_name_H-M "P -1"
_symmetry_group_IT_number 2
_symmetry_cell_setting 'triclinic'
loop_
_space_group_symop_operation_xyz
x,y,z
-x,-y,-z
loop_
_atom_site_type_symbol
_atom_site_label
_atom_site_fract_x
_atom_site_fract_y
_atom_site_fract_z
Si Si1 0.380538 0.767189 0.861530
Si Si2 0.371117 0.666836 0.264870
Si Si3 0.879647 0.612614 0.495324
Si Si4 0.174890 0.079666 0.989240
Si Si5 0.874825 0.852701 0.556029
Si Si6 0.734907 0.648400 0.947029
O O1 0.551584 0.754138 0.837068
O O2 0.281164 0.996842 0.646844
O O3 0.406197 0.710917 0.075875
O O4 0.287562 0.595473 0.897075
O O5 0.500000 0.500000 0.500000
O O6 0.221081 0.544654 0.331522
O O7 0.311053 0.876923 0.177597
O O8 0.958486 0.712599 0.560112
O O9 0.000000 0.500000 0.500000
O O10 0.787641 0.799012 0.238150
O O11 0.185307 0.246298 0.986224
O O12 0.000000 0.000000 0.000000
O O13 0.825818 0.720104 0.777213
O O14 0.000000 0.000000 0.500000
#
# Coordination Sequence:
#
# PCOD9068402 Si02
#       6
#     2   2   2   2   2   2
#     4  11  26  50  72 109 150 197 247 304 373 447
#     4  12  27  46  75 107 147 197 251 304 372 440
#     4  12  26  46  71 106 147 189 248 303 364 445
#     4  12  26  47  75 110 149 197 250 310 374 442
#     4  12  27  45  76 109 147 194 244 306 376 442
#     4  11  27  46  76 106 150 193 246 306 371 444
#
# _framework density 23.012331
#
# number of rings (size 3 to 8) (size 9 to 14) (size 15 to 20)
#    0.000    0.333    5.000    2.500    4.667    4.667 
#    0.000    0.000    0.000    0.000    0.000    0.000 
#    0.000    0.000    0.000    0.000    0.000    0.000 
#
# Total GULP energy -67053.241926 kJ/mol
# GULP energy per Si atom -5587.770161 kJ/mol
# Density = 2.295995 g / cm^3
# Si number density = 23.012331 Si / 1000 Ang^3
#
#
#
# Elastic Constant Matrix: (Units=GPa)
#
#
# Indices 1 2 3 4 5 6 
#
# 1 68.8586 30.5298 4.0220 6.8748 -2.1983 -5.1892
# 2 30.5298 182.4565 8.7513 21.2682 -5.4401 -3.5380
# 3 4.0220 8.7513 35.4900 9.1407 -5.2230 -3.9002
# 4 6.8748 21.2682 9.1407 37.0731 -8.4942 -1.3453
# 5 -2.1983 -5.4401 -5.2230 -8.4942 37.6841 -5.5991
# 6 -5.1892 -3.5380 -3.9002 -1.3453 -5.5991 41.0757
#
#
#
# Elastic Compliance Matrix: (Units=1/GPa)
#
#
# Indices 1 2 3 4 5 6 
#
# 1 0.015912 -0.002442 -0.000622 -0.001223 0.000476 0.001766
# 2 -0.002442 0.006266 -0.000478 -0.003014 0.000030 0.000091
# 3 -0.000622 -0.000478 0.030806 -0.006368 0.003179 0.003030
# 4 -0.001223 -0.003014 -0.006368 0.031887 0.005922 0.000833
# 5 0.000476 0.000030 0.003179 0.005922 0.029015 0.004514
# 6 0.001766 0.000091 0.003030 0.000833 0.004514 0.025507
#
#
# Mechanical properties :
#
#
# Convention : Reuss Voigt Hill
#
# Bulk Modulus (GPa) = 21.78571 41.49014 31.63792
# Shear Modulus (GPa) = 30.90708 39.40004 35.15356
#
# Velocity S-wave (km/s) = 3.66876 4.14227 3.91269
# Velocity P-wave (km/s) = 5.23774 6.39895 5.84724
#
# Compressibility (1/GPa) = 0.04590165
#
# Stress axis : x y z
#
# Youngs Moduli (GPa) = 62.84653 159.58589 32.46104
#
# Poissons Ratio (x) = 0.38964 0.02019
# Poissons Ratio (y) = 0.15344 0.01551
# Poissons Ratio (z) = 0.03909 0.07623
#
# Static dielectric constant tensor:
#      x y z
#    x 1.833400 0.038790 0.085270 
#    y 0.038790 1.817350 -0.020460 
#    z 0.085270 -0.020460 1.873530 
# 
# From -- ./inp_files/72526.got.cif
#   From: 2010.05.17/outbox.cif.g08.bks.cpg/sg2_37_cif.got.tgz:72526.got - 2010.06.03 11:33:40.
