data_PCOD9068938
_publ_section_title
;
Structure prediction by ZEFSAII (Michael W. Deem and Ramdas Pophale) SiO2 
 PCOD9068938
Probable space group: P -1
;
_chemical_formula_sum "Si O2"
_cell_formula_units_Z 15
_cell_length_a 9.662944
_cell_length_b 8.262091
_cell_length_c 12.543075
_cell_angle_alpha 97.953328
_cell_angle_beta 106.502246
_cell_angle_gamma 50.620054
_cell_volume 740.962649
_symmetry_space_group_name_H-M "P -1"
_symmetry_group_IT_number 2
_symmetry_cell_setting 'triclinic'
loop_
_space_group_symop_operation_xyz
x,y,z
-x,-y,-z
loop_
_atom_site_type_symbol
_atom_site_label
_atom_site_fract_x
_atom_site_fract_y
_atom_site_fract_z
Si Si1 0.000000 0.000000 0.500000
Si Si2 0.985717 0.356622 0.406259
Si Si3 0.927166 0.851876 0.251235
Si Si4 0.340801 0.247109 0.751652
Si Si5 0.269920 0.085986 0.265964
Si Si6 0.359731 0.449563 0.968332
Si Si7 0.037948 0.908236 0.882716
Si Si8 0.841833 0.553437 0.886243
O O1 0.972207 0.193953 0.447590
O O2 0.000753 0.102089 0.625694
O O3 0.806047 0.524034 0.311015
O O4 0.000000 0.500000 0.500000
O O5 0.168930 0.223258 0.361114
O O6 0.766651 0.843573 0.254237
O O7 0.072084 0.635413 0.197170
O O8 0.864828 0.028709 0.165675
O O9 0.414808 0.270391 0.880829
O O10 0.512784 0.097928 0.697537
O O11 0.233115 0.240364 0.177257
O O12 0.156632 0.003154 0.204088
O O13 0.164738 0.660635 0.903412
O O14 0.500000 0.500000 0.000000
O O15 0.318289 0.412424 0.073445
O O16 0.000000 0.000000 0.000000
O O17 0.000000 0.500000 0.000000
#
# Coordination Sequence:
#
# PCOD9068938 Si02
#       8
#     1   2   2   2   2   2   2   2
#     4  12  24  44  80 102 136 198 238 300 374 436
#     4  12  24  51  75  99 142 186 241 305 367 427
#     4  12  23  43  70 102 139 190 244 294 365 437
#     4  12  26  45  70 104 143 185 238 303 363 441
#     4  12  25  44  69 100 139 187 236 294 367 432
#     4  12  25  40  64 104 146 184 240 302 359 441
#     4  12  22  41  67  98 140 188 232 296 364 428
#     4  12  21  44  69  97 144 195 239 297 369 427
#
# _framework density 20.243933999999999
#
# number of rings (size 3 to 8) (size 9 to 14) (size 15 to 20)
#    0.000    0.000    9.333    0.800    1.867    1.067 
#    0.000    0.667    0.000    0.000    0.000    0.000 
#    0.000    0.000    0.000    0.000    0.000    0.000 
#
# Total GULP energy -83591.509083 kJ/mol
# GULP energy per Si atom -5572.767272 kJ/mol
# Density = 2.019786 g / cm^3
# Si number density = 20.243934 Si / 1000 Ang^3
#
#
#
# Elastic Constant Matrix: (Units=GPa)
#
#
# Indices 1 2 3 4 5 6 
#
# 1 132.8161 47.1197 51.5423 5.7995 -21.3146 12.9924
# 2 47.1197 91.9578 43.9570 19.2282 -16.9771 5.7483
# 3 51.5423 43.9570 140.9959 39.0401 -4.7627 3.8275
# 4 5.7995 19.2282 39.0401 42.2682 17.7016 -11.2263
# 5 -21.3146 -16.9771 -4.7627 17.7016 35.5282 3.7819
# 6 12.9924 5.7483 3.8275 -11.2263 3.7819 42.5809
#
#
#
# Elastic Compliance Matrix: (Units=1/GPa)
#
#
# Indices 1 2 3 4 5 6 
#
# 1 0.010812 -0.002752 -0.002370 -0.001526 0.006003 -0.003650
# 2 -0.002752 0.020051 0.001306 -0.020422 0.019247 -0.009078
# 3 -0.002370 0.001306 0.013421 -0.019166 0.011265 -0.006713
# 4 -0.001526 -0.020422 -0.019166 0.083926 -0.058493 0.032267
# 5 0.006003 0.019247 0.011265 -0.058493 0.074524 -0.027483
# 6 -0.003650 -0.009078 -0.006713 0.032267 -0.027483 0.037375
#
#
# Mechanical properties :
#
#
# Convention : Reuss Voigt Hill
#
# Bulk Modulus (GPa) = 27.28358 72.33421 49.80889
# Shear Modulus (GPa) = 19.23366 38.95220 29.09293
#
# Velocity S-wave (km/s) = 3.08571 4.39126 3.79505
# Velocity P-wave (km/s) = 5.11880 7.84346 6.62276
#
# Compressibility (1/GPa) = 0.03665209
#
# Stress axis : x y z
#
# Youngs Moduli (GPa) = 92.48689 49.87194 74.50855
#
# Poissons Ratio (x) = 0.13724 0.17661
# Poissons Ratio (y) = 0.25452 -0.09730
# Poissons Ratio (z) = 0.21923 -0.06513
#
# Static dielectric constant tensor:
#      x y z
#    x 1.754290 -0.017220 0.039300 
#    y -0.017220 1.720670 -0.002050 
#    z 0.039300 -0.002050 1.808340 
# 
# From -- ./inp_files/222687.got.cif
#   From: 2010.05.17/outbox.cif.g08.bks.cpg/sg2_112_cif.got.tgz:222687.got - 2010.06.03 11:33:40.
