data_PCOD9068169
_publ_section_title
;
Structure prediction by ZEFSAII (Michael W. Deem and Ramdas Pophale) SiO2 
 PCOD9068169
Probable space group: P -1
;
_chemical_formula_sum "Si O2"
_cell_formula_units_Z 16
_cell_length_a 9.101544
_cell_length_b 17.685561
_cell_length_c 20.957735
_cell_angle_alpha 161.331237
_cell_angle_beta 138.692723
_cell_angle_gamma 39.114567
_cell_volume 679.068428
_symmetry_space_group_name_H-M "P -1"
_symmetry_group_IT_number 2
_symmetry_cell_setting 'triclinic'
loop_
_space_group_symop_operation_xyz
x,y,z
-x,-y,-z
loop_
_atom_site_type_symbol
_atom_site_label
_atom_site_fract_x
_atom_site_fract_y
_atom_site_fract_z
Si Si1 0.950376 0.844054 0.944222
Si Si2 0.783240 0.112520 0.605574
Si Si3 0.504862 0.633642 0.967652
Si Si4 0.712006 0.968551 0.231509
Si Si5 0.290193 0.385171 0.852204
Si Si6 0.788953 0.771613 0.970406
Si Si7 0.085290 0.612283 0.678837
Si Si8 0.583197 0.346160 0.600146
O O1 0.934502 0.666630 0.737898
O O2 0.805040 0.841348 0.958032
O O3 0.228150 0.749805 0.976497
O O4 0.892835 0.121382 0.121063
O O5 0.772766 0.200864 0.598412
O O6 0.026831 0.090615 0.702383
O O7 0.730082 0.851230 0.382411
O O8 0.590895 0.337444 0.757117
O O9 0.603876 0.743768 0.027655
O O10 0.647738 0.711281 0.133086
O O11 0.566976 0.185834 0.404311
O O12 0.714693 0.991372 0.174116
O O13 0.049721 0.602931 0.940802
O O14 0.500000 0.500000 0.000000
O O15 0.639026 0.583979 0.780081
O O16 0.341864 0.424608 0.623049
O O17 0.000000 0.500000 0.500000
#
# Coordination Sequence:
#
# PCOD9068169 Si02
#       8
#     2   2   2   2   2   2   2   2
#     4  11  26  48  70  99 135 175 231 296 344 406
#     4  12  23  40  69 102 143 185 231 272 329 421
#     4  12  22  41  70  99 141 188 224 275 341 410
#     4  12  23  39  69 105 143 185 224 270 340 423
#     4  12  25  41  64 104 149 186 226 273 341 408
#     4  12  25  44  67 104 145 180 223 281 351 409
#     4  11  26  49  76  97 124 178 240 292 352 406
#     4  12  24  43  71 102 137 185 234 283 338 413
#
# _framework density 23.561691
#
# number of rings (size 3 to 8) (size 9 to 14) (size 15 to 20)
#    0.000    0.250    7.500    2.250    0.000    3.000 
#    2.250    1.250    0.000    0.000    0.000    0.000 
#    0.000    0.000    0.000    0.000    0.000    0.000 
#
# Total GULP energy -89494.991500 kJ/mol
# GULP energy per Si atom -5593.436969 kJ/mol
# Density = 2.350806 g / cm^3
# Si number density = 23.561691 Si / 1000 Ang^3
#
#
#
# Elastic Constant Matrix: (Units=GPa)
#
#
# Indices 1 2 3 4 5 6 
#
# 1 126.0268 6.6242 46.1524 -4.1884 -24.4733 30.1264
# 2 6.6242 43.1618 4.1161 -8.7504 -14.8999 4.3193
# 3 46.1524 4.1161 123.9930 -10.1426 -28.3217 6.5498
# 4 -4.1884 -8.7504 -10.1426 31.4051 -0.6031 -13.3919
# 5 -24.4733 -14.8999 -28.3217 -0.6031 43.2349 -6.0274
# 6 30.1264 4.3193 6.5498 -13.3919 -6.0274 40.7109
#
#
#
# Elastic Compliance Matrix: (Units=1/GPa)
#
#
# Indices 1 2 3 4 5 6 
#
# 1 0.011811 -0.000218 -0.003499 -0.003305 0.003047 -0.008790
# 2 -0.000218 0.028868 0.002543 0.009771 0.011859 0.001659
# 3 -0.003499 0.002543 0.011073 0.005348 0.006682 0.003287
# 4 -0.003305 0.009771 0.005348 0.042719 0.007792 0.015755
# 5 0.003047 0.011859 0.006682 0.007792 0.033843 0.002986
# 6 -0.008790 0.001659 0.003287 0.015755 0.002986 0.035988
#
#
# Mechanical properties :
#
#
# Convention : Reuss Voigt Hill
#
# Bulk Modulus (GPa) = 20.24091 45.21855 32.72973
# Shear Modulus (GPa) = 27.30485 38.82278 33.06381
#
# Velocity S-wave (km/s) = 3.40791 4.06360 3.75011
# Velocity P-wave (km/s) = 4.90860 6.42264 5.71597
#
# Compressibility (1/GPa) = 0.04940490
#
# Stress axis : x y z
#
# Youngs Moduli (GPa) = 84.66863 34.64012 90.30904
#
# Poissons Ratio (x) = 0.00754 0.31600
# Poissons Ratio (y) = 0.01842 -0.22966
# Poissons Ratio (z) = 0.29626 -0.08809
#
# Static dielectric constant tensor:
#      x y z
#    x 1.978080 0.001540 0.006190 
#    y 0.001540 2.030670 -0.146380 
#    z 0.006190 -0.146380 2.023670 
# 
# From -- ./inp_files/315128.got.cif
#   From: 2010.05.17/outbox.cif.g08.bks.cpg/sg2_158_cif.got.tgz:315128.got - 2010.06.03 11:33:40.
