data_PCOD9068180
_publ_section_title
;
Structure prediction by ZEFSAII (Michael W. Deem and Ramdas Pophale) SiO2 
 PCOD9068180
Probable space group: P -1
;
_chemical_formula_sum "Si O2"
_cell_formula_units_Z 14
_cell_length_a 8.494799
_cell_length_b 10.325004
_cell_length_c 9.536764
_cell_angle_alpha 68.777110
_cell_angle_beta 60.892895
_cell_angle_gamma 49.474529
_cell_volume 554.182574
_symmetry_space_group_name_H-M "P -1"
_symmetry_group_IT_number 2
_symmetry_cell_setting 'triclinic'
loop_
_space_group_symop_operation_xyz
x,y,z
-x,-y,-z
loop_
_atom_site_type_symbol
_atom_site_label
_atom_site_fract_x
_atom_site_fract_y
_atom_site_fract_z
Si Si1 0.344776 0.596399 0.240086
Si Si2 0.930123 0.428698 0.244789
Si Si3 0.769352 0.015535 0.074692
Si Si4 0.873481 0.723721 0.306680
Si Si5 0.787114 0.193032 0.502977
Si Si6 0.620958 0.697279 0.029875
Si Si7 0.517013 0.778512 0.611198
O O1 0.324985 0.701741 0.346789
O O2 0.523016 0.591632 0.066388
O O3 0.404644 0.412873 0.318283
O O4 0.098562 0.701146 0.249308
O O5 0.910170 0.543964 0.337260
O O6 0.851195 0.308264 0.352567
O O7 0.770551 0.574495 0.143416
O O8 0.188693 0.315520 0.137994
O O9 0.628444 0.115852 0.234793
O O10 0.799681 0.836588 0.152977
O O11 0.610908 0.114017 0.969680
O O12 0.000000 0.000000 0.000000
O O13 0.709720 0.800258 0.480005
O O14 0.618691 0.178952 0.490055
O O15 0.000000 0.000000 0.500000
#
# Coordination Sequence:
#
# PCOD9068180 Si02
#       7
#     2   2   2   2   2   2   2
#     4  12  24  48  76 107 143 193 241 302 369 435
#     4  11  26  50  74 108 142 198 243 298 367 440
#     4  12  28  46  73 112 151 192 241 304 363 427
#     4  12  26  46  76 108 146 187 250 298 365 428
#     4  12  27  47  75 105 143 186 245 308 359 428
#     4  11  26  48  72 106 151 191 244 290 374 434
#     4  12  26  47  75 103 147 192 248 297 362 435
#
# _framework density 25.262430999999999
#
# number of rings (size 3 to 8) (size 9 to 14) (size 15 to 20)
#    0.000    0.286    4.286    3.857    6.000    1.714 
#    0.000    0.000    0.000    0.000    0.000    0.000 
#    0.000    0.000    0.000    0.000    0.000    0.000 
#
# Total GULP energy -78247.783958 kJ/mol
# GULP energy per Si atom -5589.127426 kJ/mol
# Density = 2.520493 g / cm^3
# Si number density = 25.262431 Si / 1000 Ang^3
#
#
#
# Elastic Constant Matrix: (Units=GPa)
#
#
# Indices 1 2 3 4 5 6 
#
# 1 90.4178 29.5081 17.1747 8.2941 -16.8291 -10.3965
# 2 29.5081 112.4157 19.9833 -17.0198 -9.1521 -11.8181
# 3 17.1747 19.9833 62.6938 -5.2468 -30.8237 -10.6616
# 4 8.2941 -17.0198 -5.2468 38.7647 -3.1609 -2.2145
# 5 -16.8291 -9.1521 -30.8237 -3.1609 43.4217 5.3619
# 6 -10.3965 -11.8181 -10.6616 -2.2145 5.3619 49.2344
#
#
#
# Elastic Compliance Matrix: (Units=1/GPa)
#
#
# Indices 1 2 3 4 5 6 
#
# 1 0.013598 -0.003632 -0.001133 -0.004325 0.003237 0.001207
# 2 -0.003632 0.011194 -0.001923 0.005514 -0.000232 0.001777
# 3 -0.001133 -0.001923 0.026699 0.004672 0.018038 0.003327
# 4 -0.004325 0.005514 0.004672 0.030291 0.004728 0.002270
# 5 0.003237 -0.000232 0.018038 0.004728 0.037300 0.000684
# 6 0.001207 0.001777 0.003327 0.002270 0.000684 0.021740
#
#
# Mechanical properties :
#
#
# Convention : Reuss Voigt Hill
#
# Bulk Modulus (GPa) = 26.23672 44.31772 35.27722
# Shear Modulus (GPa) = 29.95760 39.54158 34.74959
#
# Velocity S-wave (km/s) = 3.44736 3.96059 3.71286
# Velocity P-wave (km/s) = 5.12386 6.20452 5.68991
#
# Compressibility (1/GPa) = 0.03811452
#
# Stress axis : x y z
#
# Youngs Moduli (GPa) = 73.53834 89.33631 37.45477
#
# Poissons Ratio (x) = 0.32451 0.04242
# Poissons Ratio (y) = 0.26712 0.07203
# Poissons Ratio (z) = 0.08329 0.17180
#
# Static dielectric constant tensor:
#      x y z
#    x 1.992310 -0.061580 0.055890 
#    y -0.061580 2.079170 -0.012850 
#    z 0.055890 -0.012850 2.030650 
# 
# From -- ./inp_files/203188.got.cif
#   From: 2010.05.17/outbox.cif.g08.bks.cpg/sg2_102_cif.got.tgz:203188.got - 2010.06.03 11:33:40.
