data_PCOD9068400
_publ_section_title
;
Structure prediction by ZEFSAII (Michael W. Deem and Ramdas Pophale) SiO2 
 PCOD9068400
Probable space group: P -1
;
_chemical_formula_sum "Si O2"
_cell_formula_units_Z 12
_cell_length_a 15.207172
_cell_length_b 6.733527
_cell_length_c 11.894070
_cell_angle_alpha 105.814863
_cell_angle_beta 28.034154
_cell_angle_gamma 97.068103
_cell_volume 531.837224
_symmetry_space_group_name_H-M "P -1"
_symmetry_group_IT_number 2
_symmetry_cell_setting 'triclinic'
loop_
_space_group_symop_operation_xyz
x,y,z
-x,-y,-z
loop_
_atom_site_type_symbol
_atom_site_label
_atom_site_fract_x
_atom_site_fract_y
_atom_site_fract_z
Si Si1 0.503555 0.971498 0.127207
Si Si2 0.728072 0.485072 0.249626
Si Si3 0.208720 0.788697 0.075184
Si Si4 0.780673 0.505991 0.776290
Si Si5 0.001165 0.233329 0.081895
Si Si6 0.863474 0.145607 0.462868
O O1 0.289873 0.986167 0.416250
O O2 0.642262 0.739246 0.960896
O O3 0.500000 0.000000 0.000000
O O4 0.597762 0.138060 0.109158
O O5 0.500000 0.500000 0.500000
O O6 0.823225 0.405465 0.249821
O O7 0.817606 0.294296 0.031533
O O8 0.807186 0.687269 0.152522
O O9 0.218778 0.597039 0.119005
O O10 0.028444 0.993397 0.329193
O O11 0.738091 0.342431 0.707068
O O12 0.000000 0.500000 0.500000
O O13 0.962211 0.225007 0.257380
O O14 0.000000 0.000000 0.000000
#
# Coordination Sequence:
#
# PCOD9068400 Si02
#       6
#     2   2   2   2   2   2
#     4  12  27  44  71 108 140 188 235 283 359 427
#     4  11  28  46  75 104 142 188 238 296 353 422
#     4  12  26  46  68 106 141 184 236 291 358 415
#     4  12  24  44  70 102 141 181 232 291 356 416
#     4  11  26  50  70 105 139 189 241 291 355 415
#     4  12  25  46  72  99 147 185 234 297 346 426
#
# _framework density 22.563293000000002
#
# number of rings (size 3 to 8) (size 9 to 14) (size 15 to 20)
#    0.000    0.333    5.000    3.000    4.667    0.667 
#    0.000    0.000    0.000    0.000    0.000    0.000 
#    0.000    0.000    0.000    0.000    0.000    0.000 
#
# Total GULP energy -67161.416940 kJ/mol
# GULP energy per Si atom -5596.784745 kJ/mol
# Density = 2.251194 g / cm^3
# Si number density = 22.563293 Si / 1000 Ang^3
#
#
#
# Elastic Constant Matrix: (Units=GPa)
#
#
# Indices 1 2 3 4 5 6 
#
# 1 80.4817 40.8062 12.5550 -9.6088 -10.8877 -15.0390
# 2 40.8062 123.2092 38.4646 -21.6137 -19.9632 -15.5803
# 3 12.5550 38.4646 73.7319 -23.9374 -29.7436 -7.2718
# 4 -9.6088 -21.6137 -23.9374 35.6269 22.0696 -5.9429
# 5 -10.8877 -19.9632 -29.7436 22.0696 44.6724 -9.2700
# 6 -15.0390 -15.5803 -7.2718 -5.9429 -9.2700 58.9560
#
#
#
# Elastic Compliance Matrix: (Units=1/GPa)
#
#
# Indices 1 2 3 4 5 6 
#
# 1 0.015716 -0.004554 0.001719 0.001367 0.003017 0.003630
# 2 -0.004554 0.011723 -0.003989 0.003402 0.000169 0.001814
# 3 0.001719 -0.003989 0.022611 0.007107 0.011143 0.004642
# 4 0.001367 0.003402 0.007107 0.045194 -0.014840 0.004347
# 5 0.003017 0.000169 0.011143 -0.014840 0.039375 0.006884
# 6 0.003630 0.001814 0.004642 0.004347 0.006884 0.020460
#
#
# Mechanical properties :
#
#
# Convention : Reuss Voigt Hill
#
# Bulk Modulus (GPa) = 27.47101 51.23049 39.35075
# Shear Modulus (GPa) = 27.64529 40.22419 33.93474
#
# Velocity S-wave (km/s) = 3.50413 4.22682 3.88233
# Velocity P-wave (km/s) = 5.34541 6.82465 6.12981
#
# Compressibility (1/GPa) = 0.03640201
#
# Stress axis : x y z
#
# Youngs Moduli (GPa) = 63.63100 85.30054 44.22545
#
# Poissons Ratio (x) = 0.38844 -0.07600
# Poissons Ratio (y) = 0.28976 0.17641
# Poissons Ratio (z) = -0.10935 0.34026
#
# Static dielectric constant tensor:
#      x y z
#    x 1.888470 0.093420 0.002580 
#    y 0.093420 1.874740 -0.005420 
#    z 0.002580 -0.005420 1.872840 
# 
# From -- ./inp_files/21603.got.cif
#   From: 2010.05.17/outbox.cif.g08.bks.cpg/sg2_11_cif.got.tgz:21603.got - 2010.06.03 11:33:40.
