data_PCOD9068207
_publ_section_title
;
Structure prediction by ZEFSAII (Michael W. Deem and Ramdas Pophale) SiO2 
 PCOD9068207
Probable space group: P -1
;
_chemical_formula_sum "Si O2"
_cell_formula_units_Z 12
_cell_length_a 15.530603
_cell_length_b 9.445445
_cell_length_c 19.207502
_cell_angle_alpha 38.515340
_cell_angle_beta 161.258169
_cell_angle_gamma 132.821950
_cell_volume 536.712368
_symmetry_space_group_name_H-M "P -1"
_symmetry_group_IT_number 2
_symmetry_cell_setting 'triclinic'
loop_
_space_group_symop_operation_xyz
x,y,z
-x,-y,-z
loop_
_atom_site_type_symbol
_atom_site_label
_atom_site_fract_x
_atom_site_fract_y
_atom_site_fract_z
Si Si1 0.179351 0.475238 0.575690
Si Si2 0.615112 0.728710 0.992416
Si Si3 0.265965 0.335177 0.309384
Si Si4 0.830175 0.474298 0.680907
Si Si5 0.459696 0.190254 0.252501
Si Si6 0.753468 0.881669 0.350321
O O1 0.433196 0.583062 0.737290
O O2 0.264283 0.221937 0.699745
O O3 0.000000 0.500000 0.500000
O O4 0.949440 0.639121 0.283984
O O5 0.508900 0.848868 0.791542
O O6 0.516197 0.911095 0.909659
O O7 0.500000 0.500000 0.000000
O O8 0.555876 0.389751 0.492328
O O9 0.200812 0.404803 0.313421
O O10 0.343294 0.049644 0.469003
O O11 0.000000 0.500000 0.000000
O O12 0.818976 0.669583 0.538213
O O13 0.129030 0.266074 0.987653
O O14 0.000000 0.000000 0.500000
#
# Coordination Sequence:
#
# PCOD9068207 Si02
#       6
#     2   2   2   2   2   2
#     4  12  27  42  71 115 147 192 247 298 366 443
#     4  12  23  46  69 103 153 193 236 298 372 439
#     4  11  28  49  75 107 146 189 256 310 359 437
#     4  11  26  48  74 108 143 199 244 297 380 434
#     4  12  25  47  76 103 150 192 247 304 368 441
#     4  12  24  46  76 102 151 195 236 301 372 443
#
# _framework density 22.358343000000001
#
# number of rings (size 3 to 8) (size 9 to 14) (size 15 to 20)
#    0.000    0.333    6.667    0.500    4.667    1.333 
#    0.000    0.000    0.000    0.000    0.000    0.000 
#    0.000    0.000    0.000    0.000    0.000    0.000 
#
# Total GULP energy -67140.377131 kJ/mol
# GULP energy per Si atom -5595.031428 kJ/mol
# Density = 2.230745 g / cm^3
# Si number density = 22.358343 Si / 1000 Ang^3
#
#
#
# Elastic Constant Matrix: (Units=GPa)
#
#
# Indices 1 2 3 4 5 6 
#
# 1 112.3104 73.9810 41.2083 -5.0562 12.1651 -6.6282
# 2 73.9810 119.0348 44.6165 -1.7241 11.2125 -24.3021
# 3 41.2083 44.6165 145.6739 -9.2254 14.3965 -3.6474
# 4 -5.0562 -1.7241 -9.2254 42.3641 -1.9490 3.6918
# 5 12.1651 11.2125 14.3965 -1.9490 41.4710 -7.6888
# 6 -6.6282 -24.3021 -3.6474 3.6918 -7.6888 38.0597
#
#
#
# Elastic Compliance Matrix: (Units=1/GPa)
#
#
# Indices 1 2 3 4 5 6 
#
# 1 0.016166 -0.010265 -0.001217 0.001530 -0.002301 -0.004469
# 2 -0.010265 0.017529 -0.002421 -0.001831 0.000789 0.009510
# 3 -0.001217 -0.002421 0.008215 0.001585 -0.002051 -0.001538
# 4 0.001530 -0.001831 0.001585 0.024331 0.000065 -0.003098
# 5 -0.002301 0.000789 -0.002051 0.000065 0.026255 0.005204
# 6 -0.004469 0.009510 -0.001538 -0.003098 0.005204 0.032773
#
#
# Mechanical properties :
#
#
# Convention : Reuss Voigt Hill
#
# Bulk Modulus (GPa) = 70.89722 77.40342 74.15032
# Shear Modulus (GPa) = 31.69058 38.85986 35.27522
#
# Velocity S-wave (km/s) = 3.76891 4.17351 3.97636
# Velocity P-wave (km/s) = 7.12165 7.61045 7.37010
#
# Compressibility (1/GPa) = 0.01410493
#
# Stress axis : x y z
#
# Youngs Moduli (GPa) = 61.85634 57.04942 121.73110
#
# Poissons Ratio (x) = 0.58561 0.14813
# Poissons Ratio (y) = 0.63495 0.29468
# Poissons Ratio (z) = 0.07527 0.13810
#
# Static dielectric constant tensor:
#      x y z
#    x 1.843290 -0.034710 0.019590 
#    y -0.034710 1.820020 -0.045460 
#    z 0.019590 -0.045460 1.867930 
# 
# From -- ./inp_files/335745.got.cif
#   From: 2010.05.17/outbox.cif.g08.bks.cpg/sg2_168_cif.got.tgz:335745.got - 2010.06.03 11:33:40.
