data_PCOD9068388
_publ_section_title
;
Structure prediction by ZEFSAII (Michael W. Deem and Ramdas Pophale) SiO2 
 PCOD9068388
Probable space group: P -1
;
_chemical_formula_sum "Si O2"
_cell_formula_units_Z 10
_cell_length_a 10.717685
_cell_length_b 4.811368
_cell_length_c 8.069744
_cell_angle_alpha 71.863291
_cell_angle_beta 101.872559
_cell_angle_gamma 120.245456
_cell_volume 341.016722
_symmetry_space_group_name_H-M "P -1"
_symmetry_group_IT_number 2
_symmetry_cell_setting 'triclinic'
loop_
_space_group_symop_operation_xyz
x,y,z
-x,-y,-z
loop_
_atom_site_type_symbol
_atom_site_label
_atom_site_fract_x
_atom_site_fract_y
_atom_site_fract_z
Si Si1 0.440424 0.130990 0.129760
Si Si2 0.187667 0.664585 0.701649
Si Si3 0.559439 0.637309 0.313806
Si Si4 0.833943 0.804242 0.930454
Si Si5 0.104557 0.360536 0.385299
O O1 0.526432 0.286292 0.292527
O O2 0.500000 0.500000 0.000000
O O3 0.523240 0.170452 0.829862
O O4 0.269085 0.020407 0.115570
O O5 0.279168 0.058025 0.687730
O O6 0.228719 0.489773 0.894349
O O7 0.016399 0.528615 0.709103
O O8 0.196935 0.581384 0.525496
O O9 0.500000 0.500000 0.500000
O O10 0.830679 0.696651 0.757264
O O11 0.000000 0.000000 0.000000
O O12 0.000000 0.000000 0.500000
#
# Coordination Sequence:
#
# PCOD9068388 Si02
#       5
#     2   2   2   2   2
#     4  12  29  55  84 122 170 223 291 350 427 523
#     4  11  27  51  80 119 170 224 281 358 424 507
#     4  12  30  54  85 119 171 227 286 353 432 503
#     4  12  27  50  87 120 167 224 280 354 435 502
#     4  11  26  49  80 122 166 215 289 350 424 517
#
# _framework density 29.324076999999999
#
# number of rings (size 3 to 8) (size 9 to 14) (size 15 to 20)
#    0.000    0.400    4.000    1.800    8.400    3.200 
#    0.000    0.000    0.000    0.000    0.000    0.000 
#    0.000    0.000    0.000    0.000    0.000    0.000 
#
# Total GULP energy -55923.674012 kJ/mol
# GULP energy per Si atom -5592.367401 kJ/mol
# Density = 2.925733 g / cm^3
# Si number density = 29.324077 Si / 1000 Ang^3
#
#
#
# Elastic Constant Matrix: (Units=GPa)
#
#
# Indices 1 2 3 4 5 6 
#
# 1 183.9112 52.0203 10.5274 -7.3209 43.1196 4.4365
# 2 52.0203 198.6798 42.8464 14.5112 4.4865 -18.7117
# 3 10.5274 42.8464 129.8771 -16.6439 10.0524 -19.4141
# 4 -7.3209 14.5112 -16.6439 61.7621 -0.1877 -2.9006
# 5 43.1196 4.4865 10.0524 -0.1877 55.3220 -3.0368
# 6 4.4365 -18.7117 -19.4141 -2.9006 -3.0368 65.7199
#
#
#
# Elastic Compliance Matrix: (Units=1/GPa)
#
#
# Indices 1 2 3 4 5 6 
#
# 1 0.007464 -0.002164 0.000575 0.001476 -0.005805 -0.001153
# 2 -0.002164 0.006307 -0.002126 -0.002246 0.001624 0.001290
# 3 0.000575 -0.002126 0.009218 0.003146 -0.001823 0.002133
# 4 0.001476 -0.002246 0.003146 0.017780 -0.001430 0.000909
# 5 -0.005805 0.001624 -0.001823 -0.001430 0.022867 0.001309
# 6 -0.001153 0.001290 0.002133 0.000909 0.001309 0.016392
#
#
# Mechanical properties :
#
#
# Convention : Reuss Voigt Hill
#
# Bulk Modulus (GPa) = 64.27113 80.36180 72.31646
# Shear Modulus (GPa) = 53.97013 63.69909 58.83461
#
# Velocity S-wave (km/s) = 4.29473 4.66579 4.48410
# Velocity P-wave (km/s) = 6.82334 7.51601 7.17803
#
# Compressibility (1/GPa) = 0.01555909
#
# Stress axis : x y z
#
# Youngs Moduli (GPa) = 133.97410 158.55317 108.48853
#
# Poissons Ratio (x) = 0.34305 -0.06237
# Poissons Ratio (y) = 0.28987 0.23065
# Poissons Ratio (z) = -0.07702 0.33709
#
# Static dielectric constant tensor:
#      x y z
#    x 2.391990 0.124660 0.130430 
#    y 0.124660 2.290590 -0.064970 
#    z 0.130430 -0.064970 2.437640 
# 
# From -- ./inp_files/143475.got.cif
#   From: 2010.05.17/outbox.cif.g08.bks.cpg/sg2_72_cif.got.tgz:143475.got - 2010.06.03 11:33:40.
