data_PCOD9068738
_publ_section_title
;
Structure prediction by ZEFSAII (Michael W. Deem and Ramdas Pophale) SiO2 
 PCOD9068738
Probable space group: P -1
;
_chemical_formula_sum "Si O2"
_cell_formula_units_Z 16
_cell_length_a 4.827926
_cell_length_b 17.132983
_cell_length_c 7.944916
_cell_angle_alpha 104.441988
_cell_angle_beta 93.990837
_cell_angle_gamma 95.447463
_cell_volume 630.564853
_symmetry_space_group_name_H-M "P -1"
_symmetry_group_IT_number 2
_symmetry_cell_setting 'triclinic'
loop_
_space_group_symop_operation_xyz
x,y,z
-x,-y,-z
loop_
_atom_site_type_symbol
_atom_site_label
_atom_site_fract_x
_atom_site_fract_y
_atom_site_fract_z
Si Si1 0.584789 0.952685 0.141683
Si Si2 0.848481 0.666856 0.672681
Si Si3 0.046940 0.197027 0.509875
Si Si4 0.545414 0.633321 0.984340
Si Si5 0.152428 0.471805 0.830032
Si Si6 0.127918 0.021260 0.335973
Si Si7 0.416701 0.787263 0.222380
Si Si8 0.697415 0.427421 0.499392
O O1 0.476250 0.859215 0.125771
O O2 0.918547 0.966223 0.175362
O O3 0.437973 0.000876 0.307524
O O4 0.500000 0.000000 0.000000
O O5 0.993120 0.740392 0.607784
O O6 0.554751 0.644262 0.549247
O O7 0.096310 0.555324 0.324481
O O8 0.749802 0.671195 0.864265
O O9 0.310062 0.216955 0.654817
O O10 0.095945 0.115272 0.369453
O O11 0.802482 0.191365 0.635112
O O12 0.697542 0.603919 0.140790
O O13 0.358057 0.701565 0.076007
O O14 0.390339 0.548729 0.855993
O O15 0.064749 0.599529 0.632049
O O16 0.000000 0.500000 0.000000
O O17 0.000000 0.000000 0.500000
O O18 0.500000 0.500000 0.500000
#
# Coordination Sequence:
#
# PCOD9068738 Si02
#       8
#     2   2   2   2   2   2   2   2
#     4  12  26  46  78 116 154 201 253 315 383 449
#     4  12  30  50  77 117 151 199 264 321 386 449
#     4  12  27  48  80 110 152 206 253 314 380 454
#     4  11  30  51  79 113 158 202 258 325 387 467
#     4  11  28  52  80 111 152 209 257 314 400 460
#     4  12  23  49  78 109 151 201 259 306 368 461
#     4  12  26  51  75 112 157 204 250 311 391 459
#     4  12  29  52  80 110 153 201 259 326 382 461
#
# _framework density 25.374075999999999
#
# number of rings (size 3 to 8) (size 9 to 14) (size 15 to 20)
#    0.000    0.250    2.500    4.125   15.750    0.000 
#    2.250    0.000    0.000    0.000    0.000    0.000 
#    0.000    0.000    0.000    0.000    0.000    0.000 
#
# Total GULP energy -89470.190288 kJ/mol
# GULP energy per Si atom -5591.886893 kJ/mol
# Density = 2.531632 g / cm^3
# Si number density = 25.374076 Si / 1000 Ang^3
#
#
#
# Elastic Constant Matrix: (Units=GPa)
#
#
# Indices 1 2 3 4 5 6 
#
# 1 126.3729 29.4560 8.8115 -2.3679 10.2972 -17.8497
# 2 29.4560 137.5071 35.7278 -6.5381 8.2752 -12.7161
# 3 8.8115 35.7278 67.0041 -7.3935 -10.6621 -8.2917
# 4 -2.3679 -6.5381 -7.3935 47.6922 -14.4182 -2.9987
# 5 10.2972 8.2752 -10.6621 -14.4182 48.7436 -6.3069
# 6 -17.8497 -12.7161 -8.2917 -2.9987 -6.3069 31.3187
#
#
#
# Elastic Compliance Matrix: (Units=1/GPa)
#
#
# Indices 1 2 3 4 5 6 
#
# 1 0.008948 -0.001442 -0.000014 0.000205 -0.001029 0.004323
# 2 -0.001442 0.009078 -0.004887 -0.000186 -0.002217 0.001106
# 3 -0.000014 -0.004887 0.019891 0.004956 0.007326 0.005224
# 4 0.000205 -0.000186 0.004956 0.024834 0.009139 0.005572
# 5 -0.001029 -0.002217 0.007326 0.009139 0.026271 0.006618
# 6 0.004323 0.001106 0.005224 0.005572 0.006618 0.038092
#
#
# Mechanical properties :
#
#
# Convention : Reuss Voigt Hill
#
# Bulk Modulus (GPa) = 39.63314 53.20831 46.42073
# Shear Modulus (GPa) = 33.73544 42.67683 38.20613
#
# Velocity S-wave (km/s) = 3.65022 4.10555 3.88456
# Velocity P-wave (km/s) = 5.78091 6.59463 6.20113
#
# Compressibility (1/GPa) = 0.02523141
#
# Stress axis : x y z
#
# Youngs Moduli (GPa) = 111.75110 110.15688 50.27313
#
# Poissons Ratio (x) = 0.15882 0.00070
# Poissons Ratio (y) = 0.16112 0.24571
# Poissons Ratio (z) = 0.00156 0.53838
#
# Static dielectric constant tensor:
#      x y z
#    x 2.036430 0.047930 -0.026110 
#    y 0.047930 2.123870 -0.128460 
#    z -0.026110 -0.128460 2.013650 
# 
# From -- ./inp_files/135480.got.cif
#   From: 2010.05.17/outbox.cif.g08.bks.cpg/sg2_68_cif.got.tgz:135480.got - 2010.06.03 11:33:40.
