data_PCOD9068935
_publ_section_title
;
Structure prediction by ZEFSAII (Michael W. Deem and Ramdas Pophale) SiO2 
 PCOD9068935
Probable space group: P -1
;
_chemical_formula_sum "Si O2"
_cell_formula_units_Z 14
_cell_length_a 7.510347
_cell_length_b 8.907705
_cell_length_c 10.770196
_cell_angle_alpha 104.874397
_cell_angle_beta 107.725309
_cell_angle_gamma 52.203558
_cell_volume 539.967349
_symmetry_space_group_name_H-M "P -1"
_symmetry_group_IT_number 2
_symmetry_cell_setting 'triclinic'
loop_
_space_group_symop_operation_xyz
x,y,z
-x,-y,-z
loop_
_atom_site_type_symbol
_atom_site_label
_atom_site_fract_x
_atom_site_fract_y
_atom_site_fract_z
Si Si1 0.877218 0.068343 0.119694
Si Si2 0.028160 0.667363 0.651347
Si Si3 0.721677 0.312773 0.774892
Si Si4 0.687800 0.702582 0.220166
Si Si5 0.340033 0.308223 0.067323
Si Si6 0.220695 0.778723 0.511948
Si Si7 0.565041 0.860548 0.698696
O O1 0.612851 0.152371 0.072536
O O2 0.899811 0.228065 0.217287
O O3 0.026057 0.879797 0.193648
O O4 0.000000 0.000000 0.000000
O O5 0.861094 0.331065 0.452456
O O6 0.753632 0.795067 0.618978
O O7 0.125126 0.462320 0.684810
O O8 0.535538 0.300174 0.807560
O O9 0.704121 0.494612 0.858977
O O10 0.681514 0.314648 0.620595
O O11 0.604193 0.913026 0.282336
O O12 0.766425 0.664624 0.085095
O O13 0.294024 0.223459 0.159330
O O14 0.414775 0.780614 0.627236
O O15 0.000000 0.000000 0.500000
#
# Coordination Sequence:
#
# PCOD9068935 Si02
#       7
#     2   2   2   2   2   2   2
#     4  12  21  43  76 109 142 189 243 302 366 435
#     4  12  26  48  72 112 147 196 253 300 372 439
#     4  12  24  44  78 108 146 200 247 306 366 440
#     4  12  25  45  75 112 149 192 248 311 377 439
#     4  12  25  46  76 112 150 193 251 306 378 445
#     4  12  26  52  77 105 152 201 254 299 368 444
#     4  12  27  49  75 111 151 194 246 312 371 436
#
# _framework density 25.927493999999999
#
# number of rings (size 3 to 8) (size 9 to 14) (size 15 to 20)
#    0.000    0.000    7.143    1.714    0.000    7.429 
#    0.000    3.571    0.000    0.000    0.000    0.000 
#    0.000    0.000    0.000    0.000    0.000    0.000 
#
# Total GULP energy -78675.894847 kJ/mol
# GULP energy per Si atom -5619.706775 kJ/mol
# Density = 2.586848 g / cm^3
# Si number density = 25.927494 Si / 1000 Ang^3
#
#
#
# Elastic Constant Matrix: (Units=GPa)
#
#
# Indices 1 2 3 4 5 6 
#
# 1 98.5062 7.6072 25.4101 -1.5466 -5.8283 5.7055
# 2 7.6072 153.3323 51.8579 9.0876 -2.3327 14.3938
# 3 25.4101 51.8579 102.6349 -3.3679 -20.2668 19.1265
# 4 -1.5466 9.0876 -3.3679 35.5863 5.3653 -1.1901
# 5 -5.8283 -2.3327 -20.2668 5.3653 39.0109 -5.0835
# 6 5.7055 14.3938 19.1265 -1.1901 -5.0835 30.4924
#
#
#
# Elastic Compliance Matrix: (Units=1/GPa)
#
#
# Indices 1 2 3 4 5 6 
#
# 1 0.010876 0.000452 -0.002808 0.000057 0.000125 -0.000464
# 2 0.000452 0.008239 -0.004370 -0.002310 -0.001600 -0.001589
# 3 -0.002808 -0.004370 0.014975 0.001289 0.006176 -0.005725
# 4 0.000057 -0.002310 0.001289 0.029354 -0.003386 0.000853
# 5 0.000125 -0.001600 0.006176 -0.003386 0.029444 0.001635
# 6 -0.000464 -0.001589 -0.005725 0.000853 0.001635 0.037529
#
#
# Mechanical properties :
#
#
# Convention : Reuss Voigt Hill
#
# Bulk Modulus (GPa) = 48.45425 58.24710 53.35068
# Shear Modulus (GPa) = 33.16744 38.99114 36.07929
#
# Velocity S-wave (km/s) = 3.58052 3.88216 3.73439
# Velocity P-wave (km/s) = 5.98519 6.52756 6.26225
#
# Compressibility (1/GPa) = 0.02063802
#
# Stress axis : x y z
#
# Youngs Moduli (GPa) = 91.94322 121.37046 66.77586
#
# Poissons Ratio (x) = -0.05489 0.18752
# Poissons Ratio (y) = -0.04158 0.29184
# Poissons Ratio (z) = 0.25820 0.53045
#
# Static dielectric constant tensor:
#      x y z
#    x 1.962870 -0.006350 -0.012770 
#    y -0.006350 1.998430 -0.065850 
#    z -0.012770 -0.065850 2.055860 
# 
# From -- ./inp_files/158534.got.cif
#   From: 2010.05.17/outbox.cif.g08.bks.cpg/sg2_80_cif.got.tgz:158534.got - 2010.06.03 11:33:40.
