data_PCOD9068906
_publ_section_title
;
Structure prediction by ZEFSAII (Michael W. Deem and Ramdas Pophale) SiO2 
 PCOD9068906
Probable space group: P -1
;
_chemical_formula_sum "Si O2"
_cell_formula_units_Z 12
_cell_length_a 10.895868
_cell_length_b 23.500529
_cell_length_c 23.697590
_cell_angle_alpha 168.310375
_cell_angle_beta 156.525969
_cell_angle_gamma 23.120150
_cell_volume 472.082358
_symmetry_space_group_name_H-M "P -1"
_symmetry_group_IT_number 2
_symmetry_cell_setting 'triclinic'
loop_
_space_group_symop_operation_xyz
x,y,z
-x,-y,-z
loop_
_atom_site_type_symbol
_atom_site_label
_atom_site_fract_x
_atom_site_fract_y
_atom_site_fract_z
Si Si1 0.224613 0.617740 0.317387
Si Si2 0.843281 0.073629 0.885697
Si Si3 0.870335 0.529985 0.538399
Si Si4 0.870878 0.849879 0.497528
Si Si5 0.248803 0.144843 0.776622
Si Si6 0.154386 0.211987 0.041281
O O1 0.527248 0.459822 0.329726
O O2 0.924521 0.757003 0.364865
O O3 0.383423 0.871953 0.609752
O O4 0.152604 0.419991 0.044844
O O5 0.501423 0.203985 0.896728
O O6 0.908505 0.159175 0.933676
O O7 0.899401 0.729128 0.579996
O O8 0.088551 0.181389 0.134330
O O9 0.000000 0.500000 0.500000
O O10 0.500000 0.000000 0.500000
O O11 0.059907 0.088007 0.822427
O O12 0.057112 0.562340 0.332710
O O13 0.000000 0.000000 0.500000
O O14 0.500000 0.000000 0.000000
#
# Coordination Sequence:
#
# PCOD9068906 Si02
#       6
#     2   2   2   2   2   2
#     4  12  25  46  73 102 146 187 248 305 370 450
#     4  12  24  43  72 108 143 185 239 309 376 446
#     4  12  21  41  71 108 143 176 239 305 381 437
#     4  12  28  51  75 110 150 208 255 310 377 452
#     4  12  26  44  68 105 145 194 236 301 374 448
#     4  12  26  50  79 110 152 198 259 317 377 448
#
# _framework density 25.419293
#
# number of rings (size 3 to 8) (size 9 to 14) (size 15 to 20)
#    0.000    0.000    3.333    7.000    2.333    0.000 
#    0.000    0.000    0.000    0.000    0.000    0.000 
#    0.000    0.000    0.000    0.000    0.000    0.000 
#
# Total GULP energy -67107.092450 kJ/mol
# GULP energy per Si atom -5592.257704 kJ/mol
# Density = 2.536144 g / cm^3
# Si number density = 25.419293 Si / 1000 Ang^3
#
#
#
# Elastic Constant Matrix: (Units=GPa)
#
#
# Indices 1 2 3 4 5 6 
#
# 1 148.3468 28.2276 27.7128 -3.6519 -16.3717 -42.7807
# 2 28.2276 132.2447 39.2256 -9.0956 -16.3176 -41.0019
# 3 27.7128 39.2256 148.9552 -2.5200 -22.3550 -16.7074
# 4 -3.6519 -9.0956 -2.5200 53.0595 11.6273 -1.3062
# 5 -16.3717 -16.3176 -22.3550 11.6273 46.8540 4.2889
# 6 -42.7807 -41.0019 -16.7074 -1.3062 4.2889 42.4007
#
#
#
# Elastic Compliance Matrix: (Units=1/GPa)
#
#
# Indices 1 2 3 4 5 6 
#
# 1 0.010178 0.002053 -0.000704 0.000720 0.002683 0.011728
# 2 0.002053 0.012053 -0.001714 0.001907 0.002447 0.012863
# 3 -0.000704 -0.001714 0.007775 -0.000618 0.002986 0.000375
# 4 0.000720 0.001907 -0.000618 0.020316 -0.004735 0.003431
# 5 0.002683 0.002447 0.002986 -0.004735 0.025409 0.003534
# 6 0.011728 0.012863 0.000375 0.003431 0.003534 0.047752
#
#
# Mechanical properties :
#
#
# Convention : Reuss Voigt Hill
#
# Bulk Modulus (GPa) = 34.15666 68.87542 51.51604
# Shear Modulus (GPa) = 37.32159 50.75488 44.03824
#
# Velocity S-wave (km/s) = 3.83592 4.47330 4.16681
# Velocity P-wave (km/s) = 5.75200 7.33724 6.59244
#
# Compressibility (1/GPa) = 0.02927687
#
# Stress axis : x y z
#
# Youngs Moduli (GPa) = 98.25397 82.96762 128.60955
#
# Poissons Ratio (x) = -0.17034 0.09053
# Poissons Ratio (y) = -0.20172 0.22041
# Poissons Ratio (z) = 0.06916 0.14219
#
# Static dielectric constant tensor:
#      x y z
#    x 2.099700 0.143820 0.052270 
#    y 0.143820 2.546600 0.113500 
#    z 0.052270 0.113500 1.967050 
# 
# From -- ./inp_files/477180.got.cif
#   From: 2010.05.17/outbox.cif.g08.bks.cpg/sg2_239_cif.got.tgz:477180.got - 2010.06.03 11:33:40.
