data_PCOD9068070
_publ_section_title
;
Structure prediction by ZEFSAII (Michael W. Deem and Ramdas Pophale) SiO2 
 PCOD9068070
Probable space group: P -1
;
_chemical_formula_sum "Si O2"
_cell_formula_units_Z 16
_cell_length_a 9.518556
_cell_length_b 9.212805
_cell_length_c 11.670956
_cell_angle_alpha 126.338891
_cell_angle_beta 57.442907
_cell_angle_gamma 101.039764
_cell_volume 682.526930
_symmetry_space_group_name_H-M "P -1"
_symmetry_group_IT_number 2
_symmetry_cell_setting 'triclinic'
loop_
_space_group_symop_operation_xyz
x,y,z
-x,-y,-z
loop_
_atom_site_type_symbol
_atom_site_label
_atom_site_fract_x
_atom_site_fract_y
_atom_site_fract_z
Si Si1 0.019869 0.962172 0.837578
Si Si2 0.580348 0.931664 0.810978
Si Si3 0.170973 0.853698 0.326411
Si Si4 0.413415 0.553642 0.185369
Si Si5 0.034675 0.307106 0.830890
Si Si6 0.836380 0.653124 0.678622
Si Si7 0.346201 0.759308 0.687387
Si Si8 0.644316 0.560964 0.306032
O O1 0.203827 0.835998 0.695353
O O2 0.895609 0.834537 0.784664
O O3 0.018361 0.141085 0.845275
O O4 0.000000 0.000000 0.000000
O O5 0.702360 0.730279 0.673174
O O6 0.424229 0.915778 0.790184
O O7 0.702655 0.058751 0.767512
O O8 0.500000 0.000000 0.000000
O O9 0.291866 0.754592 0.326786
O O10 0.097323 0.700325 0.216246
O O11 0.000000 0.000000 0.500000
O O12 0.281229 0.424115 0.215055
O O13 0.559205 0.536100 0.209376
O O14 0.500000 0.500000 0.000000
O O15 0.221964 0.304069 0.698223
O O16 0.000000 0.500000 0.000000
O O17 0.000000 0.500000 0.500000
O O18 0.495724 0.648122 0.495620
O O19 0.282886 0.633467 0.754937
#
# Coordination Sequence:
#
# PCOD9068070 Si02
#       8
#     2   2   2   2   2   2   2   2
#     4  12  28  46  75 110 149 198 248 305 378 451
#     4  12  25  48  75 107 148 197 255 311 367 447
#     4  12  28  48  75 108 149 198 250 314 376 442
#     4  12  27  46  77 113 152 197 252 313 380 448
#     4  12  28  49  73 108 154 195 247 309 376 450
#     4  12  26  49  79 108 150 198 258 312 369 453
#     4  11  26  47  76 107 148 195 247 309 375 449
#     4  11  26  47  74 108 149 195 247 305 378 448
#
# _framework density 23.442298999999998
#
# number of rings (size 3 to 8) (size 9 to 14) (size 15 to 20)
#    0.000    0.250    2.500    5.250   12.250    0.500 
#    0.000    0.000    0.000    0.000    0.000    0.000 
#    0.000    0.000    0.000    0.000    0.000    0.000 
#
# Total GULP energy -89596.107548 kJ/mol
# GULP energy per Si atom -5599.756722 kJ/mol
# Density = 2.338894 g / cm^3
# Si number density = 23.442299 Si / 1000 Ang^3
#
#
#
# Elastic Constant Matrix: (Units=GPa)
#
#
# Indices 1 2 3 4 5 6 
#
# 1 85.7109 45.0889 12.6459 -11.9361 -1.3780 3.9558
# 2 45.0889 146.3369 30.6181 -17.5639 -10.8102 20.3728
# 3 12.6459 30.6181 72.3748 -12.3908 -3.1166 9.1388
# 4 -11.9361 -17.5639 -12.3908 37.3081 -1.8451 -10.8182
# 5 -1.3780 -10.8102 -3.1166 -1.8451 43.8431 1.3881
# 6 3.9558 20.3728 9.1388 -10.8182 1.3881 50.4115
#
#
#
# Elastic Compliance Matrix: (Units=1/GPa)
#
#
# Indices 1 2 3 4 5 6 
#
# 1 0.014252 -0.004183 -0.000426 0.002789 -0.000536 0.001262
# 2 -0.004183 0.009377 -0.002534 0.001550 0.002152 -0.002729
# 3 -0.000426 -0.002534 0.015745 0.003633 0.000667 -0.001036
# 4 0.002789 0.001550 0.003633 0.031217 0.001879 0.005143
# 5 -0.000536 0.002152 0.000667 0.001879 0.023487 -0.001192
# 6 0.001262 -0.002729 -0.001036 0.005143 -0.001192 0.022165
#
#
# Mechanical properties :
#
#
# Convention : Reuss Voigt Hill
#
# Bulk Modulus (GPa) = 39.85729 53.45871 46.65800
# Shear Modulus (GPa) = 35.99985 40.71718 38.35851
#
# Velocity S-wave (km/s) = 3.92303 4.17215 4.04950
# Velocity P-wave (km/s) = 6.12857 6.78697 6.46616
#
# Compressibility (1/GPa) = 0.02508951
#
# Stress axis : x y z
#
# Youngs Moduli (GPa) = 70.16657 106.63945 63.51366
#
# Poissons Ratio (x) = 0.44605 0.02704
# Poissons Ratio (y) = 0.29349 0.16092
# Poissons Ratio (z) = 0.02987 0.27018
#
# Static dielectric constant tensor:
#      x y z
#    x 1.084550 0.369390 0.601180 
#    y 0.369390 1.720620 -0.270510 
#    z 0.601180 -0.270510 1.410590 
# 
# From -- ./inp_files/383121.got.cif
#   From: 2010.05.17/outbox.cif.g08.bks.cpg/sg2_192_cif.got.tgz:383121.got - 2010.06.03 11:33:40.
