data_PCOD9068820
_publ_section_title
;
Structure prediction by ZEFSAII (Michael W. Deem and Ramdas Pophale) SiO2 
 PCOD9068820
Probable space group: P -1
;
_chemical_formula_sum "Si O2"
_cell_formula_units_Z 13
_cell_length_a 8.668099
_cell_length_b 9.197744
_cell_length_c 7.896675
_cell_angle_alpha 71.720761
_cell_angle_beta 109.228285
_cell_angle_gamma 79.559720
_cell_volume 535.286003
_symmetry_space_group_name_H-M "P -1"
_symmetry_group_IT_number 2
_symmetry_cell_setting 'triclinic'
loop_
_space_group_symop_operation_xyz
x,y,z
-x,-y,-z
loop_
_atom_site_type_symbol
_atom_site_label
_atom_site_fract_x
_atom_site_fract_y
_atom_site_fract_z
Si Si1 0.682473 0.901628 0.685744
Si Si2 0.155420 0.882219 0.490749
Si Si3 0.010426 0.390765 0.207196
Si Si4 0.000000 0.000000 0.000000
Si Si5 0.025898 0.306520 0.705214
Si Si6 0.401004 0.184388 0.942790
Si Si7 0.732387 0.216971 0.097090
O O1 0.815756 0.761995 0.676063
O O2 0.500000 0.000000 0.500000
O O3 0.791668 0.031735 0.686842
O O4 0.656990 0.823234 0.881094
O O5 0.297833 0.842750 0.702024
O O6 0.096967 0.734249 0.462765
O O7 0.000000 0.000000 0.500000
O O8 0.017176 0.511962 0.314703
O O9 0.842909 0.333228 0.140963
O O10 0.000000 0.500000 0.000000
O O11 0.995826 0.814213 0.109234
O O12 0.149864 0.923406 0.929809
O O13 0.226967 0.250023 0.751029
O O14 0.539486 0.278727 0.932120
O O15 0.500000 0.000000 0.000000
#
# Coordination Sequence:
#
# PCOD9068820 Si02
#       7
#     2   2   2   1   2   2   2
#     4  12  26  47  74 105 148 191 244 307 362 434
#     4  12  23  45  74 103 140 196 249 289 369 442
#     4  12  25  45  72 106 151 193 240 307 376 427
#     4  12  20  42  72 100 134 194 250 284 350 452
#     4  12  25  43  71 107 144 189 242 308 359 440
#     4  12  24  41  72 110 139 184 255 301 355 430
#     4  12  25  43  72 104 146 197 240 297 370 443
#
# _framework density 24.286082
#
# number of rings (size 3 to 8) (size 9 to 14) (size 15 to 20)
#    0.000    0.000    9.231    0.923    0.000    1.231 
#    0.000    0.769    0.000    0.000    0.000    0.000 
#    0.000    0.000    0.000    0.000    0.000    0.000 
#
# Total GULP energy -72472.885382 kJ/mol
# GULP energy per Si atom -5574.837337 kJ/mol
# Density = 2.423081 g / cm^3
# Si number density = 24.286082 Si / 1000 Ang^3
#
#
#
# Elastic Constant Matrix: (Units=GPa)
#
#
# Indices 1 2 3 4 5 6 
#
# 1 156.6345 66.5578 34.6000 8.6150 16.0662 19.6389
# 2 66.5578 183.4846 18.8355 21.6241 7.5887 12.2499
# 3 34.6000 18.8355 71.7485 9.7603 -7.6900 1.0399
# 4 8.6150 21.6241 9.7603 39.6014 -3.2569 -3.2004
# 5 16.0662 7.5887 -7.6900 -3.2569 49.0369 -4.1788
# 6 19.6389 12.2499 1.0399 -3.2004 -4.1788 33.5853
#
#
#
# Elastic Compliance Matrix: (Units=1/GPa)
#
#
# Indices 1 2 3 4 5 6 
#
# 1 0.009374 -0.002437 -0.004162 -0.000397 -0.003797 -0.004974
# 2 -0.002437 0.006876 -0.000223 -0.003342 -0.000648 -0.001475
# 3 -0.004162 -0.000223 0.016756 -0.002588 0.004046 0.002253
# 4 -0.000397 -0.003342 -0.002588 0.028375 0.002514 0.004548
# 5 -0.003797 -0.000648 0.004046 0.002514 0.023002 0.005433
# 6 -0.004974 -0.001475 0.002253 0.004548 0.005433 0.034261
#
#
# Mechanical properties :
#
#
# Convention : Reuss Voigt Hill
#
# Bulk Modulus (GPa) = 51.64728 72.42824 62.03776
# Shear Modulus (GPa) = 36.03801 43.90300 39.97051
#
# Velocity S-wave (km/s) = 3.85632 4.25637 4.06127
# Velocity P-wave (km/s) = 6.41409 7.35141 6.89869
#
# Compressibility (1/GPa) = 0.01936210
#
# Stress axis : x y z
#
# Youngs Moduli (GPa) = 106.67593 145.42832 59.67971
#
# Poissons Ratio (x) = 0.35446 0.24837
# Poissons Ratio (y) = 0.26000 0.01332
# Poissons Ratio (z) = 0.44395 0.03247
#
# Static dielectric constant tensor:
#      x y z
#    x 1.884880 -0.035390 -0.173240 
#    y -0.035390 1.890560 -0.087030 
#    z -0.173240 -0.087030 1.906300 
# 
# From -- ./inp_files/150453.got.cif
#   From: 2010.05.17/outbox.cif.g08.bks.cpg/sg2_76_cif.got.tgz:150453.got - 2010.06.03 11:33:40.
