data_PCOD9068140
_publ_section_title
;
Structure prediction by ZEFSAII (Michael W. Deem and Ramdas Pophale) SiO2 
 PCOD9068140
Probable space group: P -1
;
_chemical_formula_sum "Si O2"
_cell_formula_units_Z 16
_cell_length_a 11.455883
_cell_length_b 23.293137
_cell_length_c 5.181032
_cell_angle_alpha 88.756265
_cell_angle_beta 85.430734
_cell_angle_gamma 152.064004
_cell_volume 632.956635
_symmetry_space_group_name_H-M "P -1"
_symmetry_group_IT_number 2
_symmetry_cell_setting 'triclinic'
loop_
_space_group_symop_operation_xyz
x,y,z
-x,-y,-z
loop_
_atom_site_type_symbol
_atom_site_label
_atom_site_fract_x
_atom_site_fract_y
_atom_site_fract_z
Si Si1 0.745544 0.865034 0.714661
Si Si2 0.127649 0.586458 0.717758
Si Si3 0.359788 0.883522 0.423214
Si Si4 0.607217 0.906734 0.057730
Si Si5 0.914430 0.149025 0.787620
Si Si6 0.411640 0.496380 0.764883
Si Si7 0.793181 0.752115 0.782542
Si Si8 0.085422 0.691204 0.882405
O O1 0.448001 0.730434 0.657152
O O2 0.976797 0.809853 0.520271
O O3 0.804311 0.825293 0.784317
O O4 0.725698 0.897436 0.967179
O O5 0.023854 0.606590 0.744371
O O6 0.000000 0.500000 0.500000
O O7 0.000000 0.500000 0.000000
O O8 0.545011 0.909332 0.342633
O O9 0.143820 0.766052 0.659504
O O10 0.251284 0.865341 0.183259
O O11 0.500000 0.000000 0.500000
O O12 0.334421 0.783497 0.987412
O O13 0.758125 0.023525 0.882467
O O14 0.128252 0.240522 0.959244
O O15 0.000000 0.000000 0.500000
O O16 0.500000 0.500000 0.500000
O O17 0.528020 0.610670 0.752023
O O18 0.500000 0.500000 0.000000
O O19 0.117507 0.378404 0.866168
#
# Coordination Sequence:
#
# PCOD9068140 Si02
#       8
#     2   2   2   2   2   2   2   2
#     4  11  26  56  83 126 169 217 285 360 418 509
#     4  11  28  54  87 120 167 228 283 343 425 505
#     4  12  26  47  79 119 165 207 275 337 418 501
#     4  11  26  47  78 116 158 217 263 339 420 487
#     4  12  26  47  77 114 162 208 264 332 415 494
#     4  12  29  50  77 111 158 216 272 328 402 491
#     4  12  28  50  80 115 165 215 264 339 425 481
#     4  11  28  49  78 116 159 212 277 338 408 503
#
# _framework density 25.278193999999999
#
# number of rings (size 3 to 8) (size 9 to 14) (size 15 to 20)
#    0.000    0.500    2.500    3.375   10.500    3.500 
#    2.250    0.000    0.000    0.000    0.000    0.000 
#    0.000    0.000    0.000    0.000    0.000    0.000 
#
# Total GULP energy -89513.146889 kJ/mol
# GULP energy per Si atom -5594.571681 kJ/mol
# Density = 2.522066 g / cm^3
# Si number density = 25.278194 Si / 1000 Ang^3
#
#
#
# Elastic Constant Matrix: (Units=GPa)
#
#
# Indices 1 2 3 4 5 6 
#
# 1 131.0685 53.7946 66.1382 0.7781 -19.4663 -20.8339
# 2 53.7946 178.1072 66.2881 2.6878 -12.3840 -20.3731
# 3 66.1382 66.2881 143.0028 18.2596 -15.3159 -16.0241
# 4 0.7781 2.6878 18.2596 48.3517 -8.8260 -1.1576
# 5 -19.4663 -12.3840 -15.3159 -8.8260 37.1966 9.4096
# 6 -20.8339 -20.3731 -16.0241 -1.1576 9.4096 52.5653
#
#
#
# Elastic Compliance Matrix: (Units=1/GPa)
#
#
# Indices 1 2 3 4 5 6 
#
# 1 0.011153 -0.001357 -0.004192 0.002197 0.003673 0.002008
# 2 -0.001357 0.007164 -0.002582 0.000710 0.000429 0.001390
# 3 -0.004192 -0.002582 0.010696 -0.003754 0.000345 0.000454
# 4 0.002197 0.000710 -0.003754 0.023002 0.005415 -0.000461
# 5 0.003673 0.000429 0.000345 0.005415 0.031327 -0.003762
# 6 0.002008 0.001390 0.000454 -0.000461 -0.003762 0.021160
#
#
# Mechanical properties :
#
#
# Convention : Reuss Voigt Hill
#
# Bulk Modulus (GPa) = 78.42312 91.62446 85.02379
# Shear Modulus (GPa) = 39.99569 45.35322 42.67445
#
# Velocity S-wave (km/s) = 3.98203 4.24035 4.11322
# Velocity P-wave (km/s) = 7.22727 7.76526 7.50109
#
# Compressibility (1/GPa) = 0.01275134
#
# Stress axis : x y z
#
# Youngs Moduli (GPa) = 89.66090 139.59624 93.49655
#
# Poissons Ratio (x) = 0.18939 0.39190
# Poissons Ratio (y) = 0.12165 0.24142
# Poissons Ratio (z) = 0.37582 0.36045
#
# Static dielectric constant tensor:
#      x y z
#    x 4.309330 1.510450 0.694590 
#    y 1.510450 3.077780 0.427630 
#    z 0.694590 0.427630 2.282080 
# 
# From -- ./inp_files/84419.got.cif
#   From: 2010.05.17/outbox.cif.g08.bks.cpg/sg2_43_cif.got.tgz:84419.got - 2010.06.03 11:33:40.
