data_PCOD9068007
_publ_section_title
;
Structure prediction by ZEFSAII (Michael W. Deem and Ramdas Pophale) SiO2 
 PCOD9068007
Probable space group: P -1
;
_chemical_formula_sum "Si O2"
_cell_formula_units_Z 14
_cell_length_a 10.609218
_cell_length_b 11.894435
_cell_length_c 10.291630
_cell_angle_alpha 69.817720
_cell_angle_beta 152.262339
_cell_angle_gamma 108.181687
_cell_volume 567.270092
_symmetry_space_group_name_H-M "P -1"
_symmetry_group_IT_number 2
_symmetry_cell_setting 'triclinic'
loop_
_space_group_symop_operation_xyz
x,y,z
-x,-y,-z
loop_
_atom_site_type_symbol
_atom_site_label
_atom_site_fract_x
_atom_site_fract_y
_atom_site_fract_z
Si Si1 0.755779 0.385660 0.851800
Si Si2 0.474901 0.720250 0.804043
Si Si3 0.105173 0.319743 0.589826
Si Si4 0.267026 0.077443 0.694555
Si Si5 0.734536 0.916440 0.798372
Si Si6 0.303560 0.531205 0.511743
Si Si7 0.243910 0.223948 0.375815
O O1 0.839544 0.449043 0.766742
O O2 0.513379 0.299892 0.612518
O O3 0.408779 0.528912 0.237016
O O4 0.984758 0.300326 0.150161
O O5 0.615710 0.847524 0.843352
O O6 0.371847 0.649270 0.610256
O O7 0.201572 0.720515 0.640700
O O8 0.712360 0.655407 0.125558
O O9 0.244138 0.207296 0.689791
O O10 0.134516 0.437895 0.482314
O O11 0.284222 0.106971 0.546208
O O12 0.000000 0.000000 0.500000
O O13 0.500000 0.000000 0.000000
O O14 0.794928 0.811433 0.793542
O O15 0.500000 0.000000 0.500000
O O16 0.000000 0.000000 0.000000
#
# Coordination Sequence:
#
# PCOD9068007 Si02
#       7
#     2   2   2   2   2   2   2
#     4  11  26  46  81 110 149 189 250 311 369 440
#     4  12  28  48  75 110 151 200 245 304 373 447
#     4  12  28  48  75 109 153 199 247 302 374 445
#     4  12  28  49  76 106 148 195 251 304 367 440
#     4  12  28  49  77 108 148 194 251 306 368 440
#     4  11  26  50  76 113 151 198 248 309 373 444
#     4  12  26  51  76 110 145 195 249 311 367 437
#
# _framework density 24.679601999999999
#
# number of rings (size 3 to 8) (size 9 to 14) (size 15 to 20)
#    0.000    0.286    2.857    4.286   10.000    4.571 
#    0.000    0.000    0.000    0.000    0.000    0.000 
#    0.000    0.000    0.000    0.000    0.000    0.000 
#
# Total GULP energy -78471.859612 kJ/mol
# GULP energy per Si atom -5605.132829 kJ/mol
# Density = 2.462343 g / cm^3
# Si number density = 24.679602 Si / 1000 Ang^3
#
#
#
# Elastic Constant Matrix: (Units=GPa)
#
#
# Indices 1 2 3 4 5 6 
#
# 1 83.1837 28.5266 27.6930 -1.8741 9.6838 31.6288
# 2 28.5266 100.7256 30.6225 2.3451 18.1418 27.1921
# 3 27.6930 30.6225 159.3917 -9.0211 20.9115 27.3392
# 4 -1.8741 2.3451 -9.0211 47.2705 9.4732 -2.9599
# 5 9.6838 18.1418 20.9115 9.4732 36.4789 5.4438
# 6 31.6288 27.1921 27.3392 -2.9599 5.4438 56.9377
#
#
#
# Elastic Compliance Matrix: (Units=1/GPa)
#
#
# Indices 1 2 3 4 5 6 
#
# 1 0.015996 -0.001974 -0.000883 0.000463 -0.001786 -0.007324
# 2 -0.001974 0.012691 -0.000780 -0.000180 -0.004674 -0.004153
# 3 -0.000883 -0.000780 0.007608 0.002101 -0.003941 -0.002304
# 4 0.000463 -0.000180 0.002101 0.023100 -0.007345 0.000723
# 5 -0.001786 -0.004674 -0.003941 -0.007345 0.034159 0.001469
# 6 -0.007324 -0.004153 -0.002304 0.000723 0.001469 0.024618
#
#
# Mechanical properties :
#
#
# Convention : Reuss Voigt Hill
#
# Bulk Modulus (GPa) = 34.45740 57.44282 45.95011
# Shear Modulus (GPa) = 37.00423 45.23469 41.11946
#
# Velocity S-wave (km/s) = 3.87639 4.28586 4.08626
# Velocity P-wave (km/s) = 5.83330 6.91501 6.39706
#
# Compressibility (1/GPa) = 0.02902134
#
# Stress axis : x y z
#
# Youngs Moduli (GPa) = 62.51740 78.79523 131.43544
#
# Poissons Ratio (x) = 0.15550 0.11609
# Poissons Ratio (y) = 0.12338 0.10253
# Poissons Ratio (z) = 0.05522 0.06147
#
# Static dielectric constant tensor:
#      x y z
#    x 2.075810 0.035940 -0.021470 
#    y 0.035940 2.009360 0.029420 
#    z -0.021470 0.029420 1.885810 
# 
# From -- ./inp_files/433881.got.cif
#   From: 2010.05.17/outbox.cif.g08.bks.cpg/sg2_217_cif.got.tgz:433881.got - 2010.06.03 11:33:40.
