data_PCOD9068380
_publ_section_title
;
Structure prediction by ZEFSAII (Michael W. Deem and Ramdas Pophale) SiO2 
 PCOD9068380
Probable space group: P -1
;
_chemical_formula_sum "Si O2"
_cell_formula_units_Z 12
_cell_length_a 8.264006
_cell_length_b 7.908586
_cell_length_c 9.224191
_cell_angle_alpha 115.483187
_cell_angle_beta 63.679540
_cell_angle_gamma 100.289790
_cell_volume 487.736109
_symmetry_space_group_name_H-M "P -1"
_symmetry_group_IT_number 2
_symmetry_cell_setting 'triclinic'
loop_
_space_group_symop_operation_xyz
x,y,z
-x,-y,-z
loop_
_atom_site_type_symbol
_atom_site_label
_atom_site_fract_x
_atom_site_fract_y
_atom_site_fract_z
Si Si1 0.494275 0.348470 0.255442
Si Si2 0.389867 0.000819 0.755253
Si Si3 0.653813 0.263068 0.579774
Si Si4 0.194982 0.234563 0.145150
Si Si5 0.102859 0.527250 0.820046
Si Si6 0.032631 0.211076 0.520159
O O1 0.479210 0.157304 0.283408
O O2 0.407057 0.548548 0.409541
O O3 0.394119 0.319993 0.130394
O O4 0.707044 0.383069 0.183438
O O5 0.303427 0.897254 0.614322
O O6 0.500384 0.175421 0.710909
O O7 0.246305 0.064326 0.955771
O O8 0.834265 0.302963 0.610114
O O9 0.032455 0.346560 0.175531
O O10 0.127671 0.207393 0.325578
O O11 0.129739 0.333822 0.648766
O O12 0.000000 0.500000 0.000000
O O13 0.000000 0.000000 0.500000
#
# Coordination Sequence:
#
# PCOD9068380 Si02
#       6
#     2   2   2   2   2   2
#     4  12  27  49  80 107 158 203 254 317 383 459
#     4  11  27  46  80 116 148 210 258 314 389 462
#     4  11  26  49  79 111 158 201 259 321 385 455
#     4  12  28  52  77 114 157 203 260 318 388 457
#     4  12  30  49  80 117 152 205 259 318 391 458
#     4  12  29  50  78 115 157 203 260 322 384 463
#
# _framework density 24.603467999999999
#
# number of rings (size 3 to 8) (size 9 to 14) (size 15 to 20)
#    0.000    0.333    1.667    4.500   16.333    2.667 
#    0.000    0.000    0.000    0.000    0.000    0.000 
#    0.000    0.000    0.000    0.000    0.000    0.000 
#
# Total GULP energy -67197.879733 kJ/mol
# GULP energy per Si atom -5599.823311 kJ/mol
# Density = 2.454747 g / cm^3
# Si number density = 24.603468 Si / 1000 Ang^3
#
#
#
# Elastic Constant Matrix: (Units=GPa)
#
#
# Indices 1 2 3 4 5 6 
#
# 1 152.4823 35.0490 -1.6412 -5.4784 -2.2197 -2.1873
# 2 35.0490 124.3862 48.0734 -2.5176 -9.8490 -13.6486
# 3 -1.6412 48.0734 148.5324 -0.4934 6.5055 1.7391
# 4 -5.4784 -2.5176 -0.4934 38.7310 -5.8966 0.2862
# 5 -2.2197 -9.8490 6.5055 -5.8966 18.3309 5.9142
# 6 -2.1873 -13.6486 1.7391 0.2862 5.9142 35.3108
#
#
#
# Elastic Compliance Matrix: (Units=1/GPa)
#
#
# Indices 1 2 3 4 5 6 
#
# 1 0.007141 -0.002416 0.000884 0.000818 -0.000327 -0.000487
# 2 -0.002416 0.011142 -0.003950 0.001291 0.006460 0.003259
# 3 0.000884 -0.003950 0.008243 -0.000756 -0.004841 -0.001061
# 4 0.000818 0.001291 -0.000756 0.027600 0.010383 -0.001376
# 5 -0.000327 0.006460 -0.004841 0.010383 0.065746 -0.008381
# 6 -0.000487 0.003259 -0.001061 -0.001376 -0.008381 0.031017
#
#
# Mechanical properties :
#
#
# Convention : Reuss Voigt Hill
#
# Bulk Modulus (GPa) = 64.26463 65.37371 64.81917
# Shear Modulus (GPa) = 29.93296 41.40251 35.66774
#
# Velocity S-wave (km/s) = 3.49179 4.10663 3.81163
# Velocity P-wave (km/s) = 6.51411 7.00818 6.76565
#
# Compressibility (1/GPa) = 0.01556066
#
# Stress axis : x y z
#
# Youngs Moduli (GPa) = 140.04189 89.74960 121.32094
#
# Poissons Ratio (x) = 0.21687 -0.10721
# Poissons Ratio (y) = 0.33840 0.47918
# Poissons Ratio (z) = -0.12376 0.35448
#
# Static dielectric constant tensor:
#      x y z
#    x 1.986760 0.006940 -0.026390 
#    y 0.006940 1.999420 -0.037090 
#    z -0.026390 -0.037090 1.840450 
# 
# From -- ./inp_files/147685.got.cif
#   From: 2010.05.17/outbox.cif.g08.bks.cpg/sg2_74_cif.got.tgz:147685.got - 2010.06.03 11:33:40.
