data_PCOD9068176
_publ_section_title
;
Structure prediction by ZEFSAII (Michael W. Deem and Ramdas Pophale) SiO2 
 PCOD9068176
Probable space group: P -1
;
_chemical_formula_sum "Si O2"
_cell_formula_units_Z 14
_cell_length_a 6.799616
_cell_length_b 9.258857
_cell_length_c 14.104317
_cell_angle_alpha 46.854315
_cell_angle_beta 107.716411
_cell_angle_gamma 82.528281
_cell_volume 539.181636
_symmetry_space_group_name_H-M "P -1"
_symmetry_group_IT_number 2
_symmetry_cell_setting 'triclinic'
loop_
_space_group_symop_operation_xyz
x,y,z
-x,-y,-z
loop_
_atom_site_type_symbol
_atom_site_label
_atom_site_fract_x
_atom_site_fract_y
_atom_site_fract_z
Si Si1 0.047035 0.214092 0.411090
Si Si2 0.914441 0.830258 0.771460
Si Si3 0.199394 0.319296 0.578123
Si Si4 0.648681 0.365627 0.512381
Si Si5 0.511381 0.495839 0.223766
Si Si6 0.392450 0.921282 0.936111
Si Si7 0.660522 0.617872 0.934911
O O1 0.787150 0.434125 0.282063
O O2 0.158543 0.201893 0.330623
O O3 0.197598 0.215541 0.521487
O O4 0.000000 0.000000 0.500000
O O5 0.819388 0.730790 0.881774
O O6 0.824444 0.091068 0.659868
O O7 0.192298 0.649362 0.897839
O O8 0.446584 0.368755 0.563885
O O9 0.884114 0.422973 0.504540
O O10 0.269534 0.142854 0.753393
O O11 0.507173 0.429699 0.361979
O O12 0.472427 0.359643 0.193985
O O13 0.318875 0.759145 0.058320
O O14 0.544708 0.743077 0.957960
O O15 0.500000 0.000000 0.000000
#
# Coordination Sequence:
#
# PCOD9068176 Si02
#       7
#     2   2   2   2   2   2   2
#     4  12  23  44  72 106 135 184 235 286 342 421
#     4  11  26  48  71  98 145 180 237 285 350 421
#     4  12  25  44  70 104 140 182 231 286 352 409
#     4  12  27  47  68 103 143 184 229 290 352 418
#     4  12  25  44  71 104 136 183 237 283 350 409
#     4  12  24  44  71 104 143 175 233 291 343 415
#     4  11  27  46  71 105 136 190 229 293 350 408
#
# _framework density 25.965277
#
# number of rings (size 3 to 8) (size 9 to 14) (size 15 to 20)
#    0.000    0.286    5.714    2.143    6.000    0.571 
#    0.000    0.714    0.000    0.000    0.000    0.000 
#    0.000    0.000    0.000    0.000    0.000    0.000 
#
# Total GULP energy -78066.653033 kJ/mol
# GULP energy per Si atom -5576.189502 kJ/mol
# Density = 2.590618 g / cm^3
# Si number density = 25.965277 Si / 1000 Ang^3
#
#
#
# Elastic Constant Matrix: (Units=GPa)
#
#
# Indices 1 2 3 4 5 6 
#
# 1 76.4100 56.6936 37.5053 2.6332 -16.3481 -14.2200
# 2 56.6936 220.1692 105.4118 14.1647 14.4768 2.1090
# 3 37.5053 105.4118 235.5700 -4.6385 -15.5381 -1.5695
# 4 2.6332 14.1647 -4.6385 69.0594 2.8935 -1.0398
# 5 -16.3481 14.4768 -15.5381 2.8935 30.8297 9.8472
# 6 -14.2200 2.1090 -1.5695 -1.0398 9.8472 41.2665
#
#
#
# Elastic Compliance Matrix: (Units=1/GPa)
#
#
# Indices 1 2 3 4 5 6 
#
# 1 0.021526 -0.006700 0.000483 0.000097 0.013325 0.004601
# 2 -0.006700 0.008571 -0.003388 -0.001369 -0.008906 -0.000785
# 3 0.000483 -0.003388 0.006027 0.000863 0.004995 -0.000602
# 4 0.000097 -0.001369 0.000863 0.014844 -0.000462 0.000621
# 5 0.013325 -0.008906 0.004995 -0.000462 0.048254 -0.006289
# 6 0.004601 -0.000785 -0.000602 0.000621 -0.006289 0.027352
#
#
# Mechanical properties :
#
#
# Convention : Reuss Voigt Hill
#
# Bulk Modulus (GPa) = 59.13119 103.48562 81.30841
# Shear Modulus (GPa) = 33.02032 50.40033 41.71032
#
# Velocity S-wave (km/s) = 3.56997 4.41053 4.01233
# Velocity P-wave (km/s) = 6.30996 8.11659 7.26961
#
# Compressibility (1/GPa) = 0.01691155
#
# Stress axis : x y z
#
# Youngs Moduli (GPa) = 46.45582 116.67845 165.92890
#
# Poissons Ratio (x) = 0.78180 -0.08009
# Poissons Ratio (y) = 0.31128 0.56216
# Poissons Ratio (z) = -0.02242 0.39530
#
# Static dielectric constant tensor:
#      x y z
#    x 2.502420 0.078850 0.055730 
#    y 0.078850 1.955980 -0.058590 
#    z 0.055730 -0.058590 2.052440 
# 
# From -- ./inp_files/492119.got.cif
#   From: 2010.05.17/outbox.cif.g08.bks.cpg/sg2_247_cif.got.tgz:492119.got - 2010.06.03 11:33:40.
