data_PCOD9068703
_publ_section_title
;
Structure prediction by ZEFSAII (Michael W. Deem and Ramdas Pophale) SiO2 
 PCOD9068703
Probable space group: P -1
;
_chemical_formula_sum "Si O2"
_cell_formula_units_Z 14
_cell_length_a 26.814857
_cell_length_b 5.090456
_cell_length_c 4.991556
_cell_angle_alpha 91.407284
_cell_angle_beta 69.535150
_cell_angle_gamma 125.768466
_cell_volume 503.246597
_symmetry_space_group_name_H-M "P -1"
_symmetry_group_IT_number 2
_symmetry_cell_setting 'triclinic'
loop_
_space_group_symop_operation_xyz
x,y,z
-x,-y,-z
loop_
_atom_site_type_symbol
_atom_site_label
_atom_site_fract_x
_atom_site_fract_y
_atom_site_fract_z
Si Si1 0.502032 0.705853 0.748129
Si Si2 0.302542 0.890204 0.480003
Si Si3 0.149101 0.416116 0.610864
Si Si4 0.871786 0.153279 0.705405
Si Si5 0.612763 0.249515 0.882145
Si Si6 0.283867 0.328751 0.873686
Si Si7 0.956009 0.778419 0.825647
O O1 0.500000 0.500000 0.500000
O O2 0.443363 0.747065 0.859543
O O3 0.500000 0.500000 0.000000
O O4 0.570452 0.082931 0.678538
O O5 0.229572 0.667357 0.474948
O O6 0.297619 0.642309 0.703012
O O7 0.313686 0.190073 0.627357
O O8 0.360264 0.973848 0.167541
O O9 0.116677 0.311855 0.964711
O O10 0.125597 0.606832 0.512797
O O11 0.124298 0.096219 0.479173
O O12 0.797013 0.944828 0.967294
O O13 0.931957 0.406288 0.803504
O O14 0.681592 0.575847 0.896849
O O15 0.000000 0.000000 0.500000
O O16 0.000000 0.000000 0.000000
#
# Coordination Sequence:
#
# PCOD9068703 Si02
#       7
#     2   2   2   2   2   2   2
#     4  11  28  51  78 112 163 208 265 319 392 472
#     4  12  27  45  79 118 159 204 264 330 403 468
#     4  12  27  50  79 115 161 208 265 331 401 474
#     4  12  27  50  79 115 161 208 265 331 401 474
#     4  11  28  44  78 112 158 206 268 320 398 468
#     4  12  27  45  79 118 159 204 264 330 403 468
#     4  12  28  52  80 116 160 215 268 327 400 482
#
# _framework density 27.819361000000001
#
# number of rings (size 3 to 8) (size 9 to 14) (size 15 to 20)
#    0.000    0.286    4.286    2.571    8.000    2.286 
#    0.000    0.000    0.000    0.000    0.000    0.000 
#    0.000    0.000    0.000    0.000    0.000    0.000 
#
# Total GULP energy -78358.730905 kJ/mol
# GULP energy per Si atom -5597.052208 kJ/mol
# Density = 2.775604 g / cm^3
# Si number density = 27.819361 Si / 1000 Ang^3
#
#
#
# Elastic Constant Matrix: (Units=GPa)
#
#
# Indices 1 2 3 4 5 6 
#
# 1 113.6324 51.0283 47.7968 10.1349 -11.7471 -0.1791
# 2 51.0283 184.9796 58.7206 36.5572 16.1982 15.2968
# 3 47.7968 58.7206 163.2418 46.7625 7.6991 -10.9575
# 4 10.1349 36.5572 46.7625 66.8876 -2.9170 -6.4779
# 5 -11.7471 16.1982 7.6991 -2.9170 53.2328 0.1103
# 6 -0.1791 15.2968 -10.9575 -6.4779 0.1103 69.0700
#
#
#
# Elastic Compliance Matrix: (Units=1/GPa)
#
#
# Indices 1 2 3 4 5 6 
#
# 1 0.011736 -0.003093 -0.003160 0.002342 0.004115 0.000427
# 2 -0.003093 0.007665 -0.000859 -0.003463 -0.003076 -0.002162
# 3 -0.003160 -0.000859 0.009071 -0.005374 -0.002045 0.001121
# 4 0.002342 -0.003463 -0.005374 0.020575 0.003472 0.001845
# 5 0.004115 -0.003076 -0.002045 0.003472 0.021114 0.000659
# 6 0.000427 -0.002162 0.001121 0.001845 0.000659 0.015308
#
#
# Mechanical properties :
#
#
# Convention : Reuss Voigt Hill
#
# Bulk Modulus (GPa) = 70.19102 86.32724 78.25913
# Shear Modulus (GPa) = 47.87339 58.12528 52.99933
#
# Velocity S-wave (km/s) = 4.15283 4.57593 4.36951
# Velocity P-wave (km/s) = 6.94841 7.68229 7.32455
#
# Compressibility (1/GPa) = 0.01424684
#
# Stress axis : x y z
#
# Youngs Moduli (GPa) = 85.21100 130.47157 110.23649
#
# Poissons Ratio (x) = 0.40353 0.34835
# Poissons Ratio (y) = 0.26354 0.09475
# Poissons Ratio (z) = 0.26927 0.11214
#
# Static dielectric constant tensor:
#      x y z
#    x 2.168800 -0.012670 0.032440 
#    y -0.012670 2.205790 -0.135880 
#    z 0.032440 -0.135880 2.310880 
# 
# From -- ./inp_files/125647.got.cif
#   From: 2010.05.17/outbox.cif.g08.bks.cpg/sg2_63_cif.got.tgz:125647.got - 2010.06.03 11:33:40.
