data_PCOD9068496
_publ_section_title
;
Structure prediction by ZEFSAII (Michael W. Deem and Ramdas Pophale) SiO2 
 PCOD9068496
Probable space group: P -1
;
_chemical_formula_sum "Si O2"
_cell_formula_units_Z 12
_cell_length_a 7.101401
_cell_length_b 8.869975
_cell_length_c 8.656692
_cell_angle_alpha 101.112379
_cell_angle_beta 96.322164
_cell_angle_gamma 55.335485
_cell_volume 440.080863
_symmetry_space_group_name_H-M "P -1"
_symmetry_group_IT_number 2
_symmetry_cell_setting 'triclinic'
loop_
_space_group_symop_operation_xyz
x,y,z
-x,-y,-z
loop_
_atom_site_type_symbol
_atom_site_label
_atom_site_fract_x
_atom_site_fract_y
_atom_site_fract_z
Si Si1 0.657998 0.594510 0.880741
Si Si2 0.215616 0.011046 0.871228
Si Si3 0.693283 0.835785 0.382320
Si Si4 0.450464 0.638883 0.382299
Si Si5 0.926587 0.171464 0.392888
Si Si6 0.042900 0.643029 0.855686
O O1 0.425898 0.802757 0.898778
O O2 0.626771 0.440344 0.774966
O O3 0.848307 0.602703 0.801708
O O4 0.773785 0.511194 0.039841
O O5 0.310189 0.095834 0.777100
O O6 0.037177 0.990612 0.750712
O O7 0.092119 0.160009 0.024571
O O8 0.753008 0.180344 0.506097
O O9 0.628146 0.687716 0.358418
O O10 0.919125 0.787705 0.480661
O O11 0.859091 0.322676 0.280931
O O12 0.500000 0.000000 0.500000
O O13 0.500000 0.500000 0.500000
#
# Coordination Sequence:
#
# PCOD9068496 Si02
#       6
#     2   2   2   2   2   2
#     4  11  26  52  75 116 156 205 267 317 392 465
#     4  12  25  52  78 115 158 207 261 320 394 473
#     4  12  26  46  80 113 155 207 259 329 390 460
#     4  12  25  49  77 116 155 200 266 328 384 461
#     4  12  26  48  79 116 155 203 262 322 394 464
#     4  11  27  49  80 112 162 208 255 324 391 476
#
# _framework density 27.267714000000002
#
# number of rings (size 3 to 8) (size 9 to 14) (size 15 to 20)
#    0.000    0.333    3.333    4.500    2.333    6.000 
#    6.000    1.667    0.000    0.000    0.000    0.000 
#    0.000    0.000    0.000    0.000    0.000    0.000 
#
# Total GULP energy -67202.135407 kJ/mol
# GULP energy per Si atom -5600.177951 kJ/mol
# Density = 2.720565 g / cm^3
# Si number density = 27.267714 Si / 1000 Ang^3
#
#
#
# Elastic Constant Matrix: (Units=GPa)
#
#
# Indices 1 2 3 4 5 6 
#
# 1 213.0105 50.8849 73.4731 -3.7899 11.9895 34.1225
# 2 50.8849 136.1444 61.0940 -7.9795 2.1283 25.2781
# 3 73.4731 61.0940 98.3941 17.6145 12.4600 10.5795
# 4 -3.7899 -7.9795 17.6145 42.9294 17.7206 9.3294
# 5 11.9895 2.1283 12.4600 17.7206 65.8142 1.5460
# 6 34.1225 25.2781 10.5795 9.3294 1.5460 44.0788
#
#
#
# Elastic Compliance Matrix: (Units=1/GPa)
#
#
# Indices 1 2 3 4 5 6 
#
# 1 0.008115 0.002014 -0.007492 0.006361 -0.001675 -0.006926
# 2 0.002014 0.013465 -0.010456 0.009329 -0.001130 -0.008707
# 3 -0.007492 -0.010456 0.023783 -0.014752 0.000957 0.009176
# 4 0.006361 0.009329 -0.014752 0.038380 -0.008660 -0.014554
# 5 -0.001675 -0.001130 0.000957 -0.008660 0.017618 0.002930
# 6 -0.006926 -0.008707 0.009176 -0.014554 0.002930 0.033817
#
#
# Mechanical properties :
#
#
# Convention : Reuss Voigt Hill
#
# Bulk Modulus (GPa) = 74.09696 90.93921 82.51809
# Shear Modulus (GPa) = 29.14727 48.03760 38.59243
#
# Velocity S-wave (km/s) = 3.27300 4.20182 3.76615
# Velocity P-wave (km/s) = 6.44331 7.54740 7.01710
#
# Compressibility (1/GPa) = 0.01349583
#
# Stress axis : x y z
#
# Youngs Moduli (GPa) = 123.23399 74.26503 42.04728
#
# Poissons Ratio (x) = -0.14958 0.31502
# Poissons Ratio (y) = -0.24821 0.43963
# Poissons Ratio (z) = 0.92326 0.77648
#
# Static dielectric constant tensor:
#      x y z
#    x 2.076350 -0.223690 -0.050950 
#    y -0.223690 2.804400 0.145630 
#    z -0.050950 0.145630 2.071050 
# 
# From -- ./inp_files/431856.got.cif
#   From: 2010.05.17/outbox.cif.g08.bks.cpg/sg2_216_cif.got.tgz:431856.got - 2010.06.03 11:33:40.
