data_PCOD9068967
_publ_section_title
;
Structure prediction by ZEFSAII (Michael W. Deem and Ramdas Pophale) SiO2 
 PCOD9068967
Probable space group: P -1
;
_chemical_formula_sum "Si O2"
_cell_formula_units_Z 16
_cell_length_a 11.965307
_cell_length_b 8.238641
_cell_length_c 15.435750
_cell_angle_alpha 77.688128
_cell_angle_beta 153.195292
_cell_angle_gamma 95.877996
_cell_volume 656.915351
_symmetry_space_group_name_H-M "P -1"
_symmetry_group_IT_number 2
_symmetry_cell_setting 'triclinic'
loop_
_space_group_symop_operation_xyz
x,y,z
-x,-y,-z
loop_
_atom_site_type_symbol
_atom_site_label
_atom_site_fract_x
_atom_site_fract_y
_atom_site_fract_z
Si Si1 0.730186 0.850560 0.496331
Si Si2 0.488847 0.345417 0.763893
Si Si3 0.821223 0.137307 0.419217
Si Si4 0.300605 0.286057 0.981313
Si Si5 0.781031 0.620802 0.891001
Si Si6 0.756014 0.994521 0.771744
Si Si7 0.900231 0.053024 0.133388
Si Si8 0.834181 0.630854 0.304872
O O1 0.725031 0.707108 0.438202
O O2 0.995620 0.855195 0.724232
O O3 0.665471 0.028962 0.380961
O O4 0.488951 0.864323 0.389930
O O5 0.552129 0.520001 0.755266
O O6 0.421129 0.329183 0.819847
O O7 0.737127 0.198529 0.944417
O O8 0.007054 0.220150 0.596401
O O9 0.603648 0.267170 0.204537
O O10 0.000000 0.000000 0.500000
O O11 0.209261 0.400207 0.821702
O O12 0.251647 0.097957 0.945078
O O13 0.166654 0.346271 0.973782
O O14 0.715446 0.802270 0.778356
O O15 0.000000 0.500000 0.000000
O O16 0.844928 0.023420 0.733544
O O17 0.000000 0.000000 0.000000
O O18 0.000000 0.500000 0.500000
#
# Coordination Sequence:
#
# PCOD9068967 Si02
#       8
#     2   2   2   2   2   2   2   2
#     4  12  24  43  72 104 141 185 241 295 353 430
#     4  12  26  45  70 106 148 187 232 306 361 428
#     4  12  23  44  72 106 141 186 244 300 351 434
#     4  12  26  47  78 104 143 200 243 298 372 425
#     4  12  24  45  76 103 144 190 234 297 365 432
#     4  12  21  46  74 102 145 185 238 300 360 429
#     4  12  24  43  75 109 137 187 245 295 366 432
#     4  12  29  47  70 105 151 192 245 300 362 436
#
# _framework density 24.356259000000001
#
# number of rings (size 3 to 8) (size 9 to 14) (size 15 to 20)
#    0.000    0.000    8.750    1.125    1.750    4.000 
#    0.000    0.625    0.000    0.000    0.000    0.000 
#    0.000    0.000    0.000    0.000    0.000    0.000 
#
# Total GULP energy -89426.673431 kJ/mol
# GULP energy per Si atom -5589.167089 kJ/mol
# Density = 2.430082 g / cm^3
# Si number density = 24.356259 Si / 1000 Ang^3
#
#
#
# Elastic Constant Matrix: (Units=GPa)
#
#
# Indices 1 2 3 4 5 6 
#
# 1 90.0915 3.6791 30.1431 2.0951 3.6674 -16.0098
# 2 3.6791 91.5959 21.5381 24.8700 -3.5493 9.7375
# 3 30.1431 21.5381 109.7770 14.8140 -10.5974 -18.6877
# 4 2.0951 24.8700 14.8140 39.7495 -9.8437 6.2959
# 5 3.6674 -3.5493 -10.5974 -9.8437 35.0511 3.1494
# 6 -16.0098 9.7375 -18.6877 6.2959 3.1494 45.6494
#
#
#
# Elastic Compliance Matrix: (Units=1/GPa)
#
#
# Indices 1 2 3 4 5 6 
#
# 1 0.012905 -0.000079 -0.003092 -0.000744 -0.002823 0.003574
# 2 -0.000079 0.013763 -0.002229 -0.007631 -0.001169 -0.002743
# 3 -0.003092 -0.002229 0.011785 -0.002937 0.002436 0.004453
# 4 -0.000744 -0.007631 -0.002937 0.033957 0.008412 -0.005099
# 5 -0.002823 -0.001169 0.002436 0.008412 0.032086 -0.003117
# 6 0.003574 -0.002743 0.004453 -0.005099 -0.003117 0.026486
#
#
# Mechanical properties :
#
#
# Convention : Reuss Voigt Hill
#
# Bulk Modulus (GPa) = 36.15984 44.68723 40.42354
# Shear Modulus (GPa) = 33.11316 39.83027 36.47172
#
# Velocity S-wave (km/s) = 3.69119 4.04830 3.87386
# Velocity P-wave (km/s) = 5.74847 6.34340 6.05325
#
# Compressibility (1/GPa) = 0.02765499
#
# Stress axis : x y z
#
# Youngs Moduli (GPa) = 77.49003 72.65829 84.85376
#
# Poissons Ratio (x) = 0.00572 0.26234
# Poissons Ratio (y) = 0.00610 0.18910
# Poissons Ratio (z) = 0.23957 0.16192
#
# Static dielectric constant tensor:
#      x y z
#    x 2.271200 -0.019250 0.150310 
#    y -0.019250 1.971730 0.029930 
#    z 0.150310 0.029930 2.068470 
# 
# From -- ./inp_files/515558.got.cif
#   From: 2010.05.17/outbox.cif.g08.bks.cpg/sg2_258_cif.got.tgz:515558.got - 2010.06.03 11:33:40.
