data_PCOD9068194
_publ_section_title
;
Structure prediction by ZEFSAII (Michael W. Deem and Ramdas Pophale) SiO2 
 PCOD9068194
Probable space group: P -1
;
_chemical_formula_sum "Si O2"
_cell_formula_units_Z 14
_cell_length_a 18.225319
_cell_length_b 18.518272
_cell_length_c 9.400603
_cell_angle_alpha 34.014647
_cell_angle_beta 35.184831
_cell_angle_gamma 19.223137
_cell_volume 573.944877
_symmetry_space_group_name_H-M "P -1"
_symmetry_group_IT_number 2
_symmetry_cell_setting 'triclinic'
loop_
_space_group_symop_operation_xyz
x,y,z
-x,-y,-z
loop_
_atom_site_type_symbol
_atom_site_label
_atom_site_fract_x
_atom_site_fract_y
_atom_site_fract_z
Si Si1 0.259916 0.659988 0.904201
Si Si2 0.315510 0.576522 0.491027
Si Si3 0.000000 0.000000 0.500000
Si Si4 0.125966 0.142837 0.433039
Si Si5 0.788947 0.731796 0.659751
Si Si6 0.975031 0.704556 0.137589
Si Si7 0.617968 0.083609 0.890481
Si Si8 0.000000 0.000000 0.000000
O O1 0.522859 0.471602 0.784342
O O2 0.116401 0.879748 0.674113
O O3 0.143002 0.769891 0.061649
O O4 0.196059 0.576591 0.071366
O O5 0.217170 0.744391 0.498213
O O6 0.460578 0.338715 0.712373
O O7 0.115998 0.680514 0.545715
O O8 0.130563 0.254845 0.354214
O O9 0.178962 0.962882 0.720051
O O10 0.296947 0.024240 0.224623
O O11 0.814882 0.792333 0.375586
O O12 0.950936 0.472765 0.793376
O O13 0.534734 0.897536 0.825163
O O14 0.840859 0.924165 0.896624
#
# Coordination Sequence:
#
# PCOD9068194 Si02
#       8
#     2   2   1   2   2   2   2   1
#     4  12  24  46  74 105 151 185 239 302 376 433
#     4  12  26  45  77 109 143 197 239 303 374 432
#     4  12  24  44  68 106 146 182 242 294 358 448
#     4  12  26  50  72 106 150 187 251 300 358 452
#     4  11  26  49  74 106 145 196 243 306 364 420
#     4  11  26  48  73 109 147 188 248 307 357 441
#     4  12  25  48  75 107 142 198 248 293 372 428
#     4  12  24  50  68 110 150 190 238 310 364 436
#
# _framework density 24.392586000000001
#
# number of rings (size 3 to 8) (size 9 to 14) (size 15 to 20)
#    0.000    0.286    4.286    4.714    0.000    6.286 
#    0.000    0.000    0.000    0.000    0.000    0.000 
#    0.000    0.000    0.000    0.000    0.000    0.000 
#
# Total GULP energy -78030.291744 kJ/mol
# GULP energy per Si atom -5573.592267 kJ/mol
# Density = 2.433707 g / cm^3
# Si number density = 24.392586 Si / 1000 Ang^3
#
#
#
# Elastic Constant Matrix: (Units=GPa)
#
#
# Indices 1 2 3 4 5 6 
#
# 1 163.9067 78.5980 21.2741 13.4897 -9.1110 32.3976
# 2 78.5980 112.6072 38.6599 24.4783 11.7484 29.7077
# 3 21.2741 38.6599 91.8659 37.8596 14.1637 4.6781
# 4 13.4897 24.4783 37.8596 64.3178 0.2959 1.8952
# 5 -9.1110 11.7484 14.1637 0.2959 32.1776 9.9486
# 6 32.3976 29.7077 4.6781 1.8952 9.9486 47.7793
#
#
#
# Elastic Compliance Matrix: (Units=1/GPa)
#
#
# Indices 1 2 3 4 5 6 
#
# 1 0.010803 -0.007072 -0.000863 0.001030 0.007378 -0.004421
# 2 -0.007072 0.017355 -0.003369 -0.002984 -0.005465 -0.004410
# 3 -0.000863 -0.003369 0.017036 -0.008616 -0.007324 0.002878
# 4 0.001030 -0.002984 -0.008616 0.021513 0.004939 0.000119
# 5 0.007378 -0.005465 -0.007324 0.004939 0.041336 -0.009691
# 6 -0.004421 -0.004410 0.002878 0.000119 -0.009691 0.028400
#
#
# Mechanical properties :
#
#
# Convention : Reuss Voigt Hill
#
# Bulk Modulus (GPa) = 44.27081 71.71599 57.99340
# Shear Modulus (GPa) = 30.01552 44.17812 37.09682
#
# Velocity S-wave (km/s) = 3.51168 4.26035 3.90400
# Velocity P-wave (km/s) = 5.88483 7.32567 6.64442
#
# Compressibility (1/GPa) = 0.02258825
#
# Stress axis : x y z
#
# Youngs Moduli (GPa) = 92.56471 57.62011 58.69751
#
# Poissons Ratio (x) = 0.40746 0.05063
# Poissons Ratio (y) = 0.65458 0.19776
# Poissons Ratio (z) = 0.07984 0.19413
#
# Static dielectric constant tensor:
#      x y z
#    x 2.050030 -0.053480 -0.159250 
#    y -0.053480 1.878490 0.000930 
#    z -0.159250 0.000930 2.320090 
# 
# From -- ./inp_files/336678.got.cif
#   From: 2010.05.17/outbox.cif.g08.bks.cpg/sg2_169_cif.got.tgz:336678.got - 2010.06.03 11:33:40.
