data_PCOD9068334
_publ_section_title
;
Structure prediction by ZEFSAII (Michael W. Deem and Ramdas Pophale) SiO2 
 PCOD9068334
Probable space group: P -1
;
_chemical_formula_sum "Si O2"
_cell_formula_units_Z 16
_cell_length_a 15.706046
_cell_length_b 9.220660
_cell_length_c 5.295884
_cell_angle_alpha 75.938895
_cell_angle_beta 82.106188
_cell_angle_gamma 110.237404
_cell_volume 677.079685
_symmetry_space_group_name_H-M "P -1"
_symmetry_group_IT_number 2
_symmetry_cell_setting 'triclinic'
loop_
_space_group_symop_operation_xyz
x,y,z
-x,-y,-z
loop_
_atom_site_type_symbol
_atom_site_label
_atom_site_fract_x
_atom_site_fract_y
_atom_site_fract_z
Si Si1 0.736676 0.280499 0.903839
Si Si2 0.445538 0.013872 0.763232
Si Si3 0.468636 0.346545 0.398216
Si Si4 0.836033 0.765968 0.872059
Si Si5 0.138517 0.869309 0.358265
Si Si6 0.103138 0.602299 0.816560
Si Si7 0.072140 0.303356 0.645903
Si Si8 0.352907 0.490567 0.079497
O O1 0.781392 0.189423 0.739516
O O2 0.687665 0.400634 0.780543
O O3 0.816656 0.381594 0.026517
O O4 0.654839 0.132087 0.135775
O O5 0.440494 0.188058 0.649002
O O6 0.500000 0.000000 0.500000
O O7 0.500000 0.000000 0.000000
O O8 0.500000 0.500000 0.500000
O O9 0.386032 0.364952 0.263798
O O10 0.557705 0.383070 0.161289
O O11 0.885045 0.728475 0.619098
O O12 0.733095 0.625081 0.005488
O O13 0.832260 0.940436 0.752897
O O14 0.894097 0.769760 0.098155
O O15 0.114496 0.785159 0.677043
O O16 0.039981 0.778244 0.293857
O O17 0.106722 0.495305 0.616167
O O18 0.000000 0.500000 0.000000
#
# Coordination Sequence:
#
# PCOD9068334 Si02
#       8
#     2   2   2   2   2   2   2   2
#     4  12  27  48  81 113 159 213 269 326 404 476
#     4  12  29  53  82 119 162 204 268 332 400 472
#     4  11  27  48  81 109 161 204 261 326 404 472
#     4  12  29  48  80 112 161 203 271 321 400 472
#     4  12  29  45  78 113 159 203 271 327 398 466
#     4  12  26  48  76 116 159 210 268 328 392 477
#     4  12  26  51  76 111 159 212 257 332 390 474
#     4  11  26  49  74 116 152 212 260 325 399 481
#
# _framework density 23.630896
#
# number of rings (size 3 to 8) (size 9 to 14) (size 15 to 20)
#    0.000    0.250    3.750    3.375   10.500    1.000 
#    0.000    0.000    0.000    0.000    0.000    0.000 
#    0.000    0.000    0.000    0.000    0.000    0.000 
#
# Total GULP energy -89582.380374 kJ/mol
# GULP energy per Si atom -5598.898773 kJ/mol
# Density = 2.357711 g / cm^3
# Si number density = 23.630896 Si / 1000 Ang^3
#
#
#
# Elastic Constant Matrix: (Units=GPa)
#
#
# Indices 1 2 3 4 5 6 
#
# 1 134.8206 33.9073 60.6834 -11.3657 -5.8204 -12.7548
# 2 33.9073 104.6379 28.3238 -30.3211 -1.9162 -26.2243
# 3 60.6834 28.3238 111.7483 -10.7540 9.6505 -9.4916
# 4 -11.3657 -30.3211 -10.7540 52.1286 -7.0308 9.5149
# 5 -5.8204 -1.9162 9.6505 -7.0308 38.2593 -9.7365
# 6 -12.7548 -26.2243 -9.4916 9.5149 -9.7365 38.2157
#
#
#
# Elastic Compliance Matrix: (Units=1/GPa)
#
#
# Indices 1 2 3 4 5 6 
#
# 1 0.010612 -0.001167 -0.005540 0.000588 0.003605 0.002137
# 2 -0.001167 0.014768 -0.002101 0.006938 0.004571 0.008660
# 3 -0.005540 -0.002101 0.012757 -0.000183 -0.004512 -0.001226
# 4 0.000588 0.006938 -0.000183 0.023937 0.004935 0.000209
# 5 0.003605 0.004571 -0.004512 0.004935 0.031509 0.010018
# 6 0.002137 0.008660 -0.001226 0.000209 0.010018 0.035019
#
#
# Mechanical properties :
#
#
# Convention : Reuss Voigt Hill
#
# Bulk Modulus (GPa) = 48.72949 66.33730 57.53339
# Shear Modulus (GPa) = 32.66720 40.94022 36.80371
#
# Velocity S-wave (km/s) = 3.72209 4.16683 3.95072
# Velocity P-wave (km/s) = 6.25602 7.16123 6.72387
#
# Compressibility (1/GPa) = 0.02052146
#
# Stress axis : x y z
#
# Youngs Moduli (GPa) = 94.23511 67.71355 78.38542
#
# Poissons Ratio (x) = 0.07902 0.43425
# Poissons Ratio (y) = 0.10998 0.16468
# Poissons Ratio (z) = 0.52206 0.14226
#
# Static dielectric constant tensor:
#      x y z
#    x 1.912330 -0.025170 0.008150 
#    y -0.025170 1.892750 0.002350 
#    z 0.008150 0.002350 1.972630 
# 
# From -- ./inp_files/90075.got.cif
#   From: 2010.05.17/outbox.cif.g08.bks.cpg/sg2_46_cif.got.tgz:90075.got - 2010.06.03 11:33:40.
