data_PCOD9068265
_publ_section_title
;
Structure prediction by ZEFSAII (Michael W. Deem and Ramdas Pophale) SiO2 
 PCOD9068265
Probable space group: P -1
;
_chemical_formula_sum "Si O2"
_cell_formula_units_Z 16
_cell_length_a 16.753803
_cell_length_b 6.021071
_cell_length_c 8.723469
_cell_angle_alpha 61.044002
_cell_angle_beta 115.024415
_cell_angle_gamma 111.676428
_cell_volume 682.505896
_symmetry_space_group_name_H-M "P -1"
_symmetry_group_IT_number 2
_symmetry_cell_setting 'triclinic'
loop_
_space_group_symop_operation_xyz
x,y,z
-x,-y,-z
loop_
_atom_site_type_symbol
_atom_site_label
_atom_site_fract_x
_atom_site_fract_y
_atom_site_fract_z
Si Si1 0.498143 0.377347 0.372790
Si Si2 0.898311 0.534759 0.894325
Si Si3 0.820911 0.802048 0.265940
Si Si4 0.637172 0.129389 0.453292
Si Si5 0.987056 0.069963 0.786445
Si Si6 0.167201 0.671057 0.380808
Si Si7 0.574480 0.248267 0.020241
Si Si8 0.231126 0.642122 0.889094
O O1 0.500000 0.500000 0.500000
O O2 0.601435 0.356476 0.435827
O O3 0.422952 0.116678 0.427772
O O4 0.469691 0.514809 0.151242
O O5 0.840497 0.317992 0.811698
O O6 0.914874 0.824317 0.748879
O O7 0.848199 0.513542 0.019683
O O8 0.000000 0.500000 0.000000
O O9 0.822782 0.613872 0.472096
O O10 0.770239 0.573751 0.178979
O O11 0.920190 0.891117 0.242190
O O12 0.789009 0.061258 0.215570
O O13 0.742919 0.140712 0.548746
O O14 0.606801 0.173026 0.240027
O O15 0.930448 0.294542 0.652516
O O16 0.000000 0.000000 0.000000
O O17 0.667753 0.305429 0.982905
O O18 0.500000 0.000000 0.000000
#
# Coordination Sequence:
#
# PCOD9068265 Si02
#       8
#     2   2   2   2   2   2   2   2
#     4  11  26  48  78 112 152 200 260 323 398 477
#     4  12  25  47  73 106 150 203 256 323 387 467
#     4  12  27  49  75 112 159 196 262 323 392 474
#     4  11  27  50  75 114 153 200 266 325 400 471
#     4  12  24  46  74 105 153 203 258 314 397 463
#     4  12  28  44  75 108 152 203 255 333 387 473
#     4  12  27  49  82 110 158 209 259 331 403 473
#     4  12  28  49  78 115 150 206 267 319 396 479
#
# _framework density 23.443020000000001
#
# number of rings (size 3 to 8) (size 9 to 14) (size 15 to 20)
#    0.000    0.250    6.250    0.750    7.000    1.500 
#    0.000    0.000    0.000    0.000    0.000    0.000 
#    0.000    0.000    0.000    0.000    0.000    0.000 
#
# Total GULP energy -89070.633050 kJ/mol
# GULP energy per Si atom -5566.914566 kJ/mol
# Density = 2.338966 g / cm^3
# Si number density = 23.443020 Si / 1000 Ang^3
#
#
#
# Elastic Constant Matrix: (Units=GPa)
#
#
# Indices 1 2 3 4 5 6 
#
# 1 79.9166 17.0899 14.8783 4.1246 22.6807 13.9194
# 2 17.0899 98.4933 27.5473 5.4847 13.3035 9.0767
# 3 14.8783 27.5473 75.9630 15.4147 5.5589 13.3110
# 4 4.1246 5.4847 15.4147 47.4783 -0.5362 -5.7811
# 5 22.6807 13.3035 5.5589 -0.5362 33.8817 -4.6263
# 6 13.9194 9.0767 13.3110 -5.7811 -4.6263 39.6752
#
#
#
# Elastic Compliance Matrix: (Units=1/GPa)
#
#
# Indices 1 2 3 4 5 6 
#
# 1 0.017814 -0.000348 -0.000563 -0.002422 -0.012803 -0.007827
# 2 -0.000348 0.011972 -0.003517 -0.000501 -0.004171 -0.001996
# 3 -0.000563 -0.003517 0.016850 -0.005731 -0.001877 -0.005705
# 4 -0.002422 -0.000501 -0.005731 0.024074 0.004078 0.006871
# 5 -0.012803 -0.004171 -0.001877 0.004078 0.041669 0.011529
# 6 -0.007827 -0.001996 -0.005705 0.006871 0.011529 0.032667
#
#
# Mechanical properties :
#
#
# Convention : Reuss Voigt Hill
#
# Bulk Modulus (GPa) = 26.46827 41.48933 33.97880
# Shear Modulus (GPa) = 30.03084 37.19753 33.61419
#
# Velocity S-wave (km/s) = 3.58301 3.98769 3.79075
# Velocity P-wave (km/s) = 5.33219 6.24008 5.80391
#
# Compressibility (1/GPa) = 0.03778108
#
# Stress axis : x y z
#
# Youngs Moduli (GPa) = 56.13520 83.52650 59.34758
#
# Poissons Ratio (x) = 0.02907 0.03341
# Poissons Ratio (y) = 0.01954 0.20870
# Poissons Ratio (z) = 0.03160 0.29373
#
# Static dielectric constant tensor:
#      x y z
#    x 1.909540 -0.197370 0.010310 
#    y -0.197370 2.138250 -0.068930 
#    z 0.010310 -0.068930 1.971680 
# 
# From -- ./inp_files/323365.got.cif
#   From: 2010.05.17/outbox.cif.g08.bks.cpg/sg2_162_cif.got.tgz:323365.got - 2010.06.03 11:33:40.
