data_PCOD9068258
_publ_section_title
;
Structure prediction by ZEFSAII (Michael W. Deem and Ramdas Pophale) SiO2 
 PCOD9068258
Probable space group: P -1
;
_chemical_formula_sum "Si O2"
_cell_formula_units_Z 12
_cell_length_a 13.528661
_cell_length_b 5.169178
_cell_length_c 21.873243
_cell_angle_alpha 75.102555
_cell_angle_beta 157.445506
_cell_angle_gamma 114.756015
_cell_volume 494.515956
_symmetry_space_group_name_H-M "P -1"
_symmetry_group_IT_number 2
_symmetry_cell_setting 'triclinic'
loop_
_space_group_symop_operation_xyz
x,y,z
-x,-y,-z
loop_
_atom_site_type_symbol
_atom_site_label
_atom_site_fract_x
_atom_site_fract_y
_atom_site_fract_z
Si Si1 0.790150 0.643999 0.887463
Si Si2 0.394854 0.876501 0.614689
Si Si3 0.277497 0.648401 0.915631
Si Si4 0.671112 0.934022 0.301015
Si Si5 0.631219 0.283840 0.607014
Si Si6 0.756344 0.462793 0.232292
O O1 0.547341 0.663448 0.702995
O O2 0.564310 0.420168 0.823189
O O3 0.000000 0.500000 0.000000
O O4 0.000000 0.000000 0.000000
O O5 0.042461 0.699355 0.417816
O O6 0.436865 0.981078 0.702866
O O7 0.529792 0.138410 0.625071
O O8 0.138779 0.501858 0.779707
O O9 0.984644 0.518334 0.796449
O O10 0.483778 0.523491 0.068138
O O11 0.500000 0.000000 0.000000
O O12 0.667763 0.137099 0.231141
O O13 0.000000 0.000000 0.500000
O O14 0.500000 0.500000 0.500000
O O15 0.500000 0.000000 0.500000
#
# Coordination Sequence:
#
# PCOD9068258 Si02
#       6
#     2   2   2   2   2   2
#     4  12  28  50  74 116 162 205 259 325 397 477
#     4  12  27  50  81 116 163 208 267 328 410 475
#     4  11  27  50  79 111 154 211 268 329 378 478
#     4  12  28  48  83 115 159 212 264 330 401 482
#     4  12  29  50  80 111 160 208 262 326 395 470
#     4  11  26  48  77 115 156 202 274 319 397 460
#
# _framework density 24.266152000000002
#
# number of rings (size 3 to 8) (size 9 to 14) (size 15 to 20)
#    0.000    0.333    5.000    1.500   11.667    1.333 
#    0.000    0.000    0.000    0.000    0.000    0.000 
#    0.000    0.000    0.000    0.000    0.000    0.000 
#
# Total GULP energy -67083.431075 kJ/mol
# GULP energy per Si atom -5590.285923 kJ/mol
# Density = 2.421092 g / cm^3
# Si number density = 24.266152 Si / 1000 Ang^3
#
#
#
# Elastic Constant Matrix: (Units=GPa)
#
#
# Indices 1 2 3 4 5 6 
#
# 1 81.5902 43.8172 7.7711 -8.6619 0.3486 14.7079
# 2 43.8172 200.6698 72.7525 -23.2028 27.7689 32.9254
# 3 7.7711 72.7525 119.9403 3.2134 22.2713 25.0427
# 4 -8.6619 -23.2028 3.2134 63.2376 8.0808 -3.3001
# 5 0.3486 27.7689 22.2713 8.0808 45.0791 11.4904
# 6 14.7079 32.9254 25.0427 -3.3001 11.4904 46.9653
#
#
#
# Elastic Compliance Matrix: (Units=1/GPa)
#
#
# Indices 1 2 3 4 5 6 
#
# 1 0.014586 -0.003409 0.001445 0.000224 0.002113 -0.003449
# 2 -0.003409 0.008210 -0.003906 0.003076 -0.003246 -0.001595
# 3 0.001445 -0.003906 0.011823 -0.001740 -0.002217 -0.003598
# 4 0.000224 0.003076 -0.001740 0.017687 -0.004472 0.001039
# 5 0.002113 -0.003246 -0.002217 -0.004472 0.027122 -0.004154
# 6 -0.003449 -0.001595 -0.003598 0.001039 -0.004154 0.026499
#
#
# Mechanical properties :
#
#
# Convention : Reuss Voigt Hill
#
# Bulk Modulus (GPa) = 43.70895 72.32023 58.01459
# Shear Modulus (GPa) = 39.90631 49.58037 44.74334
#
# Velocity S-wave (km/s) = 4.05967 4.52507 4.29868
# Velocity P-wave (km/s) = 6.32661 7.56104 6.97120
#
# Compressibility (1/GPa) = 0.02287861
#
# Stress axis : x y z
#
# Youngs Moduli (GPa) = 68.55783 121.79672 84.58377
#
# Poissons Ratio (x) = 0.41525 -0.12221
# Poissons Ratio (y) = 0.23374 0.33037
# Poissons Ratio (z) = -0.09906 0.47572
#
# Static dielectric constant tensor:
#      x y z
#    x -8.204690 18.713460 -0.046110 
#    y 18.713460 -32.809130 0.098830 
#    z -0.046110 0.098830 1.940160 
# 
# From -- ./inp_files/28724.got.cif
#   From: 2010.05.17/outbox.cif.g08.bks.cpg/sg2_15_cif.got.tgz:28724.got - 2010.06.03 11:33:40.
