data_PCOD9068236
_publ_section_title
;
Structure prediction by ZEFSAII (Michael W. Deem and Ramdas Pophale) SiO2 
 PCOD9068236
Probable space group: P -1
;
_chemical_formula_sum "Si O2"
_cell_formula_units_Z 13
_cell_length_a 18.960737
_cell_length_b 8.683068
_cell_length_c 5.260299
_cell_angle_alpha 51.564673
_cell_angle_beta 64.589884
_cell_angle_gamma 51.170785
_cell_volume 527.371167
_symmetry_space_group_name_H-M "P -1"
_symmetry_group_IT_number 2
_symmetry_cell_setting 'triclinic'
loop_
_space_group_symop_operation_xyz
x,y,z
-x,-y,-z
loop_
_atom_site_type_symbol
_atom_site_label
_atom_site_fract_x
_atom_site_fract_y
_atom_site_fract_z
Si Si1 0.708312 0.087000 0.011528
Si Si2 0.863665 0.839062 0.385269
Si Si3 0.313883 0.257979 0.906957
Si Si4 0.032324 0.626284 0.008910
Si Si5 0.417091 0.218513 0.275813
Si Si6 0.173323 0.758199 0.591681
Si Si7 0.500000 0.500000 0.000000
O O1 0.765653 0.209679 0.742626
O O2 0.602433 0.266393 0.029683
O O3 0.766357 0.924762 0.319486
O O4 0.718315 0.918288 0.938581
O O5 0.903249 0.581548 0.688851
O O6 0.941223 0.812146 0.096527
O O7 0.856662 0.025982 0.402484
O O8 0.346816 0.293784 0.541872
O O9 0.242773 0.510224 0.858066
O O10 0.388682 0.160874 0.112278
O O11 0.088170 0.729678 0.686376
O O12 0.000000 0.500000 0.000000
O O13 0.500000 0.000000 0.500000
O O14 0.450172 0.398430 0.002762
#
# Coordination Sequence:
#
# PCOD9068236 Si02
#       7
#     2   2   2   2   2   2   1
#     4  12  28  48  76 111 157 204 266 323 391 471
#     4  11  26  48  76 112 149 204 251 330 389 485
#     4  12  28  48  77 110 159 207 262 329 398 460
#     4  11  26  50  78 110 154 199 256 322 406 472
#     4  12  27  49  75 108 153 210 268 330 386 468
#     4  12  26  45  77 114 149 204 257 325 392 473
#     4  12  26  50  76 110 156 210 268 316 396 458
#
# _framework density 24.650569999999998
#
# number of rings (size 3 to 8) (size 9 to 14) (size 15 to 20)
#    0.000    0.308    3.077    4.615    4.308    6.769 
#    0.000    0.000    0.000    0.000    0.000    0.000 
#    0.000    0.000    0.000    0.000    0.000    0.000 
#
# Total GULP energy -72428.829960 kJ/mol
# GULP energy per Si atom -5571.448458 kJ/mol
# Density = 2.459446 g / cm^3
# Si number density = 24.650570 Si / 1000 Ang^3
#
#
#
# Elastic Constant Matrix: (Units=GPa)
#
#
# Indices 1 2 3 4 5 6 
#
# 1 170.9315 27.6724 62.0789 4.4369 -14.9797 7.4684
# 2 27.6724 137.3095 21.7800 -6.3364 -4.7874 -11.5386
# 3 62.0789 21.7800 72.2999 3.3933 -2.7430 -9.3064
# 4 4.4369 -6.3364 3.3933 29.3361 0.3819 -2.0104
# 5 -14.9797 -4.7874 -2.7430 0.3819 45.4501 2.5390
# 6 7.4684 -11.5386 -9.3064 -2.0104 2.5390 50.0104
#
#
#
# Elastic Compliance Matrix: (Units=1/GPa)
#
#
# Indices 1 2 3 4 5 6 
#
# 1 0.009289 -0.000824 -0.008000 -0.000914 0.002681 -0.003239
# 2 -0.000824 0.007952 -0.001551 0.002136 0.000357 0.001737
# 3 -0.008000 -0.001551 0.021796 -0.001286 -0.001749 0.004930
# 4 -0.000914 0.002136 -0.001286 0.034968 -0.000550 0.001824
# 5 0.002681 0.000357 -0.001749 -0.000550 0.022925 -0.001829
# 6 -0.003239 0.001737 0.004930 0.001824 -0.001829 0.021964
#
#
# Mechanical properties :
#
#
# Convention : Reuss Voigt Hill
#
# Bulk Modulus (GPa) = 54.68367 67.06704 60.87535
# Shear Modulus (GPa) = 34.30753 42.89329 38.60041
#
# Velocity S-wave (km/s) = 3.73467 4.17592 3.96144
# Velocity P-wave (km/s) = 6.38973 7.10755 6.75818
#
# Compressibility (1/GPa) = 0.01828700
#
# Stress axis : x y z
#
# Youngs Moduli (GPa) = 107.64955 125.75608 45.87927
#
# Poissons Ratio (x) = 0.10363 0.36704
# Poissons Ratio (y) = 0.08871 0.07116
# Poissons Ratio (z) = 0.86122 0.19505
#
# Static dielectric constant tensor:
#      x y z
#    x 1.941780 -0.053170 -0.038480 
#    y -0.053170 1.977100 0.003420 
#    z -0.038480 0.003420 2.103570 
# 
# From -- ./inp_files/106223.got.cif
#   From: 2010.05.17/outbox.cif.g08.bks.cpg/sg2_54_cif.got.tgz:106223.got - 2010.06.03 11:33:40.
