data_PCOD9068469
_publ_section_title
;
Structure prediction by ZEFSAII (Michael W. Deem and Ramdas Pophale) SiO2 
 PCOD9068469
Probable space group: P -1
;
_chemical_formula_sum "Si O2"
_cell_formula_units_Z 14
_cell_length_a 6.684631
_cell_length_b 9.166420
_cell_length_c 26.608962
_cell_angle_alpha 29.406667
_cell_angle_beta 114.082326
_cell_angle_gamma 126.437507
_cell_volume 618.871681
_symmetry_space_group_name_H-M "P -1"
_symmetry_group_IT_number 2
_symmetry_cell_setting 'triclinic'
loop_
_space_group_symop_operation_xyz
x,y,z
-x,-y,-z
loop_
_atom_site_type_symbol
_atom_site_label
_atom_site_fract_x
_atom_site_fract_y
_atom_site_fract_z
Si Si1 0.694498 0.770970 0.180726
Si Si2 0.231264 0.319173 0.213373
Si Si3 0.563037 0.206269 0.109024
Si Si4 0.827486 0.132905 0.743655
Si Si5 0.778988 0.733484 0.517670
Si Si6 0.927833 0.189774 0.976618
Si Si7 0.827044 0.674568 0.426602
O O1 0.455025 0.395471 0.252508
O O2 0.886302 0.735801 0.247871
O O3 0.610168 0.011550 0.127755
O O4 0.838984 0.968083 0.085033
O O5 0.257638 0.693456 0.099924
O O6 0.277467 0.222910 0.191629
O O7 0.967044 0.991356 0.306005
O O8 0.827459 0.430537 0.098870
O O9 0.339673 0.930508 0.205060
O O10 0.500000 0.500000 0.000000
O O11 0.797905 0.391078 0.627336
O O12 0.833007 0.837546 0.433279
O O13 0.476289 0.599740 0.536069
O O14 0.000000 0.000000 0.500000
O O15 0.000000 0.000000 0.000000
O O16 0.000000 0.500000 0.500000
#
# Coordination Sequence:
#
# PCOD9068469 Si02
#       7
#     2   2   2   2   2   2   2
#     4  12  27  44  71 107 141 191 239 292 361 428
#     4  12  26  46  73 101 148 188 239 295 364 427
#     4  12  23  43  68  99 145 183 237 296 344 424
#     4  12  26  46  70 106 141 189 239 293 362 430
#     4  11  28  46  78 107 141 188 244 298 364 432
#     4  12  24  45  71 104 145 191 237 292 360 424
#     4  11  26  51  72 108 146 186 241 306 359 428
#
# _framework density 22.621811999999998
#
# number of rings (size 3 to 8) (size 9 to 14) (size 15 to 20)
#    0.000    0.286    4.286    4.286    4.000    0.571 
#    0.000    0.000    0.000    0.000    0.000    0.000 
#    0.000    0.000    0.000    0.000    0.000    0.000 
#
# Total GULP energy -78308.453964 kJ/mol
# GULP energy per Si atom -5593.460997 kJ/mol
# Density = 2.257032 g / cm^3
# Si number density = 22.621812 Si / 1000 Ang^3
#
#
#
# Elastic Constant Matrix: (Units=GPa)
#
#
# Indices 1 2 3 4 5 6 
#
# 1 116.1281 56.3969 23.6739 1.9619 -0.0329 -8.0429
# 2 56.3969 147.1134 -12.2593 -4.5146 0.4912 10.9899
# 3 23.6739 -12.2593 67.8545 16.8609 2.0181 -5.1002
# 4 1.9619 -4.5146 16.8609 28.8573 2.6522 -4.3767
# 5 -0.0329 0.4912 2.0181 2.6522 24.3911 3.9962
# 6 -8.0429 10.9899 -5.1002 -4.3767 3.9962 53.0221
#
#
#
# Elastic Compliance Matrix: (Units=1/GPa)
#
#
# Indices 1 2 3 4 5 6 
#
# 1 0.012544 -0.005416 -0.005653 0.002011 -0.000059 0.002652
# 2 -0.005416 0.009334 0.003544 -0.000614 -0.000018 -0.002465
# 3 -0.005653 0.003544 0.020005 -0.010785 -0.000476 -0.000522
# 4 0.002011 -0.000614 -0.010785 0.041577 -0.004128 0.003138
# 5 -0.000059 -0.000018 -0.000476 -0.004128 0.042071 -0.003563
# 6 0.002652 -0.002465 -0.000522 0.003138 -0.003563 0.020250
#
#
# Mechanical properties :
#
#
# Convention : Reuss Voigt Hill
#
# Bulk Modulus (GPa) = 37.26873 51.85765 44.56319
# Shear Modulus (GPa) = 29.45044 38.80641 34.12842
#
# Velocity S-wave (km/s) = 3.61204 4.14628 3.88835
# Velocity P-wave (km/s) = 5.82291 6.77464 6.31672
#
# Compressibility (1/GPa) = 0.02683215
#
# Stress axis : x y z
#
# Youngs Moduli (GPa) = 79.72177 107.13063 49.98738
#
# Poissons Ratio (x) = 0.58022 0.28260
# Poissons Ratio (y) = 0.43177 -0.17715
# Poissons Ratio (z) = 0.45070 -0.37967
#
# Static dielectric constant tensor:
#      x y z
#    x 2.014740 0.165430 0.129650 
#    y 0.165430 1.998070 0.167800 
#    z 0.129650 0.167800 1.974790 
# 
# From -- ./inp_files/46489.got.cif
#   From: 2010.05.17/outbox.cif.g08.bks.cpg/sg2_24_cif.got.tgz:46489.got - 2010.06.03 11:33:40.
