data_PCOD9069671
_publ_section_title
;
Structure prediction by ZEFSAII (Michael W. Deem and Ramdas Pophale) SiO2 
 PCOD9069671
Probable space group: P -1
;
_chemical_formula_sum "Si O2"
_cell_formula_units_Z 10
_cell_length_a 8.059256
_cell_length_b 14.015313
_cell_length_c 12.996336
_cell_angle_alpha 20.296010
_cell_angle_beta 124.117948
_cell_angle_gamma 123.146853
_cell_volume 420.458409
_symmetry_space_group_name_H-M "P -1"
_symmetry_group_IT_number 2
_symmetry_cell_setting 'triclinic'
loop_
_space_group_symop_operation_xyz
x,y,z
-x,-y,-z
loop_
_atom_site_type_symbol
_atom_site_label
_atom_site_fract_x
_atom_site_fract_y
_atom_site_fract_z
Si Si1 0.156274 0.139773 0.493795
Si Si2 0.668458 0.935725 0.706806
Si Si3 0.626890 0.270870 0.727020
Si Si4 0.063247 0.656488 0.075629
Si Si5 0.417058 0.603859 0.654261
O O1 0.352150 0.282414 0.364496
O O2 0.070371 0.371951 0.303559
O O3 0.000000 0.000000 0.500000
O O4 0.214489 0.880445 0.843331
O O5 0.500000 0.000000 0.500000
O O6 0.719009 0.222804 0.493080
O O7 0.853380 0.796669 0.859469
O O8 0.598314 0.711447 0.996193
O O9 0.500000 0.500000 0.500000
O O10 0.630537 0.321439 0.555064
O O11 0.849078 0.329348 0.793244
O O12 0.500000 0.000000 0.000000
#
# Coordination Sequence:
#
# PCOD9069671 Si02
#       5
#     2   2   2   2   2
#     4  12  25  44  73 107 140 190 250 293 351 432
#     4  12  28  47  69 106 156 190 235 297 363 434
#     4  12  23  46  77 107 145 181 246 308 349 423
#     4  12  25  47  72 106 147 191 235 304 361 417
#     4  12  25  46  75 106 143 195 239 295 366 422
#
# _framework density 23.783567000000001
#
# number of rings (size 3 to 8) (size 9 to 14) (size 15 to 20)
#    0.000    0.000    4.000    6.000    0.000    4.800 
#    0.000    0.000    0.000    0.000    0.000    0.000 
#    0.000    0.000    0.000    0.000    0.000    0.000 
#
# Total GULP energy -55957.644364 kJ/mol
# GULP energy per Si atom -5595.764436 kJ/mol
# Density = 2.372943 g / cm^3
# Si number density = 23.783567 Si / 1000 Ang^3
#
#
#
# Elastic Constant Matrix: (Units=GPa)
#
#
# Indices 1 2 3 4 5 6 
#
# 1 80.0709 34.2863 18.3243 -2.2802 8.0316 -6.7564
# 2 34.2863 185.9921 58.4813 15.7947 25.3503 -4.9329
# 3 18.3243 58.4813 164.5689 -13.2035 1.6718 -10.4166
# 4 -2.2802 15.7947 -13.2035 47.8644 -10.6156 5.0035
# 5 8.0316 25.3503 1.6718 -10.6156 34.6769 0.3051
# 6 -6.7564 -4.9329 -10.4166 5.0035 0.3051 44.2245
#
#
#
# Elastic Compliance Matrix: (Units=1/GPa)
#
#
# Indices 1 2 3 4 5 6 
#
# 1 0.013865 -0.002210 -0.000579 0.000757 -0.001351 0.001659
# 2 -0.002210 0.008094 -0.002943 -0.005159 -0.006847 0.000503
# 3 -0.000579 -0.002943 0.007502 0.003585 0.003013 0.000924
# 4 0.000757 -0.005159 0.003585 0.026462 0.011548 -0.002689
# 5 -0.001351 -0.006847 0.003013 0.011548 0.037562 -0.001826
# 6 0.001659 0.000503 0.000924 -0.002689 -0.001826 0.023456
#
#
# Mechanical properties :
#
#
# Convention : Reuss Voigt Hill
#
# Bulk Modulus (GPa) = 55.56355 72.53508 64.04932
# Shear Modulus (GPa) = 37.20151 46.65582 41.92866
#
# Velocity S-wave (km/s) = 3.95925 4.43389 4.20328
# Velocity P-wave (km/s) = 6.65686 7.53503 7.10952
#
# Compressibility (1/GPa) = 0.01799741
#
# Stress axis : x y z
#
# Youngs Moduli (GPa) = 72.12522 123.54904 133.29505
#
# Poissons Ratio (x) = 0.27305 0.07717
# Poissons Ratio (y) = 0.15940 0.39225
# Poissons Ratio (z) = 0.04176 0.36357
#
# Static dielectric constant tensor:
#      x y z
#    x 1.965320 0.029410 -0.020330 
#    y 0.029410 1.911540 -0.011010 
#    z -0.020330 -0.011010 1.825080 
# 
# From -- ./inp_files/79492.got.cif
#   From: 2010.05.17/outbox.cif.g08.bks.cpg/sg2_40_cif.got.tgz:79492.got - 2010.06.03 11:33:40.
