data_PCOD9069297
_publ_section_title
;
Structure prediction by ZEFSAII (Michael W. Deem and Ramdas Pophale) SiO2 
 PCOD9069297
Probable space group: P -1
;
_chemical_formula_sum "Si O2"
_cell_formula_units_Z 12
_cell_length_a 12.397688
_cell_length_b 9.271750
_cell_length_c 10.057774
_cell_angle_alpha 118.492909
_cell_angle_beta 103.460807
_cell_angle_gamma 127.444221
_cell_volume 534.267656
_symmetry_space_group_name_H-M "P -1"
_symmetry_group_IT_number 2
_symmetry_cell_setting 'triclinic'
loop_
_space_group_symop_operation_xyz
x,y,z
-x,-y,-z
loop_
_atom_site_type_symbol
_atom_site_label
_atom_site_fract_x
_atom_site_fract_y
_atom_site_fract_z
Si Si1 0.384339 0.367040 0.549910
Si Si2 0.479228 0.793077 0.328216
Si Si3 0.827773 0.308916 0.478924
Si Si4 0.992850 0.868704 0.062735
Si Si5 0.534714 0.168830 0.205780
Si Si6 0.900329 0.350235 0.047175
O O1 0.500000 0.500000 0.500000
O O2 0.433602 0.255918 0.586273
O O3 0.454946 0.628610 0.748151
O O4 0.143484 0.088742 0.325540
O O5 0.500000 0.000000 0.500000
O O6 0.607917 0.952972 0.297282
O O7 0.237373 0.456475 0.100338
O O8 0.734956 0.372378 0.440209
O O9 0.000000 0.500000 0.500000
O O10 0.953126 0.407768 0.688163
O O11 0.089993 0.830119 0.006606
O O12 0.000000 0.000000 0.000000
O O13 0.500000 0.000000 0.000000
O O14 0.333182 0.891354 0.115388
O O15 0.000000 0.500000 0.000000
#
# Coordination Sequence:
#
# PCOD9069297 Si02
#       6
#     2   2   2   2   2   2
#     4  12  24  43  74 112 153 194 256 319 377 456
#     4  12  25  44  75 114 146 196 258 310 375 458
#     4  12  26  46  73 108 153 202 253 311 384 454
#     4  12  23  40  73 114 150 185 252 324 375 437
#     4  12  26  48  74 108 154 203 251 316 395 453
#     4  12  24  42  75 109 143 194 259 311 373 454
#
# _framework density 22.460650000000001
#
# number of rings (size 3 to 8) (size 9 to 14) (size 15 to 20)
#    0.000    0.000    6.667    4.000    0.000    0.000 
#    0.000    1.667    3.667    0.000    0.000    0.000 
#    0.000    0.000    0.000    0.000    0.000    0.000 
#
# Total GULP energy -66899.888771 kJ/mol
# GULP energy per Si atom -5574.990731 kJ/mol
# Density = 2.240953 g / cm^3
# Si number density = 22.460650 Si / 1000 Ang^3
#
#
#
# Elastic Constant Matrix: (Units=GPa)
#
#
# Indices 1 2 3 4 5 6 
#
# 1 131.6727 78.7372 57.6279 15.4836 26.5872 -3.7094
# 2 78.7372 154.4894 45.9673 11.3824 17.8657 6.0901
# 3 57.6279 45.9673 138.0243 20.8925 32.2471 13.0473
# 4 15.4836 11.3824 20.8925 37.2256 -3.5735 9.5727
# 5 26.5872 17.8657 32.2471 -3.5735 48.2951 7.7687
# 6 -3.7094 6.0901 13.0473 9.5727 7.7687 56.9821
#
#
#
# Elastic Compliance Matrix: (Units=1/GPa)
#
#
# Indices 1 2 3 4 5 6 
#
# 1 0.013347 -0.005399 -0.002453 -0.003797 -0.004519 0.003261
# 2 -0.005399 0.009491 -0.000878 0.000177 0.000258 -0.001230
# 3 -0.002453 -0.000878 0.010753 -0.005067 -0.005736 -0.000895
# 4 -0.003797 0.000177 -0.005067 0.033615 0.008854 -0.005960
# 5 -0.004519 0.000258 -0.005736 0.008854 0.028283 -0.004352
# 6 0.003261 -0.001230 -0.000895 -0.005960 -0.004352 0.019693
#
#
# Mechanical properties :
#
#
# Convention : Reuss Voigt Hill
#
# Bulk Modulus (GPa) = 61.98398 87.65012 74.81705
# Shear Modulus (GPa) = 36.22699 44.62416 40.42558
#
# Velocity S-wave (km/s) = 4.02046 4.46216 4.24705
# Velocity P-wave (km/s) = 7.01490 8.10286 7.57843
#
# Compressibility (1/GPa) = 0.01613320
#
# Stress axis : x y z
#
# Youngs Moduli (GPa) = 74.92193 105.35901 92.99636
#
# Poissons Ratio (x) = 0.56885 0.22808
# Poissons Ratio (y) = 0.40451 0.08161
# Poissons Ratio (z) = 0.18375 0.09246
#
# Static dielectric constant tensor:
#      x y z
#    x 1.852940 -0.025140 -0.062410 
#    y -0.025140 1.877720 -0.015720 
#    z -0.062410 -0.015720 2.003310 
# 
# From -- ./inp_files/418223.got.cif
#   From: 2010.05.17/outbox.cif.g08.bks.cpg/sg2_210_cif.got.tgz:418223.got - 2010.06.03 11:33:40.
