data_PCOD9069696
_publ_section_title
;
Structure prediction by ZEFSAII (Michael W. Deem and Ramdas Pophale) SiO2 
 PCOD9069696
Probable space group: P -1
;
_chemical_formula_sum "Si O2"
_cell_formula_units_Z 14
_cell_length_a 8.311278
_cell_length_b 15.314220
_cell_length_c 18.221150
_cell_angle_alpha 157.504269
_cell_angle_beta 129.582646
_cell_angle_gamma 48.413264
_cell_volume 661.375594
_symmetry_space_group_name_H-M "P -1"
_symmetry_group_IT_number 2
_symmetry_cell_setting 'triclinic'
loop_
_space_group_symop_operation_xyz
x,y,z
-x,-y,-z
loop_
_atom_site_type_symbol
_atom_site_label
_atom_site_fract_x
_atom_site_fract_y
_atom_site_fract_z
Si Si1 0.018576 0.157058 0.832613
Si Si2 0.839140 0.710151 0.439245
Si Si3 0.519932 0.937498 0.042406
Si Si4 0.801972 0.979191 0.376408
Si Si5 0.707315 0.580786 0.592473
Si Si6 0.570403 0.565881 0.380980
Si Si7 0.702607 0.604294 0.153854
O O1 0.095410 0.161465 0.774837
O O2 0.240462 0.054360 0.859877
O O3 0.866386 0.976780 0.653759
O O4 0.905141 0.409115 0.028517
O O5 0.686832 0.656141 0.417069
O O6 0.751503 0.654652 0.291415
O O7 0.078516 0.547310 0.400788
O O8 0.485852 0.679066 0.844503
O O9 0.500000 0.000000 0.000000
O O10 0.349475 0.138404 0.192957
O O11 0.670869 0.837094 0.276504
O O12 0.648077 0.233001 0.508307
O O13 0.000000 0.000000 0.500000
O O14 0.500000 0.500000 0.500000
O O15 0.716499 0.529143 0.468262
O O16 0.500000 0.500000 0.000000
#
# Coordination Sequence:
#
# PCOD9069696 Si02
#       7
#     2   2   2   2   2   2   2
#     4  12  25  46  73 101 138 190 240 286 346 417
#     4  12  27  47  71 104 149 185 228 295 358 415
#     4  12  24  41  76 104 136 182 236 289 344 421
#     4  12  25  47  74 101 142 190 242 287 342 419
#     4  12  23  47  73 103 141 182 238 289 352 418
#     4  12  27  44  71 108 143 183 233 293 358 412
#     4  12  29  46  71 106 144 186 236 291 352 416
#
# _framework density 21.168002999999999
#
# number of rings (size 3 to 8) (size 9 to 14) (size 15 to 20)
#    0.000    0.000    5.714    3.429    4.000    2.857 
#    0.000    0.000    0.000    0.000    0.000    0.000 
#    0.000    0.000    0.000    0.000    0.000    0.000 
#
# Total GULP energy -78396.795189 kJ/mol
# GULP energy per Si atom -5599.771085 kJ/mol
# Density = 2.111982 g / cm^3
# Si number density = 21.168003 Si / 1000 Ang^3
#
#
#
# Elastic Constant Matrix: (Units=GPa)
#
#
# Indices 1 2 3 4 5 6 
#
# 1 86.7504 13.8051 23.8010 -9.5107 9.0948 30.6836
# 2 13.8051 84.0530 23.3604 -20.9256 4.7242 19.8281
# 3 23.8010 23.3604 116.6584 -3.0836 8.5649 18.8451
# 4 -9.5107 -20.9256 -3.0836 49.3056 -0.3059 -9.3131
# 5 9.0948 4.7242 8.5649 -0.3059 41.9678 2.1336
# 6 30.6836 19.8281 18.8451 -9.3131 2.1336 41.8350
#
#
#
# Elastic Compliance Matrix: (Units=1/GPa)
#
#
# Indices 1 2 3 4 5 6 
#
# 1 0.016169 0.000849 -0.001426 0.001258 -0.002730 -0.011200
# 2 0.000849 0.015043 -0.002060 0.005360 -0.001135 -0.005574
# 3 -0.001426 -0.002060 0.009755 -0.001026 -0.001329 -0.002533
# 4 0.001258 0.005360 -0.001026 0.023143 -0.000609 0.002183
# 5 -0.002730 -0.001135 -0.001329 -0.000609 0.024725 0.001742
# 6 -0.011200 -0.005574 -0.002533 0.002183 0.001742 0.036298
#
#
# Mechanical properties :
#
#
# Convention : Reuss Voigt Hill
#
# Bulk Modulus (GPa) = 28.01638 45.48831 36.75235
# Shear Modulus (GPa) = 35.13577 41.72136 38.42857
#
# Velocity S-wave (km/s) = 4.07855 4.44437 4.26538
# Velocity P-wave (km/s) = 5.95344 6.91899 6.45429
#
# Compressibility (1/GPa) = 0.03569340
#
# Stress axis : x y z
#
# Youngs Moduli (GPa) = 61.84702 66.47480 102.51083
#
# Poissons Ratio (x) = -0.05646 0.14618
# Poissons Ratio (y) = -0.05253 0.21120
# Poissons Ratio (z) = 0.08819 0.13696
#
# Static dielectric constant tensor:
#      x y z
#    x 1.647080 0.163100 -0.329500 
#    y 0.163100 1.401550 0.597700 
#    z -0.329500 0.597700 0.749530 
# 
# From -- ./inp_files/46188.got.cif
#   From: 2010.05.17/outbox.cif.g08.bks.cpg/sg2_24_cif.got.tgz:46188.got - 2010.06.03 11:33:40.
