data_PCOD9069459
_publ_section_title
;
Structure prediction by ZEFSAII (Michael W. Deem and Ramdas Pophale) SiO2 
 PCOD9069459
Probable space group: P -1
;
_chemical_formula_sum "Si O2"
_cell_formula_units_Z 16
_cell_length_a 16.958181
_cell_length_b 11.320492
_cell_length_c 14.114805
_cell_angle_alpha 127.775218
_cell_angle_beta 31.759291
_cell_angle_gamma 150.928665
_cell_volume 595.875082
_symmetry_space_group_name_H-M "P -1"
_symmetry_group_IT_number 2
_symmetry_cell_setting 'triclinic'
loop_
_space_group_symop_operation_xyz
x,y,z
-x,-y,-z
loop_
_atom_site_type_symbol
_atom_site_label
_atom_site_fract_x
_atom_site_fract_y
_atom_site_fract_z
Si Si1 0.233623 0.731570 0.493932
Si Si2 0.938709 0.777118 0.777196
Si Si3 0.465354 0.400515 0.590124
Si Si4 0.015908 0.358894 0.855515
Si Si5 0.720758 0.550395 0.699375
Si Si6 0.222879 0.955927 0.870221
Si Si7 0.822750 0.188298 0.762083
Si Si8 0.651905 0.434992 0.080266
O O1 0.259084 0.599501 0.343000
O O2 0.974295 0.461235 0.694068
O O3 0.158535 0.821615 0.565937
O O4 0.544605 0.981986 0.346589
O O5 0.815516 0.728384 0.778587
O O6 0.579602 0.729591 0.182875
O O7 0.690662 0.510270 0.968130
O O8 0.500000 0.500000 0.500000
O O9 0.682779 0.447072 0.393060
O O10 0.513140 0.572992 0.700197
O O11 0.144150 0.069325 0.761981
O O12 0.832743 0.206943 0.873506
O O13 0.901666 0.150908 0.949709
O O14 0.000000 0.500000 0.000000
O O15 0.954660 0.746784 0.475205
O O16 0.964706 0.709034 0.942547
O O17 0.476312 0.132857 0.123250
#
# Coordination Sequence:
#
# PCOD9069459 Si02
#       8
#     2   2   2   2   2   2   2   2
#     4   8  22  42  72 105 146 187 251 301 374 414
#     4  12  23  43  76 100 152 199 251 302 370 445
#     4  12  28  47  72 107 157 195 244 308 369 444
#     4  12  25  46  76 109 144 193 248 309 372 426
#     4   8  21  44  67 107 144 192 239 306 366 427
#     4   9  22  41  67 100 146 185 243 295 358 439
#     4   9  24  44  73 109 149 188 242 311 362 447
#     4  12  25  46  69 110 147 201 242 293 380 443
#
# _framework density 26.851267
#
# number of rings (size 3 to 8) (size 9 to 14) (size 15 to 20)
#    1.500    0.000    1.250    3.000    5.250    1.500 
#    4.500    0.625    0.000    0.000    0.000    0.000 
#    0.000    0.000    0.000    0.000    0.000    0.000 
#
# Total GULP energy -89360.758195 kJ/mol
# GULP energy per Si atom -5585.047387 kJ/mol
# Density = 2.679015 g / cm^3
# Si number density = 26.851267 Si / 1000 Ang^3
#
#
#
# Elastic Constant Matrix: (Units=GPa)
#
#
# Indices 1 2 3 4 5 6 
#
# 1 92.9490 46.5539 28.2986 -0.6347 2.6706 23.6755
# 2 46.5539 154.0997 50.0867 -5.2091 -11.5236 25.4102
# 3 28.2986 50.0867 126.6206 -13.7099 -9.4161 25.5115
# 4 -0.6347 -5.2091 -13.7099 60.0330 -0.5702 -0.8871
# 5 2.6706 -11.5236 -9.4161 -0.5702 52.6911 6.9341
# 6 23.6755 25.4102 25.5115 -0.8871 6.9341 42.3155
#
#
#
# Elastic Compliance Matrix: (Units=1/GPa)
#
#
# Indices 1 2 3 4 5 6 
#
# 1 0.013968 -0.003131 -0.000940 -0.000424 -0.000877 -0.005234
# 2 -0.003131 0.008681 -0.002042 0.000235 0.002031 -0.002557
# 3 -0.000940 -0.002042 0.010249 0.002103 0.002077 -0.004723
# 4 -0.000424 0.000235 0.002103 0.017147 0.000758 -0.000937
# 5 -0.000877 0.002031 0.002077 0.000758 0.020548 -0.005333
# 6 -0.005234 -0.002557 -0.004723 -0.000937 -0.005333 0.031798
#
#
# Mechanical properties :
#
#
# Convention : Reuss Voigt Hill
#
# Bulk Modulus (GPa) = 48.37511 69.28308 58.82909
# Shear Modulus (GPa) = 41.14926 47.58993 44.36959
#
# Velocity S-wave (km/s) = 3.91895 4.21450 4.06941
# Velocity P-wave (km/s) = 6.20746 7.03855 6.63603
#
# Compressibility (1/GPa) = 0.02067179
#
# Stress axis : x y z
#
# Youngs Moduli (GPa) = 71.58993 115.19958 97.56755
#
# Poissons Ratio (x) = 0.36073 0.09170
# Poissons Ratio (y) = 0.22417 0.19924
# Poissons Ratio (z) = 0.06728 0.23525
#
# Static dielectric constant tensor:
#      x y z
#    x 2.097900 0.001150 -0.147670 
#    y 0.001150 2.112650 0.038880 
#    z -0.147670 0.038880 2.262960 
# 
# From -- ./inp_files/538710.got.cif
#   From: 2010.05.17/outbox.cif.g08.bks.cpg/sg2_270_cif.got.tgz:538710.got - 2010.06.03 11:33:40.
