data_PCOD9069656
_publ_section_title
;
Structure prediction by ZEFSAII (Michael W. Deem and Ramdas Pophale) SiO2 
 PCOD9069656
Probable space group: P -1
;
_chemical_formula_sum "Si O2"
_cell_formula_units_Z 14
_cell_length_a 16.875900
_cell_length_b 17.147173
_cell_length_c 11.815504
_cell_angle_alpha 19.666238
_cell_angle_beta 39.457632
_cell_angle_gamma 29.256852
_cell_volume 536.338438
_symmetry_space_group_name_H-M "P -1"
_symmetry_group_IT_number 2
_symmetry_cell_setting 'triclinic'
loop_
_space_group_symop_operation_xyz
x,y,z
-x,-y,-z
loop_
_atom_site_type_symbol
_atom_site_label
_atom_site_fract_x
_atom_site_fract_y
_atom_site_fract_z
Si Si1 0.233785 0.159524 0.619476
Si Si2 0.829070 0.081425 0.472697
Si Si3 0.487062 0.494003 0.156935
Si Si4 0.918181 0.098629 0.741300
Si Si5 0.025534 0.498620 0.753152
Si Si6 0.362229 0.473355 0.710275
Si Si7 0.333714 0.238573 0.623971
O O1 0.271371 0.306581 0.470555
O O2 0.136337 0.344504 0.360261
O O3 0.411408 0.816055 0.859168
O O4 0.122604 0.093895 0.891252
O O5 0.664593 0.209468 0.408073
O O6 0.755743 0.305229 0.357317
O O7 0.945904 0.088521 0.253884
O O8 0.941997 0.721032 0.881596
O O9 0.347959 0.466555 0.357214
O O10 0.500000 0.500000 0.000000
O O11 0.986329 0.219968 0.578466
O O12 0.748154 0.402911 0.450282
O O13 0.196498 0.263935 0.809695
O O14 0.500000 0.500000 0.500000
O O15 0.478007 0.105117 0.109913
#
# Coordination Sequence:
#
# PCOD9069656 Si02
#       7
#     2   2   2   2   2   2   2
#     4  12  26  51  77 114 153 200 255 307 385 450
#     4  12  26  49  75 114 156 197 253 315 376 448
#     4  12  28  51  79 112 152 200 255 315 376 451
#     4  12  25  45  78 110 156 196 252 316 377 445
#     4  12  26  45  78 114 152 202 253 311 378 453
#     4  12  23  46  75 114 149 199 254 309 372 450
#     4  12  26  47  81 111 152 201 255 308 381 452
#
# _framework density 26.102920000000001
#
# number of rings (size 3 to 8) (size 9 to 14) (size 15 to 20)
#    0.000    0.000    5.714    3.429    2.000    2.857 
#    2.571    0.000    0.000    0.000    0.000    0.000 
#    0.000    0.000    0.000    0.000    0.000    0.000 
#
# Total GULP energy -78623.163098 kJ/mol
# GULP energy per Si atom -5615.940221 kJ/mol
# Density = 2.604351 g / cm^3
# Si number density = 26.102920 Si / 1000 Ang^3
#
#
#
# Elastic Constant Matrix: (Units=GPa)
#
#
# Indices 1 2 3 4 5 6 
#
# 1 164.6299 -4.2586 35.8768 -8.0661 25.3472 -9.4650
# 2 -4.2586 90.3449 6.8434 6.3819 3.6712 7.8904
# 3 35.8768 6.8434 90.9764 -0.7439 30.2834 -11.6840
# 4 -8.0661 6.3819 -0.7439 35.7060 -1.9396 2.9734
# 5 25.3472 3.6712 30.2834 -1.9396 45.1085 -7.6549
# 6 -9.4650 7.8904 -11.6840 2.9734 -7.6549 44.2427
#
#
#
# Elastic Compliance Matrix: (Units=1/GPa)
#
#
# Indices 1 2 3 4 5 6 
#
# 1 0.006975 0.000451 -0.001864 0.001284 -0.002584 0.000386
# 2 0.000451 0.011536 -0.001032 -0.001845 -0.000965 -0.002277
# 3 -0.001864 -0.001032 0.014934 -0.000580 -0.008530 0.002292
# 4 0.001284 -0.001845 -0.000580 0.028771 0.000828 -0.001340
# 5 -0.002584 -0.000965 -0.008530 0.000828 0.029882 0.002481
# 6 0.000386 -0.002277 0.002292 -0.001340 0.002481 0.024216
#
#
# Mechanical properties :
#
#
# Convention : Reuss Voigt Hill
#
# Bulk Modulus (GPa) = 35.02108 46.98606 41.00357
# Shear Modulus (GPa) = 38.24874 45.51074 41.87974
#
# Velocity S-wave (km/s) = 3.83208 4.18007 4.00985
# Velocity P-wave (km/s) = 5.74678 6.42936 6.09763
#
# Compressibility (1/GPa) = 0.02855423
#
# Stress axis : x y z
#
# Youngs Moduli (GPa) = 143.36738 86.68200 66.96247
#
# Poissons Ratio (x) = -0.03906 0.12485
# Poissons Ratio (y) = -0.06460 0.06908
# Poissons Ratio (z) = 0.26730 0.08943
#
# Static dielectric constant tensor:
#      x y z
#    x 1.992330 -0.000290 -0.031800 
#    y -0.000290 2.047010 0.018450 
#    z -0.031800 0.018450 2.081120 
# 
# From -- ./inp_files/391971.got.cif
#   From: 2010.05.17/outbox.cif.g08.bks.cpg/sg2_196_cif.got.tgz:391971.got - 2010.06.03 11:33:40.
