data_PCOD9069818
_publ_section_title
;
Structure prediction by ZEFSAII (Michael W. Deem and Ramdas Pophale) SiO2 
 PCOD9069818
Probable space group: P -1
;
_chemical_formula_sum "Si O2"
_cell_formula_units_Z 14
_cell_length_a 11.368661
_cell_length_b 11.103997
_cell_length_c 13.331891
_cell_angle_alpha 124.768515
_cell_angle_beta 53.776817
_cell_angle_gamma 154.915966
_cell_volume 572.560199
_symmetry_space_group_name_H-M "P -1"
_symmetry_group_IT_number 2
_symmetry_cell_setting 'triclinic'
loop_
_space_group_symop_operation_xyz
x,y,z
-x,-y,-z
loop_
_atom_site_type_symbol
_atom_site_label
_atom_site_fract_x
_atom_site_fract_y
_atom_site_fract_z
Si Si1 0.025628 0.631499 0.642996
Si Si2 0.171782 0.818248 0.961844
Si Si3 0.538570 0.743872 0.317064
Si Si4 0.200733 0.706125 0.200272
Si Si5 0.375099 0.376045 0.614742
Si Si6 0.765511 0.712965 0.040718
Si Si7 0.236625 0.035742 0.245100
O O1 0.000000 0.500000 0.500000
O O2 0.771491 0.526358 0.702760
O O3 0.950542 0.480306 0.710523
O O4 0.311965 0.974269 0.654286
O O5 0.026207 0.534006 0.886857
O O6 0.480163 0.082775 0.877898
O O7 0.224251 0.937089 0.099435
O O8 0.918472 0.693117 0.978466
O O9 0.532242 0.696729 0.414597
O O10 0.705826 0.753006 0.189329
O O11 0.245837 0.919193 0.270462
O O12 0.500000 0.500000 0.500000
O O13 0.038356 0.102769 0.660694
O O14 0.503022 0.628097 0.727115
O O15 0.500000 0.500000 0.000000
O O16 0.000000 0.000000 0.000000
#
# Coordination Sequence:
#
# PCOD9069818 Si02
#       7
#     2   2   2   2   2   2   2
#     4  12  28  47  73 102 142 191 237 297 355 427
#     4  12  24  45  71 110 146 187 242 293 366 429
#     4  12  26  48  71 105 141 182 243 292 360 422
#     4  12  26  45  74 106 150 191 241 291 359 435
#     4  12  28  47  78 105 143 191 246 300 359 423
#     4  12  24  40  71 103 144 186 228 290 354 426
#     4  12  26  48  74 110 145 193 238 299 362 427
#
# _framework density 24.451578000000001
#
# number of rings (size 3 to 8) (size 9 to 14) (size 15 to 20)
#    0.000    0.000    1.429    9.429    6.000    0.000 
#    0.000    0.000    0.000    0.000    0.000    0.000 
#    0.000    0.000    0.000    0.000    0.000    0.000 
#
# Total GULP energy -78374.787251 kJ/mol
# GULP energy per Si atom -5598.199089 kJ/mol
# Density = 2.439593 g / cm^3
# Si number density = 24.451578 Si / 1000 Ang^3
#
#
#
# Elastic Constant Matrix: (Units=GPa)
#
#
# Indices 1 2 3 4 5 6 
#
# 1 97.6403 11.2924 5.3902 -6.5129 24.9845 -19.2209
# 2 11.2924 119.7943 11.1212 10.2115 7.1833 -2.3471
# 3 5.3902 11.1212 84.6829 1.5338 21.9676 -8.5467
# 4 -6.5129 10.2115 1.5338 31.0826 -7.5778 0.9292
# 5 24.9845 7.1833 21.9676 -7.5778 33.0737 -2.0363
# 6 -19.2209 -2.3471 -8.5467 0.9292 -2.0363 37.5878
#
#
#
# Elastic Compliance Matrix: (Units=1/GPa)
#
#
# Indices 1 2 3 4 5 6 
#
# 1 0.014929 -0.000779 0.003253 -0.000132 -0.012829 0.007633
# 2 -0.000779 0.008877 -0.000602 -0.003473 -0.001735 0.000011
# 3 0.003253 -0.000602 0.015611 -0.003234 -0.013156 0.004543
# 4 -0.000132 -0.003473 -0.003234 0.036220 0.011221 -0.001307
# 5 -0.012829 -0.001735 -0.013156 0.011221 0.051172 -0.007165
# 6 0.007633 0.000011 0.004543 -0.001307 -0.007165 0.031185
#
#
# Mechanical properties :
#
#
# Convention : Reuss Voigt Hill
#
# Bulk Modulus (GPa) = 23.16972 39.74723 31.45847
# Shear Modulus (GPa) = 29.64939 38.63640 34.14290
#
# Velocity S-wave (km/s) = 3.48598 3.97938 3.74083
# Velocity P-wave (km/s) = 5.06943 6.11594 5.61711
#
# Compressibility (1/GPa) = 0.04315978
#
# Stress axis : x y z
#
# Youngs Moduli (GPa) = 66.98470 112.64705 64.05839
#
# Poissons Ratio (x) = 0.08777 -0.20837
# Poissons Ratio (y) = 0.05219 0.03858
# Poissons Ratio (z) = -0.21789 0.06784
#
# Static dielectric constant tensor:
#      x y z
#    x 1.930100 0.017140 0.054880 
#    y 0.017140 1.868220 -0.008010 
#    z 0.054880 -0.008010 1.942520 
# 
# From -- ./inp_files/519820.got.cif
#   From: 2010.05.17/outbox.cif.g08.bks.cpg/sg2_260_cif.got.tgz:519820.got - 2010.06.03 11:33:40.
