data_PCOD9069358
_publ_section_title
;
Structure prediction by ZEFSAII (Michael W. Deem and Ramdas Pophale) SiO2 
 PCOD9069358
Probable space group: P -1
;
_chemical_formula_sum "Si O2"
_cell_formula_units_Z 16
_cell_length_a 9.021283
_cell_length_b 9.277824
_cell_length_c 15.376910
_cell_angle_alpha 95.263252
_cell_angle_beta 81.833601
_cell_angle_gamma 150.050017
_cell_volume 634.737737
_symmetry_space_group_name_H-M "P -1"
_symmetry_group_IT_number 2
_symmetry_cell_setting 'triclinic'
loop_
_space_group_symop_operation_xyz
x,y,z
-x,-y,-z
loop_
_atom_site_type_symbol
_atom_site_label
_atom_site_fract_x
_atom_site_fract_y
_atom_site_fract_z
Si Si1 0.365467 0.820124 0.087087
Si Si2 0.995111 0.211757 0.669908
Si Si3 0.080635 0.294254 0.864017
Si Si4 0.774626 0.347596 0.680231
Si Si5 0.008644 0.714391 0.850644
Si Si6 0.400507 0.270299 0.449019
Si Si7 0.314924 0.271301 0.080589
Si Si8 0.287007 0.925662 0.570350
O O1 0.195763 0.527977 0.069649
O O2 0.095308 0.702405 0.126838
O O3 0.646236 0.027671 0.140172
O O4 0.500000 0.000000 0.000000
O O5 0.795637 0.191385 0.680963
O O6 0.295072 0.517780 0.614251
O O7 0.052168 0.213031 0.763519
O O8 0.847292 0.953916 0.617533
O O9 0.908108 0.048912 0.934700
O O10 0.429544 0.584655 0.871910
O O11 0.888287 0.525648 0.766283
O O12 0.444693 0.100311 0.657696
O O13 0.987517 0.589691 0.599913
O O14 0.897738 0.785884 0.860534
O O15 0.500000 0.500000 0.500000
O O16 0.270935 0.053253 0.519760
O O17 0.500000 0.500000 0.000000
O O18 0.500000 0.000000 0.500000
#
# Coordination Sequence:
#
# PCOD9069358 Si02
#       8
#     2   2   2   2   2   2   2   2
#     4  12  24  44  72 106 138 183 241 292 345 427
#     4  12  24  45  70 100 142 182 234 306 350 425
#     4  12  26  44  75 103 140 195 236 282 374 425
#     4  12  24  42  71 103 137 182 243 300 353 416
#     4  12  26  44  70 105 143 182 238 299 350 416
#     4  12  27  44  68 101 141 183 236 291 358 431
#     4  12  26  48  70 104 150 191 232 293 360 432
#     4  12  23  42  70  96 135 188 232 289 360 426
#
# _framework density 25.207260000000002
#
# number of rings (size 3 to 8) (size 9 to 14) (size 15 to 20)
#    0.000    0.000    3.750    6.750    1.750    3.000 
#    0.000    0.000    0.000    0.000    0.000    0.000 
#    0.000    0.000    0.000    0.000    0.000    0.000 
#
# Total GULP energy -89583.346777 kJ/mol
# GULP energy per Si atom -5598.959174 kJ/mol
# Density = 2.514989 g / cm^3
# Si number density = 25.207260 Si / 1000 Ang^3
#
#
#
# Elastic Constant Matrix: (Units=GPa)
#
#
# Indices 1 2 3 4 5 6 
#
# 1 118.2328 29.6564 29.7399 21.8677 -15.4317 8.4294
# 2 29.6564 139.1775 15.6027 16.5717 1.1669 9.3442
# 3 29.7399 15.6027 85.6641 18.5514 8.1130 8.0301
# 4 21.8677 16.5717 18.5514 47.0877 -2.8457 14.2482
# 5 -15.4317 1.1669 8.1130 -2.8457 21.9849 6.8236
# 6 8.4294 9.3442 8.0301 14.2482 6.8236 53.1224
#
#
#
# Elastic Compliance Matrix: (Units=1/GPa)
#
#
# Indices 1 2 3 4 5 6 
#
# 1 0.011763 -0.001768 -0.004107 -0.002107 0.010111 -0.001668
# 2 -0.001768 0.007845 -0.000220 -0.001850 -0.001707 -0.000351
# 3 -0.004107 -0.000220 0.014961 -0.004741 -0.009283 0.000893
# 4 -0.002107 -0.001850 -0.004741 0.027108 0.005944 -0.006658
# 5 0.010111 -0.001707 -0.009283 0.005944 0.059713 -0.009166
# 6 -0.001668 -0.000351 0.000893 -0.006658 -0.009166 0.021979
#
#
# Mechanical properties :
#
#
# Convention : Reuss Voigt Hill
#
# Bulk Modulus (GPa) = 44.68302 54.78582 49.73442
# Shear Modulus (GPa) = 30.67155 42.31068 36.49112
#
# Velocity S-wave (km/s) = 3.49201 4.10141 3.80892
# Velocity P-wave (km/s) = 5.83298 6.64907 6.25435
#
# Compressibility (1/GPa) = 0.02237987
#
# Stress axis : x y z
#
# Youngs Moduli (GPa) = 85.01569 127.47648 66.83871
#
# Poissons Ratio (x) = 0.22537 0.27448
# Poissons Ratio (y) = 0.15030 0.01469
# Poissons Ratio (z) = 0.34912 0.02802
#
# Static dielectric constant tensor:
#      x y z
#    x 2.034280 0.007190 -0.017200 
#    y 0.007190 1.930020 -0.026570 
#    z -0.017200 -0.026570 2.104660 
# 
# From -- ./inp_files/557261.got.cif
#   From: 2010.05.17/outbox.cif.g08.bks.cpg/sg2_279_cif.got.tgz:557261.got - 2010.06.03 11:33:40.
