data_PCOD9069823
_publ_section_title
;
Structure prediction by ZEFSAII (Michael W. Deem and Ramdas Pophale) SiO2 
 PCOD9069823
Probable space group: P -1
;
_chemical_formula_sum "Si O2"
_cell_formula_units_Z 16
_cell_length_a 15.810379
_cell_length_b 9.951218
_cell_length_c 6.895018
_cell_angle_alpha 44.797438
_cell_angle_beta 110.033830
_cell_angle_gamma 99.473627
_cell_volume 713.042294
_symmetry_space_group_name_H-M "P -1"
_symmetry_group_IT_number 2
_symmetry_cell_setting 'triclinic'
loop_
_space_group_symop_operation_xyz
x,y,z
-x,-y,-z
loop_
_atom_site_type_symbol
_atom_site_label
_atom_site_fract_x
_atom_site_fract_y
_atom_site_fract_z
Si Si1 0.676046 0.565330 0.670173
Si Si2 0.087001 0.107773 0.504981
Si Si3 0.802934 0.255764 0.851802
Si Si4 0.311251 0.890204 0.407912
Si Si5 0.419472 0.098498 0.970702
Si Si6 0.917272 0.567709 0.506950
Si Si7 0.458943 0.622157 0.020467
Si Si8 0.203716 0.267503 0.103345
O O1 0.723153 0.394157 0.750800
O O2 0.659616 0.771263 0.340595
O O3 0.578108 0.515073 0.709537
O O4 0.740355 0.590446 0.878021
O O5 0.066788 0.268418 0.492806
O O6 0.125053 0.207836 0.244049
O O7 0.164513 0.942209 0.810809
O O8 0.000000 0.000000 0.500000
O O9 0.768469 0.205029 0.663738
O O10 0.885820 0.383217 0.776935
O O11 0.270477 0.079575 0.293682
O O12 0.370485 0.755101 0.740646
O O13 0.376392 0.949013 0.226244
O O14 0.466932 0.248240 0.983193
O O15 0.500000 0.000000 0.000000
O O16 0.000000 0.500000 0.500000
O O17 0.836636 0.648834 0.215593
O O18 0.500000 0.500000 0.000000
#
# Coordination Sequence:
#
# PCOD9069823 Si02
#       8
#     2   2   2   2   2   2   2   2
#     4  12  24  43  69 100 137 187 234 288 348 411
#     4  12  28  48  73 107 144 184 230 288 353 417
#     4  12  25  47  72 104 143 185 238 286 348 418
#     4  12  24  43  69 100 137 187 234 288 348 411
#     4  12  24  43  66  99 143 182 233 292 349 409
#     4  12  28  48  73 107 144 183 232 288 347 424
#     4  12  24  41  64  99 135 184 235 284 351 411
#     4  12  25  47  72 104 143 185 238 286 348 418
#
# _framework density 22.439060999999999
#
# number of rings (size 3 to 8) (size 9 to 14) (size 15 to 20)
#    0.000    0.000    2.500    8.250    3.500    2.000 
#    0.000    0.000    0.000    0.000    0.000    0.000 
#    0.000    0.000    0.000    0.000    0.000    0.000 
#
# Total GULP energy -89679.443258 kJ/mol
# GULP energy per Si atom -5604.965204 kJ/mol
# Density = 2.238799 g / cm^3
# Si number density = 22.439061 Si / 1000 Ang^3
#
#
#
# Elastic Constant Matrix: (Units=GPa)
#
#
# Indices 1 2 3 4 5 6 
#
# 1 72.9476 18.5342 -6.7606 -7.4636 -19.3971 -2.4889
# 2 18.5342 112.3401 6.0078 -3.5355 -13.9305 0.5890
# 3 -6.7606 6.0078 64.3506 -2.7015 -1.6655 5.1463
# 4 -7.4636 -3.5355 -2.7015 28.6128 5.9671 5.5779
# 5 -19.3971 -13.9305 -1.6655 5.9671 38.2165 1.5840
# 6 -2.4889 0.5890 5.1463 5.5779 1.5840 58.4463
#
#
#
# Elastic Compliance Matrix: (Units=1/GPa)
#
#
# Indices 1 2 3 4 5 6 
#
# 1 0.016649 -0.001857 0.002225 0.002760 0.007437 0.000067
# 2 -0.001857 0.009575 -0.001006 0.000116 0.002493 -0.000166
# 3 0.002225 -0.001006 0.016107 0.002024 0.001212 -0.001539
# 4 0.002760 0.000116 0.002024 0.037430 -0.004167 -0.003521
# 5 0.007437 0.002493 0.001212 -0.004167 0.031565 -0.000273
# 6 0.000067 -0.000166 -0.001539 -0.003521 -0.000273 0.017593
#
#
# Mechanical properties :
#
#
# Convention : Reuss Voigt Hill
#
# Bulk Modulus (GPa) = 24.35763 31.68900 28.02331
# Shear Modulus (GPa) = 34.75112 40.51224 37.63168
#
# Velocity S-wave (km/s) = 3.93961 4.25365 4.09964
# Velocity P-wave (km/s) = 5.61895 6.18689 5.90975
#
# Compressibility (1/GPa) = 0.04105491
#
# Stress axis : x y z
#
# Youngs Moduli (GPa) = 60.06512 104.43458 62.08442
#
# Poissons Ratio (x) = 0.19394 -0.13816
# Poissons Ratio (y) = 0.11155 0.06248
# Poissons Ratio (z) = -0.13367 0.10511
#
# Static dielectric constant tensor:
#      x y z
#    x 1.790490 0.008590 -0.027260 
#    y 0.008590 1.799360 -0.018910 
#    z -0.027260 -0.018910 1.733430 
# 
# From -- ./inp_files/106117.got.cif
#   From: 2010.05.17/outbox.cif.g08.bks.cpg/sg2_54_cif.got.tgz:106117.got - 2010.06.03 11:33:40.
