data_PCOD9069893
_publ_section_title
;
Structure prediction by ZEFSAII (Michael W. Deem and Ramdas Pophale) SiO2 
 PCOD9069893
Probable space group: P -1
;
_chemical_formula_sum "Si O2"
_cell_formula_units_Z 13
_cell_length_a 10.379410
_cell_length_b 13.019290
_cell_length_c 9.732134
_cell_angle_alpha 48.949989
_cell_angle_beta 150.507135
_cell_angle_gamma 128.164980
_cell_volume 484.458222
_symmetry_space_group_name_H-M "P -1"
_symmetry_group_IT_number 2
_symmetry_cell_setting 'triclinic'
loop_
_space_group_symop_operation_xyz
x,y,z
-x,-y,-z
loop_
_atom_site_type_symbol
_atom_site_label
_atom_site_fract_x
_atom_site_fract_y
_atom_site_fract_z
Si Si1 0.500000 0.000000 0.000000
Si Si2 0.361660 0.311812 0.137834
Si Si3 0.694525 0.695259 0.366222
Si Si4 0.236835 0.093151 0.975590
Si Si5 0.701972 0.940304 0.525133
Si Si6 0.119053 0.551303 0.381321
Si Si7 0.826960 0.294043 0.994760
O O1 0.710814 0.978554 0.340889
O O2 0.301180 0.863225 0.998861
O O3 0.305380 0.212869 0.042962
O O4 0.279930 0.214418 0.279112
O O5 0.663313 0.369444 0.387452
O O6 0.171917 0.429429 0.858017
O O7 0.813135 0.601452 0.446058
O O8 0.396110 0.642305 0.176422
O O9 0.680594 0.847571 0.154269
O O10 0.898445 0.696439 0.678494
O O11 0.934427 0.034890 0.735981
O O12 0.421375 0.978867 0.282143
O O13 0.157728 0.624350 0.204284
#
# Coordination Sequence:
#
# PCOD9069893 Si02
#       7
#     1   2   2   2   2   2   2
#     4  12  24  42  76  98 134 166 216 286 328 394
#     4  12  26  44  69  97 134 178 224 268 322 395
#     4  12  25  45  68  98 135 177 217 273 331 389
#     4  12  25  45  68  98 135 177 217 273 331 389
#     4  12  25  44  68 101 136 168 218 276 342 387
#     4  12  26  44  69  97 134 178 224 268 322 395
#     4  12  25  44  68 101 136 168 218 276 342 387
#
# _framework density 26.834101
#
# number of rings (size 3 to 8) (size 9 to 14) (size 15 to 20)
#    0.000    0.000    4.615    5.538    0.000    2.462 
#    0.000    0.000    0.000    0.000    0.000    0.000 
#    0.000    0.000    0.000    0.000    0.000    0.000 
#
# Total GULP energy -72834.247714 kJ/mol
# GULP energy per Si atom -5602.634440 kJ/mol
# Density = 2.677302 g / cm^3
# Si number density = 26.834101 Si / 1000 Ang^3
#
#
#
# Elastic Constant Matrix: (Units=GPa)
#
#
# Indices 1 2 3 4 5 6 
#
# 1 74.3318 -1.5787 36.8128 -10.4775 -10.3890 -4.1391
# 2 -1.5787 66.9098 27.1325 -28.7102 -36.1996 4.2628
# 3 36.8128 27.1325 175.3886 1.7152 -5.3544 -10.1073
# 4 -10.4775 -28.7102 1.7152 33.8906 -20.1658 -8.0080
# 5 -10.3890 -36.1996 -5.3544 -20.1658 35.0483 -1.7094
# 6 -4.1391 4.2628 -10.1073 -8.0080 -1.7094 48.8096
#
#
#
# Elastic Compliance Matrix: (Units=1/GPa)
#
#
# Indices 1 2 3 4 5 6 
#
# 1 0.011658 -0.007357 -0.001522 -0.007960 -0.008970 -0.000304
# 2 -0.007357 -0.006649 0.001902 -0.021691 -0.021431 -0.003958
# 3 -0.001522 0.001902 0.005940 0.004193 0.004921 0.001795
# 4 -0.007960 -0.021691 0.004193 -0.009142 -0.029404 -0.000442
# 5 -0.008970 -0.021431 0.004921 -0.029404 -0.012581 -0.003135
# 6 -0.000304 -0.003958 0.001795 -0.000442 -0.003135 0.020997
#
#
# Mechanical properties :
#
#
# Convention : Reuss Voigt Hill
#
# Bulk Modulus (GPa) = -332.82656 49.04037 -141.89310
# Shear Modulus (GPa) = 215.76002 40.50060 128.13031
#
# Velocity S-wave (km/s) = 8.97662 3.88918 6.91757
# Velocity P-wave (km/s) = 4.10620 6.20344 3.28800
#
# Compressibility (1/GPa) = -0.00300457
#
# Stress axis : x y z
#
# Youngs Moduli (GPa) = 85.77567 -150.39349 168.36345
#
# Poissons Ratio (x) = -1.10639 0.25633
# Poissons Ratio (y) = 0.63102 -0.32031
# Poissons Ratio (z) = 0.13059 0.28612
#
# Static dielectric constant tensor:
#      x y z
#    x 1.913200 0.090750 0.011090 
#    y 0.090750 1.962400 -0.022670 
#    z 0.011090 -0.022670 1.983800 
# 
# From -- ./inp_files/535177.got.cif
#   From: 2010.05.17/outbox.cif.g08.bks.cpg/sg2_268_cif.got.tgz:535177.got - 2010.06.03 11:33:40.
