data_PCOD9069351
_publ_section_title
;
Structure prediction by ZEFSAII (Michael W. Deem and Ramdas Pophale) SiO2 
 PCOD9069351
Probable space group: P -1
;
_chemical_formula_sum "Si O2"
_cell_formula_units_Z 16
_cell_length_a 10.171566
_cell_length_b 10.432116
_cell_length_c 9.225573
_cell_angle_alpha 88.232389
_cell_angle_beta 135.661237
_cell_angle_gamma 86.258140
_cell_volume 678.487142
_symmetry_space_group_name_H-M "P -1"
_symmetry_group_IT_number 2
_symmetry_cell_setting 'triclinic'
loop_
_space_group_symop_operation_xyz
x,y,z
-x,-y,-z
loop_
_atom_site_type_symbol
_atom_site_label
_atom_site_fract_x
_atom_site_fract_y
_atom_site_fract_z
Si Si1 0.965057 0.368935 0.109704
Si Si2 0.620730 0.750693 0.641897
Si Si3 0.021492 0.579639 0.368770
Si Si4 0.686503 0.401224 0.624497
Si Si5 0.829749 0.864708 0.274924
Si Si6 0.240179 0.852822 0.901342
Si Si7 0.387966 0.081261 0.625547
Si Si8 0.526630 0.191345 0.180906
O O1 0.924232 0.492212 0.178616
O O2 0.886743 0.242249 0.117298
O O3 0.191062 0.338298 0.261563
O O4 0.853217 0.397094 0.871139
O O5 0.411041 0.727307 0.428175
O O6 0.643101 0.881036 0.567445
O O7 0.598702 0.729810 0.797386
O O8 0.949876 0.731903 0.323551
O O9 0.000000 0.500000 0.500000
O O10 0.232824 0.579386 0.471918
O O11 0.500000 0.500000 0.500000
O O12 0.781532 0.853358 0.407125
O O13 0.867051 0.007994 0.245703
O O14 0.626947 0.860308 0.041351
O O15 0.322873 0.776973 0.821869
O O16 0.414743 0.881640 0.145966
O O17 0.381171 0.930423 0.649955
#
# Coordination Sequence:
#
# PCOD9069351 Si02
#       8
#     2   2   2   2   2   2   2   2
#     4  12  26  47  74 101 142 184 230 286 353 404
#     4  12  23  42  69 100 141 176 232 285 346 406
#     4  12  27  47  71 104 140 182 237 286 341 416
#     4  12  28  48  69  97 144 188 229 286 348 416
#     4   9  20  42  71  98 140 181 231 282 342 412
#     4   9  20  44  71 101 135 184 227 283 345 407
#     4   9  18  42  66  99 141 180 221 283 347 412
#     4   9  20  37  69 100 136 181 229 279 344 407
#
# _framework density 23.581876999999999
#
# number of rings (size 3 to 8) (size 9 to 14) (size 15 to 20)
#    0.000    1.500    2.500    3.750    3.500    0.000 
#    4.500    6.875    0.000    0.000    0.000    0.000 
#    0.000    0.000    0.000    0.000    0.000    0.000 
#
# Total GULP energy -89149.701891 kJ/mol
# GULP energy per Si atom -5571.856368 kJ/mol
# Density = 2.352820 g / cm^3
# Si number density = 23.581877 Si / 1000 Ang^3
#
#
#
# Elastic Constant Matrix: (Units=GPa)
#
#
# Indices 1 2 3 4 5 6 
#
# 1 166.9449 69.9845 38.8063 -16.3490 -6.0495 8.8380
# 2 69.9845 91.9369 12.6131 -16.6508 3.9292 0.5082
# 3 38.8063 12.6131 85.1810 -3.8977 -4.9037 8.3154
# 4 -16.3490 -16.6508 -3.8977 34.7117 7.1080 -3.3268
# 5 -6.0495 3.9292 -4.9037 7.1080 34.7895 -3.4636
# 6 8.8380 0.5082 8.3154 -3.3268 -3.4636 48.4803
#
#
#
# Elastic Compliance Matrix: (Units=1/GPa)
#
#
# Indices 1 2 3 4 5 6 
#
# 1 0.009862 -0.007065 -0.003222 0.000414 0.001874 -0.001009
# 2 -0.007065 0.017457 0.000558 0.006087 -0.004253 0.001123
# 3 -0.003222 0.000558 0.013343 -0.000138 0.001123 -0.001636
# 4 0.000414 0.006087 -0.000138 0.033568 -0.007328 0.001664
# 5 0.001874 -0.004253 0.001123 -0.007328 0.031330 0.001246
# 6 -0.001009 0.001123 -0.001636 0.001664 0.001246 0.021283
#
#
# Mechanical properties :
#
#
# Convention : Reuss Voigt Hill
#
# Bulk Modulus (GPa) = 47.16035 65.20784 56.18410
# Shear Modulus (GPa) = 32.60110 38.44023 35.52067
#
# Velocity S-wave (km/s) = 3.72218 4.04180 3.88528
# Velocity P-wave (km/s) = 6.20603 7.03514 6.63355
#
# Compressibility (1/GPa) = 0.02120425
#
# Stress axis : x y z
#
# Youngs Moduli (GPa) = 101.39476 57.28473 74.94652
#
# Poissons Ratio (x) = 0.40472 0.24145
# Poissons Ratio (y) = 0.71636 -0.04181
# Poissons Ratio (z) = 0.32665 -0.03195
#
# Static dielectric constant tensor:
#      x y z
#    x 1.939290 -0.064470 -0.036000 
#    y -0.064470 2.066190 0.040290 
#    z -0.036000 0.040290 2.033050 
# 
# From -- ./inp_files/187027.got.cif
#   From: 2010.05.17/outbox.cif.g08.bks.cpg/sg2_94_cif.got.tgz:187027.got - 2010.06.03 11:33:40.
