data_PCOD9069593
_publ_section_title
;
Structure prediction by ZEFSAII (Michael W. Deem and Ramdas Pophale) SiO2 
 PCOD9069593
Probable space group: P -1
;
_chemical_formula_sum "Si O2"
_cell_formula_units_Z 15
_cell_length_a 14.307925
_cell_length_b 11.310831
_cell_length_c 12.100262
_cell_angle_alpha 40.517807
_cell_angle_beta 148.781309
_cell_angle_gamma 133.972149
_cell_volume 653.707035
_symmetry_space_group_name_H-M "P -1"
_symmetry_group_IT_number 2
_symmetry_cell_setting 'triclinic'
loop_
_space_group_symop_operation_xyz
x,y,z
-x,-y,-z
loop_
_atom_site_type_symbol
_atom_site_label
_atom_site_fract_x
_atom_site_fract_y
_atom_site_fract_z
Si Si1 0.912919 0.979669 0.806319
Si Si2 0.919093 0.180747 0.248065
Si Si3 0.543109 0.101483 0.308106
Si Si4 0.101335 0.357964 0.634571
Si Si5 0.790242 0.176902 0.877284
Si Si6 0.500000 0.500000 0.000000
Si Si7 0.759409 0.577631 0.516974
Si Si8 0.436793 0.821015 0.989160
O O1 0.994026 0.156624 0.689666
O O2 0.698352 0.979762 0.588205
O O3 0.004169 0.811440 0.968468
O O4 0.000000 0.000000 0.000000
O O5 0.768889 0.242339 0.135322
O O6 0.096204 0.330583 0.312694
O O7 0.813567 0.138148 0.057408
O O8 0.000000 0.000000 0.500000
O O9 0.562634 0.137686 0.169743
O O10 0.346912 0.981328 0.207314
O O11 0.582230 0.304424 0.255653
O O12 0.303809 0.379042 0.872571
O O13 0.135015 0.395711 0.512230
O O14 0.000000 0.500000 0.500000
O O15 0.712184 0.365759 0.646461
O O16 0.580282 0.678224 0.255752
O O17 0.500000 0.000000 0.000000
#
# Coordination Sequence:
#
# PCOD9069593 Si02
#       8
#     2   2   2   2   2   1   2   2
#     4  12  27  45  71 100 142 187 238 297 361 427
#     4  12  24  45  75 100 141 193 238 297 355 435
#     4  12  25  47  73 104 143 190 242 298 358 436
#     4  12  24  46  71 102 137 190 245 291 357 433
#     4  12  27  46  67 108 150 181 241 301 367 427
#     4  12  24  42  78  98 140 190 244 296 344 432
#     4  12  27  45  72 106 146 187 242 302 364 435
#     4  12  23  45  76 105 137 191 245 291 362 435
#
# _framework density 22.946057
#
# number of rings (size 3 to 8) (size 9 to 14) (size 15 to 20)
#    0.000    0.000    6.667    3.600    0.000    3.200 
#    0.000    0.000    0.000    0.000    0.000    0.000 
#    0.000    0.000    0.000    0.000    0.000    0.000 
#
# Total GULP energy -83688.668131 kJ/mol
# GULP energy per Si atom -5579.244542 kJ/mol
# Density = 2.289383 g / cm^3
# Si number density = 22.946057 Si / 1000 Ang^3
#
#
#
# Elastic Constant Matrix: (Units=GPa)
#
#
# Indices 1 2 3 4 5 6 
#
# 1 63.5764 -4.4110 37.3319 -0.6312 5.0049 -7.1460
# 2 -4.4110 95.1901 38.1532 -12.3815 12.0628 6.8806
# 3 37.3319 38.1532 154.5468 -2.2204 19.5196 -4.3270
# 4 -0.6312 -12.3815 -2.2204 44.4301 5.2363 13.7577
# 5 5.0049 12.0628 19.5196 5.2363 36.8376 -1.7974
# 6 -7.1460 6.8806 -4.3270 13.7577 -1.7974 21.6939
#
#
#
# Elastic Compliance Matrix: (Units=1/GPa)
#
#
# Indices 1 2 3 4 5 6 
#
# 1 0.019535 0.002559 -0.005171 -0.000788 -0.000394 0.005059
# 2 0.002559 0.014337 -0.003742 0.007314 -0.004562 -0.009467
# 3 -0.005171 -0.003742 0.009010 -0.000849 -0.002648 0.001600
# 4 -0.000788 0.007314 -0.000849 0.032910 -0.007700 -0.024257
# 5 -0.000394 -0.004562 -0.002648 -0.007700 0.031595 0.008290
# 6 0.005059 -0.009467 0.001600 -0.024257 0.008290 0.067154
#
#
# Mechanical properties :
#
#
# Convention : Reuss Voigt Hill
#
# Bulk Modulus (GPa) = 33.13822 50.60683 41.87252
# Shear Modulus (GPa) = 25.34137 36.74159 31.04148
#
# Velocity S-wave (km/s) = 3.32684 4.00586 3.68204
# Velocity P-wave (km/s) = 5.40650 6.59534 6.03029
#
# Compressibility (1/GPa) = 0.03017664
#
# Stress axis : x y z
#
# Youngs Moduli (GPa) = 51.19141 69.74878 110.98521
#
# Poissons Ratio (x) = -0.17852 0.57385
# Poissons Ratio (y) = -0.13102 0.41525
# Poissons Ratio (z) = 0.26469 0.26097
#
# Static dielectric constant tensor:
#      x y z
#    x 1.278310 0.426820 -0.419710 
#    y 0.426820 1.565630 0.267860 
#    z -0.419710 0.267860 1.580160 
# 
# From -- ./inp_files/267031.got.cif
#   From: 2010.05.17/outbox.cif.g08.bks.cpg/sg2_134_cif.got.tgz:267031.got - 2010.06.03 11:33:40.
