data_PCOD9069304
_publ_section_title
;
Structure prediction by ZEFSAII (Michael W. Deem and Ramdas Pophale) SiO2 
 PCOD9069304
Probable space group: P -1
;
_chemical_formula_sum "Si O2"
_cell_formula_units_Z 16
_cell_length_a 14.207139
_cell_length_b 14.890274
_cell_length_c 14.898553
_cell_angle_alpha 139.964436
_cell_angle_beta 40.911405
_cell_angle_gamma 160.405046
_cell_volume 671.220814
_symmetry_space_group_name_H-M "P -1"
_symmetry_group_IT_number 2
_symmetry_cell_setting 'triclinic'
loop_
_space_group_symop_operation_xyz
x,y,z
-x,-y,-z
loop_
_atom_site_type_symbol
_atom_site_label
_atom_site_fract_x
_atom_site_fract_y
_atom_site_fract_z
Si Si1 0.484142 0.771760 0.025504
Si Si2 0.099401 0.965816 0.694275
Si Si3 0.439380 0.456157 0.116391
Si Si4 0.964409 0.388875 0.206664
Si Si5 0.878365 0.966036 0.469455
Si Si6 0.793614 0.266398 0.543473
Si Si7 0.720455 0.453301 0.375698
Si Si8 0.317446 0.708606 0.913416
O O1 0.187467 0.601980 0.129478
O O2 0.445750 0.593119 0.965063
O O3 0.465373 0.741657 0.909782
O O4 0.763267 0.087098 0.102090
O O5 0.392310 0.273580 0.755604
O O6 0.036898 0.993004 0.665003
O O7 0.121816 0.818250 0.549720
O O8 0.875161 0.800834 0.810532
O O9 0.500000 0.500000 0.000000
O O10 0.174541 0.588359 0.291862
O O11 0.750288 0.339610 0.326482
O O12 0.991018 0.218538 0.588151
O O13 0.538024 0.671982 0.496091
O O14 0.000000 0.000000 0.500000
O O15 0.000000 0.500000 0.500000
O O16 0.500000 0.000000 0.500000
O O17 0.654278 0.348740 0.243422
O O18 0.000000 0.500000 0.000000
O O19 0.500000 0.000000 0.000000
#
# Coordination Sequence:
#
# PCOD9069304 Si02
#       8
#     2   2   2   2   2   2   2   2
#     4  12  26  45  73 106 148 196 245 294 365 443
#     4  12  28  52  74 109 146 187 255 299 369 444
#     4  12  30  51  75 101 147 201 244 304 357 440
#     4  12  25  46  74 108 144 186 246 307 373 430
#     4  12  28  46  74 105 146 199 240 301 370 439
#     4  12  28  46  78 108 139 185 238 317 376 428
#     4  12  24  45  70 104 152 187 240 305 368 429
#     4  12  23  41  66 107 146 187 232 292 359 434
#
# _framework density 23.837164000000001
#
# number of rings (size 3 to 8) (size 9 to 14) (size 15 to 20)
#    0.000    0.000    3.750    5.250   10.500    0.000 
#    0.000    0.000    0.000    0.000    0.000    0.000 
#    0.000    0.000    0.000    0.000    0.000    0.000 
#
# Total GULP energy -89386.117177 kJ/mol
# GULP energy per Si atom -5586.632324 kJ/mol
# Density = 2.378291 g / cm^3
# Si number density = 23.837164 Si / 1000 Ang^3
#
#
#
# Elastic Constant Matrix: (Units=GPa)
#
#
# Indices 1 2 3 4 5 6 
#
# 1 123.1299 24.4500 19.6900 1.5876 22.0757 -17.1327
# 2 24.4500 133.7951 14.7931 2.2288 8.2642 1.5791
# 3 19.6900 14.7931 64.7300 8.8467 26.3035 -5.7436
# 4 1.5876 2.2288 8.8467 44.1561 2.4562 -3.7256
# 5 22.0757 8.2642 26.3035 2.4562 47.3890 -4.0136
# 6 -17.1327 1.5791 -5.7436 -3.7256 -4.0136 31.2908
#
#
#
# Elastic Compliance Matrix: (Units=1/GPa)
#
#
# Indices 1 2 3 4 5 6 
#
# 1 0.009871 -0.001561 -0.000876 0.000508 -0.003448 0.004941
# 2 -0.001561 0.007940 -0.001466 -0.000183 0.000035 -0.001542
# 3 -0.000876 -0.001466 0.020997 -0.003366 -0.010674 0.001679
# 4 0.000508 -0.000183 -0.003366 0.023491 0.000662 0.002551
# 5 -0.003448 0.000035 -0.010674 0.000662 0.028583 -0.000104
# 6 0.004941 -0.001542 0.001679 0.002551 -0.000104 0.035340
#
#
# Mechanical properties :
#
#
# Convention : Reuss Voigt Hill
#
# Bulk Modulus (GPa) = 32.25531 48.83568 40.54549
# Shear Modulus (GPa) = 34.63543 42.08197 38.35870
#
# Velocity S-wave (km/s) = 3.81596 4.20622 4.01583
# Velocity P-wave (km/s) = 5.74250 6.64239 6.20877
#
# Compressibility (1/GPa) = 0.03100265
#
# Stress axis : x y z
#
# Youngs Moduli (GPa) = 101.31183 125.93673 47.62671
#
# Poissons Ratio (x) = 0.19655 0.04171
# Poissons Ratio (y) = 0.15812 0.06982
# Poissons Ratio (z) = 0.08874 0.18461
#
# Static dielectric constant tensor:
#      x y z
#    x 2.247020 -0.135400 0.339230 
#    y -0.135400 1.973730 -0.307270 
#    z 0.339230 -0.307270 2.425820 
# 
# From -- ./inp_files/534441.got.cif
#   From: 2010.05.17/outbox.cif.g08.bks.cpg/sg2_268_cif.got.tgz:534441.got - 2010.06.03 11:33:40.
