data_PCOD9069130
_publ_section_title
;
Structure prediction by ZEFSAII (Michael W. Deem and Ramdas Pophale) SiO2 
 PCOD9069130
Probable space group: P -1
;
_chemical_formula_sum "Si O2"
_cell_formula_units_Z 12
_cell_length_a 10.375768
_cell_length_b 24.855539
_cell_length_c 24.312087
_cell_angle_alpha 11.625121
_cell_angle_beta 24.782456
_cell_angle_gamma 26.361431
_cell_volume 527.920649
_symmetry_space_group_name_H-M "P -1"
_symmetry_group_IT_number 2
_symmetry_cell_setting 'triclinic'
loop_
_space_group_symop_operation_xyz
x,y,z
-x,-y,-z
loop_
_atom_site_type_symbol
_atom_site_label
_atom_site_fract_x
_atom_site_fract_y
_atom_site_fract_z
Si Si1 0.169742 0.624008 0.360669
Si Si2 0.279825 0.259360 0.839001
Si Si3 0.904597 0.162993 0.984831
Si Si4 0.238517 0.060745 0.492813
Si Si5 0.137642 0.405154 0.872429
Si Si6 0.206149 0.233857 0.205236
O O1 0.519487 0.643240 0.188520
O O2 0.000000 0.500000 0.500000
O O3 0.129974 0.390734 0.653228
O O4 0.019662 0.896636 0.173180
O O5 0.500000 0.500000 0.500000
O O6 0.178193 0.302184 0.897883
O O7 0.972554 0.179250 0.006782
O O8 0.500000 0.000000 0.000000
O O9 0.541554 0.225698 0.054446
O O10 0.281653 0.180905 0.294191
O O11 0.988605 0.286524 0.387721
O O12 0.500000 0.000000 0.500000
O O13 0.093788 0.777691 0.824480
O O14 0.000000 0.000000 0.500000
O O15 0.000000 0.500000 0.000000
#
# Coordination Sequence:
#
# PCOD9069130 Si02
#       6
#     2   2   2   2   2   2
#     4  12  27  44  73 109 144 191 240 305 379 439
#     4  12  22  43  70 107 144 182 237 297 376 440
#     4  12  25  48  72 104 146 191 246 305 368 448
#     4  12  28  50  76 110 151 201 252 309 370 445
#     4  12  25  45  78 109 150 188 248 310 375 447
#     4  12  29  50  76 107 148 204 256 306 369 446
#
# _framework density 22.730689000000002
#
# number of rings (size 3 to 8) (size 9 to 14) (size 15 to 20)
#    0.000    0.000    3.333    6.000    7.000    2.667 
#    0.000    0.000    0.000    0.000    0.000    0.000 
#    0.000    0.000    0.000    0.000    0.000    0.000 
#
# Total GULP energy -66976.899578 kJ/mol
# GULP energy per Si atom -5581.408298 kJ/mol
# Density = 2.267895 g / cm^3
# Si number density = 22.730689 Si / 1000 Ang^3
#
#
#
# Elastic Constant Matrix: (Units=GPa)
#
#
# Indices 1 2 3 4 5 6 
#
# 1 287.5417 -132.8564 111.5439 -27.3953 -110.8401 97.3806
# 2 -132.8564 369.3929 -81.0376 25.0829 114.3604 -188.2740
# 3 111.5439 -81.0376 195.9928 -39.0787 -73.1441 54.7674
# 4 -27.3953 25.0829 -39.0787 49.4500 18.0443 -30.2786
# 5 -110.8401 114.3604 -73.1441 18.0443 102.5439 -65.2113
# 6 97.3806 -188.2740 54.7674 -30.2786 -65.2113 141.5727
#
#
#
# Elastic Compliance Matrix: (Units=1/GPa)
#
#
# Indices 1 2 3 4 5 6 
#
# 1 0.006676 -0.001349 -0.001478 -0.000938 0.005665 -0.003405
# 2 -0.001349 0.010085 0.000268 0.004016 -0.005122 0.012736
# 3 -0.001478 0.000268 0.008084 0.004671 0.003631 0.000918
# 4 -0.000938 0.004016 0.004671 0.027601 -0.000857 0.009687
# 5 0.005665 -0.005122 0.003631 -0.000857 0.023348 -0.001541
# 6 -0.003405 0.012736 0.000918 0.009687 -0.001541 0.027349
#
#
# Mechanical properties :
#
#
# Convention : Reuss Voigt Hill
#
# Bulk Modulus (GPa) = 50.69306 72.02523 61.35914
# Shear Modulus (GPa) = 43.53975 122.39848 82.96912
#
# Velocity S-wave (km/s) = 4.38135 7.34603 6.04815
# Velocity P-wave (km/s) = 6.92423 10.18368 8.70782
#
# Compressibility (1/GPa) = 0.01972657
#
# Stress axis : x y z
#
# Youngs Moduli (GPa) = 149.80037 99.15981 123.69350
#
# Poissons Ratio (x) = 0.13378 0.18284
# Poissons Ratio (y) = 0.20211 -0.03318
# Poissons Ratio (z) = 0.22143 -0.02660
#
# Static dielectric constant tensor:
#      x y z
#    x 5.445390 0.881310 2.058120 
#    y 0.881310 2.081860 0.568710 
#    z 2.058120 0.568710 2.975900 
# 
# From -- ./inp_files/618839.got.cif
#   From: 2010.05.17/outbox.cif.g08.bks.cpg/sg2_310_cif.got.tgz:618839.got - 2010.06.03 11:33:40.
