data_PCOD9069406
_publ_section_title
;
Structure prediction by ZEFSAII (Michael W. Deem and Ramdas Pophale) SiO2 
 PCOD9069406
Probable space group: P -1
;
_chemical_formula_sum "Si O2"
_cell_formula_units_Z 14
_cell_length_a 18.362096
_cell_length_b 9.661631
_cell_length_c 7.980192
_cell_angle_alpha 148.459009
_cell_angle_beta 59.063835
_cell_angle_gamma 121.157590
_cell_volume 625.244865
_symmetry_space_group_name_H-M "P -1"
_symmetry_group_IT_number 2
_symmetry_cell_setting 'triclinic'
loop_
_space_group_symop_operation_xyz
x,y,z
-x,-y,-z
loop_
_atom_site_type_symbol
_atom_site_label
_atom_site_fract_x
_atom_site_fract_y
_atom_site_fract_z
Si Si1 0.664443 0.122647 0.694518
Si Si2 0.162060 0.384102 0.320556
Si Si3 0.345231 0.547862 0.455109
Si Si4 0.853012 0.148616 0.431514
Si Si5 0.007313 0.244126 0.614088
Si Si6 0.412872 0.070763 0.749897
Si Si7 0.597132 0.588422 0.409644
O O1 0.765986 0.179610 0.666270
O O2 0.655046 0.011289 0.402615
O O3 0.614945 0.888474 0.628990
O O4 0.620400 0.383791 0.031062
O O5 0.256370 0.473623 0.383054
O O6 0.136009 0.630477 0.501291
O O7 0.095707 0.292711 0.454555
O O8 0.159268 0.141447 0.941872
O O9 0.382432 0.863416 0.721949
O O10 0.339827 0.453811 0.555614
O O11 0.411922 0.374244 0.115606
O O12 0.932086 0.190309 0.508598
O O13 0.000000 0.000000 0.500000
O O14 0.000000 0.500000 0.000000
O O15 0.500000 0.000000 0.500000
O O16 0.500000 0.500000 0.500000
#
# Coordination Sequence:
#
# PCOD9069406 Si02
#       7
#     2   2   2   2   2   2   2
#     4  12  24  42  68  97 133 178 228 273 336 399
#     4  12  24  47  70 101 138 179 222 273 337 403
#     4  12  24  42  66  99 133 179 226 274 339 395
#     4  12  25  47  72 101 137 179 222 273 339 399
#     4  12  28  46  75 108 136 174 218 276 334 408
#     4  12  23  43  67  97 132 175 231 281 322 397
#     4  12  26  43  64  97 139 182 223 282 343 389
#
# _framework density 22.391227000000001
#
# number of rings (size 3 to 8) (size 9 to 14) (size 15 to 20)
#    0.000    0.000    2.857    7.714    4.000    0.000 
#    0.000    0.000    0.000    0.000    0.000    0.000 
#    0.000    0.000    0.000    0.000    0.000    0.000 
#
# Total GULP energy -78449.126903 kJ/mol
# GULP energy per Si atom -5603.509064 kJ/mol
# Density = 2.234026 g / cm^3
# Si number density = 22.391227 Si / 1000 Ang^3
#
#
#
# Elastic Constant Matrix: (Units=GPa)
#
#
# Indices 1 2 3 4 5 6 
#
# 1 93.0985 30.1859 4.3774 12.0932 -6.3662 -10.4020
# 2 30.1859 101.6618 14.8966 17.1858 -11.5889 14.2618
# 3 4.3774 14.8966 71.5076 6.2256 -0.6966 -2.7964
# 4 12.0932 17.1858 6.2256 44.0743 -3.3791 -9.5306
# 5 -6.3662 -11.5889 -0.6966 -3.3791 28.7704 -9.1463
# 6 -10.4020 14.2618 -2.7964 -9.5306 -9.1463 45.6625
#
#
#
# Elastic Compliance Matrix: (Units=1/GPa)
#
#
# Indices 1 2 3 4 5 6 
#
# 1 0.012835 -0.004073 0.000336 -0.000797 0.002565 0.004564
# 2 -0.004073 0.013238 -0.002297 -0.004828 0.001959 -0.005819
# 3 0.000336 -0.002297 0.014581 -0.000952 -0.000146 0.001459
# 4 -0.000797 -0.004828 -0.000952 0.026818 0.003405 0.007547
# 5 0.002565 0.001959 -0.000146 0.003405 0.039223 0.008531
# 6 0.004564 -0.005819 0.001459 0.007547 0.008531 0.028130
#
#
# Mechanical properties :
#
#
# Convention : Reuss Voigt Hill
#
# Bulk Modulus (GPa) = 34.98238 40.57641 37.77939
# Shear Modulus (GPa) = 31.96478 38.15531 35.06005
#
# Velocity S-wave (km/s) = 3.78240 4.13247 3.96130
# Velocity P-wave (km/s) = 5.89344 6.39770 6.15074
#
# Compressibility (1/GPa) = 0.02858582
#
# Stress axis : x y z
#
# Youngs Moduli (GPa) = 77.91105 75.53853 68.58279
#
# Poissons Ratio (x) = 0.30770 -0.02303
# Poissons Ratio (y) = 0.31736 0.15751
# Poissons Ratio (z) = -0.02616 0.17348
#
# Static dielectric constant tensor:
#      x y z
#    x 1.867400 -0.000960 0.006330 
#    y -0.000960 1.796800 -0.015280 
#    z 0.006330 -0.015280 1.800020 
# 
# From -- ./inp_files/218451.got.cif
#   From: 2010.05.17/outbox.cif.g08.bks.cpg/sg2_110_cif.got.tgz:218451.got - 2010.06.03 11:33:40.
