data_PCOD9069408
_publ_section_title
;
Structure prediction by ZEFSAII (Michael W. Deem and Ramdas Pophale) SiO2 
 PCOD9069408
Probable space group: P -1
;
_chemical_formula_sum "Si O2"
_cell_formula_units_Z 16
_cell_length_a 18.751823
_cell_length_b 9.621500
_cell_length_c 11.241887
_cell_angle_alpha 82.769647
_cell_angle_beta 46.575303
_cell_angle_gamma 45.030579
_cell_volume 743.740443
_symmetry_space_group_name_H-M "P -1"
_symmetry_group_IT_number 2
_symmetry_cell_setting 'triclinic'
loop_
_space_group_symop_operation_xyz
x,y,z
-x,-y,-z
loop_
_atom_site_type_symbol
_atom_site_label
_atom_site_fract_x
_atom_site_fract_y
_atom_site_fract_z
Si Si1 0.513938 0.207579 0.849620
Si Si2 0.795659 0.118523 0.488563
Si Si3 0.771626 0.657274 0.537672
Si Si4 0.078628 0.435509 0.048570
Si Si5 0.323079 0.621821 0.650268
Si Si6 0.817667 0.316246 0.631403
Si Si7 0.819122 0.389110 0.993816
Si Si8 0.507379 0.867826 0.604126
O O1 0.662953 0.151732 0.670012
O O2 0.641070 0.911127 0.748361
O O3 0.358909 0.439450 0.102279
O O4 0.389848 0.339831 0.856594
O O5 0.775695 0.176301 0.365856
O O6 0.739593 0.320441 0.609648
O O7 0.023739 0.810963 0.269752
O O8 0.874598 0.400550 0.511022
O O9 0.632444 0.764436 0.583691
O O10 0.923554 0.570629 0.306188
O O11 0.121587 0.547108 0.006289
O O12 0.000000 0.500000 0.000000
O O13 0.285804 0.108793 0.865332
O O14 0.500000 0.500000 0.500000
O O15 0.400692 0.380662 0.534666
O O16 0.193119 0.735307 0.898595
O O17 0.000000 0.000000 0.500000
O O18 0.500000 0.000000 0.500000
#
# Coordination Sequence:
#
# PCOD9069408 Si02
#       8
#     2   2   2   2   2   2   2   2
#     4  12  25  49  76 101 143 193 246 299 359 430
#     4  12  26  47  73 103 146 194 237 299 373 428
#     4  12  25  48  73 108 142 193 245 294 366 430
#     4  12  25  40  74 107 148 187 230 293 362 441
#     4  12  25  42  71 109 147 190 234 291 370 443
#     4  12  28  52  75 105 147 190 252 313 356 424
#     4  12  24  44  70 108 148 184 237 297 358 438
#     4  12  23  43  68 104 149 186 231 288 359 440
#
# _framework density 21.512881
#
# number of rings (size 3 to 8) (size 9 to 14) (size 15 to 20)
#    0.000    0.000    8.750    1.125    1.750    2.000 
#    2.250    1.250    0.000    0.000    0.000    0.000 
#    0.000    0.000    0.000    0.000    0.000    0.000 
#
# Total GULP energy -89480.742656 kJ/mol
# GULP energy per Si atom -5592.546416 kJ/mol
# Density = 2.146392 g / cm^3
# Si number density = 21.512881 Si / 1000 Ang^3
#
#
#
# Elastic Constant Matrix: (Units=GPa)
#
#
# Indices 1 2 3 4 5 6 
#
# 1 77.9274 7.0209 37.3354 -7.3275 -3.4904 21.9041
# 2 7.0209 91.0950 25.6664 -4.4607 -0.7438 12.7230
# 3 37.3354 25.6664 145.4024 -4.4886 -6.1534 10.1312
# 4 -7.3275 -4.4607 -4.4886 36.4043 6.6468 -2.4944
# 5 -3.4904 -0.7438 -6.1534 6.6468 35.7355 2.3877
# 6 21.9041 12.7230 10.1312 -2.4944 2.3877 34.0246
#
#
#
# Elastic Compliance Matrix: (Units=1/GPa)
#
#
# Indices 1 2 3 4 5 6 
#
# 1 0.017920 0.001366 -0.003961 0.002292 0.001392 -0.010798
# 2 0.001366 0.012191 -0.002133 0.001160 0.000120 -0.004727
# 3 -0.003961 -0.002133 0.008250 -0.000162 0.000965 0.000811
# 4 0.002292 0.001160 -0.000162 0.029050 -0.005226 0.000635
# 5 0.001392 0.000120 0.000965 -0.005226 0.029506 -0.003682
# 6 -0.010798 -0.004727 0.000811 0.000635 -0.003682 0.038173
#
#
# Mechanical properties :
#
#
# Convention : Reuss Voigt Hill
#
# Bulk Modulus (GPa) = 34.59288 50.49667 42.54478
# Shear Modulus (GPa) = 32.42976 37.52635 34.97806
#
# Velocity S-wave (km/s) = 3.88681 4.18109 4.03663
# Velocity P-wave (km/s) = 6.02147 6.84342 6.44556
#
# Compressibility (1/GPa) = 0.02890768
#
# Stress axis : x y z
#
# Youngs Moduli (GPa) = 55.80443 82.02734 121.20903
#
# Poissons Ratio (x) = -0.11209 0.48005
# Poissons Ratio (y) = -0.07625 0.25849
# Poissons Ratio (z) = 0.22101 0.17493
#
# Static dielectric constant tensor:
#      x y z
#    x 1.785240 -0.046920 0.034780 
#    y -0.046920 1.834350 0.042880 
#    z 0.034780 0.042880 1.818600 
# 
# From -- ./inp_files/447624.got.cif
#   From: 2010.05.17/outbox.cif.g08.bks.cpg/sg2_224_cif.got.tgz:447624.got - 2010.06.03 11:33:40.
