data_PCOD9069817
_publ_section_title
;
Structure prediction by ZEFSAII (Michael W. Deem and Ramdas Pophale) SiO2 
 PCOD9069817
Probable space group: P -1
;
_chemical_formula_sum "Si O2"
_cell_formula_units_Z 16
_cell_length_a 7.694518
_cell_length_b 11.510964
_cell_length_c 15.279833
_cell_angle_alpha 59.560664
_cell_angle_beta 100.327129
_cell_angle_gamma 141.143897
_cell_volume 671.559254
_symmetry_space_group_name_H-M "P -1"
_symmetry_group_IT_number 2
_symmetry_cell_setting 'triclinic'
loop_
_space_group_symop_operation_xyz
x,y,z
-x,-y,-z
loop_
_atom_site_type_symbol
_atom_site_label
_atom_site_fract_x
_atom_site_fract_y
_atom_site_fract_z
Si Si1 0.351282 0.126047 0.346658
Si Si2 0.120604 0.708924 0.473385
Si Si3 0.807873 0.215888 0.894980
Si Si4 0.015673 0.922418 0.771535
Si Si5 0.164586 0.461814 0.006400
Si Si6 0.774234 0.990021 0.422561
Si Si7 0.863015 0.971918 0.907973
Si Si8 0.019643 0.411201 0.304009
O O1 0.295879 0.219814 0.246671
O O2 0.694710 0.288583 0.316308
O O3 0.148734 0.880001 0.379949
O O4 0.226820 0.075807 0.454004
O O5 0.939190 0.600254 0.587803
O O6 0.000000 0.500000 0.500000
O O7 0.470035 0.887742 0.448738
O O8 0.769350 0.342794 0.806066
O O9 0.851349 0.126903 0.860132
O O10 0.070417 0.373428 0.931577
O O11 0.500000 0.000000 0.000000
O O12 0.978570 0.747792 0.869609
O O13 0.055924 0.038465 0.817432
O O14 0.238182 0.085424 0.645756
O O15 0.521016 0.703729 0.964154
O O16 0.000000 0.500000 0.000000
O O17 0.012951 0.258226 0.322263
O O18 0.000000 0.000000 0.000000
#
# Coordination Sequence:
#
# PCOD9069817 Si02
#       8
#     2   2   2   2   2   2   2   2
#     4   9  20  40  66  98 129 175 231 282 352 416
#     4   9  19  38  64  95 131 170 226 284 336 422
#     4  12  25  45  71 104 141 183 245 292 335 428
#     4  12  24  40  69  96 139 183 221 292 364 404
#     4  12  26  48  71  98 139 190 241 290 346 422
#     4   9  20  41  66  98 132 174 229 277 350 428
#     4  12  28  47  67 104 144 182 241 291 355 415
#     4   9  20  40  67  93 130 182 226 282 348 405
#
# _framework density 23.825150000000001
#
# number of rings (size 3 to 8) (size 9 to 14) (size 15 to 20)
#    0.000    1.500    2.500    3.750    3.500    2.000 
#    0.000    0.625    0.000    0.000    0.000    0.000 
#    0.000    0.000    0.000    0.000    0.000    0.000 
#
# Total GULP energy -89181.938894 kJ/mol
# GULP energy per Si atom -5573.871181 kJ/mol
# Density = 2.377092 g / cm^3
# Si number density = 23.825150 Si / 1000 Ang^3
#
#
#
# Elastic Constant Matrix: (Units=GPa)
#
#
# Indices 1 2 3 4 5 6 
#
# 1 53.4577 26.2080 25.7407 15.7049 -1.0025 -16.2264
# 2 26.2080 86.3737 23.9086 4.4973 -11.5690 -19.1301
# 3 25.7407 23.9086 117.6796 9.2206 -1.5551 -19.5643
# 4 15.7049 4.4973 9.2206 39.0651 -8.7311 -7.0189
# 5 -1.0025 -11.5690 -1.5551 -8.7311 37.9181 3.3548
# 6 -16.2264 -19.1301 -19.5643 -7.0189 3.3548 39.0714
#
#
#
# Elastic Compliance Matrix: (Units=1/GPa)
#
#
# Indices 1 2 3 4 5 6 
#
# 1 0.027757 -0.006380 -0.003172 -0.009600 -0.004035 0.005437
# 2 -0.006380 0.015282 -0.001148 0.002921 0.004732 0.004376
# 3 -0.003172 -0.001148 0.009966 -0.000486 -0.000408 0.003058
# 4 -0.009600 0.002921 -0.000486 0.031334 0.007640 0.002172
# 5 -0.004035 0.004732 -0.000408 0.007640 0.029516 -0.000725
# 6 0.005437 0.004376 0.003058 0.002172 -0.000725 0.031979
#
#
# Mechanical properties :
#
#
# Convention : Reuss Voigt Hill
#
# Bulk Modulus (GPa) = 31.64181 45.46951 38.55566
# Shear Modulus (GPa) = 28.12604 35.32115 31.72360
#
# Velocity S-wave (km/s) = 3.43960 3.85452 3.65295
# Velocity P-wave (km/s) = 5.39297 6.23986 5.83181
#
# Compressibility (1/GPa) = 0.03160376
#
# Stress axis : x y z
#
# Youngs Moduli (GPa) = 36.02689 65.43480 100.34143
#
# Poissons Ratio (x) = 0.41750 0.31832
# Poissons Ratio (y) = 0.22987 0.11519
# Poissons Ratio (z) = 0.11429 0.07512
#
# Static dielectric constant tensor:
#      x y z
#    x 2.071450 -0.128530 -0.049550 
#    y -0.128530 2.038510 0.100010 
#    z -0.049550 0.100010 1.947730 
# 
# From -- ./inp_files/498990.got.cif
#   From: 2010.05.17/outbox.cif.g08.bks.cpg/sg2_250_cif.got.tgz:498990.got - 2010.06.03 11:33:40.
