data_PCOD9069574
_publ_section_title
;
Structure prediction by ZEFSAII (Michael W. Deem and Ramdas Pophale) SiO2 
 PCOD9069574
Probable space group: P -1
;
_chemical_formula_sum "Si O2"
_cell_formula_units_Z 16
_cell_length_a 9.913073
_cell_length_b 12.203897
_cell_length_c 8.841832
_cell_angle_alpha 96.399079
_cell_angle_beta 96.781631
_cell_angle_gamma 41.978634
_cell_volume 709.994296
_symmetry_space_group_name_H-M "P -1"
_symmetry_group_IT_number 2
_symmetry_cell_setting 'triclinic'
loop_
_space_group_symop_operation_xyz
x,y,z
-x,-y,-z
loop_
_atom_site_type_symbol
_atom_site_label
_atom_site_fract_x
_atom_site_fract_y
_atom_site_fract_z
Si Si1 0.302660 0.645680 0.399291
Si Si2 0.207016 0.307268 0.653664
Si Si3 0.278719 0.123446 0.918924
Si Si4 0.219025 0.917159 0.973639
Si Si5 0.573145 0.555188 0.910847
Si Si6 0.060091 0.585962 0.868229
Si Si7 0.957306 0.770646 0.592309
Si Si8 0.366761 0.851511 0.323087
O O1 0.500000 0.500000 0.500000
O O2 0.318607 0.561586 0.238202
O O3 0.301631 0.773847 0.370560
O O4 0.115268 0.727756 0.491358
O O5 0.280368 0.168147 0.757038
O O6 0.061892 0.471695 0.758479
O O7 0.110637 0.304610 0.499244
O O8 0.399720 0.265189 0.629508
O O9 0.201927 0.044004 0.907353
O O10 0.129130 0.284731 0.027900
O O11 0.500000 0.000000 0.000000
O O12 0.371380 0.745988 0.876707
O O13 0.331854 0.867388 0.140759
O O14 0.000000 0.000000 0.000000
O O15 0.500000 0.500000 0.000000
O O16 0.737478 0.524958 0.023238
O O17 0.049794 0.689487 0.757060
O O18 0.769783 0.965602 0.611618
#
# Coordination Sequence:
#
# PCOD9069574 Si02
#       8
#     2   2   2   2   2   2   2   2
#     4  12  28  46  72 109 145 187 239 290 361 431
#     4  12  25  46  71 105 141 187 246 296 360 422
#     4  12  24  44  70 106 139 187 242 297 352 423
#     4  12  26  43  77 104 141 185 240 291 365 418
#     4  12  23  45  74 103 142 188 235 294 354 424
#     4  12  24  46  72 102 148 189 239 298 354 423
#     4  12  27  45  73 104 144 194 236 294 364 427
#     4  12  25  49  71 102 147 188 235 302 355 427
#
# _framework density 22.535391000000001
#
# number of rings (size 3 to 8) (size 9 to 14) (size 15 to 20)
#    0.000    0.000    5.000    4.500    3.500    2.000 
#    0.000    1.250    0.000    0.000    0.000    0.000 
#    0.000    0.000    0.000    0.000    0.000    0.000 
#
# Total GULP energy -89703.765564 kJ/mol
# GULP energy per Si atom -5606.485348 kJ/mol
# Density = 2.248410 g / cm^3
# Si number density = 22.535391 Si / 1000 Ang^3
#
#
#
# Elastic Constant Matrix: (Units=GPa)
#
#
# Indices 1 2 3 4 5 6 
#
# 1 97.9782 18.1289 20.7466 7.0664 1.8637 -8.3566
# 2 18.1289 102.9040 8.3204 18.2392 4.4432 -1.0506
# 3 20.7466 8.3204 79.3432 -1.1408 -6.2859 2.2728
# 4 7.0664 18.2392 -1.1408 39.9338 0.7874 -5.2503
# 5 1.8637 4.4432 -6.2859 0.7874 32.7999 5.5790
# 6 -8.3566 -1.0506 2.2728 -5.2503 5.5790 41.7996
#
#
#
# Elastic Compliance Matrix: (Units=1/GPa)
#
#
# Indices 1 2 3 4 5 6 
#
# 1 0.011440 -0.001493 -0.003034 -0.001077 -0.001423 0.002469
# 2 -0.001493 0.010962 -0.000928 -0.004792 -0.001397 -0.000388
# 3 -0.003034 -0.000928 0.013811 0.001072 0.003204 -0.001674
# 4 -0.001077 -0.004792 0.001072 0.027871 -0.000288 0.003145
# 5 -0.001423 -0.001397 0.003204 -0.000288 0.032200 -0.004828
# 6 0.002469 -0.000388 -0.001674 0.003145 -0.004828 0.025538
#
#
# Mechanical properties :
#
#
# Convention : Reuss Voigt Hill
#
# Bulk Modulus (GPa) = 39.51832 41.62412 40.57122
# Shear Modulus (GPa) = 35.41952 38.44194 36.93073
#
# Velocity S-wave (km/s) = 3.96880 4.13467 4.05259
# Velocity P-wave (km/s) = 6.21096 6.42687 6.31984
#
# Compressibility (1/GPa) = 0.02530472
#
# Stress axis : x y z
#
# Youngs Moduli (GPa) = 87.41039 91.22808 72.40488
#
# Poissons Ratio (x) = 0.13617 0.21967
# Poissons Ratio (y) = 0.13047 0.06717
# Poissons Ratio (z) = 0.26519 0.08463
#
# Static dielectric constant tensor:
#      x y z
#    x 1.820950 0.016590 0.011900 
#    y 0.016590 1.855310 -0.001180 
#    z 0.011900 -0.001180 1.821440 
# 
# From -- ./inp_files/188655.got.cif
#   From: 2010.05.17/outbox.cif.g08.bks.cpg/sg2_95_cif.got.tgz:188655.got - 2010.06.03 11:33:40.
