data_PCOD9069151
_publ_section_title
;
Structure prediction by ZEFSAII (Michael W. Deem and Ramdas Pophale) SiO2 
 PCOD9069151
Probable space group: P -1
;
_chemical_formula_sum "Si O2"
_cell_formula_units_Z 16
_cell_length_a 18.768304
_cell_length_b 12.522620
_cell_length_c 9.544295
_cell_angle_alpha 142.417125
_cell_angle_beta 140.559963
_cell_angle_gamma 32.878629
_cell_volume 703.042206
_symmetry_space_group_name_H-M "P -1"
_symmetry_group_IT_number 2
_symmetry_cell_setting 'triclinic'
loop_
_space_group_symop_operation_xyz
x,y,z
-x,-y,-z
loop_
_atom_site_type_symbol
_atom_site_label
_atom_site_fract_x
_atom_site_fract_y
_atom_site_fract_z
Si Si1 0.396872 0.482696 0.728128
Si Si2 0.736935 0.013984 0.357406
Si Si3 0.541301 0.636860 0.619911
Si Si4 0.162764 0.885181 0.120454
Si Si5 0.265552 0.416712 0.689685
Si Si6 0.777931 0.605606 0.097871
Si Si7 0.090633 0.249848 0.193778
Si Si8 0.147545 0.948030 0.714917
O O1 0.464946 0.382689 0.576512
O O2 0.364677 0.341917 0.628058
O O3 0.253207 0.716494 0.712076
O O4 0.500000 0.500000 0.000000
O O5 0.575643 0.124720 0.254228
O O6 0.780338 0.120289 0.646710
O O7 0.773765 0.051914 0.301495
O O8 0.808774 0.766087 0.246143
O O9 0.500000 0.500000 0.500000
O O10 0.691298 0.568460 0.820318
O O11 0.178523 0.045630 0.218916
O O12 0.228893 0.652748 0.911626
O O13 0.000000 0.000000 0.000000
O O14 0.142229 0.400585 0.441318
O O15 0.305909 0.310484 0.795211
O O16 0.929088 0.388022 0.131972
O O17 0.113266 0.141174 0.965288
O O18 0.000000 0.000000 0.500000
#
# Coordination Sequence:
#
# PCOD9069151 Si02
#       8
#     2   2   2   2   2   2   2   2
#     4  12  27  49  77 111 150 204 257 313 377 448
#     4  12  27  47  74 107 152 196 254 306 377 456
#     4  12  26  49  73 104 146 203 254 304 374 453
#     4  12  22  43  74 106 147 196 243 304 368 448
#     4  12  26  45  77 112 150 194 251 310 375 446
#     4  12  26  47  73 111 151 198 249 310 381 456
#     4  12  26  47  74 117 153 193 252 312 382 450
#     4  12  28  48  75 116 155 198 249 315 386 448
#
# _framework density 22.758234999999999
#
# number of rings (size 3 to 8) (size 9 to 14) (size 15 to 20)
#    0.000    0.000    5.000    5.250    3.500    0.500 
#    0.000    1.250    0.000    0.000    0.000    0.000 
#    0.000    0.000    0.000    0.000    0.000    0.000 
#
# Total GULP energy -89517.786605 kJ/mol
# GULP energy per Si atom -5594.861663 kJ/mol
# Density = 2.270644 g / cm^3
# Si number density = 22.758235 Si / 1000 Ang^3
#
#
#
# Elastic Constant Matrix: (Units=GPa)
#
#
# Indices 1 2 3 4 5 6 
#
# 1 149.9257 3.9446 53.5524 -15.6575 -21.3964 22.1815
# 2 3.9446 57.8226 21.3240 -10.5028 5.4428 9.7188
# 3 53.5524 21.3240 138.7390 -16.0100 -4.9041 10.1740
# 4 -15.6575 -10.5028 -16.0100 36.1385 1.7920 0.2100
# 5 -21.3964 5.4428 -4.9041 1.7920 44.2796 -6.1421
# 6 22.1815 9.7188 10.1740 0.2100 -6.1421 34.5485
#
#
#
# Elastic Compliance Matrix: (Units=1/GPa)
#
#
# Indices 1 2 3 4 5 6 
#
# 1 0.009170 0.001542 -0.002962 0.002983 0.003111 -0.004914
# 2 0.001542 0.020642 -0.002747 0.005649 -0.003240 -0.006598
# 3 -0.002962 -0.002747 0.008988 0.001909 -0.000178 -0.000016
# 4 0.002983 0.005649 0.001909 0.031523 -0.000931 -0.004424
# 5 0.003111 -0.003240 -0.000178 -0.000931 0.024977 0.003412
# 6 -0.004914 -0.006598 -0.000016 -0.004424 0.003412 0.034594
#
#
# Mechanical properties :
#
#
# Convention : Reuss Voigt Hill
#
# Bulk Modulus (GPa) = 32.82233 56.01436 44.41834
# Shear Modulus (GPa) = 33.69633 40.83775 37.26704
#
# Velocity S-wave (km/s) = 3.85206 4.24065 4.05102
# Velocity P-wave (km/s) = 5.85132 6.97450 6.43746
#
# Compressibility (1/GPa) = 0.03046706
#
# Stress axis : x y z
#
# Youngs Moduli (GPa) = 109.05169 48.44451 111.25417
#
# Poissons Ratio (x) = -0.07469 0.32953
# Poissons Ratio (y) = -0.16813 0.30556
# Poissons Ratio (z) = 0.32300 0.13305
#
# Static dielectric constant tensor:
#      x y z
#    x 1.877770 0.001180 -0.019420 
#    y 0.001180 1.966230 -0.012060 
#    z -0.019420 -0.012060 1.832430 
# 
# From -- ./inp_files/333972.got.cif
#   From: 2010.05.17/outbox.cif.g08.bks.cpg/sg2_167_cif.got.tgz:333972.got - 2010.06.03 11:33:40.
