data_PCOD9069279
_publ_section_title
;
Structure prediction by ZEFSAII (Michael W. Deem and Ramdas Pophale) SiO2 
 PCOD9069279
Probable space group: P -1
;
_chemical_formula_sum "Si O2"
_cell_formula_units_Z 16
_cell_length_a 21.923109
_cell_length_b 10.859239
_cell_length_c 5.301758
_cell_angle_alpha 95.227409
_cell_angle_beta 96.540391
_cell_angle_gamma 147.819387
_cell_volume 624.505677
_symmetry_space_group_name_H-M "P -1"
_symmetry_group_IT_number 2
_symmetry_cell_setting 'triclinic'
loop_
_space_group_symop_operation_xyz
x,y,z
-x,-y,-z
loop_
_atom_site_type_symbol
_atom_site_label
_atom_site_fract_x
_atom_site_fract_y
_atom_site_fract_z
Si Si1 0.372520 0.097046 0.646249
Si Si2 0.838189 0.461506 0.613753
Si Si3 0.318014 0.140602 0.126222
Si Si4 0.965988 0.829739 0.133843
Si Si5 0.246849 0.463280 0.726556
Si Si6 0.466837 0.865031 0.213019
Si Si7 0.228560 0.177680 0.420911
Si Si8 0.915776 0.237603 0.337117
O O1 0.238984 0.796860 0.512691
O O2 0.378625 0.171715 0.390934
O O3 0.467617 0.152180 0.742703
O O4 0.379650 0.200159 0.909899
O O5 0.753419 0.418124 0.433616
O O6 0.978199 0.682846 0.625005
O O7 0.867263 0.558090 0.927621
O O8 0.313537 0.272185 0.257170
O O9 0.169477 0.866762 0.957703
O O10 0.894575 0.774315 0.310852
O O11 0.093320 0.981507 0.238251
O O12 0.000000 0.000000 0.000000
O O13 0.283056 0.397750 0.603446
O O14 0.322799 0.598773 0.045387
O O15 0.500000 0.000000 0.500000
O O16 0.500000 0.000000 0.000000
O O17 0.189111 0.002959 0.572499
O O18 0.000000 0.500000 0.500000
#
# Coordination Sequence:
#
# PCOD9069279 Si02
#       8
#     2   2   2   2   2   2   2   2
#     4  12  27  46  75 104 145 187 252 310 361 430
#     4  12  23  39  69 108 144 192 236 307 375 442
#     4  12  26  47  68 103 148 196 240 302 359 432
#     4  12  24  39  68 109 156 191 238 293 379 456
#     4  12  27  45  72 109 148 196 244 316 377 437
#     4  12  27  52  80 112 144 189 252 316 376 435
#     4  12  25  43  68 104 156 195 243 294 372 455
#     4  12  24  41  67 103 149 200 244 291 364 450
#
# _framework density 25.620263999999999
#
# number of rings (size 3 to 8) (size 9 to 14) (size 15 to 20)
#    0.000    0.000    7.500    2.625    3.500    1.000 
#    0.000    1.250    0.000    0.000    0.000    0.000 
#    0.000    0.000    0.000    0.000    0.000    0.000 
#
# Total GULP energy -89398.994134 kJ/mol
# GULP energy per Si atom -5587.437133 kJ/mol
# Density = 2.556195 g / cm^3
# Si number density = 25.620264 Si / 1000 Ang^3
#
#
#
# Elastic Constant Matrix: (Units=GPa)
#
#
# Indices 1 2 3 4 5 6 
#
# 1 196.8518 18.9055 84.5769 -3.1365 9.2200 9.0306
# 2 18.9055 43.1984 18.6101 3.9041 -0.8550 -5.6781
# 3 84.5769 18.6101 169.2636 7.5307 5.1094 2.7085
# 4 -3.1365 3.9041 7.5307 36.9056 -1.0518 6.8143
# 5 9.2200 -0.8550 5.1094 -1.0518 61.1709 8.3735
# 6 9.0306 -5.6781 2.7085 6.8143 8.3735 37.8042
#
#
#
# Elastic Compliance Matrix: (Units=1/GPa)
#
#
# Indices 1 2 3 4 5 6 
#
# 1 0.006789 -0.002012 -0.003205 0.001782 -0.000492 -0.001906
# 2 -0.002012 0.025771 -0.001757 -0.003477 0.000053 0.005092
# 3 -0.003205 -0.001757 0.007783 -0.001741 -0.000265 0.000317
# 4 0.001782 -0.003477 -0.001741 0.029177 0.001199 -0.006348
# 5 -0.000492 0.000053 -0.000265 0.001199 0.016990 -0.003835
# 6 -0.001906 0.005092 0.000317 -0.006348 -0.003835 0.029643
#
#
# Mechanical properties :
#
#
# Convention : Reuss Voigt Hill
#
# Bulk Modulus (GPa) = 37.88455 72.61099 55.24777
# Shear Modulus (GPa) = 35.99741 46.32424 41.16083
#
# Velocity S-wave (km/s) = 3.75245 4.25680 4.01256
# Velocity P-wave (km/s) = 5.79599 7.25005 6.56341
#
# Compressibility (1/GPa) = 0.02639599
#
# Stress axis : x y z
#
# Youngs Moduli (GPa) = 147.29428 38.80356 128.48609
#
# Poissons Ratio (x) = 0.07807 0.41181
# Poissons Ratio (y) = 0.29633 0.22569
# Poissons Ratio (z) = 0.47209 0.06816
#
# Static dielectric constant tensor:
#      x y z
#    x 2.040550 -0.008570 0.014630 
#    y -0.008570 2.201930 0.146090 
#    z 0.014630 0.146090 2.487550 
# 
# From -- ./inp_files/118330.got.cif
#   From: 2010.05.17/outbox.cif.g08.bks.cpg/sg2_60_cif.got.tgz:118330.got - 2010.06.03 11:33:40.
