data_PCOD9069362
_publ_section_title
;
Structure prediction by ZEFSAII (Michael W. Deem and Ramdas Pophale) SiO2 
 PCOD9069362
Probable space group: P -1
;
_chemical_formula_sum "Si O2"
_cell_formula_units_Z 12
_cell_length_a 9.431263
_cell_length_b 8.825033
_cell_length_c 13.499099
_cell_angle_alpha 113.064132
_cell_angle_beta 76.297987
_cell_angle_gamma 149.494528
_cell_volume 512.413791
_symmetry_space_group_name_H-M "P -1"
_symmetry_group_IT_number 2
_symmetry_cell_setting 'triclinic'
loop_
_space_group_symop_operation_xyz
x,y,z
-x,-y,-z
loop_
_atom_site_type_symbol
_atom_site_label
_atom_site_fract_x
_atom_site_fract_y
_atom_site_fract_z
Si Si1 0.103642 0.420280 0.998789
Si Si2 0.908162 0.770264 0.533042
Si Si3 0.097500 0.505067 0.246016
Si Si4 0.580452 0.204484 0.302051
Si Si5 0.456532 0.280894 0.142805
Si Si6 0.514815 0.364444 0.668704
O O1 0.107392 0.427831 0.118034
O O2 0.402697 0.665305 0.962576
O O3 0.000000 0.500000 0.000000
O O4 0.880039 0.072312 0.903465
O O5 0.735142 0.462313 0.425231
O O6 0.691102 0.622044 0.615866
O O7 0.000000 0.000000 0.500000
O O8 0.208142 0.004259 0.590575
O O9 0.276434 0.574549 0.312343
O O10 0.775200 0.232021 0.260125
O O11 0.264512 0.840598 0.291204
O O12 0.565703 0.286682 0.222035
O O13 0.531725 0.542977 0.216192
#
# Coordination Sequence:
#
# PCOD9069362 Si02
#       6
#     2   2   2   2   2   2
#     4  12  23  42  71 102 131 180 229 273 330 403
#     4  12  26  45  74 100 133 181 231 275 334 408
#     4  12  27  44  68 103 143 172 223 288 338 392
#     4  12  24  43  72  99 131 185 228 274 334 403
#     4  12  24  42  72  99 131 180 232 272 329 406
#     4  12  28  46  67 105 140 173 224 288 339 392
#
# _framework density 23.418572000000001
#
# number of rings (size 3 to 8) (size 9 to 14) (size 15 to 20)
#    0.000    0.000    5.000    5.000    2.333    5.333 
#    0.000    0.000    0.000    0.000    0.000    0.000 
#    0.000    0.000    0.000    0.000    0.000    0.000 
#
# Total GULP energy -67281.971734 kJ/mol
# GULP energy per Si atom -5606.830978 kJ/mol
# Density = 2.336527 g / cm^3
# Si number density = 23.418572 Si / 1000 Ang^3
#
#
#
# Elastic Constant Matrix: (Units=GPa)
#
#
# Indices 1 2 3 4 5 6 
#
# 1 44.9427 -9.8235 0.4382 -0.4830 10.0497 11.4581
# 2 -9.8235 69.5993 6.9393 -0.7329 4.9134 15.3322
# 3 0.4382 6.9393 96.9451 16.3036 3.8049 -3.1328
# 4 -0.4830 -0.7329 16.3036 45.4072 14.5838 -2.4395
# 5 10.0497 4.9134 3.8049 14.5838 31.5275 4.2776
# 6 11.4581 15.3322 -3.1328 -2.4395 4.2776 26.8933
#
#
#
# Elastic Compliance Matrix: (Units=1/GPa)
#
#
# Indices 1 2 3 4 5 6 
#
# 1 0.030725 0.008853 -0.001474 0.003453 -0.010375 -0.016346
# 2 0.008853 0.019262 -0.002003 0.001814 -0.004508 -0.014105
# 3 -0.001474 -0.002003 0.011225 -0.004286 0.001068 0.002519
# 4 0.003453 0.001814 -0.004286 0.028286 -0.014197 0.001819
# 5 -0.010375 -0.004508 0.001068 -0.014197 0.042288 -0.000899
# 6 -0.016346 -0.014105 0.002519 0.001819 -0.000899 0.052791
#
#
# Mechanical properties :
#
#
# Convention : Reuss Voigt Hill
#
# Bulk Modulus (GPa) = 13.89580 22.95503 18.42542
# Shear Modulus (GPa) = 25.27640 35.02779 30.15209
#
# Velocity S-wave (km/s) = 3.28888 3.87166 3.59211
# Velocity P-wave (km/s) = 4.51319 5.45982 5.00892
#
# Compressibility (1/GPa) = 0.07196419
#
# Stress axis : x y z
#
# Youngs Moduli (GPa) = 32.54719 51.91619 89.08313
#
# Poissons Ratio (x) = -0.45963 0.13134
# Poissons Ratio (y) = -0.28815 0.17841
# Poissons Ratio (z) = 0.04799 0.10398
#
# Static dielectric constant tensor:
#      x y z
#    x 1.870760 -0.031680 -0.013560 
#    y -0.031680 1.830440 -0.012800 
#    z -0.013560 -0.012800 1.856430 
# 
# From -- ./inp_files/28585.got.cif
#   From: 2010.05.17/outbox.cif.g08.bks.cpg/sg2_15_cif.got.tgz:28585.got - 2010.06.03 11:33:40.
