data_PCOD9069996
_publ_section_title
;
Structure prediction by ZEFSAII (Michael W. Deem and Ramdas Pophale) SiO2 
 PCOD9069996
Probable space group: P -1
;
_chemical_formula_sum "Si O2"
_cell_formula_units_Z 14
_cell_length_a 12.377363
_cell_length_b 14.243425
_cell_length_c 8.438165
_cell_angle_alpha 52.718664
_cell_angle_beta 33.409702
_cell_angle_gamma 60.400250
_cell_volume 651.512581
_symmetry_space_group_name_H-M "P -1"
_symmetry_group_IT_number 2
_symmetry_cell_setting 'triclinic'
loop_
_space_group_symop_operation_xyz
x,y,z
-x,-y,-z
loop_
_atom_site_type_symbol
_atom_site_label
_atom_site_fract_x
_atom_site_fract_y
_atom_site_fract_z
Si Si1 0.311762 0.576753 0.176268
Si Si2 0.866836 0.891400 0.209271
Si Si3 0.472782 0.795111 0.964887
Si Si4 0.172290 0.708208 0.925671
Si Si5 0.422535 0.239159 0.779783
Si Si6 0.789934 0.982891 0.857966
Si Si7 0.101017 0.410486 0.852541
O O1 0.176120 0.493608 0.534346
O O2 0.500000 0.500000 0.000000
O O3 0.374395 0.699451 0.062886
O O4 0.219435 0.602418 0.093219
O O5 0.669110 0.855355 0.584026
O O6 0.810003 0.921283 0.067786
O O7 0.018760 0.786221 0.127216
O O8 0.000000 0.000000 0.000000
O O9 0.530651 0.733428 0.122430
O O10 0.321920 0.896492 0.094838
O O11 0.381963 0.763829 0.563200
O O12 0.064949 0.675868 0.927387
O O13 0.273712 0.334509 0.794395
O O14 0.328309 0.108325 0.016110
O O15 0.000000 0.000000 0.500000
O O16 0.000000 0.500000 0.000000
#
# Coordination Sequence:
#
# PCOD9069996 Si02
#       7
#     2   2   2   2   2   2   2
#     4  12  26  47  71 104 144 189 238 289 352 416
#     4  12  24  44  72 106 142 183 237 291 355 423
#     4  12  27  44  74 108 144 187 235 295 354 424
#     4  12  25  48  73 102 144 186 237 293 352 418
#     4  12  26  48  72 106 144 184 239 291 356 422
#     4  12  25  47  74 105 144 184 237 293 359 423
#     4  12  28  45  74 103 141 191 239 291 350 420
#
# _framework density 21.488454999999998
#
# number of rings (size 3 to 8) (size 9 to 14) (size 15 to 20)
#    0.000    0.000    2.857    7.286    6.000    1.143 
#    0.000    0.000    0.000    0.000    0.000    0.000 
#    0.000    0.000    0.000    0.000    0.000    0.000 
#
# Total GULP energy -78359.238973 kJ/mol
# GULP energy per Si atom -5597.088498 kJ/mol
# Density = 2.143955 g / cm^3
# Si number density = 21.488455 Si / 1000 Ang^3
#
#
#
# Elastic Constant Matrix: (Units=GPa)
#
#
# Indices 1 2 3 4 5 6 
#
# 1 79.4987 1.9003 5.9689 12.9130 3.6585 -25.3665
# 2 1.9003 114.8409 38.9265 28.5358 -18.3261 -9.8220
# 3 5.9689 38.9265 120.9473 26.1604 -4.2162 -16.7933
# 4 12.9130 28.5358 26.1604 36.1081 0.2816 -1.8837
# 5 3.6585 -18.3261 -4.2162 0.2816 38.1397 -6.1558
# 6 -25.3665 -9.8220 -16.7933 -1.8837 -6.1558 41.8811
#
#
#
# Elastic Compliance Matrix: (Units=1/GPa)
#
#
# Indices 1 2 3 4 5 6 
#
# 1 0.017578 0.002621 0.001993 -0.009195 0.001784 0.011909
# 2 0.002621 0.013096 -0.001256 -0.010186 0.006734 0.004687
# 3 0.001993 -0.001256 0.010932 -0.007382 0.001300 0.005155
# 4 -0.009195 -0.010186 -0.007382 0.043915 -0.006756 -0.009936
# 5 0.001784 0.006734 0.001300 -0.006756 0.030670 0.007385
# 6 0.011909 0.004687 0.005155 -0.009936 0.007385 0.034895
#
#
# Mechanical properties :
#
#
# Convention : Reuss Voigt Hill
#
# Bulk Modulus (GPa) = 20.69364 45.43092 33.06228
# Shear Modulus (GPa) = 31.15734 41.12520 36.14127
#
# Velocity S-wave (km/s) = 3.81196 4.37948 4.10554
# Velocity P-wave (km/s) = 5.38756 6.83820 6.15576
#
# Compressibility (1/GPa) = 0.04832403
#
# Stress axis : x y z
#
# Youngs Moduli (GPa) = 56.88962 76.35664 91.47789
#
# Poissons Ratio (x) = -0.20016 -0.18235
# Poissons Ratio (y) = -0.14913 0.11487
# Poissons Ratio (z) = -0.11340 0.09588
#
# Static dielectric constant tensor:
#      x y z
#    x 1.800820 0.026190 -0.020260 
#    y 0.026190 1.743360 -0.037220 
#    z -0.020260 -0.037220 1.716390 
# 
# From -- ./inp_files/27783.got.cif
#   From: 2010.05.17/outbox.cif.g08.bks.cpg/sg2_14_cif.got.tgz:27783.got - 2010.06.03 11:33:40.
