data_PCOD9069736
_publ_section_title
;
Structure prediction by ZEFSAII (Michael W. Deem and Ramdas Pophale) SiO2 
 PCOD9069736
Probable space group: P -1
;
_chemical_formula_sum "Si O2"
_cell_formula_units_Z 14
_cell_length_a 6.366244
_cell_length_b 8.066777
_cell_length_c 17.589500
_cell_angle_alpha 64.749366
_cell_angle_beta 64.027467
_cell_angle_gamma 108.542863
_cell_volume 575.774804
_symmetry_space_group_name_H-M "P -1"
_symmetry_group_IT_number 2
_symmetry_cell_setting 'triclinic'
loop_
_space_group_symop_operation_xyz
x,y,z
-x,-y,-z
loop_
_atom_site_type_symbol
_atom_site_label
_atom_site_fract_x
_atom_site_fract_y
_atom_site_fract_z
Si Si1 0.791956 0.714379 0.777423
Si Si2 0.657719 0.273093 0.923077
Si Si3 0.829768 0.564462 0.297323
Si Si4 0.191139 0.090649 0.528319
Si Si5 0.760596 0.969991 0.224106
Si Si6 0.320930 0.740376 0.908476
Si Si7 0.895427 0.288102 0.611571
O O1 0.597873 0.434698 0.857521
O O2 0.559082 0.769364 0.807048
O O3 0.047358 0.852649 0.645232
O O4 0.978263 0.823332 0.805082
O O5 0.993994 0.403130 0.813509
O O6 0.584896 0.280147 0.020037
O O7 0.500000 0.000000 0.000000
O O8 0.534428 0.300079 0.412545
O O9 0.764072 0.751554 0.264133
O O10 0.047574 0.650148 0.319782
O O11 0.094265 0.211433 0.573870
O O12 0.000000 0.000000 0.500000
O O13 0.447828 0.884014 0.324639
O O14 0.736605 0.069922 0.129176
O O15 0.000000 0.500000 0.000000
O O16 0.000000 0.500000 0.500000
#
# Coordination Sequence:
#
# PCOD9069736 Si02
#       7
#     2   2   2   2   2   2   2
#     4  12  27  50  77 109 154 196 256 312 379 447
#     4  12  29  49  74 111 154 193 254 315 374 446
#     4  12  28  50  74 120 154 199 248 314 380 447
#     4  12  28  46  78 114 153 194 251 313 375 450
#     4  12  23  47  82 104 149 202 248 307 377 449
#     4  12  27  48  78 106 142 207 254 305 373 445
#     4  12  24  47  76 109 152 200 249 296 384 449
#
# _framework density 24.315062000000001
#
# number of rings (size 3 to 8) (size 9 to 14) (size 15 to 20)
#    0.000    0.000    5.714    3.429    8.000    2.286 
#    0.000    0.000    0.000    0.000    0.000    0.000 
#    0.000    0.000    0.000    0.000    0.000    0.000 
#
# Total GULP energy -78107.909388 kJ/mol
# GULP energy per Si atom -5579.136385 kJ/mol
# Density = 2.425972 g / cm^3
# Si number density = 24.315062 Si / 1000 Ang^3
#
#
#
# Elastic Constant Matrix: (Units=GPa)
#
#
# Indices 1 2 3 4 5 6 
#
# 1 95.4001 20.0467 42.1485 -12.6772 1.5157 -13.9420
# 2 20.0467 56.6889 31.6281 -12.8196 -0.5232 -4.2896
# 3 42.1485 31.6281 168.0173 -17.5118 3.5490 -10.3133
# 4 -12.6772 -12.8196 -17.5118 39.1372 -8.7971 0.4629
# 5 1.5157 -0.5232 3.5490 -8.7971 56.0492 -12.5481
# 6 -13.9420 -4.2896 -10.3133 0.4629 -12.5481 38.8576
#
#
#
# Elastic Compliance Matrix: (Units=1/GPa)
#
#
# Indices 1 2 3 4 5 6 
#
# 1 0.012920 -0.002387 -0.002296 0.002573 0.001092 0.004085
# 2 -0.002387 0.021364 -0.002831 0.005290 0.001539 0.001184
# 3 -0.002296 -0.002831 0.007272 0.001573 -0.000005 0.000774
# 4 0.002573 0.005290 0.001573 0.029978 0.005321 0.003286
# 5 0.001092 0.001539 -0.000005 0.005321 0.020236 0.007032
# 6 0.004085 0.001184 0.000774 0.003286 0.007032 0.029768
#
#
# Mechanical properties :
#
#
# Convention : Reuss Voigt Hill
#
# Bulk Modulus (GPa) = 37.69652 56.41701 47.05677
# Shear Modulus (GPa) = 34.38593 41.89432 38.14013
#
# Velocity S-wave (km/s) = 3.76464 4.15538 3.96483
# Velocity P-wave (km/s) = 5.86802 6.80263 6.35254
#
# Compressibility (1/GPa) = 0.02652764
#
# Stress axis : x y z
#
# Youngs Moduli (GPa) = 77.40223 46.80795 137.51051
#
# Poissons Ratio (x) = 0.11172 0.31570
# Poissons Ratio (y) = 0.18474 0.38934
# Poissons Ratio (z) = 0.17770 0.13253
#
# Static dielectric constant tensor:
#      x y z
#    x 1.666060 0.105170 -0.362860 
#    y 0.105170 1.964770 0.178560 
#    z -0.362860 0.178560 1.334910 
# 
# From -- ./inp_files/104711.got.cif
#   From: 2010.05.17/outbox.cif.g08.bks.cpg/sg2_53_cif.got.tgz:104711.got - 2010.06.03 11:33:40.
