data_PCOD9069904
_publ_section_title
;
Structure prediction by ZEFSAII (Michael W. Deem and Ramdas Pophale) SiO2 
 PCOD9069904
Probable space group: P -1
;
_chemical_formula_sum "Si O2"
_cell_formula_units_Z 16
_cell_length_a 15.831144
_cell_length_b 5.416556
_cell_length_c 8.996626
_cell_angle_alpha 59.752623
_cell_angle_beta 79.538185
_cell_angle_gamma 66.597134
_cell_volume 611.444092
_symmetry_space_group_name_H-M "P -1"
_symmetry_group_IT_number 2
_symmetry_cell_setting 'triclinic'
loop_
_space_group_symop_operation_xyz
x,y,z
-x,-y,-z
loop_
_atom_site_type_symbol
_atom_site_label
_atom_site_fract_x
_atom_site_fract_y
_atom_site_fract_z
Si Si1 0.727015 0.626774 0.971444
Si Si2 0.289292 0.970006 0.743307
Si Si3 0.796317 0.643380 0.644972
Si Si4 0.864415 0.606328 0.150818
Si Si5 0.507635 0.083753 0.303372
Si Si6 0.988901 0.247402 0.800513
Si Si7 0.558506 0.190398 0.852076
Si Si8 0.093363 0.984871 0.547815
O O1 0.729276 0.592012 0.803551
O O2 0.663487 0.977357 0.912832
O O3 0.691817 0.395313 0.146216
O O4 0.831104 0.569908 0.008925
O O5 0.384720 0.005674 0.744545
O O6 0.253165 0.178258 0.542340
O O7 0.206292 0.082896 0.854593
O O8 0.890724 0.344311 0.718062
O O9 0.846360 0.876177 0.610531
O O10 0.969434 0.541083 0.178513
O O11 0.842531 0.353344 0.330761
O O12 0.466351 0.459611 0.194795
O O13 0.500000 0.000000 0.500000
O O14 0.462397 0.873991 0.291866
O O15 0.060225 0.153244 0.666561
O O16 0.000000 0.000000 0.000000
O O17 0.500000 0.000000 0.000000
O O18 0.000000 0.000000 0.500000
#
# Coordination Sequence:
#
# PCOD9069904 Si02
#       8
#     2   2   2   2   2   2   2   2
#     4  12  28  46  75 112 147 196 257 313 388 461
#     4  12  26  49  74 109 152 190 254 323 377 464
#     4  12  25  47  70 106 146 191 252 310 374 456
#     4  12  24  45  71 101 148 195 244 312 376 443
#     4  12  28  51  83 116 157 207 262 323 403 483
#     4  12  26  46  69 102 148 197 249 303 376 456
#     4  12  26  52  82 113 159 210 255 322 408 477
#     4  12  24  43  68  97 138 197 245 299 374 443
#
# _framework density 26.167560000000002
#
# number of rings (size 3 to 8) (size 9 to 14) (size 15 to 20)
#    0.000    0.000    5.000    4.875    3.500    2.000 
#    4.500    0.000    0.000    0.000    0.000    0.000 
#    0.000    0.000    0.000    0.000    0.000    0.000 
#
# Total GULP energy -89269.144073 kJ/mol
# GULP energy per Si atom -5579.321505 kJ/mol
# Density = 2.610800 g / cm^3
# Si number density = 26.167560 Si / 1000 Ang^3
#
#
#
# Elastic Constant Matrix: (Units=GPa)
#
#
# Indices 1 2 3 4 5 6 
#
# 1 120.6129 8.6982 21.8240 -2.9946 28.1964 -3.4380
# 2 8.6982 58.3217 24.4189 -14.7236 11.5204 -13.5278
# 3 21.8240 24.4189 154.9482 -10.3800 8.4846 9.8725
# 4 -2.9946 -14.7236 -10.3800 43.2066 2.2115 7.4822
# 5 28.1964 11.5204 8.4846 2.2115 42.7245 1.1497
# 6 -3.4380 -13.5278 9.8725 7.4822 1.1497 34.1608
#
#
#
# Elastic Compliance Matrix: (Units=1/GPa)
#
#
# Indices 1 2 3 4 5 6 
#
# 1 0.010104 0.000980 -0.001273 0.000757 -0.006768 0.001835
# 2 0.000980 0.023577 -0.003683 0.005934 -0.006834 0.009430
# 3 -0.001273 -0.003683 0.007525 0.001142 0.000388 -0.004024
# 4 0.000757 0.005934 0.001142 0.026291 -0.003592 -0.003541
# 5 -0.006768 -0.006834 0.000388 -0.003592 0.029924 -0.003720
# 6 0.001835 0.009430 -0.004024 -0.003541 -0.003720 0.035256
#
#
# Mechanical properties :
#
#
# Convention : Reuss Voigt Hill
#
# Bulk Modulus (GPa) = 30.07123 49.30723 39.68923
# Shear Modulus (GPa) = 32.95660 42.61448 37.78554
#
# Velocity S-wave (km/s) = 3.55272 4.03987 3.80410
# Velocity P-wave (km/s) = 5.32408 6.37531 5.87326
#
# Compressibility (1/GPa) = 0.03325438
#
# Stress axis : x y z
#
# Youngs Moduli (GPa) = 98.97045 42.41338 132.88848
#
# Poissons Ratio (x) = -0.04155 0.16918
# Poissons Ratio (y) = -0.09697 0.48939
# Poissons Ratio (z) = 0.12600 0.15620
#
# Static dielectric constant tensor:
#      x y z
#    x 2.081030 0.055320 0.038810 
#    y 0.055320 2.341150 -0.041590 
#    z 0.038810 -0.041590 2.222330 
# 
# From -- ./inp_files/323319.got.cif
#   From: 2010.05.17/outbox.cif.g08.bks.cpg/sg2_162_cif.got.tgz:323319.got - 2010.06.03 11:33:40.
