data_PCOD9070975
_publ_section_title
;
Structure prediction by ZEFSAII (Michael W. Deem and Ramdas Pophale) SiO2 
 PCOD9070975
Probable space group: P -1
;
_chemical_formula_sum "Si O2"
_cell_formula_units_Z 16
_cell_length_a 14.305453
_cell_length_b 11.359747
_cell_length_c 9.211364
_cell_angle_alpha 79.174903
_cell_angle_beta 109.139622
_cell_angle_gamma 149.276357
_cell_volume 708.644550
_symmetry_space_group_name_H-M "P -1"
_symmetry_group_IT_number 2
_symmetry_cell_setting 'triclinic'
loop_
_space_group_symop_operation_xyz
x,y,z
-x,-y,-z
loop_
_atom_site_type_symbol
_atom_site_label
_atom_site_fract_x
_atom_site_fract_y
_atom_site_fract_z
Si Si1 0.365270 0.664286 0.082977
Si Si2 0.343459 0.082631 0.582038
Si Si3 0.521301 0.219319 0.216919
Si Si4 0.790104 0.310284 0.505229
Si Si5 0.192548 0.698269 0.148001
Si Si6 0.534100 0.609308 0.671569
Si Si7 0.140520 0.053153 0.633730
Si Si8 0.092158 0.165642 0.144028
O O1 0.550075 0.815759 0.233508
O O2 0.328181 0.755254 0.108710
O O3 0.190798 0.392599 0.094079
O O4 0.395700 0.698816 0.920835
O O5 0.457088 0.290783 0.484129
O O6 0.142115 0.934468 0.563861
O O7 0.323375 0.933251 0.529311
O O8 0.664614 0.286395 0.373758
O O9 0.494896 0.327920 0.227117
O O10 0.305259 0.939556 0.168672
O O11 0.823031 0.366358 0.680459
O O12 0.000000 0.500000 0.500000
O O13 0.000000 0.500000 0.000000
O O14 0.352750 0.332366 0.659045
O O15 0.731801 0.738634 0.738217
O O16 0.000000 0.000000 0.500000
O O17 0.062937 0.965705 0.778640
O O18 0.000000 0.000000 0.000000
#
# Coordination Sequence:
#
# PCOD9070975 Si02
#       8
#     2   2   2   2   2   2   2   2
#     4  12  27  46  75 107 151 199 249 308 371 445
#     4  12  25  48  76 107 152 195 250 310 377 443
#     4  12  27  49  75 106 155 197 244 308 377 439
#     4  12  28  48  76 112 148 197 248 306 378 452
#     4  12  27  48  76 109 148 194 253 308 372 447
#     4  12  26  50  75 107 152 194 249 313 373 442
#     4  12  26  46  78 109 145 195 248 307 376 446
#     4  12  29  48  73 110 151 197 255 308 376 440
#
# _framework density 22.578315
#
# number of rings (size 3 to 8) (size 9 to 14) (size 15 to 20)
#    0.000    0.000    5.000    4.125    8.750    2.000 
#    0.000    0.000    0.000    0.000    0.000    0.000 
#    0.000    0.000    0.000    0.000    0.000    0.000 
#
# Total GULP energy -89514.597235 kJ/mol
# GULP energy per Si atom -5594.662327 kJ/mol
# Density = 2.252693 g / cm^3
# Si number density = 22.578315 Si / 1000 Ang^3
#
#
#
# Elastic Constant Matrix: (Units=GPa)
#
#
# Indices 1 2 3 4 5 6 
#
# 1 61.6609 -11.7777 5.0132 1.5226 -14.9479 12.8436
# 2 -11.7777 75.4776 27.3694 -1.8184 4.6763 9.6199
# 3 5.0132 27.3694 134.2894 -10.4147 -17.6567 14.2639
# 4 1.5226 -1.8184 -10.4147 39.4818 11.1826 -10.4686
# 5 -14.9479 4.6763 -17.6567 11.1826 49.8791 -1.5892
# 6 12.8436 9.6199 14.2639 -10.4686 -1.5892 36.8124
#
#
#
# Elastic Compliance Matrix: (Units=1/GPa)
#
#
# Indices 1 2 3 4 5 6 
#
# 1 0.020638 0.003914 -0.000097 -0.004982 0.006604 -0.009317
# 2 0.003914 0.015624 -0.003095 -0.001108 -0.001286 -0.004620
# 3 -0.000097 -0.003095 0.008785 0.000698 0.003144 -0.002228
# 4 -0.004982 -0.001108 0.000698 0.030500 -0.007658 0.010101
# 5 0.006604 -0.001286 0.003144 -0.007658 0.024841 -0.004291
# 6 -0.009317 -0.004620 -0.002228 0.010101 -0.004291 0.035173
#
#
# Mechanical properties :
#
#
# Convention : Reuss Voigt Hill
#
# Bulk Modulus (GPa) = 21.50930 34.73753 28.12342
# Shear Modulus (GPa) = 33.41951 41.95621 37.68786
#
# Velocity S-wave (km/s) = 3.85146 4.31542 4.09002
# Velocity P-wave (km/s) = 5.41530 6.34423 5.89808
#
# Compressibility (1/GPa) = 0.04649151
#
# Stress axis : x y z
#
# Youngs Moduli (GPa) = 48.45474 64.00547 113.83087
#
# Poissons Ratio (x) = -0.25050 0.01099
# Poissons Ratio (y) = -0.18964 0.35227
# Poissons Ratio (z) = 0.00468 0.19808
#
# Static dielectric constant tensor:
#      x y z
#    x 1.754560 -0.068970 -0.077130 
#    y -0.068970 1.780210 -0.071930 
#    z -0.077130 -0.071930 1.757380 
# 
# From -- ./inp_files/202261.got.cif
#   From: 2010.05.17/outbox.cif.g08.bks.cpg/sg2_102_cif.got.tgz:202261.got - 2010.06.03 11:33:40.
