data_PCOD9070101
_publ_section_title
;
Structure prediction by ZEFSAII (Michael W. Deem and Ramdas Pophale) SiO2 
 PCOD9070101
Probable space group: P -1
;
_chemical_formula_sum "Si O2"
_cell_formula_units_Z 16
_cell_length_a 11.452130
_cell_length_b 19.780761
_cell_length_c 5.532884
_cell_angle_alpha 59.370556
_cell_angle_beta 47.757097
_cell_angle_gamma 43.284017
_cell_volume 635.666595
_symmetry_space_group_name_H-M "P -1"
_symmetry_group_IT_number 2
_symmetry_cell_setting 'triclinic'
loop_
_space_group_symop_operation_xyz
x,y,z
-x,-y,-z
loop_
_atom_site_type_symbol
_atom_site_label
_atom_site_fract_x
_atom_site_fract_y
_atom_site_fract_z
Si Si1 0.576828 0.391070 0.664006
Si Si2 0.314766 0.930263 0.761595
Si Si3 0.934862 0.332083 0.605725
Si Si4 0.137688 0.047503 0.300982
Si Si5 0.209217 0.470999 0.346094
Si Si6 0.266333 0.311326 0.860010
Si Si7 0.316295 0.797121 0.320602
Si Si8 0.241254 0.178110 0.788066
O O1 0.500000 0.500000 0.500000
O O2 0.770764 0.344964 0.639891
O O3 0.649500 0.306178 0.522621
O O4 0.392706 0.405101 0.030863
O O5 0.538026 0.893216 0.487276
O O6 0.195634 0.986164 0.581272
O O7 0.320384 0.834573 0.977998
O O8 0.237205 0.990116 0.014517
O O9 0.816010 0.428923 0.761665
O O10 0.067951 0.227765 0.742405
O O11 0.098122 0.337234 0.234776
O O12 0.903821 0.116663 0.448450
O O13 0.203640 0.117633 0.128942
O O14 0.253329 0.406744 0.639801
O O15 0.000000 0.500000 0.500000
O O16 0.489799 0.224446 0.786213
O O17 0.222303 0.269235 0.769597
#
# Coordination Sequence:
#
# PCOD9070101 Si02
#       8
#     2   2   2   2   2   2   2   2
#     4  12  28  48  77 115 158 200 257 317 395 470
#     4  12  27  54  78 118 155 210 271 330 398 472
#     4  12  26  47  75 108 156 203 259 315 392 469
#     4  12  30  49  84 114 162 204 271 334 401 469
#     4  12  24  45  74 111 154 202 256 317 383 471
#     4  12  25  48  76 110 154 202 263 316 392 473
#     4  12  27  50  80 113 154 209 255 329 394 472
#     4  12  27  48  78 112 151 206 257 329 397 467
#
# _framework density 25.170427
#
# number of rings (size 3 to 8) (size 9 to 14) (size 15 to 20)
#    0.000    0.000    2.500    6.750    7.000    1.000 
#    0.000    0.000    0.000    0.000    0.000    0.000 
#    0.000    0.000    0.000    0.000    0.000    0.000 
#
# Total GULP energy -89642.900887 kJ/mol
# GULP energy per Si atom -5602.681305 kJ/mol
# Density = 2.511314 g / cm^3
# Si number density = 25.170427 Si / 1000 Ang^3
#
#
#
# Elastic Constant Matrix: (Units=GPa)
#
#
# Indices 1 2 3 4 5 6 
#
# 1 118.7567 45.5796 7.4713 3.7961 -3.0484 -28.9925
# 2 45.5796 120.9187 44.0248 -0.7910 0.7295 -35.0350
# 3 7.4713 44.0248 100.2654 -3.2107 -3.4540 -19.2676
# 4 3.7961 -0.7910 -3.2107 53.5284 0.3377 -6.3562
# 5 -3.0484 0.7295 -3.4540 0.3377 35.6634 -2.8508
# 6 -28.9925 -35.0350 -19.2676 -6.3562 -2.8508 43.6615
#
#
#
# Elastic Compliance Matrix: (Units=1/GPa)
#
#
# Indices 1 2 3 4 5 6 
#
# 1 0.010919 -0.003121 0.001683 -0.000067 0.001607 0.005584
# 2 -0.003121 0.012853 -0.004142 0.000940 -0.000418 0.006523
# 3 0.001683 -0.004142 0.012436 0.000974 0.001706 0.003535
# 4 -0.000067 0.000940 0.000974 0.019227 0.000203 0.003952
# 5 0.001607 -0.000418 0.001706 0.000203 0.028620 0.003383
# 6 0.005584 0.006523 0.003535 0.003952 0.003383 0.034202
#
#
# Mechanical properties :
#
#
# Convention : Reuss Voigt Hill
#
# Bulk Modulus (GPa) = 39.92146 59.34357 49.63252
# Shear Modulus (GPa) = 36.29344 42.76166 39.52755
#
# Velocity S-wave (km/s) = 3.80137 4.12622 3.96712
# Velocity P-wave (km/s) = 5.92976 6.80653 6.38322
#
# Compressibility (1/GPa) = 0.02504918
#
# Stress axis : x y z
#
# Youngs Moduli (GPa) = 91.58168 77.80281 80.41122
#
# Poissons Ratio (x) = 0.24281 -0.13533
# Poissons Ratio (y) = 0.28581 0.33305
# Poissons Ratio (z) = -0.15413 0.32224
#
# Static dielectric constant tensor:
#      x y z
#    x 2.009600 0.046810 0.028070 
#    y 0.046810 2.003160 -0.030000 
#    z 0.028070 -0.030000 1.983630 
# 
# From -- ./inp_files/83008.got.cif
#   From: 2010.05.17/outbox.cif.g08.bks.cpg/sg2_42_cif.got.tgz:83008.got - 2010.06.03 11:33:40.
