data_PCOD9070608
_publ_section_title
;
Structure prediction by ZEFSAII (Michael W. Deem and Ramdas Pophale) SiO2 
 PCOD9070608
Probable space group: P -1
;
_chemical_formula_sum "Si O2"
_cell_formula_units_Z 16
_cell_length_a 6.048343
_cell_length_b 17.318815
_cell_length_c 11.182282
_cell_angle_alpha 46.587326
_cell_angle_beta 75.181766
_cell_angle_gamma 52.539983
_cell_volume 648.134271
_symmetry_space_group_name_H-M "P -1"
_symmetry_group_IT_number 2
_symmetry_cell_setting 'triclinic'
loop_
_space_group_symop_operation_xyz
x,y,z
-x,-y,-z
loop_
_atom_site_type_symbol
_atom_site_label
_atom_site_fract_x
_atom_site_fract_y
_atom_site_fract_z
Si Si1 0.329348 0.935036 0.562115
Si Si2 0.873923 0.262757 0.569761
Si Si3 0.196517 0.519866 0.047190
Si Si4 0.694809 0.704807 0.565787
Si Si5 0.848612 0.897008 0.052952
Si Si6 0.182816 0.979472 0.780356
Si Si7 0.311247 0.361927 0.621217
Si Si8 0.225710 0.239836 0.979279
O O1 0.507238 0.833831 0.537440
O O2 0.307536 0.883980 0.748149
O O3 0.500000 0.000000 0.500000
O O4 0.000000 0.000000 0.500000
O O5 0.556745 0.374417 0.542570
O O6 0.984933 0.339635 0.420295
O O7 0.031571 0.170509 0.763490
O O8 0.982851 0.136747 0.600500
O O9 0.303040 0.411323 0.254682
O O10 0.961748 0.666648 0.983475
O O11 0.500000 0.500000 0.000000
O O12 0.000000 0.500000 0.000000
O O13 0.633926 0.729203 0.406120
O O14 0.953490 0.778236 0.070807
O O15 0.986912 0.964374 0.909687
O O16 0.500000 0.000000 0.000000
O O17 0.496548 0.912117 0.866133
O O18 0.340959 0.301215 0.811096
O O19 0.000000 0.500000 0.500000
#
# Coordination Sequence:
#
# PCOD9070608 Si02
#       8
#     2   2   2   2   2   2   2   2
#     4  12  29  49  77 115 158 210 266 323 396 480
#     4  12  25  45  77 115 160 202 259 333 403 478
#     4  12  32  56  80 112 158 213 273 328 389 476
#     4  12  28  50  77 110 157 206 259 334 396 472
#     4  12  25  42  76 118 161 200 254 328 408 476
#     4  12  26  47  76 114 161 206 262 330 400 482
#     4  12  26  49  74 113 156 207 269 324 400 477
#     4  12  26  48  80 114 153 210 264 325 409 470
#
# _framework density 24.686240999999999
#
# number of rings (size 3 to 8) (size 9 to 14) (size 15 to 20)
#    0.000    0.000    6.250    2.625    8.750    0.500 
#    0.000    0.000    0.000    0.000    0.000    0.000 
#    0.000    0.000    0.000    0.000    0.000    0.000 
#
# Total GULP energy -89122.009279 kJ/mol
# GULP energy per Si atom -5570.125580 kJ/mol
# Density = 2.463005 g / cm^3
# Si number density = 24.686241 Si / 1000 Ang^3
#
#
#
# Elastic Constant Matrix: (Units=GPa)
#
#
# Indices 1 2 3 4 5 6 
#
# 1 109.3737 64.1565 18.4800 6.7253 -19.4961 -25.9208
# 2 64.1565 162.8540 15.3322 16.6975 4.3596 -12.9841
# 3 18.4800 15.3322 46.2155 17.3606 -22.7252 -20.4377
# 4 6.7253 16.6975 17.3606 37.8340 -1.3057 5.2503
# 5 -19.4961 4.3596 -22.7252 -1.3057 53.0397 12.6570
# 6 -25.9208 -12.9841 -20.4377 5.2503 12.6570 59.3683
#
#
#
# Elastic Compliance Matrix: (Units=1/GPa)
#
#
# Indices 1 2 3 4 5 6 
#
# 1 0.014074 -0.005311 0.000807 -0.000956 0.004906 0.004300
# 2 -0.005311 0.008704 -0.001598 -0.002276 -0.003399 -0.000039
# 3 0.000807 -0.001598 0.042840 -0.020426 0.015097 0.013339
# 4 -0.000956 -0.002276 -0.020426 0.038194 -0.005556 -0.010140
# 5 0.004906 -0.003399 0.015097 -0.005556 0.026948 0.001342
# 6 0.004300 -0.000039 0.013339 -0.010140 0.001342 0.023915
#
#
# Mechanical properties :
#
#
# Convention : Reuss Voigt Hill
#
# Bulk Modulus (GPa) = 18.72107 57.15343 37.93725
# Shear Modulus (GPa) = 27.07311 44.74668 35.90990
#
# Velocity S-wave (km/s) = 3.31522 4.26210 3.81813
# Velocity P-wave (km/s) = 4.71745 6.88643 5.90242
#
# Compressibility (1/GPa) = 0.05341574
#
# Stress axis : x y z
#
# Youngs Moduli (GPa) = 71.05136 114.88372 23.34244
#
# Poissons Ratio (x) = 0.61016 -0.01884
# Poissons Ratio (y) = 0.37736 0.03729
# Poissons Ratio (z) = -0.05734 0.18354
#
# Static dielectric constant tensor:
#      x y z
#    x 2.348140 0.144230 0.092590 
#    y 0.144230 2.089740 0.075810 
#    z 0.092590 0.075810 2.021750 
# 
# From -- ./inp_files/369350.got.cif
#   From: 2010.05.17/outbox.cif.g08.bks.cpg/sg2_185_cif.got.tgz:369350.got - 2010.06.03 11:33:40.
