data_PCOD9070961
_publ_section_title
;
Structure prediction by ZEFSAII (Michael W. Deem and Ramdas Pophale) SiO2 
 PCOD9070961
Probable space group: P -1
;
_chemical_formula_sum "Si O2"
_cell_formula_units_Z 16
_cell_length_a 27.477490
_cell_length_b 8.799552
_cell_length_c 12.441058
_cell_angle_alpha 32.651993
_cell_angle_beta 28.032932
_cell_angle_gamma 40.316038
_cell_volume 760.555140
_symmetry_space_group_name_H-M "P -1"
_symmetry_group_IT_number 2
_symmetry_cell_setting 'triclinic'
loop_
_space_group_symop_operation_xyz
x,y,z
-x,-y,-z
loop_
_atom_site_type_symbol
_atom_site_label
_atom_site_fract_x
_atom_site_fract_y
_atom_site_fract_z
Si Si1 0.227620 0.740927 0.771708
Si Si2 0.754345 0.549948 0.307416
Si Si3 0.912601 0.283397 0.316651
Si Si4 0.657234 0.695778 0.824247
Si Si5 0.949450 0.218517 0.734519
Si Si6 0.456373 0.681401 0.077810
Si Si7 0.396658 0.329546 0.806329
Si Si8 0.176208 0.819551 0.220357
O O1 0.195874 0.618439 0.791826
O O2 0.305472 0.495116 0.818053
O O3 0.290092 0.015516 0.470976
O O4 0.133115 0.828547 0.983181
O O5 0.808392 0.427556 0.383009
O O6 0.635457 0.476207 0.592819
O O7 0.775535 0.877325 0.060453
O O8 0.894837 0.200725 0.523542
O O9 0.955568 0.014162 0.325712
O O10 0.000000 0.500000 0.000000
O O11 0.732867 0.428983 0.800370
O O12 0.549207 0.705803 0.966228
O O13 0.638512 0.671553 0.001333
O O14 0.888454 0.225261 0.735781
O O15 0.000000 0.500000 0.500000
O O16 0.500000 0.500000 0.000000
O O17 0.417972 0.001329 0.927484
O O18 0.500000 0.500000 0.500000
#
# Coordination Sequence:
#
# PCOD9070961 Si02
#       8
#     2   2   2   2   2   2   2   2
#     4  12  27  49  75 108 151 191 249 303 365 442
#     4  12  29  48  74 110 151 197 246 303 368 439
#     4  12  27  51  76 104 150 195 246 310 370 433
#     4  12  26  49  74 110 147 197 242 299 370 437
#     4  12  28  47  77 110 143 195 248 304 372 432
#     4  12  28  46  75 111 148 194 247 297 367 441
#     4  12  25  48  75 103 151 195 242 303 364 432
#     4  12  28  49  76 109 152 192 245 307 372 439
#
# _framework density 21.037265999999999
#
# number of rings (size 3 to 8) (size 9 to 14) (size 15 to 20)
#    0.000    0.000    5.000    3.750   12.250    1.000 
#    0.000    0.000    0.000    0.000    0.000    0.000 
#    0.000    0.000    0.000    0.000    0.000    0.000 
#
# Total GULP energy -89628.374629 kJ/mol
# GULP energy per Si atom -5601.773414 kJ/mol
# Density = 2.098938 g / cm^3
# Si number density = 21.037266 Si / 1000 Ang^3
#
#
#
# Elastic Constant Matrix: (Units=GPa)
#
#
# Indices 1 2 3 4 5 6 
#
# 1 78.7252 13.7936 50.3060 -11.6784 5.5843 16.7063
# 2 13.7936 134.9342 58.3400 -19.8612 5.5871 20.4554
# 3 50.3060 58.3400 166.7809 -13.8684 -0.4481 20.5584
# 4 -11.6784 -19.8612 -13.8684 43.6378 12.3179 2.9498
# 5 5.5843 5.5871 -0.4481 12.3179 39.4547 2.3096
# 6 16.7063 20.4554 20.5584 2.9498 2.3096 40.6560
#
#
#
# Elastic Compliance Matrix: (Units=1/GPa)
#
#
# Indices 1 2 3 4 5 6 
#
# 1 0.018005 0.002322 -0.004992 0.005960 -0.004430 -0.006223
# 2 0.002322 0.010230 -0.003257 0.005475 -0.003250 -0.004667
# 3 -0.004992 -0.003257 0.008705 -0.000406 0.001438 -0.000764
# 4 0.005960 0.005475 -0.000406 0.030343 -0.010711 -0.006592
# 5 -0.004430 -0.003250 0.001438 -0.010711 0.029687 0.001819
# 6 -0.006223 -0.004667 -0.000764 -0.006592 0.001819 0.030263
#
#
# Mechanical properties :
#
#
# Convention : Reuss Voigt Hill
#
# Bulk Modulus (GPa) = 39.86398 69.47997 54.67197
# Shear Modulus (GPa) = 33.91021 41.94973 37.92997
#
# Velocity S-wave (km/s) = 4.01922 4.47034 4.25077
# Velocity P-wave (km/s) = 6.36625 7.72943 7.08072
#
# Compressibility (1/GPa) = 0.02508531
#
# Stress axis : x y z
#
# Youngs Moduli (GPa) = 55.54143 97.75373 114.87325
#
# Poissons Ratio (x) = -0.22698 0.57347
# Poissons Ratio (y) = -0.12897 0.37414
# Poissons Ratio (z) = 0.27727 0.31838
#
# Static dielectric constant tensor:
#      x y z
#    x 1.754360 -0.012750 0.007400 
#    y -0.012750 1.734350 0.009360 
#    z 0.007400 0.009360 1.725830 
# 
# From -- ./inp_files/37281.got.cif
#   From: 2010.05.17/outbox.cif.g08.bks.cpg/sg2_19_cif.got.tgz:37281.got - 2010.06.03 11:33:40.
