data_PCOD9070513
_publ_section_title
;
Structure prediction by ZEFSAII (Michael W. Deem and Ramdas Pophale) SiO2 
 PCOD9070513
Probable space group: P -1
;
_chemical_formula_sum "Si O2"
_cell_formula_units_Z 16
_cell_length_a 22.611798
_cell_length_b 14.892751
_cell_length_c 17.837756
_cell_angle_alpha 147.936573
_cell_angle_beta 19.985917
_cell_angle_gamma 158.966774
_cell_volume 714.949971
_symmetry_space_group_name_H-M "P -1"
_symmetry_group_IT_number 2
_symmetry_cell_setting 'triclinic'
loop_
_space_group_symop_operation_xyz
x,y,z
-x,-y,-z
loop_
_atom_site_type_symbol
_atom_site_label
_atom_site_fract_x
_atom_site_fract_y
_atom_site_fract_z
Si Si1 0.834847 0.404646 0.475532
Si Si2 0.352153 0.717470 0.993846
Si Si3 0.925811 0.603856 0.212184
Si Si4 0.387607 0.119195 0.579300
Si Si5 0.739222 0.879652 0.766779
Si Si6 0.552312 0.623764 0.163972
Si Si7 0.330389 0.272583 0.484701
Si Si8 0.041697 0.839668 0.642590
O O1 0.609766 0.354726 0.672391
O O2 0.973949 0.604023 0.521662
O O3 0.706515 0.132767 0.459022
O O4 0.054915 0.533697 0.241031
O O5 0.485043 0.712994 0.900188
O O6 0.443748 0.669208 0.783137
O O7 0.500000 0.000000 0.000000
O O8 0.700196 0.375558 0.375769
O O9 0.814624 0.692517 0.367629
O O10 0.190669 0.876336 0.123703
O O11 0.000000 0.500000 0.000000
O O12 0.333363 0.213612 0.778508
O O13 0.257003 0.028819 0.586980
O O14 0.650351 0.678294 0.790923
O O15 0.000000 0.000000 0.500000
O O16 0.780863 0.720764 0.907757
O O17 0.500000 0.500000 0.500000
O O18 0.132065 0.008953 0.580981
#
# Coordination Sequence:
#
# PCOD9070513 Si02
#       8
#     2   2   2   2   2   2   2   2
#     4  12  28  48  77 110 151 196 248 308 373 445
#     4  12  26  47  77 108 148 192 250 303 368 445
#     4  12  29  45  75 109 151 191 249 307 369 443
#     4  12  27  48  70 114 148 197 245 303 380 439
#     4  12  24  49  76 104 144 197 248 301 370 440
#     4  12  27  50  77 106 152 198 249 306 374 444
#     4  12  26  47  72 109 147 192 245 302 367 434
#     4  12  27  48  76 108 152 195 249 302 377 443
#
# _framework density 22.379187999999999
#
# number of rings (size 3 to 8) (size 9 to 14) (size 15 to 20)
#    0.000    0.000    5.000    3.750    8.750    0.000 
#    0.000    0.000    0.000    0.000    0.000    0.000 
#    0.000    0.000    0.000    0.000    0.000    0.000 
#
# Total GULP energy -89411.306965 kJ/mol
# GULP energy per Si atom -5588.206685 kJ/mol
# Density = 2.232825 g / cm^3
# Si number density = 22.379188 Si / 1000 Ang^3
#
#
#
# Elastic Constant Matrix: (Units=GPa)
#
#
# Indices 1 2 3 4 5 6 
#
# 1 60.3060 30.5236 17.4015 3.7236 15.2651 4.8354
# 2 30.5236 172.5016 49.8033 7.2674 28.7662 -11.6268
# 3 17.4015 49.8033 144.0471 9.7068 38.3436 -0.5119
# 4 3.7236 7.2674 9.7068 42.4655 5.3903 13.2526
# 5 15.2651 28.7662 38.3436 5.3903 34.2513 4.7248
# 6 4.8354 -11.6268 -0.5119 13.2526 4.7248 46.0625
#
#
#
# Elastic Compliance Matrix: (Units=1/GPa)
#
#
# Indices 1 2 3 4 5 6 
#
# 1 0.019651 -0.002598 0.000267 0.000149 -0.006611 -0.002081
# 2 -0.002598 0.007510 -0.001088 -0.001195 -0.004147 0.002926
# 3 0.000267 -0.001088 0.010193 -0.001211 -0.010597 0.001246
# 4 0.000149 -0.001195 -0.001211 0.026583 -0.000801 -0.007897
# 5 -0.006611 -0.004147 -0.010597 -0.000801 0.048332 -0.005198
# 6 -0.002081 0.002926 0.001246 -0.007897 -0.005198 0.025485
#
#
# Mechanical properties :
#
#
# Convention : Reuss Voigt Hill
#
# Bulk Modulus (GPa) = 32.77026 63.59017 48.18021
# Shear Modulus (GPa) = 32.30701 43.16428 37.73564
#
# Velocity S-wave (km/s) = 3.80362 4.39654 4.11078
# Velocity P-wave (km/s) = 5.82795 7.36541 6.64132
#
# Compressibility (1/GPa) = 0.03051548
#
# Stress axis : x y z
#
# Youngs Moduli (GPa) = 50.88720 133.15646 98.10661
#
# Poissons Ratio (x) = 0.34598 -0.02617
# Poissons Ratio (y) = 0.13222 0.10672
# Poissons Ratio (z) = -0.01357 0.14485
#
# Static dielectric constant tensor:
#      x y z
#    x 1.867590 0.029570 -0.005640 
#    y 0.029570 1.830090 0.020950 
#    z -0.005640 0.020950 1.756020 
# 
# From -- ./inp_files/472414.got.cif
#   From: 2010.05.17/outbox.cif.g08.bks.cpg/sg2_237_cif.got.tgz:472414.got - 2010.06.03 11:33:40.
