data_PCOD9070219
_publ_section_title
;
Structure prediction by ZEFSAII (Michael W. Deem and Ramdas Pophale) SiO2 
 PCOD9070219
Probable space group: P -1
;
_chemical_formula_sum "Si O2"
_cell_formula_units_Z 16
_cell_length_a 9.499582
_cell_length_b 22.512015
_cell_length_c 6.586933
_cell_angle_alpha 82.643977
_cell_angle_beta 50.174195
_cell_angle_gamma 50.048752
_cell_volume 727.053305
_symmetry_space_group_name_H-M "P -1"
_symmetry_group_IT_number 2
_symmetry_cell_setting 'triclinic'
loop_
_space_group_symop_operation_xyz
x,y,z
-x,-y,-z
loop_
_atom_site_type_symbol
_atom_site_label
_atom_site_fract_x
_atom_site_fract_y
_atom_site_fract_z
Si Si1 0.732598 0.574912 0.077485
Si Si2 0.401653 0.966341 0.234250
Si Si3 0.067337 0.355178 0.192664
Si Si4 0.639649 0.526552 0.783903
Si Si5 0.922929 0.078055 0.909164
Si Si6 0.152515 0.148440 0.801316
Si Si7 0.238808 0.660356 0.768281
Si Si8 0.354338 0.182860 0.241706
O O1 0.465112 0.611588 0.408254
O O2 0.693162 0.656219 0.071105
O O3 0.756972 0.537157 0.854216
O O4 0.000000 0.500000 0.000000
O O5 0.564980 0.927656 0.311251
O O6 0.499853 0.887081 0.045395
O O7 0.090064 0.038204 0.559227
O O8 0.500000 0.000000 0.000000
O O9 0.155616 0.279901 0.289047
O O10 0.861857 0.448309 0.457834
O O11 0.929861 0.358948 0.120214
O O12 0.408607 0.617508 0.836797
O O13 0.500000 0.500000 0.000000
O O14 0.016391 0.116989 0.910634
O O15 0.601020 0.154486 0.145328
O O16 0.000000 0.000000 0.000000
O O17 0.206959 0.171057 0.531450
O O18 0.965676 0.235601 0.074515
#
# Coordination Sequence:
#
# PCOD9070219 Si02
#       8
#     2   2   2   2   2   2   2   2
#     4  12  27  46  73 107 145 195 247 299 363 435
#     4  12  24  49  78 102 148 195 243 301 374 447
#     4  12  26  47  72 108 145 191 252 298 367 438
#     4  12  24  46  76 100 146 197 236 294 367 435
#     4  12  26  47  78 108 146 195 245 302 377 444
#     4  12  27  47  73 110 151 188 246 310 366 436
#     4  12  27  47  72 105 148 196 241 304 366 432
#     4  12  27  47  73 111 147 191 244 310 367 438
#
# _framework density 22.006639
#
# number of rings (size 3 to 8) (size 9 to 14) (size 15 to 20)
#    0.000    0.000    6.250    3.750    1.750    3.000 
#    0.000    0.000    0.000    0.000    0.000    0.000 
#    0.000    0.000    0.000    0.000    0.000    0.000 
#
# Total GULP energy -89537.100887 kJ/mol
# GULP energy per Si atom -5596.068805 kJ/mol
# Density = 2.195655 g / cm^3
# Si number density = 22.006639 Si / 1000 Ang^3
#
#
#
# Elastic Constant Matrix: (Units=GPa)
#
#
# Indices 1 2 3 4 5 6 
#
# 1 152.7298 30.8301 8.6356 5.4676 9.9903 16.6776
# 2 30.8301 85.7803 9.7979 -10.2463 -1.8760 2.9242
# 3 8.6356 9.7979 66.1157 1.9450 1.9871 13.6338
# 4 5.4676 -10.2463 1.9450 39.5388 5.8930 -2.2187
# 5 9.9903 -1.8760 1.9871 5.8930 35.3331 -1.1150
# 6 16.6776 2.9242 13.6338 -2.2187 -1.1150 42.1547
#
#
#
# Elastic Compliance Matrix: (Units=1/GPa)
#
#
# Indices 1 2 3 4 5 6 
#
# 1 0.007657 -0.002915 0.000170 -0.001673 -0.002146 -0.003027
# 2 -0.002915 0.013379 -0.001973 0.003875 0.001034 0.001094
# 3 0.000170 -0.001973 0.016583 -0.001504 -0.001005 -0.005399
# 4 -0.001673 0.003875 -0.001504 0.027279 -0.003717 0.002217
# 5 -0.002146 0.001034 -0.001005 -0.003717 0.029693 0.001692
# 6 -0.003027 0.001094 -0.005399 0.002217 0.001692 0.026751
#
#
# Mechanical properties :
#
#
# Convention : Reuss Voigt Hill
#
# Bulk Modulus (GPa) = 35.48224 44.79479 40.13852
# Shear Modulus (GPa) = 35.67018 40.42946 38.04982
#
# Velocity S-wave (km/s) = 4.03039 4.29085 4.16265
# Velocity P-wave (km/s) = 6.14956 6.70431 6.43292
#
# Compressibility (1/GPa) = 0.02818311
#
# Stress axis : x y z
#
# Youngs Moduli (GPa) = 130.59788 74.74532 60.30272
#
# Poissons Ratio (x) = 0.21788 -0.01023
# Poissons Ratio (y) = 0.38069 0.11896
# Poissons Ratio (z) = -0.02216 0.14745
#
# Static dielectric constant tensor:
#      x y z
#    x 1.861700 -0.002640 -0.070900 
#    y -0.002640 1.799960 -0.048770 
#    z -0.070900 -0.048770 1.902410 
# 
# From -- ./inp_files/55482.got.cif
#   From: 2010.05.17/outbox.cif.g08.bks.cpg/sg2_28_cif.got.tgz:55482.got - 2010.06.03 11:33:40.
