data_PCOD9070591
_publ_section_title
;
Structure prediction by ZEFSAII (Michael W. Deem and Ramdas Pophale) SiO2 
 PCOD9070591
Probable space group: P -1
;
_chemical_formula_sum "Si O2"
_cell_formula_units_Z 16
_cell_length_a 15.311012
_cell_length_b 25.416397
_cell_length_c 5.245008
_cell_angle_alpha 94.807404
_cell_angle_beta 96.167467
_cell_angle_gamma 18.494904
_cell_volume 642.671914
_symmetry_space_group_name_H-M "P -1"
_symmetry_group_IT_number 2
_symmetry_cell_setting 'triclinic'
loop_
_space_group_symop_operation_xyz
x,y,z
-x,-y,-z
loop_
_atom_site_type_symbol
_atom_site_label
_atom_site_fract_x
_atom_site_fract_y
_atom_site_fract_z
Si Si1 0.467344 0.946472 0.535532
Si Si2 0.317528 0.717707 0.671349
Si Si3 0.831884 0.644301 0.122727
Si Si4 0.001612 0.355480 0.172732
Si Si5 0.162916 0.150859 0.000977
Si Si6 0.338066 0.901747 0.396909
Si Si7 0.670467 0.356117 0.858371
Si Si8 0.336295 0.387949 0.490206
O O1 0.795930 0.767937 0.569371
O O2 0.408348 0.918111 0.551104
O O3 0.305479 0.054358 0.273800
O O4 0.370251 0.035830 0.783019
O O5 0.393939 0.630756 0.437506
O O6 0.515707 0.654624 0.664665
O O7 0.336716 0.684584 0.947299
O O8 0.990925 0.916997 0.624694
O O9 0.518405 0.806791 0.154000
O O10 0.030270 0.542555 0.384265
O O11 0.848011 0.688465 0.982350
O O12 0.000000 0.500000 0.000000
O O13 0.989232 0.304030 0.033473
O O14 0.726037 0.542221 0.249182
O O15 0.969264 0.212697 0.885371
O O16 0.475612 0.770691 0.496527
O O17 0.500000 0.500000 0.000000
#
# Coordination Sequence:
#
# PCOD9070591 Si02
#       8
#     2   2   2   2   2   2   2   2
#     4  12  25  46  76 112 151 205 250 319 390 463
#     4  12  29  50  80 113 159 204 262 322 390 460
#     4  12  26  48  81 113 157 207 256 323 391 464
#     4  12  27  45  76 114 158 197 261 326 389 461
#     4  12  26  47  75 112 154 201 261 319 387 462
#     4  12  24  53  75 113 155 204 263 314 394 464
#     4  12  26  50  77 109 156 212 258 316 391 467
#     4  12  28  47  76 118 152 204 264 326 385 462
#
# _framework density 24.896063999999999
#
# number of rings (size 3 to 8) (size 9 to 14) (size 15 to 20)
#    0.000    0.000    5.000    4.125    5.250    1.000 
#    0.000    1.875    0.000    0.000    0.000    0.000 
#    0.000    0.000    0.000    0.000    0.000    0.000 
#
# Total GULP energy -89522.108638 kJ/mol
# GULP energy per Si atom -5595.131790 kJ/mol
# Density = 2.483940 g / cm^3
# Si number density = 24.896064 Si / 1000 Ang^3
#
#
#
# Elastic Constant Matrix: (Units=GPa)
#
#
# Indices 1 2 3 4 5 6 
#
# 1 136.7831 -0.6382 13.2085 10.5608 0.1625 20.3164
# 2 -0.6382 86.6678 14.4726 31.7989 14.2383 16.9005
# 3 13.2085 14.4726 83.5311 16.7649 25.1455 12.3271
# 4 10.5608 31.7989 16.7649 43.5487 1.4264 3.8745
# 5 0.1625 14.2383 25.1455 1.4264 34.3537 10.6503
# 6 20.3164 16.9005 12.3271 3.8745 10.6503 47.9037
#
#
#
# Elastic Compliance Matrix: (Units=1/GPa)
#
#
# Indices 1 2 3 4 5 6 
#
# 1 0.008182 0.001727 -0.000850 -0.002609 0.001189 -0.003914
# 2 0.001727 0.018536 0.002268 -0.014137 -0.007178 -0.005117
# 3 -0.000850 0.002268 0.017310 -0.007567 -0.012851 -0.001425
# 4 -0.002609 -0.014137 -0.007567 0.036261 0.008937 0.003122
# 5 0.001189 -0.007178 -0.012851 0.008937 0.042621 -0.004864
# 6 -0.003914 -0.005117 -0.001425 0.003122 -0.004864 0.025536
#
#
# Mechanical properties :
#
#
# Convention : Reuss Voigt Hill
#
# Bulk Modulus (GPa) = 19.87248 40.11864 29.99556
# Shear Modulus (GPa) = 31.46072 43.82382 37.64227
#
# Velocity S-wave (km/s) = 3.55869 4.20011 3.89263
# Velocity P-wave (km/s) = 4.98851 6.29847 5.68137
#
# Compressibility (1/GPa) = 0.05032085
#
# Stress axis : x y z
#
# Youngs Moduli (GPa) = 122.21345 53.94882 57.76891
#
# Poissons Ratio (x) = -0.09319 0.04909
# Poissons Ratio (y) = -0.21111 -0.13104
# Poissons Ratio (z) = 0.10386 -0.12238
#
# Static dielectric constant tensor:
#      x y z
#    x 1.964600 -0.026800 0.017770 
#    y -0.026800 2.060800 0.007870 
#    z 0.017770 0.007870 2.015660 
# 
# From -- ./inp_files/101234.got.cif
#   From: 2010.05.17/outbox.cif.g08.bks.cpg/sg2_51_cif.got.tgz:101234.got - 2010.06.03 11:33:40.
