data_PCOD9070826
_publ_section_title
;
Structure prediction by ZEFSAII (Michael W. Deem and Ramdas Pophale) SiO2 
 PCOD9070826
Probable space group: P -1
;
_chemical_formula_sum "Si O2"
_cell_formula_units_Z 12
_cell_length_a 12.724080
_cell_length_b 8.494532
_cell_length_c 9.469700
_cell_angle_alpha 96.417550
_cell_angle_beta 89.520235
_cell_angle_gamma 31.295210
_cell_volume 517.530577
_symmetry_space_group_name_H-M "P -1"
_symmetry_group_IT_number 2
_symmetry_cell_setting 'triclinic'
loop_
_space_group_symop_operation_xyz
x,y,z
-x,-y,-z
loop_
_atom_site_type_symbol
_atom_site_label
_atom_site_fract_x
_atom_site_fract_y
_atom_site_fract_z
Si Si1 0.712559 0.797218 0.883417
Si Si2 0.019706 0.114521 0.897448
Si Si3 0.597871 0.162961 0.181004
Si Si4 0.031410 0.339611 0.351545
Si Si5 0.144272 0.860627 0.354079
Si Si6 0.603996 0.878910 0.334398
O O1 0.846798 0.481422 0.924231
O O2 0.874520 0.696773 0.788634
O O3 0.553548 0.965068 0.772424
O O4 0.600018 0.044662 0.031419
O O5 0.986404 0.058027 0.753774
O O6 0.244117 0.905061 0.871325
O O7 0.000000 0.000000 0.000000
O O8 0.374283 0.501358 0.275517
O O9 0.677931 0.957659 0.292998
O O10 0.825173 0.514273 0.320524
O O11 0.000000 0.500000 0.500000
O O12 0.171984 0.013250 0.367967
O O13 0.000000 0.000000 0.500000
O O14 0.500000 0.000000 0.500000
#
# Coordination Sequence:
#
# PCOD9070826 Si02
#       6
#     2   2   2   2   2   2
#     4  12  26  50  79 116 163 204 269 326 389 480
#     4  12  28  50  78 117 162 208 263 330 399 465
#     4  12  28  50  78 116 161 211 266 323 397 475
#     4  12  26  49  80 112 154 208 263 324 397 475
#     4  12  29  51  75 115 162 202 270 339 391 467
#     4  12  25  46  82 114 149 211 260 319 394 463
#
# _framework density 23.187035999999999
#
# number of rings (size 3 to 8) (size 9 to 14) (size 15 to 20)
#    0.000    0.000    5.000    4.000    2.333    4.667 
#    0.000    0.000    0.000    0.000    0.000    0.000 
#    0.000    0.000    0.000    0.000    0.000    0.000 
#
# Total GULP energy -66923.721666 kJ/mol
# GULP energy per Si atom -5576.976806 kJ/mol
# Density = 2.313426 g / cm^3
# Si number density = 23.187036 Si / 1000 Ang^3
#
#
#
# Elastic Constant Matrix: (Units=GPa)
#
#
# Indices 1 2 3 4 5 6 
#
# 1 209.3767 49.0259 224.3239 -37.2267 -3.1212 36.6811
# 2 49.0259 128.2752 79.4545 28.4656 -2.2684 1.0049
# 3 224.3239 79.4545 459.4841 -60.6658 6.7479 72.5668
# 4 -37.2267 28.4656 -60.6658 58.6863 -8.2063 -17.5799
# 5 -3.1212 -2.2684 6.7479 -8.2063 58.3780 10.9234
# 6 36.6811 1.0049 72.5668 -17.5799 10.9234 75.8281
#
#
#
# Elastic Compliance Matrix: (Units=1/GPa)
#
#
# Indices 1 2 3 4 5 6 
#
# 1 0.010585 -0.002078 -0.004327 0.003345 0.001530 -0.000397
# 2 -0.002078 0.012316 -0.002573 -0.009726 -0.000924 0.001182
# 3 -0.004327 -0.002573 0.005580 0.003553 -0.000031 -0.002385
# 4 0.003345 -0.009726 0.003553 0.028361 0.003146 0.001233
# 5 0.001530 -0.000924 -0.000031 0.003146 0.018104 -0.002577
# 6 -0.000397 0.001182 -0.002385 0.001233 -0.002577 0.016303
#
#
# Mechanical properties :
#
#
# Convention : Reuss Voigt Hill
#
# Bulk Modulus (GPa) = 94.99401 166.97162 130.98282
# Shear Modulus (GPa) = 44.36106 68.20059 56.28083
#
# Velocity S-wave (km/s) = 4.37874 5.42928 4.93206
# Velocity P-wave (km/s) = 8.16223 10.55793 9.43642
#
# Compressibility (1/GPa) = 0.01052698
#
# Stress axis : x y z
#
# Youngs Moduli (GPa) = 94.47233 81.19443 179.22505
#
# Poissons Ratio (x) = 0.16870 0.77543
# Poissons Ratio (y) = 0.19628 0.46108
# Poissons Ratio (z) = 0.40874 0.20888
#
# Static dielectric constant tensor:
#      x y z
#    x 1.944540 -0.018020 -0.004550 
#    y -0.018020 1.841170 -0.021480 
#    z -0.004550 -0.021480 1.797630 
# 
# From -- ./inp_files/295530.got.cif
#   From: 2010.05.17/outbox.cif.g08.bks.cpg/sg2_148_cif.got.tgz:295530.got - 2010.06.03 11:33:40.
