data_PCOD9070902
_publ_section_title
;
Structure prediction by ZEFSAII (Michael W. Deem and Ramdas Pophale) SiO2 
 PCOD9070902
Probable space group: P -1
;
_chemical_formula_sum "Si O2"
_cell_formula_units_Z 13
_cell_length_a 12.237393
_cell_length_b 12.174666
_cell_length_c 10.820581
_cell_angle_alpha 126.079676
_cell_angle_beta 146.549506
_cell_angle_gamma 40.510750
_cell_volume 572.574997
_symmetry_space_group_name_H-M "P -1"
_symmetry_group_IT_number 2
_symmetry_cell_setting 'triclinic'
loop_
_space_group_symop_operation_xyz
x,y,z
-x,-y,-z
loop_
_atom_site_type_symbol
_atom_site_label
_atom_site_fract_x
_atom_site_fract_y
_atom_site_fract_z
Si Si1 0.065354 0.082322 0.719532
Si Si2 0.594642 0.216760 0.516205
Si Si3 0.487032 0.048662 0.788602
Si Si4 0.500000 0.500000 0.000000
Si Si5 0.101213 0.545225 0.239661
Si Si6 0.965271 0.411425 0.523114
Si Si7 0.710887 0.130983 0.845901
O O1 0.873278 0.136864 0.686636
O O2 0.005560 0.259086 0.735658
O O3 0.000000 0.000000 0.500000
O O4 0.347490 0.955766 0.949085
O O5 0.399641 0.413847 0.429057
O O6 0.580701 0.190133 0.629658
O O7 0.511752 0.112981 0.302025
O O8 0.205376 0.215632 0.624183
O O9 0.618428 0.044599 0.784479
O O10 0.639450 0.298563 0.960803
O O11 0.288812 0.560196 0.730154
O O12 0.035969 0.516111 0.295960
O O13 0.000000 0.500000 0.000000
O O14 0.000000 0.500000 0.500000
O O15 0.000000 0.000000 0.000000
#
# Coordination Sequence:
#
# PCOD9070902 Si02
#       7
#     2   2   2   1   2   2   2
#     4  12  29  47  75 109 153 203 258 318 385 472
#     4  12  25  49  76 105 150 204 256 320 392 464
#     4  12  26  48  75 113 149 203 257 319 391 466
#     4  12  26  48  72 120 150 198 256 324 392 456
#     4  12  27  50  75 113 153 203 257 319 393 464
#     4  12  27  48  78 109 154 201 254 322 387 469
#     4  12  25  47  78 112 153 199 258 328 391 466
#
# _framework density 22.704450000000001
#
# number of rings (size 3 to 8) (size 9 to 14) (size 15 to 20)
#    0.000    0.000    6.154    2.769    4.308    3.692 
#    0.000    0.000    0.000    0.000    0.000    0.000 
#    0.000    0.000    0.000    0.000    0.000    0.000 
#
# Total GULP energy -72489.356267 kJ/mol
# GULP energy per Si atom -5576.104328 kJ/mol
# Density = 2.265277 g / cm^3
# Si number density = 22.704450 Si / 1000 Ang^3
#
#
#
# Elastic Constant Matrix: (Units=GPa)
#
#
# Indices 1 2 3 4 5 6 
#
# 1 90.6735 18.5713 19.4624 1.6227 -16.8681 3.2509
# 2 18.5713 116.3805 39.6004 -18.2455 3.8280 1.8932
# 3 19.4624 39.6004 166.0887 -8.7167 -18.5071 -0.8003
# 4 1.6227 -18.2455 -8.7167 49.6514 -14.4073 3.8749
# 5 -16.8681 3.8280 -18.5071 -14.4073 33.9530 -8.4769
# 6 3.2509 1.8932 -0.8003 3.8749 -8.4769 24.1274
#
#
#
# Elastic Compliance Matrix: (Units=1/GPa)
#
#
# Indices 1 2 3 4 5 6 
#
# 1 0.012755 -0.002102 -0.000171 0.000749 0.006993 0.000777
# 2 -0.002102 0.010303 -0.002392 0.002769 -0.002847 -0.002049
# 3 -0.000171 -0.002392 0.007329 0.001841 0.005481 0.002084
# 4 0.000749 0.002769 0.001841 0.024822 0.011550 -0.000186
# 5 0.006993 -0.002847 0.005481 0.011550 0.044436 0.013220
# 6 0.000777 -0.002049 0.002084 -0.000186 0.013220 0.046246
#
#
# Mechanical properties :
#
#
# Convention : Reuss Voigt Hill
#
# Bulk Modulus (GPa) = 47.49257 58.71232 53.10244
# Shear Modulus (GPa) = 30.81815 41.24693 36.03254
#
# Velocity S-wave (km/s) = 3.68824 4.26689 3.98807
# Velocity P-wave (km/s) = 6.25305 7.08454 6.68174
#
# Compressibility (1/GPa) = 0.02105593
#
# Stress axis : x y z
#
# Youngs Moduli (GPa) = 78.39757 97.05980 136.45164
#
# Poissons Ratio (x) = 0.20406 0.02336
# Poissons Ratio (y) = 0.16483 0.32638
# Poissons Ratio (z) = 0.01342 0.23216
#
# Static dielectric constant tensor:
#      x y z
#    x 1.891060 -0.003630 0.000560 
#    y -0.003630 1.841220 -0.016150 
#    z 0.000560 -0.016150 1.842640 
# 
# From -- ./inp_files/258881.got.cif
#   From: 2010.05.17/outbox.cif.g08.bks.cpg/sg2_130_cif.got.tgz:258881.got - 2010.06.03 11:33:40.
