data_PCOD9070991
_publ_section_title
;
Structure prediction by ZEFSAII (Michael W. Deem and Ramdas Pophale) SiO2 
 PCOD9070991
Probable space group: P -1
;
_chemical_formula_sum "Si O2"
_cell_formula_units_Z 14
_cell_length_a 10.720425
_cell_length_b 9.761021
_cell_length_c 10.115627
_cell_angle_alpha 137.442482
_cell_angle_beta 64.108259
_cell_angle_gamma 118.442008
_cell_volume 622.905547
_symmetry_space_group_name_H-M "P -1"
_symmetry_group_IT_number 2
_symmetry_cell_setting 'triclinic'
loop_
_space_group_symop_operation_xyz
x,y,z
-x,-y,-z
loop_
_atom_site_type_symbol
_atom_site_label
_atom_site_fract_x
_atom_site_fract_y
_atom_site_fract_z
Si Si1 0.369468 0.851293 0.534639
Si Si2 0.045924 0.233741 0.583632
Si Si3 0.510311 0.263396 0.326914
Si Si4 0.834442 0.915289 0.061392
Si Si5 0.241995 0.630304 0.918262
Si Si6 0.218556 0.558581 0.172707
Si Si7 0.215916 0.048698 0.183550
O O1 0.432709 0.788707 0.596402
O O2 0.310956 0.659342 0.326767
O O3 0.500000 0.000000 0.500000
O O4 0.239496 0.953667 0.710596
O O5 0.159431 0.403300 0.739582
O O6 0.116394 0.193666 0.383864
O O7 0.915940 0.338803 0.696648
O O8 0.000000 0.000000 0.500000
O O9 0.500000 0.500000 0.500000
O O10 0.625489 0.265240 0.161478
O O11 0.357007 0.115875 0.256190
O O12 0.821432 0.688605 0.966570
O O13 0.752138 0.908652 0.954770
O O14 0.000000 0.000000 0.000000
O O15 0.288206 0.612966 0.034848
O O16 0.147893 0.801453 0.067944
#
# Coordination Sequence:
#
# PCOD9070991 Si02
#       7
#     2   2   2   2   2   2   2
#     4  12  30  51  74 113 157 196 251 318 376 442
#     4  12  27  46  77 110 150 192 254 313 370 449
#     4  12  26  49  79 108 151 199 255 307 374 452
#     4  12  29  49  77 110 158 198 249 314 385 445
#     4  12  26  47  76 109 145 197 252 300 374 454
#     4  12  29  46  79 111 150 197 252 310 380 446
#     4  12  25  48  78 108 148 202 249 309 374 452
#
# _framework density 22.475317
#
# number of rings (size 3 to 8) (size 9 to 14) (size 15 to 20)
#    0.000    0.000    4.286    4.286    8.000    1.714 
#    0.000    0.000    0.000    0.000    0.000    0.000 
#    0.000    0.000    0.000    0.000    0.000    0.000 
#
# Total GULP energy -78369.222804 kJ/mol
# GULP energy per Si atom -5597.801629 kJ/mol
# Density = 2.242416 g / cm^3
# Si number density = 22.475317 Si / 1000 Ang^3
#
#
#
# Elastic Constant Matrix: (Units=GPa)
#
#
# Indices 1 2 3 4 5 6 
#
# 1 71.9320 36.1702 15.3891 -6.6812 0.8726 -11.7688
# 2 36.1702 140.0535 48.3268 -9.4848 -4.0801 -25.1724
# 3 15.3891 48.3268 122.2330 -10.2799 -2.2793 -10.4539
# 4 -6.6812 -9.4848 -10.2799 54.3826 -6.5843 -2.3052
# 5 0.8726 -4.0801 -2.2793 -6.5843 33.4163 -1.6443
# 6 -11.7688 -25.1724 -10.4539 -2.3052 -1.6443 39.7202
#
#
#
# Elastic Compliance Matrix: (Units=1/GPa)
#
#
# Indices 1 2 3 4 5 6 
#
# 1 0.016314 -0.003566 -0.000320 0.001371 -0.000488 0.002549
# 2 -0.003566 0.010057 -0.003004 0.001135 0.001569 0.004657
# 3 -0.000320 -0.003004 0.009587 0.001347 0.000592 0.000627
# 4 0.001371 0.001135 0.001347 0.019636 0.004201 0.002794
# 5 -0.000488 0.001569 0.000592 0.004201 0.031123 0.002538
# 6 0.002549 0.004657 0.000627 0.002794 0.002538 0.029315
#
#
# Mechanical properties :
#
#
# Convention : Reuss Voigt Hill
#
# Bulk Modulus (GPa) = 45.08976 59.33229 52.21103
# Shear Modulus (GPa) = 36.44149 41.12598 38.78373
#
# Velocity S-wave (km/s) = 4.03103 4.28229 4.15856
# Velocity P-wave (km/s) = 6.46305 7.13490 6.80727
#
# Compressibility (1/GPa) = 0.02217798
#
# Stress axis : x y z
#
# Youngs Moduli (GPa) = 61.29751 99.42838 104.30626
#
# Poissons Ratio (x) = 0.35457 0.03336
# Poissons Ratio (y) = 0.21859 0.31337
# Poissons Ratio (z) = 0.01960 0.29872
#
# Static dielectric constant tensor:
#      x y z
#    x 1.904670 0.032370 -0.045140 
#    y 0.032370 1.801780 -0.019020 
#    z -0.045140 -0.019020 1.854570 
# 
# From -- ./inp_files/245824.got.cif
#   From: 2010.05.17/outbox.cif.g08.bks.cpg/sg2_123_cif.got.tgz:245824.got - 2010.06.03 11:33:40.
