data_PCOD9070442
_publ_section_title
;
Structure prediction by ZEFSAII (Michael W. Deem and Ramdas Pophale) SiO2 
 PCOD9070442
Probable space group: P -1
;
_chemical_formula_sum "Si O2"
_cell_formula_units_Z 16
_cell_length_a 25.185341
_cell_length_b 9.100071
_cell_length_c 9.774140
_cell_angle_alpha 78.683562
_cell_angle_beta 47.879437
_cell_angle_gamma 39.509751
_cell_volume 774.396135
_symmetry_space_group_name_H-M "P -1"
_symmetry_group_IT_number 2
_symmetry_cell_setting 'triclinic'
loop_
_space_group_symop_operation_xyz
x,y,z
-x,-y,-z
loop_
_atom_site_type_symbol
_atom_site_label
_atom_site_fract_x
_atom_site_fract_y
_atom_site_fract_z
Si Si1 0.883204 0.816801 0.728116
Si Si2 0.944727 0.219731 0.444040
Si Si3 0.332887 0.727421 0.236078
Si Si4 0.374890 0.172515 0.582015
Si Si5 0.656751 0.120746 0.302058
Si Si6 0.358901 0.316775 0.270346
Si Si7 0.892176 0.120488 0.057092
Si Si8 0.848957 0.858297 0.262025
O O1 0.000000 0.500000 0.500000
O O2 0.999007 0.727881 0.600806
O O3 0.751774 0.106037 0.794662
O O4 0.785273 0.934481 0.004601
O O5 0.779352 0.488871 0.620398
O O6 0.000000 0.000000 0.500000
O O7 0.037965 0.032195 0.180795
O O8 0.349988 0.514919 0.269464
O O9 0.215275 0.023738 0.492743
O O10 0.500000 0.500000 0.000000
O O11 0.375773 0.212167 0.411443
O O12 0.234261 0.525318 0.810631
O O13 0.500000 0.000000 0.500000
O O14 0.367335 0.010497 0.648245
O O15 0.500000 0.500000 0.500000
O O16 0.719416 0.028689 0.362013
O O17 0.500000 0.000000 0.000000
O O18 0.855184 0.024086 0.192394
O O19 0.000000 0.000000 0.000000
O O20 0.000000 0.500000 0.000000
#
# Coordination Sequence:
#
# PCOD9070442 Si02
#       8
#     2   2   2   2   2   2   2   2
#     4  12  29  48  76 115 151 203 254 312 387 453
#     4  12  27  50  77 108 155 196 253 317 379 462
#     4  12  28  49  77 111 159 199 252 319 384 461
#     4  12  29  47  77 107 151 201 254 315 380 453
#     4  12  28  48  75 106 152 199 255 311 378 452
#     4  12  30  50  76 114 151 202 253 314 395 458
#     4  12  24  48  75 107 147 192 255 308 374 451
#     4  12  25  46  74 107 145 196 250 308 374 451
#
# _framework density 20.661261
#
# number of rings (size 3 to 8) (size 9 to 14) (size 15 to 20)
#    0.000    0.000    5.000    3.000   10.500    0.000 
#    0.000    0.000    0.000    0.000    0.000    0.000 
#    0.000    0.000    0.000    0.000    0.000    0.000 
#
# Total GULP energy -89219.245809 kJ/mol
# GULP energy per Si atom -5576.202863 kJ/mol
# Density = 2.061424 g / cm^3
# Si number density = 20.661261 Si / 1000 Ang^3
#
#
#
# Elastic Constant Matrix: (Units=GPa)
#
#
# Indices 1 2 3 4 5 6 
#
# 1 218.0550 74.8345 63.9613 7.3604 -16.0959 6.2187
# 2 74.8345 113.4097 37.1732 12.2899 -21.1548 7.8550
# 3 63.9613 37.1732 100.5218 9.5129 1.7119 11.7105
# 4 7.3604 12.2899 9.5129 50.0576 -2.7179 4.0955
# 5 -16.0959 -21.1548 1.7119 -2.7179 41.3051 -0.2394
# 6 6.2187 7.8550 11.7105 4.0955 -0.2394 56.3377
#
#
#
# Elastic Compliance Matrix: (Units=1/GPa)
#
#
# Indices 1 2 3 4 5 6 
#
# 1 0.006679 -0.003240 -0.003153 0.000444 0.001106 0.000342
# 2 -0.003240 0.013074 -0.002598 -0.001883 0.005413 -0.000765
# 3 -0.003153 -0.002598 0.013336 -0.001446 -0.003219 -0.001970
# 4 0.000444 -0.001883 -0.001446 0.020764 0.000629 -0.000993
# 5 0.001106 0.005413 -0.003219 0.000629 0.027587 -0.000136
# 6 0.000342 -0.000765 -0.001970 -0.000993 -0.000136 0.018300
#
#
# Mechanical properties :
#
#
# Convention : Reuss Voigt Hill
#
# Bulk Modulus (GPa) = 66.18935 87.10273 76.64604
# Shear Modulus (GPa) = 40.73049 46.60790 43.66920
#
# Velocity S-wave (km/s) = 4.44480 4.75469 4.60235
# Velocity P-wave (km/s) = 7.64504 8.50834 8.08822
#
# Compressibility (1/GPa) = 0.01510817
#
# Stress axis : x y z
#
# Youngs Moduli (GPa) = 149.71187 76.48945 74.98394
#
# Poissons Ratio (x) = 0.24781 0.23641
# Poissons Ratio (y) = 0.48503 0.19481
# Poissons Ratio (z) = 0.47201 0.19872
#
# Static dielectric constant tensor:
#      x y z
#    x 1.688710 -0.050850 -0.030540 
#    y -0.050850 1.766350 -0.001890 
#    z -0.030540 -0.001890 1.780460 
# 
# From -- ./inp_files/352175.got.cif
#   From: 2010.05.17/outbox.cif.g08.bks.cpg/sg2_177_cif.got.tgz:352175.got - 2010.06.03 11:33:40.
