data_PCOD9070952
_publ_section_title
;
Structure prediction by ZEFSAII (Michael W. Deem and Ramdas Pophale) SiO2 
 PCOD9070952
Probable space group: P -1
;
_chemical_formula_sum "Si O2"
_cell_formula_units_Z 12
_cell_length_a 7.765906
_cell_length_b 13.765677
_cell_length_c 8.182066
_cell_angle_alpha 44.035685
_cell_angle_beta 122.293142
_cell_angle_gamma 100.717893
_cell_volume 483.867573
_symmetry_space_group_name_H-M "P -1"
_symmetry_group_IT_number 2
_symmetry_cell_setting 'triclinic'
loop_
_space_group_symop_operation_xyz
x,y,z
-x,-y,-z
loop_
_atom_site_type_symbol
_atom_site_label
_atom_site_fract_x
_atom_site_fract_y
_atom_site_fract_z
Si Si1 0.947299 0.971155 0.320677
Si Si2 0.845640 0.470326 0.821644
Si Si3 0.280773 0.206348 0.778233
Si Si4 0.434937 0.871433 0.707087
Si Si5 0.545224 0.545983 0.144993
Si Si6 0.069002 0.729678 0.189114
O O1 0.198830 0.886283 0.501317
O O2 0.801590 0.873732 0.312890
O O3 0.000000 0.000000 0.500000
O O4 0.867464 0.127474 0.996977
O O5 0.739793 0.627818 0.485837
O O6 0.656637 0.428759 0.866025
O O7 0.974131 0.339816 0.920780
O O8 0.000000 0.500000 0.000000
O O9 0.514672 0.121149 0.081674
O O10 0.741840 0.410345 0.475367
O O11 0.500000 0.000000 0.500000
O O12 0.579265 0.702276 0.951097
O O13 0.888637 0.781244 0.174988
O O14 0.500000 0.500000 0.000000
#
# Coordination Sequence:
#
# PCOD9070952 Si02
#       6
#     2   2   2   2   2   2
#     4  12  28  49  72 112 155 194 249 310 368 443
#     4  12  26  47  75 109 149 192 248 308 368 441
#     4  12  27  48  77 109 150 199 248 303 376 440
#     4  12  27  48  75 108 149 195 249 302 375 443
#     4  12  28  47  76 109 148 194 249 308 369 438
#     4  12  25  48  74 108 150 192 249 310 363 439
#
# _framework density 24.800173000000001
#
# number of rings (size 3 to 8) (size 9 to 14) (size 15 to 20)
#    0.000    0.000    3.333    6.500    7.000    2.000 
#    0.000    0.000    0.000    0.000    0.000    0.000 
#    0.000    0.000    0.000    0.000    0.000    0.000 
#
# Total GULP energy -67200.664914 kJ/mol
# GULP energy per Si atom -5600.055410 kJ/mol
# Density = 2.474373 g / cm^3
# Si number density = 24.800173 Si / 1000 Ang^3
#
#
#
# Elastic Constant Matrix: (Units=GPa)
#
#
# Indices 1 2 3 4 5 6 
#
# 1 76.8652 24.4119 -0.0164 -13.0261 -16.1862 -15.9428
# 2 24.4119 137.2288 29.4468 2.3356 -4.5034 3.7816
# 3 -0.0164 29.4468 140.0964 -17.3650 -13.9273 16.4737
# 4 -13.0261 2.3356 -17.3650 56.8511 13.0757 -6.5614
# 5 -16.1862 -4.5034 -13.9273 13.0757 43.7273 -0.9252
# 6 -15.9428 3.7816 16.4737 -6.5614 -0.9252 42.5456
#
#
#
# Elastic Compliance Matrix: (Units=1/GPa)
#
#
# Indices 1 2 3 4 5 6 
#
# 1 0.017372 -0.003373 0.000889 0.003997 0.005324 0.007197
# 2 -0.003373 0.008337 -0.001832 -0.001745 -0.000485 -0.001575
# 3 0.000889 -0.001832 0.008262 0.002047 0.002110 -0.002341
# 4 0.003997 -0.001745 0.002047 0.020607 -0.004127 0.003949
# 5 0.005324 -0.000485 0.002110 -0.004127 0.026721 0.001165
# 6 0.007197 -0.001575 -0.002341 0.003949 0.001165 0.027882
#
#
# Mechanical properties :
#
#
# Convention : Reuss Voigt Hill
#
# Bulk Modulus (GPa) = 39.46272 51.31945 45.39109
# Shear Modulus (GPa) = 39.60072 48.64800 44.12436
#
# Velocity S-wave (km/s) = 4.00032 4.43380 4.22263
# Velocity P-wave (km/s) = 6.10603 6.85197 6.48973
#
# Compressibility (1/GPa) = 0.02534037
#
# Stress axis : x y z
#
# Youngs Moduli (GPa) = 57.56250 119.94068 121.03631
#
# Poissons Ratio (x) = 0.40455 -0.10764
# Poissons Ratio (y) = 0.19415 0.22175
# Poissons Ratio (z) = -0.05119 0.21975
#
# Static dielectric constant tensor:
#      x y z
#    x 2.078660 -0.041500 0.052490 
#    y -0.041500 2.040740 0.058410 
#    z 0.052490 0.058410 1.979830 
# 
# From -- ./inp_files/174632.got.cif
#   From: 2010.05.17/outbox.cif.g08.bks.cpg/sg2_88_cif.got.tgz:174632.got - 2010.06.03 11:33:40.
