data_PCOD9070434
_publ_section_title
;
Structure prediction by ZEFSAII (Michael W. Deem and Ramdas Pophale) SiO2 
 PCOD9070434
Probable space group: P -1
;
_chemical_formula_sum "Si O2"
_cell_formula_units_Z 14
_cell_length_a 9.665033
_cell_length_b 12.431945
_cell_length_c 11.360089
_cell_angle_alpha 35.195734
_cell_angle_beta 43.379136
_cell_angle_gamma 44.822618
_cell_volume 516.901251
_symmetry_space_group_name_H-M "P -1"
_symmetry_group_IT_number 2
_symmetry_cell_setting 'triclinic'
loop_
_space_group_symop_operation_xyz
x,y,z
-x,-y,-z
loop_
_atom_site_type_symbol
_atom_site_label
_atom_site_fract_x
_atom_site_fract_y
_atom_site_fract_z
Si Si1 0.643094 0.624481 0.185622
Si Si2 0.149589 0.131680 0.314416
Si Si3 0.120975 0.290150 0.442517
Si Si4 0.598029 0.253387 0.417419
Si Si5 0.807648 0.683009 0.283268
Si Si6 0.775077 0.130256 0.909039
Si Si7 0.585366 0.265974 0.160226
O O1 0.678187 0.410949 0.298531
O O2 0.683912 0.630816 0.293140
O O3 0.410962 0.752352 0.170281
O O4 0.805519 0.726996 0.936367
O O5 0.071049 0.249552 0.375114
O O6 0.364123 0.956824 0.358841
O O7 0.000000 0.000000 0.500000
O O8 0.371249 0.205103 0.364502
O O9 0.983885 0.193719 0.696166
O O10 0.029461 0.522515 0.304941
O O11 0.344505 0.336449 0.497725
O O12 0.702063 0.219163 0.255057
O O13 0.822802 0.899632 0.068066
O O14 0.693818 0.186602 0.041833
O O15 0.500000 0.500000 0.000000
#
# Coordination Sequence:
#
# PCOD9070434 Si02
#       7
#     2   2   2   2   2   2   2
#     4  12  24  48  74 108 151 190 246 307 372 438
#     4  12  27  46  73 112 151 192 249 307 370 446
#     4  12  27  49  73 114 148 194 254 304 364 443
#     4  12  26  48  79 104 148 208 237 304 383 427
#     4  12  26  44  79 112 147 195 246 303 381 440
#     4  12  26  49  75 111 149 199 244 309 371 435
#     4  12  26  53  77 104 156 196 252 305 361 443
#
# _framework density 27.084477
#
# number of rings (size 3 to 8) (size 9 to 14) (size 15 to 20)
#    0.000    0.000    5.714    2.571    2.000   10.286 
#    0.000    3.571    0.000    0.000    0.000    0.000 
#    0.000    0.000    0.000    0.000    0.000    0.000 
#
# Total GULP energy -78628.410984 kJ/mol
# GULP energy per Si atom -5616.315070 kJ/mol
# Density = 2.702283 g / cm^3
# Si number density = 27.084477 Si / 1000 Ang^3
#
#
#
# Elastic Constant Matrix: (Units=GPa)
#
#
# Indices 1 2 3 4 5 6 
#
# 1 87.6082 36.6904 29.3592 8.8283 1.6241 4.5474
# 2 36.6904 153.7415 61.9183 -8.2634 1.3596 3.2908
# 3 29.3592 61.9183 163.5680 14.2086 -11.7947 6.8148
# 4 8.8283 -8.2634 14.2086 66.6712 -2.9867 6.7861
# 5 1.6241 1.3596 -11.7947 -2.9867 45.0400 3.4424
# 6 4.5474 3.2908 6.8148 6.7861 3.4424 54.2074
#
#
#
# Elastic Compliance Matrix: (Units=1/GPa)
#
#
# Indices 1 2 3 4 5 6 
#
# 1 0.013191 -0.002741 -0.001208 -0.001812 -0.000790 -0.000511
# 2 -0.002741 0.008459 -0.002937 0.002014 -0.000783 -0.000117
# 3 -0.001208 -0.002937 0.007767 -0.001702 0.002101 -0.000617
# 4 -0.001812 0.002014 -0.001702 0.016070 0.000763 -0.001817
# 5 -0.000790 -0.000783 0.002101 0.000763 0.022986 -0.001705
# 6 -0.000511 -0.000117 -0.000617 -0.001817 -0.001705 0.018911
#
#
# Mechanical properties :
#
#
# Convention : Reuss Voigt Hill
#
# Bulk Modulus (GPa) = 63.91657 73.42814 68.67236
# Shear Modulus (GPa) = 47.00506 51.64703 49.32605
#
# Velocity S-wave (km/s) = 4.17045 4.37153 4.27217
# Velocity P-wave (km/s) = 6.84401 7.25603 7.05303
#
# Compressibility (1/GPa) = 0.01564539
#
# Stress axis : x y z
#
# Youngs Moduli (GPa) = 75.80863 118.21815 128.74470
#
# Poissons Ratio (x) = 0.32402 0.15558
# Poissons Ratio (y) = 0.20778 0.37808
# Poissons Ratio (z) = 0.09161 0.34717
#
# Static dielectric constant tensor:
#      x y z
#    x 2.258710 -0.066610 -0.071950 
#    y -0.066610 2.070440 0.013330 
#    z -0.071950 0.013330 2.056020 
# 
# From -- ./inp_files/424852.got.cif
#   From: 2010.05.17/outbox.cif.g08.bks.cpg/sg2_213_cif.got.tgz:424852.got - 2010.06.03 11:33:40.
