data_PCOD9070724
_publ_section_title
;
Structure prediction by ZEFSAII (Michael W. Deem and Ramdas Pophale) SiO2 
 PCOD9070724
Probable space group: P -1
;
_chemical_formula_sum "Si O2"
_cell_formula_units_Z 16
_cell_length_a 11.645919
_cell_length_b 12.161395
_cell_length_c 5.988863
_cell_angle_alpha 84.281867
_cell_angle_beta 83.905114
_cell_angle_gamma 55.270474
_cell_volume 692.362758
_symmetry_space_group_name_H-M "P -1"
_symmetry_group_IT_number 2
_symmetry_cell_setting 'triclinic'
loop_
_space_group_symop_operation_xyz
x,y,z
-x,-y,-z
loop_
_atom_site_type_symbol
_atom_site_label
_atom_site_fract_x
_atom_site_fract_y
_atom_site_fract_z
Si Si1 0.904374 0.346677 0.757316
Si Si2 0.326225 0.356672 0.199091
Si Si3 0.192894 0.235137 0.548956
Si Si4 0.047377 0.088400 0.083731
Si Si5 0.431098 0.140109 0.855720
Si Si6 0.467832 0.568604 0.743025
Si Si7 0.283740 0.961298 0.355036
Si Si8 0.190165 0.770378 0.563788
O O1 0.799817 0.490492 0.859290
O O2 0.816833 0.312485 0.620518
O O3 0.027864 0.340482 0.596615
O O4 0.990066 0.221912 0.930514
O O5 0.258982 0.293885 0.367849
O O6 0.444194 0.365897 0.292438
O O7 0.400368 0.259998 0.995101
O O8 0.284841 0.190045 0.762740
O O9 0.219380 0.099650 0.470265
O O10 0.964501 0.136995 0.324304
O O11 0.211941 0.004094 0.115545
O O12 0.000000 0.000000 0.000000
O O13 0.551014 0.110299 0.664227
O O14 0.500000 0.000000 0.000000
O O15 0.500000 0.500000 0.500000
O O16 0.300203 0.672121 0.747189
O O17 0.500000 0.500000 0.000000
O O18 0.242026 0.863328 0.466997
#
# Coordination Sequence:
#
# PCOD9070724 Si02
#       8
#     2   2   2   2   2   2   2   2
#     4  12  26  49  77 111 153 199 261 322 397 471
#     4  12  29  49  75 112 153 204 257 320 397 476
#     4  12  27  50  74 107 151 203 260 319 392 472
#     4  12  25  45  75 113 153 199 258 326 401 469
#     4  12  28  48  73 106 150 203 258 318 388 473
#     4  12  29  51  80 116 161 207 261 328 407 483
#     4  12  25  48  76 112 152 201 261 322 396 469
#     4  12  26  46  76 112 153 197 261 327 397 470
#
# _framework density 23.109275
#
# number of rings (size 3 to 8) (size 9 to 14) (size 15 to 20)
#    0.000    0.000    5.000    4.125    7.000    1.500 
#    0.000    0.000    0.000    0.000    0.000    0.000 
#    0.000    0.000    0.000    0.000    0.000    0.000 
#
# Total GULP energy -89525.796503 kJ/mol
# GULP energy per Si atom -5595.362281 kJ/mol
# Density = 2.305668 g / cm^3
# Si number density = 23.109275 Si / 1000 Ang^3
#
#
#
# Elastic Constant Matrix: (Units=GPa)
#
#
# Indices 1 2 3 4 5 6 
#
# 1 119.0616 21.9912 10.0721 1.8228 12.1154 5.2270
# 2 21.9912 119.9108 34.1632 10.1484 15.3947 -2.6232
# 3 10.0721 34.1632 65.6580 -8.7583 16.8539 11.6902
# 4 1.8228 10.1484 -8.7583 51.7026 2.0449 3.6723
# 5 12.1154 15.3947 16.8539 2.0449 47.9243 6.6226
# 6 5.2270 -2.6232 11.6902 3.6723 6.6226 29.3411
#
#
#
# Elastic Compliance Matrix: (Units=1/GPa)
#
#
# Indices 1 2 3 4 5 6 
#
# 1 0.008891 -0.001497 0.000103 0.000162 -0.001614 -0.001415
# 2 -0.001497 0.011013 -0.006419 -0.003465 -0.001383 0.004555
# 3 0.000103 -0.006419 0.022172 0.005846 -0.004756 -0.009085
# 4 0.000162 -0.003465 0.005846 0.021414 -0.001196 -0.005078
# 5 -0.001614 -0.001383 -0.004756 -0.001196 0.023882 -0.003182
# 6 -0.001415 0.004555 -0.009085 -0.005078 -0.003182 0.039714
#
#
# Mechanical properties :
#
#
# Convention : Reuss Voigt Hill
#
# Bulk Modulus (GPa) = 37.80643 48.56485 43.18564
# Shear Modulus (GPa) = 32.99674 41.68719 37.34197
#
# Velocity S-wave (km/s) = 3.78280 4.25186 4.02417
# Velocity P-wave (km/s) = 5.95607 6.72052 6.34981
#
# Compressibility (1/GPa) = 0.02645053
#
# Stress axis : x y z
#
# Youngs Moduli (GPa) = 112.47650 90.79819 45.10094
#
# Poissons Ratio (x) = 0.13596 -0.00465
# Poissons Ratio (y) = 0.16842 0.28950
# Poissons Ratio (z) = -0.01160 0.58282
#
# Static dielectric constant tensor:
#      x y z
#    x 1.869520 0.018180 -0.019580 
#    y 0.018180 1.882970 0.001580 
#    z -0.019580 0.001580 1.932790 
# 
# From -- ./inp_files/70655.got.cif
#   From: 2010.05.17/outbox.cif.g08.bks.cpg/sg2_36_cif.got.tgz:70655.got - 2010.06.03 11:33:40.
