data_PCOD9070641
_publ_section_title
;
Structure prediction by ZEFSAII (Michael W. Deem and Ramdas Pophale) SiO2 
 PCOD9070641
Probable space group: P -1
;
_chemical_formula_sum "Si O2"
_cell_formula_units_Z 12
_cell_length_a 8.137250
_cell_length_b 15.033564
_cell_length_c 7.648421
_cell_angle_alpha 120.214432
_cell_angle_beta 37.017622
_cell_angle_gamma 122.455511
_cell_volume 470.156199
_symmetry_space_group_name_H-M "P -1"
_symmetry_group_IT_number 2
_symmetry_cell_setting 'triclinic'
loop_
_space_group_symop_operation_xyz
x,y,z
-x,-y,-z
loop_
_atom_site_type_symbol
_atom_site_label
_atom_site_fract_x
_atom_site_fract_y
_atom_site_fract_z
Si Si1 0.278950 0.908273 0.207061
Si Si2 0.317397 0.700162 0.148737
Si Si3 0.717079 0.567387 0.523413
Si Si4 0.198070 0.243176 0.773274
Si Si5 0.207672 0.640937 0.590342
Si Si6 0.232031 0.034893 0.695149
O O1 0.396896 0.821209 0.129866
O O2 0.039877 0.832954 0.217432
O O3 0.149271 0.972610 0.523102
O O4 0.500000 0.000000 0.000000
O O5 0.249975 0.680726 0.393579
O O6 0.012864 0.636760 0.261028
O O7 0.557423 0.643165 0.833887
O O8 0.500000 0.500000 0.500000
O O9 0.797150 0.481489 0.499594
O O10 0.505195 0.297550 0.488045
O O11 0.271643 0.159029 0.760638
O O12 0.060281 0.327779 0.068397
O O13 0.500000 0.000000 0.500000
O O14 0.000000 0.000000 0.000000
#
# Coordination Sequence:
#
# PCOD9070641 Si02
#       6
#     2   2   2   2   2   2
#     4  12  27  48  74 108 149 197 249 306 367 439
#     4  12  26  46  72 105 144 192 243 301 366 436
#     4  12  25  46  73 107 144 188 241 304 368 437
#     4  12  25  44  70 103 142 189 238 298 364 434
#     4  12  25  46  73 106 145 190 242 302 367 439
#     4  12  26  46  71 103 142 190 244 301 363 433
#
# _framework density 25.523433000000001
#
# number of rings (size 3 to 8) (size 9 to 14) (size 15 to 20)
#    0.000    0.000    0.000   11.000    0.000    5.333 
#    0.000    0.000    0.000    0.000    0.000    0.000 
#    0.000    0.000    0.000    0.000    0.000    0.000 
#
# Total GULP energy -67318.806197 kJ/mol
# GULP energy per Si atom -5609.900516 kJ/mol
# Density = 2.546534 g / cm^3
# Si number density = 25.523433 Si / 1000 Ang^3
#
#
#
# Elastic Constant Matrix: (Units=GPa)
#
#
# Indices 1 2 3 4 5 6 
#
# 1 118.0453 41.5583 24.1111 -2.1415 -6.3612 -10.8214
# 2 41.5583 163.9236 45.0934 -12.6107 -9.8029 -27.7205
# 3 24.1111 45.0934 163.5874 17.0628 -16.1323 -14.3435
# 4 -2.1415 -12.6107 17.0628 51.0011 -2.6444 -10.4652
# 5 -6.3612 -9.8029 -16.1323 -2.6444 46.1382 -2.2773
# 6 -10.8214 -27.7205 -14.3435 -10.4652 -2.2773 49.9293
#
#
#
# Elastic Compliance Matrix: (Units=1/GPa)
#
#
# Indices 1 2 3 4 5 6 
#
# 1 0.009440 -0.001978 -0.000743 0.000364 0.000684 0.000842
# 2 -0.001978 0.008192 -0.001826 0.003519 0.001248 0.004389
# 3 -0.000743 -0.001826 0.007234 -0.002718 0.001904 0.000421
# 4 0.000364 0.003519 -0.002718 0.022725 0.001450 0.006081
# 5 0.000684 0.001248 0.001904 0.001450 0.022917 0.002737
# 6 0.000842 0.004389 0.000421 0.006081 0.002737 0.024168
#
#
# Mechanical properties :
#
#
# Convention : Reuss Voigt Hill
#
# Bulk Modulus (GPa) = 63.39930 74.12020 68.75975
# Shear Modulus (GPa) = 45.86084 51.73329 48.79706
#
# Velocity S-wave (km/s) = 4.24348 4.50699 4.37722
# Velocity P-wave (km/s) = 6.99307 7.49580 7.24880
#
# Compressibility (1/GPa) = 0.01577305
#
# Stress axis : x y z
#
# Youngs Moduli (GPa) = 105.93291 122.07757 138.23986
#
# Poissons Ratio (x) = 0.24141 0.10270
# Poissons Ratio (y) = 0.20948 0.25238
# Poissons Ratio (z) = 0.07870 0.22287
#
# Static dielectric constant tensor:
#      x y z
#    x 2.200850 0.023760 -0.042960 
#    y 0.023760 2.026380 -0.014080 
#    z -0.042960 -0.014080 1.881820 
# 
# From -- ./inp_files/197728.got.cif
#   From: 2010.05.17/outbox.cif.g08.bks.cpg/sg2_99_cif.got.tgz:197728.got - 2010.06.03 11:33:40.
