data_PCOD9070478
_publ_section_title
;
Structure prediction by ZEFSAII (Michael W. Deem and Ramdas Pophale) SiO2 
 PCOD9070478
Probable space group: P -1
;
_chemical_formula_sum "Si O2"
_cell_formula_units_Z 14
_cell_length_a 12.833692
_cell_length_b 10.809469
_cell_length_c 5.071878
_cell_angle_alpha 87.446011
_cell_angle_beta 90.883888
_cell_angle_gamma 133.142198
_cell_volume 512.767502
_symmetry_space_group_name_H-M "P -1"
_symmetry_group_IT_number 2
_symmetry_cell_setting 'triclinic'
loop_
_space_group_symop_operation_xyz
x,y,z
-x,-y,-z
loop_
_atom_site_type_symbol
_atom_site_label
_atom_site_fract_x
_atom_site_fract_y
_atom_site_fract_z
Si Si1 0.540086 0.660888 0.134710
Si Si2 0.834289 0.887180 0.940707
Si Si3 0.848065 0.657673 0.640925
Si Si4 0.375257 0.612336 0.651467
Si Si5 0.846530 0.376800 0.853891
Si Si6 0.845871 0.129321 0.550168
Si Si7 0.358515 0.872058 0.686117
O O1 0.710189 0.796658 0.160033
O O2 0.473243 0.697976 0.906333
O O3 0.500000 0.500000 0.000000
O O4 0.465455 0.628855 0.411379
O O5 0.794275 0.735910 0.774873
O O6 0.820900 0.005677 0.775828
O O7 0.000000 0.000000 0.000000
O O8 0.771528 0.585128 0.358942
O O9 0.822962 0.505090 0.796744
O O10 0.016898 0.803419 0.607202
O O11 0.318129 0.703656 0.591502
O O12 0.875472 0.292897 0.644874
O O13 0.704508 0.205813 0.012953
O O14 0.000000 0.500000 0.000000
O O15 0.711353 0.051736 0.375568
O O16 0.500000 0.000000 0.500000
#
# Coordination Sequence:
#
# PCOD9070478 Si02
#       7
#     2   2   2   2   2   2   2
#     4  12  28  52  80 117 161 216 273 339 403 506
#     4  12  30  49  79 117 165 211 267 341 417 484
#     4  12  25  50  80 118 157 216 273 334 413 495
#     4  12  27  50  83 116 158 212 279 334 413 486
#     4  12  24  48  78 110 153 205 269 331 397 485
#     4  12  27  47  75 115 155 200 269 334 406 484
#     4  12  28  47  79 113 161 207 264 343 412 480
#
# _framework density 27.302824000000001
#
# number of rings (size 3 to 8) (size 9 to 14) (size 15 to 20)
#    0.000    0.000    4.286    4.714    4.000    1.714 
#    0.000    0.000    0.000    0.000    0.000    0.000 
#    0.000    0.000    0.000    0.000    0.000    0.000 
#
# Total GULP energy -78195.975318 kJ/mol
# GULP energy per Si atom -5585.426808 kJ/mol
# Density = 2.724068 g / cm^3
# Si number density = 27.302824 Si / 1000 Ang^3
#
#
#
# Elastic Constant Matrix: (Units=GPa)
#
#
# Indices 1 2 3 4 5 6 
#
# 1 164.2237 30.8878 29.0427 -9.7334 -7.6123 -8.5167
# 2 30.8878 51.8068 -3.9787 2.0498 7.5629 -8.6768
# 3 29.0427 -3.9787 73.7171 -4.7702 -13.4103 3.7786
# 4 -9.7334 2.0498 -4.7702 39.5598 -9.6116 -13.0370
# 5 -7.6123 7.5629 -13.4103 -9.6116 61.7841 -10.2542
# 6 -8.5167 -8.6768 3.7786 -13.0370 -10.2542 67.9197
#
#
#
# Elastic Compliance Matrix: (Units=1/GPa)
#
#
# Indices 1 2 3 4 5 6 
#
# 1 0.007855 -0.005033 -0.002978 0.002622 0.001552 0.001245
# 2 -0.005033 0.023255 0.002446 -0.002492 -0.003115 0.001255
# 3 -0.002978 0.002446 0.015521 0.001673 0.002936 -0.000160
# 4 0.002622 -0.002492 0.001673 0.030121 0.006793 0.006724
# 5 0.001552 -0.003115 0.002936 0.006793 0.019086 0.003819
# 6 0.001245 0.001255 -0.000160 0.006724 0.003819 0.016916
#
#
# Mechanical properties :
#
#
# Convention : Reuss Voigt Hill
#
# Bulk Modulus (GPa) = 28.16937 44.62793 36.39865
# Shear Modulus (GPa) = 36.84136 49.43911 43.14024
#
# Velocity S-wave (km/s) = 3.67735 4.25993 3.97932
# Velocity P-wave (km/s) = 5.32638 6.37001 5.87143
#
# Compressibility (1/GPa) = 0.03549955
#
# Stress axis : x y z
#
# Youngs Moduli (GPa) = 127.31543 43.00179 64.42786
#
# Poissons Ratio (x) = 0.21645 0.19187
# Poissons Ratio (y) = 0.64083 -0.15758
# Poissons Ratio (z) = 0.37914 -0.10518
#
# Static dielectric constant tensor:
#      x y z
#    x 1.804350 -0.214960 -0.052120 
#    y -0.214960 1.958470 -0.157200 
#    z -0.052120 -0.157200 2.185710 
# 
# From -- ./inp_files/70518.got.cif
#   From: 2010.05.17/outbox.cif.g08.bks.cpg/sg2_36_cif.got.tgz:70518.got - 2010.06.03 11:33:40.
