data_PCOD9070244
_publ_section_title
;
Structure prediction by ZEFSAII (Michael W. Deem and Ramdas Pophale) SiO2 
 PCOD9070244
Probable space group: P -1
;
_chemical_formula_sum "Si O2"
_cell_formula_units_Z 14
_cell_length_a 20.228351
_cell_length_b 14.265775
_cell_length_c 8.383516
_cell_angle_alpha 151.201525
_cell_angle_beta 47.844878
_cell_angle_gamma 148.280084
_cell_volume 585.799844
_symmetry_space_group_name_H-M "P -1"
_symmetry_group_IT_number 2
_symmetry_cell_setting 'triclinic'
loop_
_space_group_symop_operation_xyz
x,y,z
-x,-y,-z
loop_
_atom_site_type_symbol
_atom_site_label
_atom_site_fract_x
_atom_site_fract_y
_atom_site_fract_z
Si Si1 0.781727 0.732549 0.663990
Si Si2 0.579247 0.428662 0.283386
Si Si3 0.648755 0.835791 0.256160
Si Si4 0.324359 0.731297 0.345561
Si Si5 0.057693 0.111904 0.892124
Si Si6 0.336717 0.841406 0.851188
Si Si7 0.850472 0.173623 0.735926
O O1 0.713329 0.673529 0.523060
O O2 0.729618 0.437528 0.361182
O O3 0.732928 0.811748 0.987778
O O4 0.936695 0.969031 0.762899
O O5 0.500000 0.500000 0.500000
O O6 0.615207 0.366651 0.975274
O O7 0.478578 0.141522 0.126740
O O8 0.641562 0.026451 0.454410
O O9 0.742516 0.029936 0.549339
O O10 0.500000 0.500000 0.000000
O O11 0.364480 0.816866 0.590706
O O12 0.167992 0.450572 0.195479
O O13 0.121439 0.009133 0.590186
O O14 0.000000 0.000000 0.000000
O O15 0.233061 0.851938 0.030850
O O16 0.000000 0.500000 0.000000
#
# Coordination Sequence:
#
# PCOD9070244 Si02
#       7
#     2   2   2   2   2   2   2
#     4  12  25  47  75 105 154 198 252 311 379 452
#     4  12  27  48  70 112 150 197 253 316 378 455
#     4  12  27  49  77 114 153 202 254 314 382 454
#     4  12  27  48  79 109 152 197 254 317 376 455
#     4  12  24  50  75 111 150 202 253 311 378 452
#     4  12  24  46  77 108 149 200 252 310 381 451
#     4  12  24  47  79 111 156 203 254 310 381 457
#
# _framework density 23.898947
#
# number of rings (size 3 to 8) (size 9 to 14) (size 15 to 20)
#    0.000    0.000    4.286    5.143    0.000    3.429 
#    2.571    0.000    0.000    0.000    0.000    0.000 
#    0.000    0.000    0.000    0.000    0.000    0.000 
#
# Total GULP energy -78299.092679 kJ/mol
# GULP energy per Si atom -5592.792334 kJ/mol
# Density = 2.384455 g / cm^3
# Si number density = 23.898947 Si / 1000 Ang^3
#
#
#
# Elastic Constant Matrix: (Units=GPa)
#
#
# Indices 1 2 3 4 5 6 
#
# 1 128.9462 46.0409 53.7557 16.1406 1.3945 28.2193
# 2 46.0409 125.2937 54.5386 13.2714 -2.0106 19.4417
# 3 53.7557 54.5386 114.4797 18.5107 -5.7697 1.7248
# 4 16.1406 13.2714 18.5107 69.5459 15.5063 -4.2567
# 5 1.3945 -2.0106 -5.7697 15.5063 50.7798 7.9261
# 6 28.2193 19.4417 1.7248 -4.2567 7.9261 32.7502
#
#
#
# Elastic Compliance Matrix: (Units=1/GPa)
#
#
# Indices 1 2 3 4 5 6 
#
# 1 0.012818 -0.000427 -0.005152 -0.002562 0.001582 -0.011236
# 2 -0.000427 0.011479 -0.004846 -0.001534 0.001436 -0.006737
# 3 -0.005152 -0.004846 0.013633 -0.001339 0.000940 0.006196
# 4 -0.002562 -0.001534 -0.001339 0.017526 -0.006597 0.007064
# 5 0.001582 0.001436 0.000940 -0.006597 0.023191 -0.008735
# 6 -0.011236 -0.006737 0.006196 0.007064 -0.008735 0.046921
#
#
# Mechanical properties :
#
#
# Convention : Reuss Voigt Hill
#
# Bulk Modulus (GPa) = 58.54917 75.26556 66.90737
# Shear Modulus (GPa) = 32.87069 44.90747 38.88908
#
# Velocity S-wave (km/s) = 3.71267 4.33951 4.03827
# Velocity P-wave (km/s) = 6.55213 7.52795 7.05693
#
# Compressibility (1/GPa) = 0.01707966
#
# Stress axis : x y z
#
# Youngs Moduli (GPa) = 78.01510 87.11864 73.34901
#
# Poissons Ratio (x) = 0.03723 0.37789
# Poissons Ratio (y) = 0.03334 0.35544
# Poissons Ratio (z) = 0.40193 0.42217
#
# Static dielectric constant tensor:
#      x y z
#    x 1.951550 -0.048760 0.098300 
#    y -0.048760 1.949100 0.028880 
#    z 0.098300 0.028880 2.067690 
# 
# From -- ./inp_files/347728.got.cif
#   From: 2010.05.17/outbox.cif.g08.bks.cpg/sg2_174_cif.got.tgz:347728.got - 2010.06.03 11:33:40.
