data_PCOD9070959
_publ_section_title
;
Structure prediction by ZEFSAII (Michael W. Deem and Ramdas Pophale) SiO2 
 PCOD9070959
Probable space group: P -1
;
_chemical_formula_sum "Si O2"
_cell_formula_units_Z 16
_cell_length_a 18.905635
_cell_length_b 9.662583
_cell_length_c 13.434064
_cell_angle_alpha 40.160201
_cell_angle_beta 153.910129
_cell_angle_gamma 129.189502
_cell_volume 683.083076
_symmetry_space_group_name_H-M "P -1"
_symmetry_group_IT_number 2
_symmetry_cell_setting 'triclinic'
loop_
_space_group_symop_operation_xyz
x,y,z
-x,-y,-z
loop_
_atom_site_type_symbol
_atom_site_label
_atom_site_fract_x
_atom_site_fract_y
_atom_site_fract_z
Si Si1 0.615679 0.952063 0.917953
Si Si2 0.724277 0.977884 0.837903
Si Si3 0.688723 0.185254 0.464295
Si Si4 0.848291 0.649893 0.671298
Si Si5 0.882053 0.572808 0.523441
Si Si6 0.893283 0.059541 0.617762
Si Si7 0.767453 0.488351 0.100692
Si Si8 0.493975 0.637306 0.315128
O O1 0.624389 0.074591 0.756191
O O2 0.483456 0.798317 0.817932
O O3 0.564001 0.113413 0.855609
O O4 0.792796 0.802882 0.238555
O O5 0.676754 0.101648 0.606995
O O6 0.706807 0.726186 0.940401
O O7 0.914814 0.974956 0.100379
O O8 0.773136 0.393554 0.460480
O O9 0.809118 0.013578 0.640744
O O10 0.876287 0.605953 0.615332
O O11 0.673200 0.606317 0.509852
O O12 0.854995 0.896325 0.575032
O O13 0.000000 0.500000 0.000000
O O14 0.064321 0.503947 0.749910
O O15 0.817693 0.302748 0.350088
O O16 0.635063 0.423718 0.893350
O O17 0.500000 0.500000 0.500000
#
# Coordination Sequence:
#
# PCOD9070959 Si02
#       8
#     2   2   2   2   2   2   2   2
#     4  12  27  48  72 106 149 191 240 292 362 421
#     4  12  26  46  75 107 145 195 236 295 361 424
#     4  12  26  46  74 106 147 189 243 299 351 424
#     4  12  29  48  76 107 141 189 242 295 361 427
#     4  12  27  46  74 109 145 192 239 295 357 427
#     4  12  25  48  75 101 148 191 239 296 353 428
#     4  12  27  47  74 109 148 188 239 294 362 423
#     4  12  29  48  74 107 147 186 239 300 358 428
#
# _framework density 23.423211999999999
#
# number of rings (size 3 to 8) (size 9 to 14) (size 15 to 20)
#    0.000    0.000    3.750    5.250   10.500    2.000 
#    0.000    0.000    0.000    0.000    0.000    0.000 
#    0.000    0.000    0.000    0.000    0.000    0.000 
#
# Total GULP energy -89727.855107 kJ/mol
# GULP energy per Si atom -5607.990944 kJ/mol
# Density = 2.336990 g / cm^3
# Si number density = 23.423212 Si / 1000 Ang^3
#
#
#
# Elastic Constant Matrix: (Units=GPa)
#
#
# Indices 1 2 3 4 5 6 
#
# 1 122.0664 18.9924 16.8402 9.8879 10.0767 -17.2343
# 2 18.9924 100.4377 15.4032 15.3494 4.4043 -8.6569
# 3 16.8402 15.4032 75.3233 22.6253 14.3124 12.0414
# 4 9.8879 15.3494 22.6253 44.0495 2.4888 -1.1254
# 5 10.0767 4.4043 14.3124 2.4888 38.4152 6.1166
# 6 -17.2343 -8.6569 12.0414 -1.1254 6.1166 32.5929
#
#
#
# Elastic Compliance Matrix: (Units=1/GPa)
#
#
# Indices 1 2 3 4 5 6 
#
# 1 0.009785 -0.000760 -0.002451 -0.000366 -0.002553 0.006344
# 2 -0.000760 0.011078 -0.001639 -0.002721 -0.000794 0.003201
# 3 -0.002451 -0.001639 0.018852 -0.008525 -0.004338 -0.008177
# 4 -0.000366 -0.002721 -0.008525 0.028114 0.001291 0.002962
# 5 -0.002553 -0.000794 -0.004338 0.001291 0.029183 -0.005390
# 6 0.006344 0.003201 -0.008177 0.002962 -0.005390 0.039021
#
#
# Mechanical properties :
#
#
# Convention : Reuss Voigt Hill
#
# Bulk Modulus (GPa) = 33.31777 44.47768 38.89772
# Shear Modulus (GPa) = 32.10542 39.45096 35.77819
#
# Velocity S-wave (km/s) = 3.70627 4.10844 3.91252
# Velocity P-wave (km/s) = 5.70705 6.44481 6.08712
#
# Compressibility (1/GPa) = 0.03001401
#
# Stress axis : x y z
#
# Youngs Moduli (GPa) = 102.19969 90.26883 53.04590
#
# Poissons Ratio (x) = 0.06857 0.13004
# Poissons Ratio (y) = 0.07763 0.08695
# Poissons Ratio (z) = 0.25053 0.14797
#
# Static dielectric constant tensor:
#      x y z
#    x 1.877790 0.011680 -0.019760 
#    y 0.011680 1.887970 -0.028610 
#    z -0.019760 -0.028610 1.866920 
# 
# From -- ./inp_files/299205.got.cif
#   From: 2010.05.17/outbox.cif.g08.bks.cpg/sg2_150_cif.got.tgz:299205.got - 2010.06.03 11:33:40.
