data_PCOD9070835
_publ_section_title
;
Structure prediction by ZEFSAII (Michael W. Deem and Ramdas Pophale) SiO2 
 PCOD9070835
Probable space group: P -1
;
_chemical_formula_sum "Si O2"
_cell_formula_units_Z 16
_cell_length_a 20.309210
_cell_length_b 8.926243
_cell_length_c 13.122245
_cell_angle_alpha 113.166103
_cell_angle_beta 159.350956
_cell_angle_gamma 74.997872
_cell_volume 726.123702
_symmetry_space_group_name_H-M "P -1"
_symmetry_group_IT_number 2
_symmetry_cell_setting 'triclinic'
loop_
_space_group_symop_operation_xyz
x,y,z
-x,-y,-z
loop_
_atom_site_type_symbol
_atom_site_label
_atom_site_fract_x
_atom_site_fract_y
_atom_site_fract_z
Si Si1 0.290720 0.514520 0.190142
Si Si2 0.031164 0.846134 0.434179
Si Si3 0.283842 0.971090 0.634920
Si Si4 0.078798 0.143018 0.238818
Si Si5 0.290229 0.845784 0.159553
Si Si6 0.432719 0.458290 0.772137
Si Si7 0.193159 0.653617 0.775914
Si Si8 0.226708 0.620835 0.352664
O O1 0.500000 0.500000 0.500000
O O2 0.298188 0.660001 0.157072
O O3 0.261762 0.591526 0.277820
O O4 0.155520 0.320160 0.913028
O O5 0.138036 0.931061 0.508780
O O6 0.157475 0.738734 0.642139
O O7 0.000000 0.000000 0.500000
O O8 0.235088 0.811759 0.444129
O O9 0.238874 0.116258 0.542641
O O10 0.500000 0.000000 0.000000
O O11 0.210899 0.318557 0.423094
O O12 0.883089 0.131779 0.015931
O O13 0.000000 0.000000 0.000000
O O14 0.500000 0.000000 0.500000
O O15 0.222512 0.812236 0.937114
O O16 0.382702 0.584628 0.649664
O O17 0.500000 0.500000 0.000000
O O18 0.610958 0.400705 0.967287
O O19 0.000000 0.500000 0.500000
O O20 0.000000 0.500000 0.000000
#
# Coordination Sequence:
#
# PCOD9070835 Si02
#       8
#     2   2   2   2   2   2   2   2
#     4  12  28  47  74 109 150 194 252 305 373 445
#     4  12  28  48  74 106 151 199 247 308 372 443
#     4  12  27  47  73 109 149 193 245 304 369 441
#     4  12  26  47  72 106 146 189 244 298 367 440
#     4  12  27  47  76 108 147 194 245 308 374 442
#     4  12  26  46  75 107 143 194 242 300 367 439
#     4  12  25  47  72 106 148 191 249 301 368 443
#     4  12  25  47  78 106 147 193 246 305 370 438
#
# _framework density 22.034814999999998
#
# number of rings (size 3 to 8) (size 9 to 14) (size 15 to 20)
#    0.000    0.000    2.500    7.500    5.250    0.000 
#    0.000    0.000    0.000    0.000    0.000    0.000 
#    0.000    0.000    0.000    0.000    0.000    0.000 
#
# Total GULP energy -89303.872784 kJ/mol
# GULP energy per Si atom -5581.492049 kJ/mol
# Density = 2.198466 g / cm^3
# Si number density = 22.034815 Si / 1000 Ang^3
#
#
#
# Elastic Constant Matrix: (Units=GPa)
#
#
# Indices 1 2 3 4 5 6 
#
# 1 91.0981 21.0917 30.3932 7.6957 5.9949 -18.7586
# 2 21.0917 84.3084 21.0651 -7.0296 6.7343 0.6920
# 3 30.3932 21.0651 122.6364 9.0989 -0.4431 -22.4068
# 4 7.6957 -7.0296 9.0989 49.5336 -3.4273 -8.0787
# 5 5.9949 6.7343 -0.4431 -3.4273 42.9022 -7.6075
# 6 -18.7586 0.6920 -22.4068 -8.0787 -7.6075 52.6318
#
#
#
# Elastic Compliance Matrix: (Units=1/GPa)
#
#
# Indices 1 2 3 4 5 6 
#
# 1 0.013243 -0.002894 -0.002028 -0.001585 -0.000920 0.003518
# 2 -0.002894 0.013483 -0.002150 0.002291 -0.001915 -0.002049
# 3 -0.002028 -0.002150 0.009747 -0.001130 0.001245 0.003462
# 4 -0.001585 0.002291 -0.001130 0.021517 0.002016 0.002518
# 5 -0.000920 -0.001915 0.001245 0.002016 0.024638 0.004098
# 6 0.003518 -0.002049 0.003462 0.002518 0.004098 0.022733
#
#
# Mechanical properties :
#
#
# Convention : Reuss Voigt Hill
#
# Bulk Modulus (GPa) = 44.78437 49.23810 47.01124
# Shear Modulus (GPa) = 39.38604 44.04640 41.71622
#
# Velocity S-wave (km/s) = 4.23241 4.47581 4.35581
# Velocity P-wave (km/s) = 6.65228 7.00747 6.83218
#
# Compressibility (1/GPa) = 0.02232922
#
# Stress axis : x y z
#
# Youngs Moduli (GPa) = 75.51356 74.16628 102.59747
#
# Poissons Ratio (x) = 0.21463 0.20804
# Poissons Ratio (y) = 0.21853 0.22059
# Poissons Ratio (z) = 0.15312 0.15946
#
# Static dielectric constant tensor:
#      x y z
#    x 1.757220 0.039040 0.032690 
#    y 0.039040 1.798190 0.023260 
#    z 0.032690 0.023260 1.965570 
# 
# From -- ./inp_files/540547.got.cif
#   From: 2010.05.17/outbox.cif.g08.bks.cpg/sg2_271_cif.got.tgz:540547.got - 2010.06.03 11:33:40.
