data_PCOD9071145
_publ_section_title
;
Structure prediction by ZEFSAII (Michael W. Deem and Ramdas Pophale) SiO2 
 PCOD9071145
Probable space group: P -1
;
_chemical_formula_sum "Si O2"
_cell_formula_units_Z 12
_cell_length_a 10.626493
_cell_length_b 12.720588
_cell_length_c 7.861615
_cell_angle_alpha 149.122679
_cell_angle_beta 121.066641
_cell_angle_gamma 58.663574
_cell_volume 459.898562
_symmetry_space_group_name_H-M "P -1"
_symmetry_group_IT_number 2
_symmetry_cell_setting 'triclinic'
loop_
_space_group_symop_operation_xyz
x,y,z
-x,-y,-z
loop_
_atom_site_type_symbol
_atom_site_label
_atom_site_fract_x
_atom_site_fract_y
_atom_site_fract_z
Si Si1 0.080948 0.651077 0.648596
Si Si2 0.392930 0.624425 0.735987
Si Si3 0.348274 0.419117 0.896882
Si Si4 0.095136 0.280672 0.712353
Si Si5 0.220747 0.880546 0.355163
Si Si6 0.543310 0.951548 0.764902
O O1 0.236441 0.544838 0.521848
O O2 0.356567 0.267691 0.527876
O O3 0.000000 0.500000 0.500000
O O4 0.976094 0.757167 0.573249
O O5 0.500000 0.500000 0.500000
O O6 0.485004 0.587534 0.925300
O O7 0.380506 0.863912 0.001426
O O8 0.260647 0.311426 0.825804
O O9 0.742894 0.344427 0.840035
O O10 0.615940 0.058517 0.445324
O O11 0.109600 0.100405 0.614233
O O12 0.000000 0.500000 0.000000
O O13 0.147594 0.812101 0.037385
O O14 0.500000 0.000000 0.000000
#
# Coordination Sequence:
#
# PCOD9071145 Si02
#       6
#     2   2   2   2   2   2
#     4  12  27  51  79 115 166 219 261 332 417 487
#     4  12  26  49  83 120 161 213 279 341 406 485
#     4  12  25  51  80 117 164 210 273 345 401 488
#     4  12  28  51  78 116 164 213 271 335 408 495
#     4  12  26  49  84 113 161 212 273 333 416 476
#     4  12  27  47  84 125 160 208 280 348 411 478
#
# _framework density 26.092711000000001
#
# number of rings (size 3 to 8) (size 9 to 14) (size 15 to 20)
#    0.000    0.000    5.000    4.500    2.333    0.667 
#    0.000    0.000    0.000    0.000    0.000    0.000 
#    0.000    0.000    0.000    0.000    0.000    0.000 
#
# Total GULP energy -67055.845040 kJ/mol
# GULP energy per Si atom -5587.987087 kJ/mol
# Density = 2.603332 g / cm^3
# Si number density = 26.092711 Si / 1000 Ang^3
#
#
#
# Elastic Constant Matrix: (Units=GPa)
#
#
# Indices 1 2 3 4 5 6 
#
# 1 159.7190 41.6552 56.7754 19.6024 24.1437 8.0415
# 2 41.6552 151.9654 53.4418 44.0477 21.3229 10.6710
# 3 56.7754 53.4418 119.5054 19.5791 -6.8709 5.8383
# 4 19.6024 44.0477 19.5791 46.8136 -9.8607 13.6535
# 5 24.1437 21.3229 -6.8709 -9.8607 35.7021 -3.3103
# 6 8.0415 10.6710 5.8383 13.6535 -3.3103 39.0808
#
#
#
# Elastic Compliance Matrix: (Units=1/GPa)
#
#
# Indices 1 2 3 4 5 6 
#
# 1 0.010126 0.002835 -0.005595 -0.006822 -0.011559 -0.000618
# 2 0.002835 0.015098 -0.006398 -0.016387 -0.016639 0.000566
# 3 -0.005595 -0.006398 0.013725 0.005056 0.011649 0.000068
# 4 -0.006822 -0.016387 0.005056 0.045750 0.027216 -0.008555
# 5 -0.011559 -0.016639 0.011649 0.027216 0.055558 0.000379
# 6 -0.000618 0.000566 0.000068 -0.008555 0.000379 0.028571
#
#
# Mechanical properties :
#
#
# Convention : Reuss Voigt Hill
#
# Bulk Modulus (GPa) = 48.46737 81.65941 65.06339
# Shear Modulus (GPa) = 25.77001 42.94047 34.35524
#
# Velocity S-wave (km/s) = 3.14607 4.06111 3.63252
# Velocity P-wave (km/s) = 5.64025 7.30438 6.52558
#
# Compressibility (1/GPa) = 0.02063244
#
# Stress axis : x y z
#
# Youngs Moduli (GPa) = 98.75245 66.23275 72.85871
#
# Poissons Ratio (x) = -0.18774 0.40766
# Poissons Ratio (y) = -0.27992 0.46615
# Poissons Ratio (z) = 0.55254 0.42376
#
# Static dielectric constant tensor:
#      x y z
#    x 2.063980 0.025930 -0.079830 
#    y 0.025930 2.091960 0.017930 
#    z -0.079830 0.017930 2.125050 
# 
# From -- ./inp_files/266311.got.cif
#   From: 2010.05.17/outbox.cif.g08.bks.cpg/sg2_134_cif.got.tgz:266311.got - 2010.06.03 11:33:40.
