data_PCOD9071832
_publ_section_title
;
Structure prediction by ZEFSAII (Michael W. Deem and Ramdas Pophale) SiO2 
 PCOD9071832
Probable space group: P -1
;
_chemical_formula_sum "Si O2"
_cell_formula_units_Z 14
_cell_length_a 7.452107
_cell_length_b 12.596342
_cell_length_c 10.465246
_cell_angle_alpha 129.402074
_cell_angle_beta 85.461148
_cell_angle_gamma 128.796521
_cell_volume 502.057071
_symmetry_space_group_name_H-M "P -1"
_symmetry_group_IT_number 2
_symmetry_cell_setting 'triclinic'
loop_
_space_group_symop_operation_xyz
x,y,z
-x,-y,-z
loop_
_atom_site_type_symbol
_atom_site_label
_atom_site_fract_x
_atom_site_fract_y
_atom_site_fract_z
Si Si1 0.845892 0.874659 0.106988
Si Si2 0.321970 0.343406 0.506935
Si Si3 0.307555 0.999091 0.086267
Si Si4 0.138488 0.689550 0.301132
Si Si5 0.794122 0.753731 0.291450
Si Si6 0.833540 0.450929 0.349517
Si Si7 0.520371 0.088680 0.770827
O O1 0.129596 0.106798 0.308536
O O2 0.988386 0.859124 0.977089
O O3 0.648563 0.895789 0.122274
O O4 0.725282 0.731738 0.129480
O O5 0.500000 0.500000 0.500000
O O6 0.415191 0.371942 0.670864
O O7 0.133054 0.369631 0.540908
O O8 0.522531 0.244374 0.239311
O O9 0.318329 0.929446 0.168282
O O10 0.500000 0.000000 0.000000
O O11 0.347129 0.886832 0.535391
O O12 0.954288 0.702844 0.258881
O O13 0.970023 0.480264 0.232095
O O14 0.307117 0.727204 0.201297
O O15 0.000000 0.000000 0.500000
O O16 0.000000 0.500000 0.500000
#
# Coordination Sequence:
#
# PCOD9071832 Si02
#       7
#     2   2   2   2   2   2   2
#     4  11  20  37  59  85 123 157 199 246 297 358
#     4  10  18  29  53  88 116 148 185 242 308 343
#     4  12  26  41  61  86 123 169 201 243 303 362
#     4  10  19  32  60  93 119 148 198 252 303 353
#     4   9  16  29  50  86 116 145 188 240 306 345
#     4  11  20  37  59  89 124 150 198 255 298 346
#     4  11  21  36  60  92 118 154 204 242 305 362
#
# _framework density 27.885275
#
# number of rings (size 3 to 8) (size 9 to 14) (size 15 to 20)
#    0.000    1.429    8.571    0.000    0.000    1.714 
#    0.000    0.714    0.000    0.857    0.000    0.000 
#    0.000    0.000    0.000    0.000    0.000    0.000 
#
# Total GULP energy -77988.096890 kJ/mol
# GULP energy per Si atom -5570.578349 kJ/mol
# Density = 2.782181 g / cm^3
# Si number density = 27.885275 Si / 1000 Ang^3
#
#
#
# Elastic Constant Matrix: (Units=GPa)
#
#
# Indices 1 2 3 4 5 6 
#
# 1 121.7709 52.2412 22.7846 -10.4864 -19.1885 3.0622
# 2 52.2412 246.2727 35.4877 -29.4993 1.6305 26.4688
# 3 22.7846 35.4877 55.9371 2.0192 -0.1087 -3.9598
# 4 -10.4864 -29.4993 2.0192 31.5120 -4.8807 -2.3466
# 5 -19.1885 1.6305 -0.1087 -4.8807 27.5736 -5.2229
# 6 3.0622 26.4688 -3.9598 -2.3466 -5.2229 58.6031
#
#
#
# Elastic Compliance Matrix: (Units=1/GPa)
#
#
# Indices 1 2 3 4 5 6 
#
# 1 0.011260 -0.001524 -0.003690 0.003973 0.008764 0.000791
# 2 -0.001524 0.005724 -0.003369 0.004703 -0.001080 -0.002641
# 3 -0.003690 -0.003369 0.021921 -0.006025 -0.002837 0.002702
# 4 0.003973 0.004703 -0.006025 0.039268 0.009351 -0.000333
# 5 0.008764 -0.001080 -0.002837 0.009351 0.044871 0.004212
# 6 0.000791 -0.002641 0.002702 -0.000333 0.004212 0.018760
#
#
# Mechanical properties :
#
#
# Convention : Reuss Voigt Hill
#
# Bulk Modulus (GPa) = 46.00237 71.66752 58.83494
# Shear Modulus (GPa) = 30.08131 44.43555 37.25843
#
# Velocity S-wave (km/s) = 3.28800 3.99621 3.65928
# Velocity P-wave (km/s) = 5.56304 6.85927 6.24488
#
# Compressibility (1/GPa) = 0.02173801
#
# Stress axis : x y z
#
# Youngs Moduli (GPa) = 88.81273 174.71362 45.61826
#
# Poissons Ratio (x) = 0.26624 0.16833
# Poissons Ratio (y) = 0.13534 0.15370
# Poissons Ratio (z) = 0.32772 0.58867
#
# Static dielectric constant tensor:
#      x y z
#    x 1.909790 0.624230 0.068000 
#    y 0.624230 2.439190 -0.662550 
#    z 0.068000 -0.662550 2.468490 
# 
# From -- ./inp_files/391044.got.cif
#   From: 2010.05.17/outbox.cif.g08.bks.cpg/sg2_196_cif.got.tgz:391044.got - 2010.06.03 11:33:40.
