data_PCOD9071268
_publ_section_title
;
Structure prediction by ZEFSAII (Michael W. Deem and Ramdas Pophale) SiO2 
 PCOD9071268
Probable space group: P -1
;
_chemical_formula_sum "Si O2"
_cell_formula_units_Z 15
_cell_length_a 4.899208
_cell_length_b 18.147692
_cell_length_c 16.896122
_cell_angle_alpha 158.262847
_cell_angle_beta 69.243485
_cell_angle_gamma 108.024323
_cell_volume 519.388220
_symmetry_space_group_name_H-M "P -1"
_symmetry_group_IT_number 2
_symmetry_cell_setting 'triclinic'
loop_
_space_group_symop_operation_xyz
x,y,z
-x,-y,-z
loop_
_atom_site_type_symbol
_atom_site_label
_atom_site_fract_x
_atom_site_fract_y
_atom_site_fract_z
Si Si1 0.664146 0.778751 0.618337
Si Si2 0.745491 0.469046 0.008757
Si Si3 0.900806 0.739614 0.963479
Si Si4 0.229550 0.136301 0.071010
Si Si5 0.706681 0.293775 0.564060
Si Si6 0.718118 0.175932 0.850581
Si Si7 0.306199 0.936434 0.503681
Si Si8 0.500000 0.500000 0.500000
O O1 0.560708 0.734566 0.495562
O O2 0.573460 0.596395 0.500296
O O3 0.006096 0.815831 0.615459
O O4 0.490959 0.976384 0.864714
O O5 0.708559 0.383785 0.012602
O O6 0.500000 0.500000 0.000000
O O7 0.554620 0.109208 0.644977
O O8 0.962477 0.653000 0.179619
O O9 0.178198 0.780598 0.027889
O O10 0.920363 0.766118 0.894517
O O11 0.817117 0.516856 0.770497
O O12 0.618252 0.876493 0.160309
O O13 0.329287 0.316023 0.293299
O O14 0.000000 0.000000 0.000000
O O15 0.649099 0.225522 0.592582
O O16 0.987201 0.036988 0.650259
#
# Coordination Sequence:
#
# PCOD9071268 Si02
#       8
#     2   2   2   2   2   2   2   1
#     4  12  28  51  85 124 170 226 290 355 437 526
#     4  12  26  47  74 112 156 210 269 340 421 497
#     4  12  27  51  83 118 167 223 288 354 436 523
#     4  12  29  54  87 130 176 233 293 368 445 539
#     4  12  27  52  80 120 169 226 286 356 431 516
#     4  12  26  47  77 118 158 219 278 349 426 512
#     4  12  27  49  80 119 168 216 288 356 428 514
#     4  12  28  54  86 128 178 222 298 356 456 522
#
# _framework density 28.880132
#
# number of rings (size 3 to 8) (size 9 to 14) (size 15 to 20)
#    0.000    0.000    1.333    8.000    1.867    6.400 
#    0.000    0.000    0.000    0.000    0.000    0.000 
#    0.000    0.000    0.000    0.000    0.000    0.000 
#
# Total GULP energy -83795.146211 kJ/mol
# GULP energy per Si atom -5586.343081 kJ/mol
# Density = 2.881440 g / cm^3
# Si number density = 28.880132 Si / 1000 Ang^3
#
#
#
# Elastic Constant Matrix: (Units=GPa)
#
#
# Indices 1 2 3 4 5 6 
#
# 1 185.5936 73.8106 34.1749 5.9691 4.6245 5.0745
# 2 73.8106 266.4255 62.7761 56.6202 1.3233 -2.5840
# 3 34.1749 62.7761 124.6213 7.4333 18.2507 -1.6383
# 4 5.9691 56.6202 7.4333 62.5937 -7.8333 3.9864
# 5 4.6245 1.3233 18.2507 -7.8333 39.7437 7.0468
# 6 5.0745 -2.5840 -1.6383 3.9864 7.0468 53.8445
#
#
#
# Elastic Compliance Matrix: (Units=1/GPa)
#
#
# Indices 1 2 3 4 5 6 
#
# 1 0.006243 -0.001774 -0.000919 0.001186 0.000131 -0.000806
# 2 -0.001774 0.005786 -0.002111 -0.004877 -0.000112 0.000756
# 3 -0.000919 -0.002111 0.010004 0.000187 -0.004534 0.000869
# 4 0.001186 -0.004877 0.000187 0.020975 0.004513 -0.002484
# 5 0.000131 -0.000112 -0.004534 0.004513 0.028878 -0.004269
# 6 -0.000806 0.000756 0.000869 -0.002484 -0.004269 0.019453
#
#
# Mechanical properties :
#
#
# Convention : Reuss Voigt Hill
#
# Bulk Modulus (GPa) = 80.47748 102.01817 91.24783
# Shear Modulus (GPa) = 47.57791 58.29498 52.93644
#
# Velocity S-wave (km/s) = 4.06325 4.49766 4.28597
# Velocity P-wave (km/s) = 7.06682 7.89768 7.49377
#
# Compressibility (1/GPa) = 0.01242584
#
# Stress axis : x y z
#
# Youngs Moduli (GPa) = 160.16983 172.81747 99.95755
#
# Poissons Ratio (x) = 0.30650 0.09189
# Poissons Ratio (y) = 0.28407 0.21104
# Poissons Ratio (z) = 0.14725 0.36486
#
# Static dielectric constant tensor:
#      x y z
#    x 2.088440 0.177420 -0.112320 
#    y 0.177420 1.872620 -0.092280 
#    z -0.112320 -0.092280 2.628570 
# 
# From -- ./inp_files/584217.got.cif
#   From: 2010.05.17/outbox.cif.g08.bks.cpg/sg2_293_cif.got.tgz:584217.got - 2010.06.03 11:33:40.
