data_PCOD9071865
_publ_section_title
;
Structure prediction by ZEFSAII (Michael W. Deem and Ramdas Pophale) SiO2 
 PCOD9071865
Probable space group: P -1
;
_chemical_formula_sum "Si O2"
_cell_formula_units_Z 16
_cell_length_a 12.000000
_cell_length_b 9.000000
_cell_length_c 15.000000
_cell_angle_alpha 140.000000
_cell_angle_beta 120.000000
_cell_angle_gamma 60.000000
_cell_volume 881.670222
_symmetry_space_group_name_H-M "P -1"
_symmetry_group_IT_number 2
_symmetry_cell_setting 'triclinic'
loop_
_space_group_symop_operation_xyz
x,y,z
-x,-y,-z
loop_
_atom_site_type_symbol
_atom_site_label
_atom_site_fract_x
_atom_site_fract_y
_atom_site_fract_z
Si Si1 0.346756 0.535697 0.301193
Si Si2 0.860283 0.057284 0.807454
Si Si3 0.362636 0.477148 0.639266
Si Si4 0.859433 0.073361 0.225472
Si Si5 0.842243 0.553617 0.973896
Si Si6 0.990493 0.209175 0.522115
Si Si7 0.760828 0.644597 0.654491
Si Si8 0.262725 0.071853 0.489626
O O1 0.492516 0.473844 0.290509
O O2 0.237253 0.487649 0.165571
O O3 0.330648 0.390841 0.316508
O O4 0.318200 0.818349 0.439844
O O5 0.822402 0.341056 0.933782
O O6 0.801791 0.896921 0.779849
O O7 0.795928 0.995654 0.659557
O O8 0.018675 0.975799 0.818762
O O9 0.257770 0.703168 0.738100
O O10 0.308529 0.415595 0.492207
O O11 0.362537 0.242267 0.589395
O O12 0.925184 0.135177 0.371990
O O13 0.807848 0.831636 0.109225
O O14 0.000000 0.500000 0.000000
O O15 0.896585 0.448410 0.627506
O O16 0.138700 0.221407 0.562017
O O17 0.000000 0.000000 0.500000
#
# Coordination Sequence:
#
# PCOD9071865 Si02
#       8
#     2   2   2   2   2   2   2   2
#     4  11  20  32  51  74 103 136 164 198 244 300
#     4   8  16  32  53  74  96 129 162 211 247 282
#     4  10  20  32  50  75 104 135 161 199 246 300
#     4   9  18  33  52  72  98 131 169 199 246 294
#     4   9  19  35  55  70  94 133 175 206 240 285
#     4  10  17  29  53  78 100 124 158 212 256 283
#     4  10  19  31  51  78 106 124 159 208 257 289
#     4   9  17  31  50  76 100 127 169 201 244 295
#
# _framework density 18.147375
#
# number of rings (size 3 to 8) (size 9 to 14) (size 15 to 20)
#    0.000    2.500    1.250    2.250    0.000    3.500 
#    0.000    2.500    2.750    0.750    0.000    0.000 
#    0.000    0.000    0.000    0.000    0.000    0.000 
#
# Total GULP energy -89155.786296 kJ/mol
# GULP energy per Si atom -5572.236643 kJ/mol
# Density = 1.810607 g / cm^3
# Si number density = 18.147375 Si / 1000 Ang^3
#
#
#
# Elastic Constant Matrix: (Units=GPa)
#
#
# Indices 1 2 3 4 5 6 
#
# 1 82.0428 19.0478 21.4794 8.9766 20.7544 21.7536
# 2 19.0478 55.8231 17.3167 19.3065 18.5481 18.7040
# 3 21.4794 17.3167 41.4710 25.5917 16.4170 4.3775
# 4 8.9766 19.3065 25.5917 28.6702 6.0553 11.2939
# 5 20.7544 18.5481 16.4170 6.0553 17.2478 7.0935
# 6 21.7536 18.7040 4.3775 11.2939 7.0935 30.4092
#
#
#
# Elastic Compliance Matrix: (Units=1/GPa)
#
#
# Indices 1 2 3 4 5 6 
#
# 1 0.021385 0.002857 -0.011233 0.010926 -0.015409 -0.015902
# 2 0.002857 0.048568 0.044413 -0.057166 -0.078365 0.001201
# 3 -0.011233 0.044413 0.178291 -0.173234 -0.167139 0.058380
# 4 0.010926 -0.057166 -0.173234 0.215933 0.164688 -0.066330
# 5 -0.015409 -0.078365 -0.167139 0.164688 0.279809 -0.043152
# 6 -0.015902 0.001201 0.058380 -0.066330 -0.043152 0.069818
#
#
# Mechanical properties :
#
#
# Convention : Reuss Voigt Hill
#
# Bulk Modulus (GPa) = 3.12190 32.78052 17.95121
# Shear Modulus (GPa) = 5.89271 23.36499 14.62885
#
# Velocity S-wave (km/s) = 1.80394 3.59209 2.84229
# Velocity P-wave (km/s) = 2.46231 5.94195 4.54806
#
# Compressibility (1/GPa) = 0.32031802
#
# Stress axis : x y z
#
# Youngs Moduli (GPa) = 46.76101 20.58948 5.60879
#
# Poissons Ratio (x) = -0.05882 0.06300
# Poissons Ratio (y) = -0.13358 -0.24910
# Poissons Ratio (z) = 0.52527 -0.91444
#
# Static dielectric constant tensor:
#      x y z
#    x 1.630530 0.010710 0.002190 
#    y 0.010710 1.650290 0.015810 
#    z 0.002190 0.015810 1.606750 
# 
# From -- ./inp_files/186935.got.cif
#   From: 2010.05.17/outbox.ucp.g08.bks.cvg/sg2_94_cif.got.tgz:186935.got - 2010.06.11 11:32:03.
