data_PCOD9071234
_publ_section_title
;
Structure prediction by ZEFSAII (Michael W. Deem and Ramdas Pophale) SiO2 
 PCOD9071234
Probable space group: P -1
;
_chemical_formula_sum "Si O2"
_cell_formula_units_Z 13
_cell_length_a 11.982794
_cell_length_b 9.399123
_cell_length_c 9.530538
_cell_angle_alpha 136.068087
_cell_angle_beta 103.177212
_cell_angle_gamma 51.976442
_cell_volume 539.070235
_symmetry_space_group_name_H-M "P -1"
_symmetry_group_IT_number 2
_symmetry_cell_setting 'triclinic'
loop_
_space_group_symop_operation_xyz
x,y,z
-x,-y,-z
loop_
_atom_site_type_symbol
_atom_site_label
_atom_site_fract_x
_atom_site_fract_y
_atom_site_fract_z
Si Si1 0.150073 0.883856 0.627055
Si Si2 0.839356 0.731248 0.284274
Si Si3 0.125606 0.165111 0.068027
Si Si4 0.851607 0.002787 0.734195
Si Si5 0.516182 0.948989 0.302270
Si Si6 0.500000 0.500000 0.000000
Si Si7 0.647355 0.728300 0.769433
O O1 0.277304 0.577004 0.381088
O O2 0.123660 0.110305 0.681479
O O3 0.992046 0.953307 0.664533
O O4 0.209679 0.900232 0.805199
O O5 0.691117 0.807883 0.224984
O O6 0.971485 0.407650 0.112300
O O7 0.814936 0.849095 0.517690
O O8 0.220513 0.260074 0.174049
O O9 0.094139 0.120918 0.182392
O O10 0.689161 0.312474 0.920935
O O11 0.500000 0.000000 0.500000
O O12 0.406614 0.223040 0.372977
O O13 0.475264 0.764875 0.123746
O O14 0.500000 0.000000 0.000000
#
# Coordination Sequence:
#
# PCOD9071234 Si02
#       7
#     2   2   2   2   2   1   2
#     4  12  29  48  80 111 158 207 252 316 392 455
#     4  12  26  50  79 112 157 204 257 314 386 460
#     4  12  26  50  77 111 150 207 261 314 376 461
#     4  12  26  47  79 113 153 200 257 317 380 453
#     4  12  27  47  76 112 153 197 255 322 376 453
#     4  12  26  46  76 112 152 194 252 314 384 442
#     4  12  29  48  75 112 159 199 257 320 383 456
#
# _framework density 24.115596
#
# number of rings (size 3 to 8) (size 9 to 14) (size 15 to 20)
#    0.000    0.000    4.615    3.692    6.462    2.462 
#    0.000    0.000    0.000    0.000    0.000    0.000 
#    0.000    0.000    0.000    0.000    0.000    0.000 
#
# Total GULP energy -72541.347137 kJ/mol
# GULP energy per Si atom -5580.103626 kJ/mol
# Density = 2.406071 g / cm^3
# Si number density = 24.115596 Si / 1000 Ang^3
#
#
#
# Elastic Constant Matrix: (Units=GPa)
#
#
# Indices 1 2 3 4 5 6 
#
# 1 89.3284 20.5618 22.4314 10.2561 -1.1402 0.4046
# 2 20.5618 69.7525 26.0675 7.5440 -9.8833 0.0550
# 3 22.4314 26.0675 55.3544 -7.5634 -6.4062 10.5742
# 4 10.2561 7.5440 -7.5634 43.5673 -6.0589 2.3169
# 5 -1.1402 -9.8833 -6.4062 -6.0589 31.5809 -3.8921
# 6 0.4046 0.0550 10.5742 2.3169 -3.8921 40.3212
#
#
#
# Elastic Compliance Matrix: (Units=1/GPa)
#
#
# Indices 1 2 3 4 5 6 
#
# 1 0.013468 -0.001621 -0.005757 -0.004219 -0.001821 0.001444
# 2 -0.001621 0.019177 -0.009085 -0.004164 0.003667 0.002966
# 3 -0.005757 -0.009085 0.027634 0.008575 0.003294 -0.007352
# 4 -0.004219 -0.004164 0.008575 0.027034 0.005068 -0.003265
# 5 -0.001821 0.003667 0.003294 0.005068 0.034659 0.002204
# 6 0.001444 0.002966 -0.007352 -0.003265 0.002204 0.027111
#
#
# Mechanical properties :
#
#
# Convention : Reuss Voigt Hill
#
# Bulk Modulus (GPa) = 36.56033 39.17296 37.86664
# Shear Modulus (GPa) = 26.16063 32.78552 29.47307
#
# Velocity S-wave (km/s) = 3.29721 3.69116 3.49973
# Velocity P-wave (km/s) = 5.44874 5.86901 5.66278
#
# Compressibility (1/GPa) = 0.02735205
#
# Stress axis : x y z
#
# Youngs Moduli (GPa) = 74.24903 52.14554 36.18755
#
# Poissons Ratio (x) = 0.08455 0.20834
# Poissons Ratio (y) = 0.12039 0.32876
# Poissons Ratio (z) = 0.42746 0.47374
#
# Static dielectric constant tensor:
#      x y z
#    x 1.911740 -0.004540 -0.041580 
#    y -0.004540 1.875980 -0.030370 
#    z -0.041580 -0.030370 2.000490 
# 
# From -- ./inp_files/188300.got.cif
#   From: 2010.05.17/outbox.cif.g08.bks.cpg/sg2_95_cif.got.tgz:188300.got - 2010.06.03 11:33:40.
