data_PCOD9071017
_publ_section_title
;
Structure prediction by ZEFSAII (Michael W. Deem and Ramdas Pophale) SiO2 
 PCOD9071017
Probable space group: P -1
;
_chemical_formula_sum "Si O2"
_cell_formula_units_Z 13
_cell_length_a 11.928492
_cell_length_b 21.378058
_cell_length_c 5.055823
_cell_angle_alpha 131.398208
_cell_angle_beta 60.247355
_cell_angle_gamma 148.186823
_cell_volume 502.738552
_symmetry_space_group_name_H-M "P -1"
_symmetry_group_IT_number 2
_symmetry_cell_setting 'triclinic'
loop_
_space_group_symop_operation_xyz
x,y,z
-x,-y,-z
loop_
_atom_site_type_symbol
_atom_site_label
_atom_site_fract_x
_atom_site_fract_y
_atom_site_fract_z
Si Si1 0.000000 0.000000 0.500000
Si Si2 0.394845 0.170520 0.679891
Si Si3 0.181895 0.205549 0.384378
Si Si4 0.922468 0.682691 0.434208
Si Si5 0.661517 0.487369 0.684340
Si Si6 0.746310 0.364747 0.430227
Si Si7 0.385613 0.858005 0.331100
O O1 0.228811 0.069503 0.352726
O O2 0.064478 0.107704 0.500783
O O3 0.610370 0.319666 0.718224
O O4 0.462397 0.122758 0.618157
O O5 0.241135 0.162269 0.979838
O O6 0.054544 0.210337 0.388016
O O7 0.404888 0.365777 0.660479
O O8 0.763748 0.588411 0.602567
O O9 0.152713 0.761437 0.456190
O O10 0.806597 0.579188 0.028816
O O11 0.672162 0.392104 0.373340
O O12 0.000000 0.500000 0.500000
O O13 0.678201 0.235364 0.095611
O O14 0.500000 0.000000 0.500000
#
# Coordination Sequence:
#
# PCOD9071017 Si02
#       7
#     1   2   2   2   2   2   2
#     4  12  26  46  78 110 160 216 274 330 424 496
#     4  12  26  50  79 114 162 216 280 338 418 507
#     4  12  27  48  79 119 163 214 277 345 419 495
#     4  12  29  49  81 122 168 216 277 349 419 492
#     4  12  25  49  80 120 160 216 276 342 413 497
#     4  12  25  48  83 117 159 217 277 342 420 497
#     4  12  28  50  76 116 163 217 276 344 420 500
#
# _framework density 25.858371999999999
#
# number of rings (size 3 to 8) (size 9 to 14) (size 15 to 20)
#    0.000    0.000    4.615    4.154    2.154    3.077 
#    0.000    0.000    0.000    0.000    0.000    0.000 
#    0.000    0.000    0.000    0.000    0.000    0.000 
#
# Total GULP energy -72598.050210 kJ/mol
# GULP energy per Si atom -5584.465401 kJ/mol
# Density = 2.579952 g / cm^3
# Si number density = 25.858372 Si / 1000 Ang^3
#
#
#
# Elastic Constant Matrix: (Units=GPa)
#
#
# Indices 1 2 3 4 5 6 
#
# 1 157.7346 32.0102 29.5853 -12.1568 -33.4639 -18.0750
# 2 32.0102 153.5281 46.6749 -11.5950 -12.7573 -28.9353
# 3 29.5853 46.6749 87.0506 15.1579 -10.3528 -13.7722
# 4 -12.1568 -11.5950 15.1579 36.1661 -4.8039 -4.2586
# 5 -33.4639 -12.7573 -10.3528 -4.8039 31.5098 -2.6692
# 6 -18.0750 -28.9353 -13.7722 -4.2586 -2.6692 64.1277
#
#
#
# Elastic Compliance Matrix: (Units=1/GPa)
#
#
# Indices 1 2 3 4 5 6 
#
# 1 0.010140 0.001056 -0.003314 0.007083 0.011490 0.003571
# 2 0.001056 0.009651 -0.005530 0.006863 0.004607 0.004112
# 3 -0.003314 -0.005530 0.017088 -0.010345 -0.001765 -0.000520
# 4 0.007083 0.006863 -0.010345 0.039051 0.013365 0.006021
# 5 0.011490 0.004607 -0.001765 0.013365 0.047923 0.007820
# 6 0.003571 0.004112 -0.000520 0.006021 0.007820 0.019070
#
#
# Mechanical properties :
#
#
# Convention : Reuss Voigt Hill
#
# Bulk Modulus (GPa) = 46.94345 68.31713 57.63029
# Shear Modulus (GPa) = 30.19335 45.69690 37.94513
#
# Velocity S-wave (km/s) = 3.42079 4.20837 3.83485
# Velocity P-wave (km/s) = 5.81342 7.07749 6.47637
#
# Compressibility (1/GPa) = 0.02130223
#
# Stress axis : x y z
#
# Youngs Moduli (GPa) = 98.62199 103.62124 58.52019
#
# Poissons Ratio (x) = -0.10945 0.19395
# Poissons Ratio (y) = -0.10417 0.32362
# Poissons Ratio (z) = 0.32686 0.57303
#
# Static dielectric constant tensor:
#      x y z
#    x 1.793080 -0.098050 -0.311120 
#    y -0.098050 1.898610 -0.224950 
#    z -0.311120 -0.224950 1.956870 
# 
# From -- ./inp_files/82896.got.cif
#   From: 2010.05.17/outbox.cif.g08.bks.cpg/sg2_42_cif.got.tgz:82896.got - 2010.06.03 11:33:40.
