data_PCOD9071222
_publ_section_title
;
Structure prediction by ZEFSAII (Michael W. Deem and Ramdas Pophale) SiO2 
 PCOD9071222
Probable space group: P -1
;
_chemical_formula_sum "Si O2"
_cell_formula_units_Z 12
_cell_length_a 8.541555
_cell_length_b 8.636081
_cell_length_c 12.035676
_cell_angle_alpha 97.299761
_cell_angle_beta 126.909302
_cell_angle_gamma 53.513344
_cell_volume 532.951812
_symmetry_space_group_name_H-M "P -1"
_symmetry_group_IT_number 2
_symmetry_cell_setting 'triclinic'
loop_
_space_group_symop_operation_xyz
x,y,z
-x,-y,-z
loop_
_atom_site_type_symbol
_atom_site_label
_atom_site_fract_x
_atom_site_fract_y
_atom_site_fract_z
Si Si1 0.609566 0.564774 0.463010
Si Si2 0.386723 0.148131 0.361492
Si Si3 0.288630 0.795276 0.136367
Si Si4 0.083513 0.132481 0.573950
Si Si5 0.101248 0.569870 0.956613
Si Si6 0.649813 0.811199 0.131257
O O1 0.500000 0.500000 0.500000
O O2 0.704331 0.648439 0.595062
O O3 0.386365 0.743582 0.301168
O O4 0.835323 0.372728 0.463735
O O5 0.144017 0.224974 0.191578
O O6 0.500000 0.000000 0.500000
O O7 0.636614 0.016160 0.377592
O O8 0.479223 0.810179 0.150979
O O9 0.282014 0.614153 0.083377
O O10 0.000000 0.000000 0.000000
O O11 0.148771 0.172956 0.725282
O O12 0.000000 0.000000 0.500000
O O13 0.240254 0.387960 0.911269
O O14 0.000000 0.500000 0.000000
O O15 0.500000 0.000000 0.000000
#
# Coordination Sequence:
#
# PCOD9071222 Si02
#       6
#     2   2   2   2   2   2
#     4  12  26  48  76 110 149 194 252 312 372 444
#     4  12  26  46  74 109 146 190 244 312 372 445
#     4  12  28  49  75 111 152 199 253 306 377 451
#     4  12  27  46  77 109 146 196 254 305 380 442
#     4  12  26  49  76 109 151 197 249 309 377 448
#     4  12  28  48  75 110 152 199 252 312 374 446
#
# _framework density 22.516107000000002
#
# number of rings (size 3 to 8) (size 9 to 14) (size 15 to 20)
#    0.000    0.000    3.333    6.500    7.000    2.667 
#    0.000    0.000    0.000    0.000    0.000    0.000 
#    0.000    0.000    0.000    0.000    0.000    0.000 
#
# Total GULP energy -66930.504722 kJ/mol
# GULP energy per Si atom -5577.542060 kJ/mol
# Density = 2.246486 g / cm^3
# Si number density = 22.516107 Si / 1000 Ang^3
#
#
#
# Elastic Constant Matrix: (Units=GPa)
#
#
# Indices 1 2 3 4 5 6 
#
# 1 74.8663 14.3823 29.3550 8.0055 -8.0769 11.2048
# 2 14.3823 136.0039 19.6323 19.6304 11.0156 -9.2645
# 3 29.3550 19.6323 139.9058 6.9562 -2.3621 14.5345
# 4 8.0055 19.6304 6.9562 57.1204 11.8667 8.4440
# 5 -8.0769 11.0156 -2.3621 11.8667 34.6895 -0.3464
# 6 11.2048 -9.2645 14.5345 8.4440 -0.3464 43.1450
#
#
#
# Elastic Compliance Matrix: (Units=1/GPa)
#
#
# Indices 1 2 3 4 5 6 
#
# 1 0.015864 -0.001630 -0.002598 -0.001836 0.004630 -0.003198
# 2 -0.001630 0.008436 -0.001073 -0.002530 -0.002235 0.003073
# 3 -0.002598 -0.001073 0.008083 0.000034 0.000252 -0.002283
# 4 -0.001836 -0.002530 0.000034 0.020643 -0.006725 -0.004172
# 5 0.004630 -0.002235 0.000252 -0.006725 0.032931 -0.000187
# 6 -0.003198 0.003073 -0.002283 -0.004172 -0.000187 0.026252
#
#
# Mechanical properties :
#
#
# Convention : Reuss Voigt Hill
#
# Bulk Modulus (GPa) = 45.91455 53.05726 49.48590
# Shear Modulus (GPa) = 38.44038 46.15139 42.29589
#
# Velocity S-wave (km/s) = 4.13636 4.53228 4.33884
# Velocity P-wave (km/s) = 6.57638 7.14171 6.86487
#
# Compressibility (1/GPa) = 0.02177959
#
# Stress axis : x y z
#
# Youngs Moduli (GPa) = 63.03758 118.54561 123.71485
#
# Poissons Ratio (x) = 0.19329 0.32141
# Poissons Ratio (y) = 0.10278 0.13273
# Poissons Ratio (z) = 0.16377 0.12718
#
# Static dielectric constant tensor:
#      x y z
#    x 1.779490 -0.034230 0.045780 
#    y -0.034230 1.964650 -0.043030 
#    z 0.045780 -0.043030 1.782700 
# 
# From -- ./inp_files/149764.got.cif
#   From: 2010.05.17/outbox.cif.g08.bks.cpg/sg2_75_cif.got.tgz:149764.got - 2010.06.03 11:33:40.
