data_PCOD9071029
_publ_section_title
;
Structure prediction by ZEFSAII (Michael W. Deem and Ramdas Pophale) SiO2 
 PCOD9071029
Probable space group: P -1
;
_chemical_formula_sum "Si O2"
_cell_formula_units_Z 16
_cell_length_a 8.709165
_cell_length_b 13.858920
_cell_length_c 9.089422
_cell_angle_alpha 69.983304
_cell_angle_beta 76.513087
_cell_angle_gamma 42.613642
_cell_volume 697.615385
_symmetry_space_group_name_H-M "P -1"
_symmetry_group_IT_number 2
_symmetry_cell_setting 'triclinic'
loop_
_space_group_symop_operation_xyz
x,y,z
-x,-y,-z
loop_
_atom_site_type_symbol
_atom_site_label
_atom_site_fract_x
_atom_site_fract_y
_atom_site_fract_z
Si Si1 0.528543 0.876843 0.488919
Si Si2 0.943325 0.939487 0.431310
Si Si3 0.545265 0.867059 0.134567
Si Si4 0.320386 0.563470 0.208412
Si Si5 0.203263 0.850792 0.118598
Si Si6 0.831415 0.350968 0.296155
Si Si7 0.040325 0.590718 0.513883
Si Si8 0.020378 0.598703 0.030283
O O1 0.502618 0.887248 0.310842
O O2 0.783411 0.730678 0.544972
O O3 0.500000 0.000000 0.500000
O O4 0.325654 0.916024 0.599219
O O5 0.090504 0.878423 0.285776
O O6 0.022603 0.797958 0.566374
O O7 0.000000 0.000000 0.500000
O O8 0.396217 0.846478 0.104108
O O9 0.806230 0.717070 0.121533
O O10 0.500000 0.000000 0.000000
O O11 0.281201 0.703770 0.112154
O O12 0.582020 0.428648 0.267668
O O13 0.156106 0.608691 0.356542
O O14 0.243352 0.522427 0.116805
O O15 0.000000 0.000000 0.000000
O O16 0.806269 0.463083 0.348429
O O17 0.971792 0.318259 0.140196
O O18 0.000000 0.500000 0.500000
O O19 0.000000 0.500000 0.000000
#
# Coordination Sequence:
#
# PCOD9071029 Si02
#       8
#     2   2   2   2   2   2   2   2
#     4  12  25  49  74 107 152 194 256 313 376 453
#     4  12  27  47  74 112 150 198 260 316 381 455
#     4  12  27  47  75 106 152 199 251 315 379 454
#     4  12  26  50  76 111 155 198 258 319 386 462
#     4  12  28  48  77 112 153 204 255 317 393 460
#     4  12  27  47  76 113 154 197 260 322 378 458
#     4  12  27  45  77 111 151 201 255 318 388 453
#     4  12  27  51  74 113 155 203 255 309 389 462
#
# _framework density 22.935276000000002
#
# number of rings (size 3 to 8) (size 9 to 14) (size 15 to 20)
#    0.000    0.000    5.000    3.750    7.000    0.000 
#    0.000    0.000    0.000    0.000    0.000    0.000 
#    0.000    0.000    0.000    0.000    0.000    0.000 
#
# Total GULP energy -89419.335021 kJ/mol
# GULP energy per Si atom -5588.708439 kJ/mol
# Density = 2.288307 g / cm^3
# Si number density = 22.935276 Si / 1000 Ang^3
#
#
#
# Elastic Constant Matrix: (Units=GPa)
#
#
# Indices 1 2 3 4 5 6 
#
# 1 178.8953 48.6047 23.6340 -2.8683 18.8284 -4.2624
# 2 48.6047 103.7086 -3.5202 3.6740 3.1446 -1.9361
# 3 23.6340 -3.5202 56.8305 -2.3062 4.0337 -4.6242
# 4 -2.8683 3.6740 -2.3062 30.1730 1.5417 6.4384
# 5 18.8284 3.1446 4.0337 1.5417 47.7424 9.2110
# 6 -4.2624 -1.9361 -4.6242 6.4384 9.2110 42.3930
#
#
#
# Elastic Compliance Matrix: (Units=1/GPa)
#
#
# Indices 1 2 3 4 5 6 
#
# 1 0.007201 -0.003417 -0.002938 0.000863 -0.002523 0.000665
# 2 -0.003417 0.011374 0.002078 -0.001693 0.000365 0.000580
# 3 -0.002938 0.002078 0.019206 0.000554 -0.001010 0.002030
# 4 0.000863 -0.001693 0.000554 0.034580 -0.000410 -0.005093
# 5 -0.002523 0.000365 -0.001010 -0.000410 0.023036 -0.005290
# 6 0.000665 0.000580 0.002030 -0.005093 -0.005290 0.025826
#
#
# Mechanical properties :
#
#
# Convention : Reuss Voigt Hill
#
# Bulk Modulus (GPa) = 34.21406 52.98572 43.59989
# Shear Modulus (GPa) = 35.83697 42.10941 38.97319
#
# Velocity S-wave (km/s) = 3.95717 4.28952 4.12669
# Velocity P-wave (km/s) = 5.98573 6.90548 6.46199
#
# Compressibility (1/GPa) = 0.02922775
#
# Stress axis : x y z
#
# Youngs Moduli (GPa) = 138.86010 87.92074 52.06647
#
# Poissons Ratio (x) = 0.30038 0.15299
# Poissons Ratio (y) = 0.47442 -0.10819
# Poissons Ratio (z) = 0.40802 -0.18269
#
# Static dielectric constant tensor:
#      x y z
#    x 1.831760 0.062800 0.004270 
#    y 0.062800 1.816680 -0.041310 
#    z 0.004270 -0.041310 1.866840 
# 
# From -- ./inp_files/206322.got.cif
#   From: 2010.05.17/outbox.cif.g08.bks.cpg/sg2_104_cif.got.tgz:206322.got - 2010.06.03 11:33:40.
