data_PCOD9071211
_publ_section_title
;
Structure prediction by ZEFSAII (Michael W. Deem and Ramdas Pophale) SiO2 
 PCOD9071211
Probable space group: P -1
;
_chemical_formula_sum "Si O2"
_cell_formula_units_Z 15
_cell_length_a 12.891732
_cell_length_b 9.868002
_cell_length_c 13.080151
_cell_angle_alpha 44.250388
_cell_angle_beta 33.213069
_cell_angle_gamma 65.601820
_cell_volume 555.435198
_symmetry_space_group_name_H-M "P -1"
_symmetry_group_IT_number 2
_symmetry_cell_setting 'triclinic'
loop_
_space_group_symop_operation_xyz
x,y,z
-x,-y,-z
loop_
_atom_site_type_symbol
_atom_site_label
_atom_site_fract_x
_atom_site_fract_y
_atom_site_fract_z
Si Si1 0.987828 0.571537 0.304478
Si Si2 0.329597 0.050823 0.052837
Si Si3 0.044725 0.422495 0.897869
Si Si4 0.488197 0.520168 0.230668
Si Si5 0.500000 0.500000 0.500000
Si Si6 0.313548 0.073030 0.513828
Si Si7 0.161613 0.272023 0.349267
Si Si8 0.331806 0.026369 0.826690
O O1 0.123633 0.476778 0.303211
O O2 0.739078 0.478266 0.588823
O O3 0.008326 0.507435 0.204901
O O4 0.103789 0.834552 0.077416
O O5 0.395122 0.316085 0.855755
O O6 0.328258 0.981511 0.975305
O O7 0.085694 0.916068 0.369941
O O8 0.500000 0.000000 0.000000
O O9 0.900551 0.155348 0.159735
O O10 0.301308 0.549046 0.623959
O O11 0.000000 0.500000 0.000000
O O12 0.427275 0.264527 0.402407
O O13 0.659778 0.653122 0.927356
O O14 0.363052 0.270345 0.666243
O O15 0.487831 0.009162 0.360617
O O16 0.246727 0.188069 0.417794
#
# Coordination Sequence:
#
# PCOD9071211 Si02
#       8
#     2   2   2   2   1   2   2   2
#     4  12  29  50  84 119 164 210 271 331 407 479
#     4  12  26  45  80 117 164 209 270 326 396 473
#     4  12  29  55  82 119 159 210 272 336 401 487
#     4  12  26  48  79 118 158 214 269 323 400 476
#     4  12  26  52  86 106 158 212 264 326 400 468
#     4  12  28  52  82 118 167 212 273 326 410 482
#     4  12  27  50  83 118 163 216 261 340 397 482
#     4  12  28  52  80 120 161 215 271 334 399 485
#
# _framework density 27.005852000000001
#
# number of rings (size 3 to 8) (size 9 to 14) (size 15 to 20)
#    0.000    0.000    4.000    4.800    1.867    9.067 
#    0.000    0.000    0.000    0.000    0.000    0.000 
#    0.000    0.000    0.000    0.000    0.000    0.000 
#
# Total GULP energy -83946.063191 kJ/mol
# GULP energy per Si atom -5596.404213 kJ/mol
# Density = 2.694439 g / cm^3
# Si number density = 27.005852 Si / 1000 Ang^3
#
#
#
# Elastic Constant Matrix: (Units=GPa)
#
#
# Indices 1 2 3 4 5 6 
#
# 1 89.4719 34.7925 20.4718 20.5996 -5.3584 13.4256
# 2 34.7925 152.3770 63.0716 -2.8064 9.0419 22.8382
# 3 20.4718 63.0716 199.6675 -3.3175 -12.5560 12.3545
# 4 20.5996 -2.8064 -3.3175 65.3854 3.6329 -5.6325
# 5 -5.3584 9.0419 -12.5560 3.6329 32.7527 -4.4293
# 6 13.4256 22.8382 12.3545 -5.6325 -4.4293 48.7704
#
#
#
# Elastic Compliance Matrix: (Units=1/GPa)
#
#
# Indices 1 2 3 4 5 6 
#
# 1 0.014158 -0.003027 -0.000206 -0.005016 0.003263 -0.002711
# 2 -0.003027 0.009095 -0.002642 0.001202 -0.004562 -0.003032
# 3 -0.000206 -0.002642 0.006052 0.000095 0.003011 0.000045
# 4 -0.005016 0.001202 0.000095 0.017299 -0.002690 0.002547
# 5 0.003263 -0.004562 0.003011 -0.002690 0.034220 0.003273
# 6 -0.002711 -0.003032 0.000045 0.002547 0.003273 0.023250
#
#
# Mechanical properties :
#
#
# Convention : Reuss Voigt Hill
#
# Bulk Modulus (GPa) = 56.96388 75.35424 66.15906
# Shear Modulus (GPa) = 41.09280 50.92707 46.00993
#
# Velocity S-wave (km/s) = 3.90503 4.34727 4.13207
# Velocity P-wave (km/s) = 6.43982 7.29121 6.87870
#
# Compressibility (1/GPa) = 0.01755498
#
# Stress axis : x y z
#
# Youngs Moduli (GPa) = 70.63200 109.95520 165.23268
#
# Poissons Ratio (x) = 0.33286 0.03400
# Poissons Ratio (y) = 0.21382 0.43651
# Poissons Ratio (z) = 0.01453 0.29048
#
# Static dielectric constant tensor:
#      x y z
#    x 2.090290 0.057530 0.068790 
#    y 0.057530 2.097160 -0.018990 
#    z 0.068790 -0.018990 2.089790 
# 
# From -- ./inp_files/529371.got.cif
#   From: 2010.05.17/outbox.cif.g08.bks.cpg/sg2_265_cif.got.tgz:529371.got - 2010.06.03 11:33:40.
