data_PCOD9071270
_publ_section_title
;
Structure prediction by ZEFSAII (Michael W. Deem and Ramdas Pophale) SiO2 
 PCOD9071270
Probable space group: P -1
;
_chemical_formula_sum "Si O2"
_cell_formula_units_Z 15
_cell_length_a 24.876938
_cell_length_b 25.283591
_cell_length_c 5.165039
_cell_angle_alpha 65.065519
_cell_angle_beta 66.264821
_cell_angle_gamma 11.579634
_cell_volume 590.344234
_symmetry_space_group_name_H-M "P -1"
_symmetry_group_IT_number 2
_symmetry_cell_setting 'triclinic'
loop_
_space_group_symop_operation_xyz
x,y,z
-x,-y,-z
loop_
_atom_site_type_symbol
_atom_site_label
_atom_site_fract_x
_atom_site_fract_y
_atom_site_fract_z
Si Si1 0.276232 0.916069 0.345379
Si Si2 0.735813 0.466755 0.008435
Si Si3 0.765642 0.313578 0.091289
Si Si4 0.500000 0.500000 0.500000
Si Si5 0.172156 0.207488 0.201210
Si Si6 0.367030 0.331157 0.566037
Si Si7 0.218436 0.240096 0.543246
Si Si8 0.219900 0.842385 0.806844
O O1 0.437621 0.746140 0.119010
O O2 0.456288 0.792585 0.368980
O O3 0.271718 0.860914 0.623888
O O4 0.974304 0.229934 0.240895
O O5 0.795853 0.353324 0.940470
O O6 0.745296 0.521292 0.755812
O O7 0.683177 0.280871 0.392352
O O8 0.450362 0.599417 0.077387
O O9 0.953556 0.099660 0.967528
O O10 0.768525 0.287886 0.430703
O O11 0.159035 0.269705 0.318445
O O12 0.891056 0.445524 0.255358
O O13 0.421766 0.924285 0.379118
O O14 0.218416 0.190408 0.865924
O O15 0.000000 0.500000 0.500000
O O16 0.500000 0.000000 0.500000
#
# Coordination Sequence:
#
# PCOD9071270 Si02
#       8
#     2   2   2   1   2   2   2   2
#     4  12  26  47  75 104 151 203 246 312 402 479
#     4  12  26  47  75 104 151 203 246 312 402 479
#     4  12  27  48  73 105 142 189 253 315 397 482
#     4  12  28  50  72 106 134 196 246 340 376 472
#     4  12  28  47  82 124 158 211 274 327 384 463
#     4  12  28  47  74 117 160 196 260 325 378 461
#     4  12  26  52  80 115 166 218 264 323 388 457
#     4  12  27  48  73 105 142 189 253 315 397 482
#
# _framework density 25.408899999999999
#
# number of rings (size 3 to 8) (size 9 to 14) (size 15 to 20)
#    0.000    0.000    2.667    6.400    7.467    1.067 
#    0.000    0.000    0.000    0.000    0.000    0.000 
#    0.000    0.000    0.000    0.000    0.000    0.000 
#
# Total GULP energy -83907.048728 kJ/mol
# GULP energy per Si atom -5593.803249 kJ/mol
# Density = 2.535107 g / cm^3
# Si number density = 25.408900 Si / 1000 Ang^3
#
#
#
# Elastic Constant Matrix: (Units=GPa)
#
#
# Indices 1 2 3 4 5 6 
#
# 1 72.3471 30.9159 9.0470 10.2127 -1.9252 3.5376
# 2 30.9159 170.3746 47.5828 22.9336 -16.2958 7.9418
# 3 9.0470 47.5828 94.1175 25.2963 -12.9096 -3.5010
# 4 10.2127 22.9336 25.2963 59.6351 2.8255 -4.7610
# 5 -1.9252 -16.2958 -12.9096 2.8255 46.0376 1.7094
# 6 3.5376 7.9418 -3.5010 -4.7610 1.7094 44.8800
#
#
#
# Elastic Compliance Matrix: (Units=1/GPa)
#
#
# Indices 1 2 3 4 5 6 
#
# 1 0.015176 -0.002549 0.000275 -0.001806 -0.000046 -0.000913
# 2 -0.002549 0.007626 -0.003026 -0.001430 0.001892 -0.001608
# 3 0.000275 -0.003026 0.013892 -0.004846 0.003097 0.000965
# 4 -0.001806 -0.001430 -0.004846 0.020018 -0.003253 0.002265
# 5 -0.000046 0.001892 0.003097 -0.003253 0.023507 -0.001330
# 6 -0.000913 -0.001608 0.000965 0.002265 -0.001330 0.023004
#
#
# Mechanical properties :
#
#
# Convention : Reuss Voigt Hill
#
# Bulk Modulus (GPa) = 38.32530 56.88118 47.60324
# Shear Modulus (GPa) = 40.80960 46.73011 43.76986
#
# Velocity S-wave (km/s) = 4.01198 4.29315 4.15495
# Velocity P-wave (km/s) = 6.04793 6.85637 6.46480
#
# Compressibility (1/GPa) = 0.02609242
#
# Stress axis : x y z
#
# Youngs Moduli (GPa) = 65.89523 131.13752 71.98580
#
# Poissons Ratio (x) = 0.33431 -0.01981
# Poissons Ratio (y) = 0.16799 0.21784
# Poissons Ratio (z) = -0.01814 0.39684
#
# Static dielectric constant tensor:
#      x y z
#    x 2.075340 -0.123390 0.286840 
#    y -0.123390 2.110940 -0.417480 
#    z 0.286840 -0.417480 3.338060 
# 
# From -- ./inp_files/128911.got.cif
#   From: 2010.05.17/outbox.cif.g08.bks.cpg/sg2_65_cif.got.tgz:128911.got - 2010.06.03 11:33:40.
