data_PCOD9071399
_publ_section_title
;
Structure prediction by ZEFSAII (Michael W. Deem and Ramdas Pophale) SiO2 
 PCOD9071399
Probable space group: P -1
;
_chemical_formula_sum "Si O2"
_cell_formula_units_Z 14
_cell_length_a 10.408867
_cell_length_b 14.929029
_cell_length_c 8.776923
_cell_angle_alpha 35.722423
_cell_angle_beta 58.795161
_cell_angle_gamma 49.054080
_cell_volume 601.179053
_symmetry_space_group_name_H-M "P -1"
_symmetry_group_IT_number 2
_symmetry_cell_setting 'triclinic'
loop_
_space_group_symop_operation_xyz
x,y,z
-x,-y,-z
loop_
_atom_site_type_symbol
_atom_site_label
_atom_site_fract_x
_atom_site_fract_y
_atom_site_fract_z
Si Si1 0.513250 0.935460 0.754407
Si Si2 0.814689 0.099695 0.037337
Si Si3 0.193701 0.430195 0.021714
Si Si4 0.847683 0.503671 0.692778
Si Si5 0.669326 0.348944 0.541217
Si Si6 0.858609 0.153458 0.269129
Si Si7 0.471009 0.768911 0.467918
O O1 0.673773 0.742609 0.911093
O O2 0.500000 0.000000 0.500000
O O3 0.533113 0.057218 0.701406
O O4 0.331434 0.941286 0.874971
O O5 0.767051 0.281075 0.733473
O O6 0.832922 0.071486 0.243858
O O7 0.000000 0.000000 0.000000
O O8 0.194877 0.405071 0.238646
O O9 0.242052 0.578176 0.731922
O O10 0.000000 0.500000 0.000000
O O11 0.662905 0.611535 0.576084
O O12 0.000000 0.500000 0.500000
O O13 0.903902 0.303107 0.979706
O O14 0.500000 0.500000 0.500000
O O15 0.613891 0.224121 0.652862
O O16 0.666021 0.253597 0.311822
O O17 0.000000 0.000000 0.500000
#
# Coordination Sequence:
#
# PCOD9071399 Si02
#       7
#     2   2   2   2   2   2   2
#     4  12  26  49  76 117 155 211 261 341 400 473
#     4  12  28  47  77 113 163 199 271 327 402 479
#     4  12  29  50  78 113 164 205 268 332 408 474
#     4  12  29  49  80 119 158 213 273 334 398 480
#     4  12  27  52  78 115 154 219 261 330 400 485
#     4  12  27  51  81 116 159 215 270 334 406 476
#     4  12  27  51  81 112 164 209 271 329 408 471
#
# _framework density 23.287572000000001
#
# number of rings (size 3 to 8) (size 9 to 14) (size 15 to 20)
#    0.000    0.000    5.714    2.143   10.000    0.571 
#    0.000    0.000    0.000    0.000    0.000    0.000 
#    0.000    0.000    0.000    0.000    0.000    0.000 
#
# Total GULP energy -78128.950284 kJ/mol
# GULP energy per Si atom -5580.639306 kJ/mol
# Density = 2.323457 g / cm^3
# Si number density = 23.287572 Si / 1000 Ang^3
#
#
#
# Elastic Constant Matrix: (Units=GPa)
#
#
# Indices 1 2 3 4 5 6 
#
# 1 144.9203 101.6029 75.2623 7.1059 1.3530 -4.9665
# 2 101.6029 -0.2667 42.6998 -5.3024 -35.0215 -31.7729
# 3 75.2623 42.6998 131.0849 10.5247 -1.4354 -19.4323
# 4 7.1059 -5.3024 10.5247 55.4826 -6.3585 -2.3405
# 5 1.3530 -35.0215 -1.4354 -6.3585 44.5192 -1.0794
# 6 -4.9665 -31.7729 -19.4323 -2.3405 -1.0794 64.7076
#
#
#
# Elastic Compliance Matrix: (Units=1/GPa)
#
#
# Indices 1 2 3 4 5 6 
#
# 1 0.004533 0.006629 -0.004477 0.001602 0.005219 0.002403
# 2 0.006629 -0.008175 -0.001659 -0.002309 -0.007118 -0.004206
# 3 -0.004477 -0.001659 0.011182 -0.001732 -0.001004 0.002120
# 4 0.001602 -0.002309 -0.001732 0.017961 0.000623 -0.000871
# 5 0.005219 -0.007118 -0.001004 0.000623 0.016686 -0.003095
# 6 0.002403 -0.004206 0.002120 -0.000871 -0.003095 0.014127
#
#
# Mechanical properties :
#
#
# Convention : Reuss Voigt Hill
#
# Bulk Modulus (GPa) = 117.29980 79.42983 98.36482
# Shear Modulus (GPa) = 85.95440 36.68676 61.32058
#
# Velocity S-wave (km/s) = 6.08195 3.97341 5.13703
# Velocity P-wave (km/s) = 9.98998 7.43189 8.80433
#
# Compressibility (1/GPa) = 0.00852516
#
# Stress axis : x y z
#
# Youngs Moduli (GPa) = 220.59346 -122.31916 89.42948
#
# Poissons Ratio (x) = 0.81082 0.40039
# Poissons Ratio (y) = -1.46226 0.14836
# Poissons Ratio (z) = 0.98764 -0.20292
#
# Static dielectric constant tensor:
#      x y z
#    x 1.875360 0.203980 0.053810 
#    y 0.203980 2.378590 0.247710 
#    z 0.053810 0.247710 2.028010 
# 
# From -- ./inp_files/198906.got.cif
#   From: 2010.05.17/outbox.cif.g08.bks.cpg/sg2_100_cif.got.tgz:198906.got - 2010.06.03 11:33:40.
