data_PCOD9071885
_publ_section_title
;
Structure prediction by ZEFSAII (Michael W. Deem and Ramdas Pophale) SiO2 
 PCOD9071885
Probable space group: P -1
;
_chemical_formula_sum "Si O2"
_cell_formula_units_Z 14
_cell_length_a 5.919056
_cell_length_b 10.778048
_cell_length_c 9.091724
_cell_angle_alpha 89.872310
_cell_angle_beta 103.938902
_cell_angle_gamma 83.864550
_cell_volume 559.475121
_symmetry_space_group_name_H-M "P -1"
_symmetry_group_IT_number 2
_symmetry_cell_setting 'triclinic'
loop_
_space_group_symop_operation_xyz
x,y,z
-x,-y,-z
loop_
_atom_site_type_symbol
_atom_site_label
_atom_site_fract_x
_atom_site_fract_y
_atom_site_fract_z
Si Si1 0.838284 0.163897 0.323755
Si Si2 0.822868 0.386945 0.095565
Si Si3 0.418976 0.048120 0.822503
Si Si4 0.215400 0.461175 0.324347
Si Si5 0.924016 0.041690 0.823804
Si Si6 0.903907 0.695936 0.421590
Si Si7 0.518903 0.605761 0.200062
O O1 0.771577 0.284008 0.209223
O O2 0.635932 0.072647 0.283427
O O3 0.050295 0.080583 0.275127
O O4 0.929099 0.203826 0.495715
O O5 0.685805 0.519893 0.117284
O O6 0.091816 0.410033 0.159814
O O7 0.719025 0.349243 0.924617
O O8 0.654066 0.093785 0.791181
O O9 0.146878 0.110593 0.804858
O O10 0.500000 0.000000 0.000000
O O11 0.195826 0.354823 0.440368
O O12 0.456318 0.509326 0.316215
O O13 0.065368 0.582970 0.369379
O O14 0.000000 0.000000 0.000000
O O15 0.667861 0.707649 0.289224
#
# Coordination Sequence:
#
# PCOD9071885 Si02
#       7
#     2   2   2   2   2   2   2
#     4   9  18  28  46  69 101 118 163 200 245 290
#     4   9  19  31  42  70  90 128 167 198 228 289
#     4   8  15  28  46  69  98 122 149 196 252 291
#     4   9  17  30  45  60  94 124 163 197 241 273
#     4   8  15  28  46  69  98 121 150 196 252 290
#     4   9  18  29  41  70  90 123 161 201 235 288
#     4  10  18  30  47  60  98 132 161 194 241 276
#
# _framework density 25.023453
#
# number of rings (size 3 to 8) (size 9 to 14) (size 15 to 20)
#    0.857    2.286    0.000    1.714    0.000    3.429 
#    0.000    0.000    0.000    0.000    0.000    2.000 
#    0.000    0.000    0.000    0.000    0.000    0.000 
#
# Total GULP energy -77993.584297 kJ/mol
# GULP energy per Si atom -5570.970307 kJ/mol
# Density = 2.496650 g / cm^3
# Si number density = 25.023453 Si / 1000 Ang^3
#
#
#
# Elastic Constant Matrix: (Units=GPa)
#
#
# Indices 1 2 3 4 5 6 
#
# 1 160.0269 53.4276 36.7767 7.2975 18.9761 27.4503
# 2 53.4276 44.8637 25.9605 10.7821 7.5886 3.8182
# 3 36.7767 25.9605 127.6688 22.1375 33.9638 10.1593
# 4 7.2975 10.7821 22.1375 22.8983 13.4053 6.6364
# 5 18.9761 7.5886 33.9638 13.4053 34.0482 2.8459
# 6 27.4503 3.8182 10.1593 6.6364 2.8459 43.3656
#
#
#
# Elastic Compliance Matrix: (Units=1/GPa)
#
#
# Indices 1 2 3 4 5 6 
#
# 1 0.013671 -0.016962 0.000436 0.010020 -0.007525 -0.008302
# 2 -0.016962 0.047804 -0.004884 -0.022108 0.011514 0.010300
# 3 0.000436 -0.004884 0.011964 -0.003315 -0.009658 -0.001508
# 4 0.010020 -0.022108 -0.003315 0.072371 -0.024751 -0.013070
# 5 -0.007525 0.011514 -0.009658 -0.024751 0.049831 0.006530
# 6 -0.008302 0.010300 -0.001508 -0.013070 0.006530 0.029333
#
#
# Mechanical properties :
#
#
# Convention : Reuss Voigt Hill
#
# Bulk Modulus (GPa) = 32.65740 62.76546 47.71143
# Shear Modulus (GPa) = 17.98552 34.48871 26.23711
#
# Velocity S-wave (km/s) = 2.68385 3.71651 3.24157
# Velocity P-wave (km/s) = 4.76268 6.59953 5.75486
#
# Compressibility (1/GPa) = 0.03062093
#
# Stress axis : x y z
#
# Youngs Moduli (GPa) = 73.14630 20.91854 83.58127
#
# Poissons Ratio (x) = 0.35482 -0.03644
# Poissons Ratio (y) = 1.24070 0.40819
# Poissons Ratio (z) = -0.03189 0.10216
#
# Static dielectric constant tensor:
#      x y z
#    x 1.980510 -0.020200 0.077310 
#    y -0.020200 2.000270 -0.083790 
#    z 0.077310 -0.083790 2.038150 
# 
# From -- ./inp_files/105543.got.cif
#   From: 2010.05.17/outbox.cif.g08.bks.cpg/sg2_53_cif.got.tgz:105543.got - 2010.06.03 11:33:40.
