data_PCOD9071723
_publ_section_title
;
Structure prediction by ZEFSAII (Michael W. Deem and Ramdas Pophale) SiO2 
 PCOD9071723
Probable space group: P -1
;
_chemical_formula_sum "Si O2"
_cell_formula_units_Z 12
_cell_length_a 10.149218
_cell_length_b 13.986159
_cell_length_c 12.665144
_cell_angle_alpha 39.210163
_cell_angle_beta 38.616390
_cell_angle_gamma 28.801755
_cell_volume 515.696148
_symmetry_space_group_name_H-M "P -1"
_symmetry_group_IT_number 2
_symmetry_cell_setting 'triclinic'
loop_
_space_group_symop_operation_xyz
x,y,z
-x,-y,-z
loop_
_atom_site_type_symbol
_atom_site_label
_atom_site_fract_x
_atom_site_fract_y
_atom_site_fract_z
Si Si1 0.994644 0.737236 0.741580
Si Si2 0.444599 0.304919 0.952703
Si Si3 0.702379 0.455649 0.720035
Si Si4 0.634836 0.095891 0.804761
Si Si5 0.788559 0.475147 0.414962
Si Si6 0.704575 0.759241 0.553522
O O1 0.159759 0.675383 0.579582
O O2 0.181628 0.535254 0.872414
O O3 0.901151 0.926641 0.706358
O O4 0.706790 0.780295 0.854083
O O5 0.594386 0.341319 0.913087
O O6 0.673024 0.158386 0.840161
O O7 0.570697 0.666958 0.678108
O O8 0.636053 0.503123 0.595146
O O9 0.052614 0.306548 0.629247
O O10 0.384963 0.307108 0.718065
O O11 0.500000 0.000000 0.000000
O O12 0.099754 0.371514 0.354526
O O13 0.500000 0.000000 0.500000
#
# Coordination Sequence:
#
# PCOD9071723 Si02
#       6
#     2   2   2   2   2   2
#     4   9  18  31  54  76 108 141 170 201 262 317
#     4   9  18  35  50  79 110 139 168 213 257 311
#     4   9  20  35  55  77 108 132 177 224 254 301
#     4   9  18  32  52  77 109 140 165 205 261 311
#     4   9  19  33  55  79 102 137 176 217 254 306
#     4   9  20  37  56  74 102 141 176 218 266 298
#
# _framework density 23.269517
#
# number of rings (size 3 to 8) (size 9 to 14) (size 15 to 20)
#    1.000    2.000    0.000    1.000    2.333    4.000 
#    0.000    2.500    0.000    5.000    0.000    0.000 
#    0.000    0.000    0.000    0.000    0.000    0.000 
#
# Total GULP energy -66858.044597 kJ/mol
# GULP energy per Si atom -5571.503716 kJ/mol
# Density = 2.321655 g / cm^3
# Si number density = 23.269517 Si / 1000 Ang^3
#
#
#
# Elastic Constant Matrix: (Units=GPa)
#
#
# Indices 1 2 3 4 5 6 
#
# 1 70.2340 26.9427 15.8104 -13.0861 -27.5087 21.6901
# 2 26.9427 136.1673 23.0362 -24.1246 -8.5933 37.4767
# 3 15.8104 23.0362 53.4662 -4.3280 -22.7480 2.0614
# 4 -13.0861 -24.1246 -4.3280 29.4578 9.8238 -11.6350
# 5 -27.5087 -8.5933 -22.7480 9.8238 41.0191 -4.2068
# 6 21.6901 37.4767 2.0614 -11.6350 -4.2068 33.4081
#
#
#
# Elastic Compliance Matrix: (Units=1/GPa)
#
#
# Indices 1 2 3 4 5 6 
#
# 1 0.024409 0.000085 -0.000475 0.000487 0.014581 -0.013908
# 2 0.000085 0.012433 -0.005797 0.005648 -0.003144 -0.012074
# 3 -0.000475 -0.005797 0.027218 -0.003710 0.015038 0.005734
# 4 0.000487 0.005648 -0.003710 0.044850 -0.010481 0.007877
# 5 0.014581 -0.003144 0.015038 -0.010481 0.043836 -0.004998
# 6 -0.013908 -0.012074 0.005734 0.007877 -0.004998 0.054267
#
#
# Mechanical properties :
#
#
# Convention : Reuss Voigt Hill
#
# Bulk Modulus (GPa) = 19.34762 43.49402 31.42082
# Shear Modulus (GPa) = 21.13130 33.71555 27.42343
#
# Velocity S-wave (km/s) = 3.01676 3.81059 3.43667
# Velocity P-wave (km/s) = 4.52405 6.17194 5.41109
#
# Compressibility (1/GPa) = 0.05168596
#
# Stress axis : x y z
#
# Youngs Moduli (GPa) = 40.96796 80.43168 36.74002
#
# Poissons Ratio (x) = -0.00684 0.01747
# Poissons Ratio (y) = -0.00348 0.21298
# Poissons Ratio (z) = 0.01948 0.46625
#
# Static dielectric constant tensor:
#      x y z
#    x 1.925790 0.010140 -0.048160 
#    y 0.010140 1.952900 0.089500 
#    z -0.048160 0.089500 1.941810 
# 
# From -- ./inp_files/227273.got.cif
#   From: 2010.05.17/outbox.cif.g08.bks.cpg/sg2_114_cif.got.tgz:227273.got - 2010.06.03 11:33:40.
