data_PCOD9071212
_publ_section_title
;
Structure prediction by ZEFSAII (Michael W. Deem and Ramdas Pophale) SiO2 
 PCOD9071212
Probable space group: P -1
;
_chemical_formula_sum "Si O2"
_cell_formula_units_Z 10
_cell_length_a 9.284176
_cell_length_b 11.791117
_cell_length_c 8.810608
_cell_angle_alpha 129.011656
_cell_angle_beta 62.363935
_cell_angle_gamma 76.731199
_cell_volume 433.366403
_symmetry_space_group_name_H-M "P -1"
_symmetry_group_IT_number 2
_symmetry_cell_setting 'triclinic'
loop_
_space_group_symop_operation_xyz
x,y,z
-x,-y,-z
loop_
_atom_site_type_symbol
_atom_site_label
_atom_site_fract_x
_atom_site_fract_y
_atom_site_fract_z
Si Si1 0.031461 0.967448 0.275265
Si Si2 0.723680 0.794916 0.107849
Si Si3 0.350449 0.977478 0.965537
Si Si4 0.238519 0.517705 0.772750
Si Si5 0.526932 0.648967 0.159377
O O1 0.132512 0.050093 0.229516
O O2 0.210089 0.711107 0.930423
O O3 0.000000 0.000000 0.500000
O O4 0.759102 0.115110 0.467916
O O5 0.641352 0.685090 0.013975
O O6 0.500000 0.000000 0.500000
O O7 0.741720 0.882966 0.025556
O O8 0.979638 0.626999 0.933536
O O9 0.541637 0.717344 0.614999
O O10 0.500000 0.000000 0.000000
O O11 0.297944 0.456730 0.869657
O O12 0.500000 0.500000 0.000000
#
# Coordination Sequence:
#
# PCOD9071212 Si02
#       5
#     2   2   2   2   2
#     4  12  26  49  77 112 151 199 255 307 373 453
#     4  12  26  50  77 113 151 198 254 314 377 449
#     4  12  30  48  77 115 154 198 257 314 377 448
#     4  12  26  48  81 109 158 195 252 311 383 441
#     4  12  26  45  81 110 150 201 250 307 382 447
#
# _framework density 23.075161999999999
#
# number of rings (size 3 to 8) (size 9 to 14) (size 15 to 20)
#    0.000    0.000    6.000    2.400    2.800    5.600 
#    0.000    0.000    0.000    0.000    0.000    0.000 
#    0.000    0.000    0.000    0.000    0.000    0.000 
#
# Total GULP energy -55993.597735 kJ/mol
# GULP energy per Si atom -5599.359774 kJ/mol
# Density = 2.302264 g / cm^3
# Si number density = 23.075162 Si / 1000 Ang^3
#
#
#
# Elastic Constant Matrix: (Units=GPa)
#
#
# Indices 1 2 3 4 5 6 
#
# 1 158.2786 95.5349 42.7606 -13.5658 -15.9734 13.7704
# 2 95.5349 178.2233 64.2087 -13.5357 -25.6107 19.7833
# 3 42.7606 64.2087 70.7393 2.6985 -4.2755 2.5255
# 4 -13.5658 -13.5357 2.6985 41.9287 8.0363 -8.5420
# 5 -15.9734 -25.6107 -4.2755 8.0363 50.5345 9.4797
# 6 13.7704 19.7833 2.5255 -8.5420 9.4797 56.9906
#
#
#
# Elastic Compliance Matrix: (Units=1/GPa)
#
#
# Indices 1 2 3 4 5 6 
#
# 1 0.009633 -0.004122 -0.002083 0.001663 0.000640 -0.000662
# 2 -0.004122 0.011744 -0.007845 0.001467 0.004359 -0.003238
# 3 -0.002083 -0.007845 0.022431 -0.003738 -0.002535 0.002094
# 4 0.001663 0.001467 -0.003738 0.026673 -0.004024 0.003922
# 5 0.000640 0.004359 -0.002535 -0.004024 0.023772 -0.006113
# 6 -0.000662 -0.003238 0.002094 0.003922 -0.006113 0.020343
#
#
# Mechanical properties :
#
#
# Convention : Reuss Voigt Hill
#
# Bulk Modulus (GPa) = 63.66012 90.24996 76.95504
# Shear Modulus (GPa) = 33.79931 43.53991 38.66961
#
# Velocity S-wave (km/s) = 3.83136 4.34853 4.09811
# Velocity P-wave (km/s) = 6.87171 8.02553 7.47093
#
# Compressibility (1/GPa) = 0.01570842
#
# Stress axis : x y z
#
# Youngs Moduli (GPa) = 103.80835 85.14900 44.58062
#
# Poissons Ratio (x) = 0.35095 0.09287
# Poissons Ratio (y) = 0.42786 0.34975
# Poissons Ratio (z) = 0.21624 0.66802
#
# Static dielectric constant tensor:
#      x y z
#    x 1.853850 0.031990 0.043800 
#    y 0.031990 1.916310 0.036980 
#    z 0.043800 0.036980 1.888940 
# 
# From -- ./inp_files/16669.got.cif
#   From: 2010.05.17/outbox.cif.g08.bks.cpg/sg2_9_cif.got.tgz:16669.got - 2010.06.03 11:33:40.
