data_PCOD9071395
_publ_section_title
;
Structure prediction by ZEFSAII (Michael W. Deem and Ramdas Pophale) SiO2 
 PCOD9071395
Probable space group: P -1
;
_chemical_formula_sum "Si O2"
_cell_formula_units_Z 12
_cell_length_a 9.979860
_cell_length_b 15.061452
_cell_length_c 15.124344
_cell_angle_alpha 151.621937
_cell_angle_beta 146.040686
_cell_angle_gamma 28.072365
_cell_volume 493.923564
_symmetry_space_group_name_H-M "P -1"
_symmetry_group_IT_number 2
_symmetry_cell_setting 'triclinic'
loop_
_space_group_symop_operation_xyz
x,y,z
-x,-y,-z
loop_
_atom_site_type_symbol
_atom_site_label
_atom_site_fract_x
_atom_site_fract_y
_atom_site_fract_z
Si Si1 0.162940 0.622797 0.446956
Si Si2 0.005569 0.910422 0.219906
Si Si3 0.761491 0.584022 0.079465
Si Si4 0.867164 0.151761 0.969583
Si Si5 0.122556 0.402779 0.387873
Si Si6 0.746283 0.964628 0.298912
O O1 0.500000 0.500000 0.500000
O O2 0.144243 0.581741 0.502499
O O3 0.045806 0.502852 0.221595
O O4 0.951017 0.894501 0.554907
O O5 0.736610 0.979088 0.199003
O O6 0.226231 0.643105 0.132741
O O7 0.993878 0.934257 0.127715
O O8 0.779775 0.732929 0.143317
O O9 0.472828 0.750288 0.125617
O O10 0.901225 0.356477 0.182480
O O11 0.000000 0.000000 0.000000
O O12 0.000000 0.500000 0.500000
O O13 0.442112 0.168729 0.352082
O O14 0.000000 0.000000 0.500000
#
# Coordination Sequence:
#
# PCOD9071395 Si02
#       6
#     2   2   2   2   2   2
#     4  12  26  49  76 111 150 199 253 315 382 451
#     4  12  27  49  79 109 156 200 252 319 383 448
#     4  12  27  49  76 112 155 195 259 311 381 462
#     4  12  27  50  75 114 149 207 254 312 388 449
#     4  12  27  49  76 108 158 200 258 319 378 456
#     4  12  26  50  76 114 150 202 255 314 387 451
#
# _framework density 24.295256999999999
#
# number of rings (size 3 to 8) (size 9 to 14) (size 15 to 20)
#    0.000    0.000    6.667    2.000    2.333    3.333 
#    6.000    0.000    0.000    0.000    0.000    0.000 
#    0.000    0.000    0.000    0.000    0.000    0.000 
#
# Total GULP energy -66973.742002 kJ/mol
# GULP energy per Si atom -5581.145167 kJ/mol
# Density = 2.423996 g / cm^3
# Si number density = 24.295257 Si / 1000 Ang^3
#
#
#
# Elastic Constant Matrix: (Units=GPa)
#
#
# Indices 1 2 3 4 5 6 
#
# 1 238.1869 56.4652 46.8606 11.5930 -7.5490 4.8214
# 2 56.4652 95.1531 23.4944 7.8475 12.8283 -8.4290
# 3 46.8606 23.4944 91.5569 18.4488 8.8758 -5.7001
# 4 11.5930 7.8475 18.4488 49.1599 4.0698 21.6525
# 5 -7.5490 12.8283 8.8758 4.0698 50.6004 10.1771
# 6 4.8214 -8.4290 -5.7001 21.6525 10.1771 49.1258
#
#
#
# Elastic Compliance Matrix: (Units=1/GPa)
#
#
# Indices 1 2 3 4 5 6 
#
# 1 0.005572 -0.003301 -0.002608 0.001038 0.002524 -0.002396
# 2 -0.003301 0.013916 -0.000502 -0.003056 -0.004687 0.004971
# 3 -0.002608 -0.000502 0.014453 -0.006913 -0.003365 0.005591
# 4 0.001038 -0.003056 -0.006913 0.029573 0.002789 -0.015041
# 5 0.002524 -0.004687 -0.003365 0.002789 0.023197 -0.007477
# 6 -0.002396 0.004971 0.005591 -0.015041 -0.007477 0.030271
#
#
# Mechanical properties :
#
#
# Convention : Reuss Voigt Hill
#
# Bulk Modulus (GPa) = 47.34817 75.39303 61.37060
# Shear Modulus (GPa) = 36.53812 49.64900 43.09356
#
# Velocity S-wave (km/s) = 3.88225 4.52549 4.21615
# Velocity P-wave (km/s) = 6.29498 7.64239 7.00117
#
# Compressibility (1/GPa) = 0.02112014
#
# Stress axis : x y z
#
# Youngs Moduli (GPa) = 179.47249 71.85823 69.18988
#
# Poissons Ratio (x) = 0.23718 0.18044
# Poissons Ratio (y) = 0.59238 0.03473
# Poissons Ratio (z) = 0.46804 0.03607
#
# Static dielectric constant tensor:
#      x y z
#    x 1.985380 0.096490 -0.004070 
#    y 0.096490 1.951460 -0.000920 
#    z -0.004070 -0.000920 1.936010 
# 
# From -- ./inp_files/173648.got.cif
#   From: 2010.05.17/outbox.cif.g08.bks.cpg/sg2_87_cif.got.tgz:173648.got - 2010.06.03 11:33:40.
