data_PCOD9071044
_publ_section_title
;
Structure prediction by ZEFSAII (Michael W. Deem and Ramdas Pophale) SiO2 
 PCOD9071044
Probable space group: P -1
;
_chemical_formula_sum "Si O2"
_cell_formula_units_Z 16
_cell_length_a 5.196455
_cell_length_b 9.148901
_cell_length_c 17.803554
_cell_angle_alpha 121.987480
_cell_angle_beta 83.531816
_cell_angle_gamma 119.125502
_cell_volume 614.966149
_symmetry_space_group_name_H-M "P -1"
_symmetry_group_IT_number 2
_symmetry_cell_setting 'triclinic'
loop_
_space_group_symop_operation_xyz
x,y,z
-x,-y,-z
loop_
_atom_site_type_symbol
_atom_site_label
_atom_site_fract_x
_atom_site_fract_y
_atom_site_fract_z
Si Si1 0.591582 0.409156 0.144461
Si Si2 0.481772 0.288753 0.395760
Si Si3 0.771405 0.888565 0.045218
Si Si4 0.586068 0.338542 0.701508
Si Si5 0.103772 0.325025 0.597071
Si Si6 0.424522 0.878911 0.804380
Si Si7 0.006205 0.318295 0.910888
Si Si8 0.199510 0.890239 0.587270
O O1 0.373863 0.498683 0.193680
O O2 0.584315 0.283665 0.182436
O O3 0.884742 0.607908 0.157671
O O4 0.510619 0.252262 0.036846
O O5 0.670135 0.520901 0.430783
O O6 0.565965 0.191771 0.297371
O O7 0.642504 0.242545 0.445675
O O8 0.122913 0.191174 0.383849
O O9 0.784881 0.731896 0.058090
O O10 0.824697 0.071142 0.146582
O O11 0.000000 0.000000 0.000000
O O12 0.321680 0.320991 0.651150
O O13 0.885851 0.392373 0.661019
O O14 0.438488 0.109105 0.669172
O O15 0.884982 0.126561 0.502931
O O16 0.705921 0.103615 0.863856
O O17 0.000000 0.500000 0.000000
#
# Coordination Sequence:
#
# PCOD9071044 Si02
#       8
#     2   2   2   2   2   2   2   2
#     4  12  26  48  70 107 144 194 249 306 373 441
#     4  12  27  45  77 109 150 194 252 309 378 447
#     4  12  26  44  76 101 147 196 239 305 371 439
#     4  12  27  46  76 111 149 197 248 314 377 450
#     4  12  25  49  76 110 150 196 248 307 384 459
#     4  12  27  48  70 104 150 191 248 310 368 443
#     4  12  26  46  72 105 141 194 253 299 370 442
#     4  12  26  49  76 111 149 196 248 313 380 458
#
# _framework density 26.017692
#
# number of rings (size 3 to 8) (size 9 to 14) (size 15 to 20)
#    0.000    0.000    3.750    6.000    5.250    1.000 
#    0.000    0.000    0.000    0.000    0.000    0.000 
#    0.000    0.000    0.000    0.000    0.000    0.000 
#
# Total GULP energy -89487.800378 kJ/mol
# GULP energy per Si atom -5592.987524 kJ/mol
# Density = 2.595847 g / cm^3
# Si number density = 26.017692 Si / 1000 Ang^3
#
#
#
# Elastic Constant Matrix: (Units=GPa)
#
#
# Indices 1 2 3 4 5 6 
#
# 1 91.0502 33.0221 -5.5942 -2.8570 -13.9350 3.1567
# 2 33.0221 158.8408 4.6338 4.9920 -9.7114 6.5958
# 3 -5.5942 4.6338 81.9898 11.0114 -10.7538 9.7710
# 4 -2.8570 4.9920 11.0114 40.6973 -1.4720 -1.0792
# 5 -13.9350 -9.7114 -10.7538 -1.4720 48.7246 -2.2650
# 6 3.1567 6.5958 9.7710 -1.0792 -2.2650 54.5786
#
#
#
# Elastic Compliance Matrix: (Units=1/GPa)
#
#
# Indices 1 2 3 4 5 6 
#
# 1 0.012521 -0.002442 0.001377 0.000915 0.003402 -0.000516
# 2 -0.002442 0.006902 -0.000282 -0.000939 0.000557 -0.000638
# 3 0.001377 -0.000282 0.013463 -0.003463 0.003093 -0.002396
# 4 0.000915 -0.000939 -0.003463 0.025725 0.000143 0.001195
# 5 0.003402 0.000557 0.003093 0.000143 0.022299 0.000110
# 6 -0.000516 -0.000638 -0.002396 0.001195 0.000110 0.018886
#
#
# Mechanical properties :
#
#
# Convention : Reuss Voigt Hill
#
# Bulk Modulus (GPa) = 33.12238 44.00045 38.56141
# Shear Modulus (GPa) = 44.42334 48.78805 46.60570
#
# Velocity S-wave (km/s) = 4.13659 4.33504 4.23698
# Velocity P-wave (km/s) = 5.96435 6.48114 6.22811
#
# Compressibility (1/GPa) = 0.03019107
#
# Stress axis : x y z
#
# Youngs Moduli (GPa) = 79.86816 144.89311 74.27864
#
# Poissons Ratio (x) = 0.35390 -0.10229
# Poissons Ratio (y) = 0.19508 0.02092
# Poissons Ratio (z) = -0.10998 0.04080
#
# Static dielectric constant tensor:
#      x y z
#    x 2.439440 0.030670 -0.289430 
#    y 0.030670 2.092290 0.010090 
#    z -0.289430 0.010090 2.318570 
# 
# From -- ./inp_files/142642.got.cif
#   From: 2010.05.17/outbox.cif.g08.bks.cpg/sg2_72_cif.got.tgz:142642.got - 2010.06.03 11:33:40.
