data_PCOD9072409
_publ_section_title
;
Structure prediction by ZEFSAII (Michael W. Deem and Ramdas Pophale) SiO2 
 PCOD9072409
Probable space group: P -1
;
_chemical_formula_sum "Si O2"
_cell_formula_units_Z 16
_cell_length_a 22.463619
_cell_length_b 9.778601
_cell_length_c 12.291436
_cell_angle_alpha 34.614505
_cell_angle_beta 35.450009
_cell_angle_gamma 38.415882
_cell_volume 835.498782
_symmetry_space_group_name_H-M "P -1"
_symmetry_group_IT_number 2
_symmetry_cell_setting 'triclinic'
loop_
_space_group_symop_operation_xyz
x,y,z
-x,-y,-z
loop_
_atom_site_type_symbol
_atom_site_label
_atom_site_fract_x
_atom_site_fract_y
_atom_site_fract_z
Si Si1 0.128735 0.873133 0.403578
Si Si2 0.289152 0.287008 0.280699
Si Si3 0.279835 0.842516 0.997021
Si Si4 0.514813 0.734030 0.710765
Si Si5 0.251403 0.290867 0.570870
Si Si6 0.445473 0.525880 0.400825
Si Si7 0.266460 0.006536 0.293864
Si Si8 0.532913 0.873201 0.189036
O O1 0.166655 0.562815 0.556827
O O2 0.173927 0.984917 0.366126
O O3 0.190697 0.921093 0.172705
O O4 0.000000 0.000000 0.500000
O O5 0.235595 0.226656 0.511289
O O6 0.237343 0.215566 0.296020
O O7 0.416964 0.103544 0.208967
O O8 0.276531 0.584239 0.113713
O O9 0.401394 0.776717 0.911517
O O10 0.261478 0.065389 0.788614
O O11 0.631102 0.666021 0.638321
O O12 0.522467 0.540977 0.727077
O O13 0.500000 0.000000 0.500000
O O14 0.519992 0.663571 0.259389
O O15 0.452885 0.271632 0.622222
O O16 0.323897 0.731309 0.446690
O O17 0.364597 0.050886 0.049146
#
# Coordination Sequence:
#
# PCOD9072409 Si02
#       8
#     2   2   2   2   2   2   2   2
#     4  11  26  43  62  86 114 159 212 255 289 338
#     4  10  21  35  57  91 120 154 191 236 299 364
#     4  10  22  39  62  85 123 157 194 244 300 356
#     4  10  18  30  56  86 117 152 189 226 290 360
#     4  10  22  39  61  88 122 155 195 245 298 358
#     4  10  19  34  50  87 128 156 190 231 289 368
#     4  11  22  36  59  83 120 158 200 242 295 347
#     4  10  20  31  55  85 127 161 185 230 294 364
#
# _framework density 19.150237000000001
#
# number of rings (size 3 to 8) (size 9 to 14) (size 15 to 20)
#    0.000    1.750    1.250    4.500    5.250    3.500 
#    0.000    2.500    0.000    1.500    0.000    0.000 
#    0.000    0.000    0.000    0.000    0.000    0.000 
#
# Total GULP energy -89361.196407 kJ/mol
# GULP energy per Si atom -5585.074775 kJ/mol
# Density = 1.910665 g / cm^3
# Si number density = 19.150237 Si / 1000 Ang^3
#
#
#
# Elastic Constant Matrix: (Units=GPa)
#
#
# Indices 1 2 3 4 5 6 
#
# 1 126.4556 60.9909 42.0246 6.7088 -7.5109 14.0207
# 2 60.9909 98.2098 41.5329 -0.2344 -8.1800 3.0280
# 3 42.0246 41.5329 84.5524 -11.4272 14.2322 -5.8457
# 4 6.7088 -0.2344 -11.4272 31.1961 -6.9844 3.2188
# 5 -7.5109 -8.1800 14.2322 -6.9844 24.9003 2.6638
# 6 14.0207 3.0280 -5.8457 3.2188 2.6638 32.3871
#
#
#
# Elastic Compliance Matrix: (Units=1/GPa)
#
#
# Indices 1 2 3 4 5 6 
#
# 1 0.013732 -0.005278 -0.006095 -0.003260 0.005694 -0.006696
# 2 -0.005278 0.017339 -0.007361 0.000654 0.008649 -0.001441
# 3 -0.006095 -0.007361 0.022508 0.004925 -0.016624 0.008267
# 4 -0.003260 0.000654 0.004925 0.036287 0.006801 -0.001927
# 5 0.005694 0.008649 -0.016624 0.006801 0.057377 -0.011669
# 6 -0.006696 -0.001441 0.008267 -0.001927 -0.011669 0.036553
#
#
# Mechanical properties :
#
#
# Convention : Reuss Voigt Hill
#
# Bulk Modulus (GPa) = 62.06619 66.47938 64.27279
# Shear Modulus (GPa) = 22.06193 28.67465 25.36829
#
# Velocity S-wave (km/s) = 3.39786 3.87376 3.64359
# Velocity P-wave (km/s) = 6.91914 7.40257 7.16493
#
# Compressibility (1/GPa) = 0.01611183
#
# Stress axis : x y z
#
# Youngs Moduli (GPa) = 72.82008 57.67222 44.42954
#
# Poissons Ratio (x) = 0.30438 0.27079
# Poissons Ratio (y) = 0.38433 0.32705
# Poissons Ratio (z) = 0.44382 0.42454
#
# Static dielectric constant tensor:
#      x y z
#    x 1.704950 0.031050 0.025210 
#    y 0.031050 1.692900 -0.024590 
#    z 0.025210 -0.024590 1.684970 
# 
# From -- ./inp_files/272066.got.cif
#   From: 2010.05.17/outbox.cif.g08.bks.cpg/sg2_137_cif.got.tgz:272066.got - 2010.06.03 11:33:40.
