data_PCOD9072289
_publ_section_title
;
Structure prediction by ZEFSAII (Michael W. Deem and Ramdas Pophale) SiO2 
 PCOD9072289
Probable space group: P -1
;
_chemical_formula_sum "Si O2"
_cell_formula_units_Z 14
_cell_length_a 8.499003
_cell_length_b 12.719595
_cell_length_c 5.589789
_cell_angle_alpha 75.386371
_cell_angle_beta 68.670612
_cell_angle_gamma 73.441442
_cell_volume 532.015483
_symmetry_space_group_name_H-M "P -1"
_symmetry_group_IT_number 2
_symmetry_cell_setting 'triclinic'
loop_
_space_group_symop_operation_xyz
x,y,z
-x,-y,-z
loop_
_atom_site_type_symbol
_atom_site_label
_atom_site_fract_x
_atom_site_fract_y
_atom_site_fract_z
Si Si1 0.114582 0.648873 0.830512
Si Si2 0.871025 0.571381 0.345722
Si Si3 0.500544 0.567343 0.709656
Si Si4 0.818348 0.083984 0.043590
Si Si5 0.235786 0.905007 0.432636
Si Si6 0.822898 0.831679 0.677999
Si Si7 0.641753 0.881869 0.245595
O O1 0.146280 0.520228 0.793698
O O2 0.315273 0.652233 0.764028
O O3 0.989966 0.731742 0.668667
O O4 0.984978 0.653585 0.125608
O O5 0.680836 0.609359 0.551222
O O6 0.000000 0.500000 0.500000
O O7 0.500000 0.500000 0.500000
O O8 0.500000 0.500000 0.000000
O O9 0.822927 0.139715 0.262737
O O10 0.676618 0.007483 0.154682
O O11 0.799158 0.147366 0.769727
O O12 0.000000 0.000000 0.000000
O O13 0.439884 0.889704 0.355712
O O14 0.155727 0.038999 0.393872
O O15 0.731419 0.831323 0.471511
O O16 0.710719 0.827026 0.984574
#
# Coordination Sequence:
#
# PCOD9072289 Si02
#       7
#     2   2   2   2   2   2   2
#     4  10  22  36  60  87 118 154 192 245 291 342
#     4  10  20  37  62  87 115 151 199 233 289 362
#     4  10  20  36  59  85 110 151 188 229 289 351
#     4  10  18  30  54  81 105 139 185 237 274 326
#     4  10  19  36  57  80 108 152 197 225 272 352
#     4  10  20  33  58  82 112 145 190 236 283 327
#     4  10  20  36  59  79 108 153 197 226 274 352
#
# _framework density 26.315023
#
# number of rings (size 3 to 8) (size 9 to 14) (size 15 to 20)
#    0.000    2.000    1.429    4.714    2.000    0.000 
#    0.000    0.000   25.143    0.000    0.000    0.000 
#    0.000    0.000    0.000    0.000    0.000    0.000 
#
# Total GULP energy -78184.327087 kJ/mol
# GULP energy per Si atom -5584.594792 kJ/mol
# Density = 2.625513 g / cm^3
# Si number density = 26.315023 Si / 1000 Ang^3
#
#
#
# Elastic Constant Matrix: (Units=GPa)
#
#
# Indices 1 2 3 4 5 6 
#
# 1 139.9311 35.4167 86.1249 -5.3323 -4.5919 -47.5421
# 2 35.4167 117.5774 53.3988 1.3781 -6.2819 -39.9783
# 3 86.1249 53.3988 243.2941 6.0722 23.4055 -32.6074
# 4 -5.3323 1.3781 6.0722 26.4339 -8.8458 6.2356
# 5 -4.5919 -6.2819 23.4055 -8.8458 69.8682 8.3984
# 6 -47.5421 -39.9783 -32.6074 6.2356 8.3984 45.3760
#
#
#
# Elastic Compliance Matrix: (Units=1/GPa)
#
#
# Indices 1 2 3 4 5 6 
#
# 1 0.013201 0.002021 -0.003471 0.000555 0.000731 0.012906
# 2 0.002021 0.013082 -0.001812 -0.002852 0.000025 0.012728
# 3 -0.003471 -0.001812 0.006091 -0.002964 -0.002816 0.000072
# 4 0.000555 -0.002852 -0.002964 0.044089 0.007744 -0.011553
# 5 0.000731 0.000025 -0.002816 0.007744 0.016940 -0.005435
# 6 0.012906 0.012728 0.000072 -0.011553 -0.005435 0.049420
#
#
# Mechanical properties :
#
#
# Convention : Reuss Voigt Hill
#
# Bulk Modulus (GPa) = 38.68526 94.52038 66.60282
# Shear Modulus (GPa) = 31.65285 50.05978 40.85631
#
# Velocity S-wave (km/s) = 3.47197 4.36630 3.94456
# Velocity P-wave (km/s) = 5.55027 7.83685 6.79050
#
# Compressibility (1/GPa) = 0.02584964
#
# Stress axis : x y z
#
# Youngs Moduli (GPa) = 75.74984 76.44230 164.16909
#
# Poissons Ratio (x) = -0.15447 0.56987
# Poissons Ratio (y) = -0.15307 0.29745
# Poissons Ratio (z) = 0.26294 0.13850
#
# Static dielectric constant tensor:
#      x y z
#    x 3.889470 2.400160 0.685920 
#    y 2.400160 5.149370 0.971340 
#    z 0.685920 0.971340 2.526680 
# 
# From -- ./inp_files/37526.got.cif
#   From: 2010.05.17/outbox.cif.g08.bks.cpg/sg2_19_cif.got.tgz:37526.got - 2010.06.03 11:33:40.
