data_PCOD9072318
_publ_section_title
;
Structure prediction by ZEFSAII (Michael W. Deem and Ramdas Pophale) SiO2 
 PCOD9072318
Probable space group: P -1
;
_chemical_formula_sum "Si O2"
_cell_formula_units_Z 16
_cell_length_a 9.000000
_cell_length_b 9.000000
_cell_length_c 21.000000
_cell_angle_alpha 130.000000
_cell_angle_beta 120.000000
_cell_angle_gamma 100.000000
_cell_volume 751.240448
_symmetry_space_group_name_H-M "P -1"
_symmetry_group_IT_number 2
_symmetry_cell_setting 'triclinic'
loop_
_space_group_symop_operation_xyz
x,y,z
-x,-y,-z
loop_
_atom_site_type_symbol
_atom_site_label
_atom_site_fract_x
_atom_site_fract_y
_atom_site_fract_z
Si Si1 0.984468 0.611964 0.092421
Si Si2 0.982229 0.296378 0.114785
Si Si3 0.878679 0.141020 0.188257
Si Si4 0.174486 0.866722 0.683852
Si Si5 0.583478 0.613104 0.812664
Si Si6 0.527970 0.503552 0.918910
Si Si7 0.723348 0.455680 0.375638
Si Si8 0.652741 0.735262 0.653779
O O1 0.956238 0.449305 0.102103
O O2 0.744712 0.552774 0.011997
O O3 0.234534 0.957958 0.253389
O O4 0.000000 0.500000 0.000000
O O5 0.261039 0.426639 0.201410
O O6 0.913520 0.290619 0.171923
O O7 0.778822 0.959310 0.957191
O O8 0.933690 0.272368 0.306466
O O9 0.102069 0.170612 0.240623
O O10 0.608131 0.792842 0.032278
O O11 0.367234 0.845717 0.718361
O O12 0.000379 0.701262 0.537617
O O13 0.271187 0.169861 0.791256
O O14 0.535584 0.499950 0.842925
O O15 0.334959 0.494888 0.691045
O O16 0.544305 0.422482 0.374927
O O17 0.500000 0.500000 0.500000
#
# Coordination Sequence:
#
# PCOD9072318 Si02
#       8
#     2   2   2   2   2   2   2   2
#     4  11  20  35  64  99 120 154 209 262 299 361
#     4  10  19  34  61  95 122 149 201 263 310 347
#     4  10  21  39  62  89 122 158 198 255 311 356
#     4  11  23  40  59  86 123 165 204 241 300 373
#     4  10  19  35  59  93 121 153 200 260 307 353
#     4  10  21  36  61  89 121 156 202 252 304 365
#     4  11  23  38  62  85 119 168 204 243 301 371
#     4  11  21  39  64  89 124 161 204 254 311 358
#
# _framework density 21.298107999999999
#
# number of rings (size 3 to 8) (size 9 to 14) (size 15 to 20)
#    0.000    1.500    3.750    2.625    0.000    0.500 
#    0.000    8.750    5.500    0.000    0.000    0.000 
#    0.000    0.000    0.000    0.000    0.000    0.000 
#
# Total GULP energy -89146.060531 kJ/mol
# GULP energy per Si atom -5571.628783 kJ/mol
# Density = 2.124963 g / cm^3
# Si number density = 21.298108 Si / 1000 Ang^3
#
#
#
# Elastic Constant Matrix: (Units=GPa)
#
#
# Indices 1 2 3 4 5 6 
#
# 1 26.8008 19.0332 0.0882 -13.3994 -2.9176 5.1562
# 2 19.0332 180.8847 48.0290 -31.5925 -5.3311 10.7189
# 3 0.0882 48.0290 68.6727 -12.4452 -7.2345 -0.1288
# 4 -13.3994 -31.5925 -12.4452 35.1528 -4.1990 -1.0072
# 5 -2.9176 -5.3311 -7.2345 -4.1990 23.5624 -10.4822
# 6 5.1562 10.7189 -0.1288 -1.0072 -10.4822 25.9041
#
#
#
# Elastic Compliance Matrix: (Units=1/GPa)
#
#
# Indices 1 2 3 4 5 6 
#
# 1 0.051483 -0.003160 0.006788 0.020190 0.009426 -0.004307
# 2 -0.003160 0.008041 -0.004942 0.004120 -0.000604 -0.002807
# 3 0.006788 -0.004942 0.020170 0.006522 0.009200 0.004770
# 4 0.020190 0.004120 0.006522 0.043875 0.014001 0.001680
# 5 0.009426 -0.000604 0.009200 0.014001 0.058940 0.022814
# 6 -0.004307 -0.002807 0.004770 0.001680 0.022814 0.049944
#
#
# Mechanical properties :
#
#
# Convention : Reuss Voigt Hill
#
# Bulk Modulus (GPa) = 12.97607 45.62880 29.30244
# Shear Modulus (GPa) = 19.17393 30.87104 25.02248
#
# Velocity S-wave (km/s) = 3.00370 3.81133 3.43135
# Velocity P-wave (km/s) = 4.25857 6.39051 5.43020
#
# Compressibility (1/GPa) = 0.07706493
#
# Stress axis : x y z
#
# Youngs Moduli (GPa) = 19.42383 124.35780 49.57938
#
# Poissons Ratio (x) = 0.39301 -0.33654
# Poissons Ratio (y) = 0.06139 0.24503
# Poissons Ratio (z) = -0.13185 0.61460
#
# Static dielectric constant tensor:
#      x y z
#    x 1.915850 -0.010870 0.003140 
#    y -0.010870 1.824950 -0.043800 
#    z 0.003140 -0.043800 1.886880 
# 
# From -- ./inp_files/243399.got.cif
#   From: 2010.05.17/outbox.ucp.g08.bks.cvg/sg2_122_cif.got.tgz:243399.got - 2010.06.11 11:32:03.
