data_PCOD9072442
_publ_section_title
;
Structure prediction by ZEFSAII (Michael W. Deem and Ramdas Pophale) SiO2 
 PCOD9072442
Probable space group: P -1
;
_chemical_formula_sum "Si O2"
_cell_formula_units_Z 16
_cell_length_a 9.000000
_cell_length_b 9.000000
_cell_length_c 18.000000
_cell_angle_alpha 140.000000
_cell_angle_beta 60.000000
_cell_angle_gamma 100.000000
_cell_volume 752.029055
_symmetry_space_group_name_H-M "P -1"
_symmetry_group_IT_number 2
_symmetry_cell_setting 'triclinic'
loop_
_space_group_symop_operation_xyz
x,y,z
-x,-y,-z
loop_
_atom_site_type_symbol
_atom_site_label
_atom_site_fract_x
_atom_site_fract_y
_atom_site_fract_z
Si Si1 0.473411 0.995488 0.844274
Si Si2 0.154598 0.386933 0.705273
Si Si3 0.810478 0.792430 0.877596
Si Si4 0.798400 0.037634 0.358336
Si Si5 0.104005 0.256349 0.331003
Si Si6 0.748479 0.695586 0.108514
Si Si7 0.549155 0.502285 0.402132
Si Si8 0.139224 0.697338 0.961521
O O1 0.692957 0.894487 0.746801
O O2 0.409265 0.770651 0.747291
O O3 0.397951 0.203594 0.880252
O O4 0.383320 0.098216 0.986801
O O5 0.287470 0.391999 0.606528
O O6 0.227675 0.524524 0.803348
O O7 0.949765 0.570080 0.806155
O O8 0.160874 0.132935 0.643601
O O9 0.843444 0.692704 0.746716
O O10 0.875526 0.027172 0.945789
O O11 0.632050 0.298354 0.514420
O O12 0.971594 0.097525 0.307125
O O13 0.733292 0.889599 0.253892
O O14 0.000000 0.500000 0.500000
O O15 0.751625 0.439336 0.045086
O O16 0.943215 0.669788 0.012672
O O17 0.500000 0.500000 0.500000
#
# Coordination Sequence:
#
# PCOD9072442 Si02
#       8
#     2   2   2   2   2   2   2   2
#     4  12  24  41  66 101 133 175 223 271 328 397
#     4  11  23  38  70 102 130 164 222 280 336 384
#     4  12  23  42  66  97 132 177 217 277 333 395
#     4  11  23  43  65  97 134 174 218 278 326 390
#     4  12  27  46  66  90 134 187 227 266 330 401
#     4  10  20  37  66 100 127 162 214 269 331 386
#     4  12  22  38  68 100 133 170 223 274 330 396
#     4  10  19  36  66  99 131 158 206 273 337 385
#
# _framework density 21.275773999999998
#
# number of rings (size 3 to 8) (size 9 to 14) (size 15 to 20)
#    0.000    0.750    6.250    2.625    0.000    0.000 
#    0.000    4.375    0.000    0.000    0.000    0.000 
#    0.000    0.000    0.000    0.000    0.000    0.000 
#
# Total GULP energy -89341.361049 kJ/mol
# GULP energy per Si atom -5583.835066 kJ/mol
# Density = 2.122735 g / cm^3
# Si number density = 21.275774 Si / 1000 Ang^3
#
#
#
# Elastic Constant Matrix: (Units=GPa)
#
#
# Indices 1 2 3 4 5 6 
#
# 1 44.7339 4.3981 20.3067 0.9121 -19.2789 -18.6239
# 2 4.3981 44.6726 33.9646 8.9331 -13.3247 -37.1418
# 3 20.3067 33.9646 101.7394 -15.9770 -11.8779 -16.0724
# 4 0.9121 8.9331 -15.9770 38.0751 -3.0025 -8.5618
# 5 -19.2789 -13.3247 -11.8779 -3.0025 36.7576 -1.3690
# 6 -18.6239 -37.1418 -16.0724 -8.5618 -1.3690 33.3286
#
#
#
# Elastic Compliance Matrix: (Units=1/GPa)
#
#
# Indices 1 2 3 4 5 6 
#
# 1 0.005732 -0.034967 0.004373 0.001600 -0.009378 -0.033630
# 2 -0.034967 -0.031504 0.004497 -0.004661 -0.030734 -0.054939
# 3 0.004373 0.004497 0.012352 0.008330 0.009189 0.015930
# 4 0.001600 -0.004661 0.008330 0.033090 0.004857 0.008416
# 5 -0.009378 -0.030734 0.009189 0.004857 0.013273 -0.033266
# 6 -0.033630 -0.054939 0.015930 0.008416 -0.033266 -0.041535
#
#
# Mechanical properties :
#
#
# Convention : Reuss Voigt Hill
#
# Bulk Modulus (GPa) = -15.24089 34.27609 9.51760
# Shear Modulus (GPa) = 230.09172 30.46401 130.27787
#
# Velocity S-wave (km/s) = 10.41067 3.78810 7.83364
# Velocity P-wave (km/s) = 11.71880 5.93956 9.29001
#
# Compressibility (1/GPa) = -0.06561297
#
# Stress axis : x y z
#
# Youngs Moduli (GPa) = 174.45963 -31.74195 80.95694
#
# Poissons Ratio (x) = -1.10991 -0.35401
# Poissons Ratio (y) = 6.10030 -0.36409
# Poissons Ratio (z) = -0.76289 0.14276
#
# Static dielectric constant tensor:
#      x y z
#    x 1.808790 -0.045770 -0.005650 
#    y -0.045770 1.781300 -0.016880 
#    z -0.005650 -0.016880 1.814250 
# 
# From -- ./inp_files/306628.got.cif
#   From: 2010.05.17/outbox.ucp.g08.bks.cvg/sg2_154_cif.got.tgz:306628.got - 2010.06.11 11:32:03.
