data_PCOD9072943
_publ_section_title
;
Structure prediction by ZEFSAII (Michael W. Deem and Ramdas Pophale) SiO2 
 PCOD9072943
Probable space group: P -1
;
_chemical_formula_sum "Si O2"
_cell_formula_units_Z 14
_cell_length_a 7.151086
_cell_length_b 8.406244
_cell_length_c 11.702485
_cell_angle_alpha 115.442917
_cell_angle_beta 119.826235
_cell_angle_gamma 57.259142
_cell_volume 500.746304
_symmetry_space_group_name_H-M "P -1"
_symmetry_group_IT_number 2
_symmetry_cell_setting 'triclinic'
loop_
_space_group_symop_operation_xyz
x,y,z
-x,-y,-z
loop_
_atom_site_type_symbol
_atom_site_label
_atom_site_fract_x
_atom_site_fract_y
_atom_site_fract_z
Si Si1 0.819697 0.961984 0.017074
Si Si2 0.072714 0.066852 0.300376
Si Si3 0.205123 0.704625 0.512241
Si Si4 0.127128 0.286665 0.760013
Si Si5 0.707861 0.492026 0.306275
Si Si6 0.410841 0.393065 0.037418
Si Si7 0.445663 0.114165 0.275576
O O1 0.587008 0.163613 0.025262
O O2 0.976890 0.918527 0.167543
O O3 0.729767 0.829150 0.871123
O O4 0.000000 0.000000 0.000000
O O5 0.322393 0.044649 0.318895
O O6 0.010974 0.118102 0.430655
O O7 0.896088 0.276674 0.260699
O O8 0.439299 0.742205 0.607891
O O9 0.123748 0.690777 0.356834
O O10 0.778601 0.631895 0.296543
O O11 0.250224 0.518745 0.549302
O O12 0.167806 0.397139 0.915871
O O13 0.325221 0.069185 0.753413
O O14 0.456862 0.493766 0.194149
O O15 0.500000 0.500000 0.000000
#
# Coordination Sequence:
#
# PCOD9072943 Si02
#       7
#     2   2   2   2   2   2   2
#     4   8  14  28  47  72  92 126 161 200 237 288
#     4   8  18  33  51  74 101 130 166 204 247 293
#     4  10  20  32  53  76 102 129 168 204 246 296
#     4  10  18  31  52  75 102 133 164 203 252 295
#     4   8  17  34  53  72  99 133 169 202 243 297
#     4   8  14  27  48  73  91 128 167 194 242 294
#     4  10  19  32  53  74 102 132 164 206 250 290
#
# _framework density 27.958269000000001
#
# number of rings (size 3 to 8) (size 9 to 14) (size 15 to 20)
#    0.857    2.286    0.000    0.857    0.000    1.143 
#    0.000    0.714    3.143    0.000    0.000   10.000 
#    0.000    0.000    0.000    0.000    0.000    0.000 
#
# Total GULP energy -78156.222777 kJ/mol
# GULP energy per Si atom -5582.587341 kJ/mol
# Density = 2.789464 g / cm^3
# Si number density = 27.958269 Si / 1000 Ang^3
#
#
#
# Elastic Constant Matrix: (Units=GPa)
#
#
# Indices 1 2 3 4 5 6 
#
# 1 137.9634 3.1103 49.0131 -1.8503 -5.2340 -15.3570
# 2 3.1103 49.2836 1.4573 -10.5287 -0.3048 -3.7771
# 3 49.0131 1.4573 198.6416 -33.1835 10.5701 -8.3994
# 4 -1.8503 -10.5287 -33.1835 32.1044 14.1732 0.4586
# 5 -5.2340 -0.3048 10.5701 14.1732 45.9394 8.4308
# 6 -15.3570 -3.7771 -8.3994 0.4586 8.4308 22.8795
#
#
#
# Elastic Compliance Matrix: (Units=1/GPa)
#
#
# Indices 1 2 3 4 5 6 
#
# 1 0.008684 -0.000870 -0.002631 -0.003395 0.001885 0.004093
# 2 -0.000870 0.023462 0.002765 0.012929 -0.005696 0.006144
# 3 -0.002631 0.002765 0.008200 0.012096 -0.006615 0.003896
# 4 -0.003395 0.012929 0.012096 0.057690 -0.023015 0.011621
# 5 0.001885 -0.005696 -0.006615 -0.023015 0.033108 -0.013842
# 6 0.004093 0.006144 0.003896 0.011621 -0.013842 0.053767
#
#
# Mechanical properties :
#
#
# Convention : Reuss Voigt Hill
#
# Bulk Modulus (GPa) = 25.72321 54.78332 40.25326
# Shear Modulus (GPa) = 25.08272 42.33853 33.71062
#
# Velocity S-wave (km/s) = 2.99849 3.89568 3.47616
# Velocity P-wave (km/s) = 4.60527 6.31445 5.52634
#
# Compressibility (1/GPa) = 0.03887540
#
# Stress axis : x y z
#
# Youngs Moduli (GPa) = 115.15352 42.62267 121.94487
#
# Poissons Ratio (x) = 0.03709 0.32079
# Poissons Ratio (y) = 0.10020 -0.33722
# Poissons Ratio (z) = 0.30293 -0.11787
#
# Static dielectric constant tensor:
#      x y z
#    x 2.227100 0.112270 0.031400 
#    y 0.112270 2.229000 -0.020080 
#    z 0.031400 -0.020080 2.236680 
# 
# From -- ./inp_files/423858.got.cif
#   From: 2010.05.17/outbox.cif.g08.bks.cpg/sg2_212_cif.got.tgz:423858.got - 2010.06.03 11:33:40.
