data_PCOD9072287
_publ_section_title
;
Structure prediction by ZEFSAII (Michael W. Deem and Ramdas Pophale) SiO2 
 PCOD9072287
Probable space group: P -1
;
_chemical_formula_sum "Si O2"
_cell_formula_units_Z 16
_cell_length_a 11.908772
_cell_length_b 12.640802
_cell_length_c 25.434640
_cell_angle_alpha 150.972650
_cell_angle_beta 22.700612
_cell_angle_gamma 146.023620
_cell_volume 711.728445
_symmetry_space_group_name_H-M "P -1"
_symmetry_group_IT_number 2
_symmetry_cell_setting 'triclinic'
loop_
_space_group_symop_operation_xyz
x,y,z
-x,-y,-z
loop_
_atom_site_type_symbol
_atom_site_label
_atom_site_fract_x
_atom_site_fract_y
_atom_site_fract_z
Si Si1 0.981366 0.235687 0.020647
Si Si2 0.321465 0.320166 0.325932
Si Si3 0.206491 0.327304 0.856959
Si Si4 0.159757 0.519902 0.165735
Si Si5 0.795348 0.880669 0.820952
Si Si6 0.766166 0.747429 0.888629
Si Si7 0.447127 0.244164 0.614970
Si Si8 0.866840 0.123842 0.744401
O O1 0.664720 0.282693 0.156431
O O2 0.008004 0.344316 0.113249
O O3 0.221645 0.337350 0.918058
O O4 0.969088 0.974245 0.914332
O O5 0.176279 0.230365 0.295364
O O6 0.343296 0.582568 0.435513
O O7 0.179493 0.141190 0.351352
O O8 0.458236 0.353385 0.715899
O O9 0.048979 0.080386 0.807943
O O10 0.000000 0.500000 0.000000
O O11 0.120953 0.444636 0.209598
O O12 0.086289 0.754461 0.278927
O O13 0.500000 0.500000 0.000000
O O14 0.774650 0.724872 0.812757
O O15 0.500000 0.000000 0.000000
O O16 0.437745 0.800404 0.069089
O O17 0.132094 0.214168 0.707991
O O18 0.500000 0.000000 0.500000
#
# Coordination Sequence:
#
# PCOD9072287 Si02
#       8
#     2   2   2   2   2   2   2   2
#     4  10  18  30  54  80 111 147 181 224 284 324
#     4  11  20  33  57  81 110 149 185 228 280 333
#     4  11  18  32  55  80 111 147 183 224 275 339
#     4  10  19  31  49  80 118 145 181 231 275 329
#     4  11  16  30  53  84 111 145 181 226 278 331
#     4   9  19  30  53  84 116 143 183 232 279 326
#     4  12  24  36  53  84 117 151 186 228 282 336
#     4  10  19  35  51  74 112 145 183 220 279 323
#
# _framework density 22.480484000000001
#
# number of rings (size 3 to 8) (size 9 to 14) (size 15 to 20)
#    0.000    1.500    7.500    0.375    0.000    2.500 
#    0.000    0.000    0.000    0.000    0.000   11.375 
#    0.000    0.000    0.000    0.000    0.000    0.000 
#
# Total GULP energy -89272.513678 kJ/mol
# GULP energy per Si atom -5579.532105 kJ/mol
# Density = 2.242932 g / cm^3
# Si number density = 22.480484 Si / 1000 Ang^3
#
#
#
# Elastic Constant Matrix: (Units=GPa)
#
#
# Indices 1 2 3 4 5 6 
#
# 1 113.7087 50.0197 15.2878 17.5883 -19.2730 -30.8852
# 2 50.0197 129.1888 21.7277 43.1805 -17.5693 -22.9055
# 3 15.2878 21.7277 39.6694 21.2717 -11.6027 -11.9017
# 4 17.5883 43.1805 21.2717 36.4740 -4.9316 -7.1401
# 5 -19.2730 -17.5693 -11.6027 -4.9316 19.6290 12.4583
# 6 -30.8852 -22.9055 -11.9017 -7.1401 12.4583 48.3235
#
#
#
# Elastic Compliance Matrix: (Units=1/GPa)
#
#
# Indices 1 2 3 4 5 6 
#
# 1 0.012636 -0.002702 0.000990 -0.001544 0.007009 0.005004
# 2 -0.002702 0.015795 0.005918 -0.019245 0.008814 0.002102
# 3 0.000990 0.005918 0.045841 -0.030259 0.023020 0.004322
# 4 -0.001544 -0.019245 -0.030259 0.065512 -0.018133 -0.003207
# 5 0.007009 0.008814 0.023020 -0.018133 0.080556 -0.009120
# 6 0.005004 0.002102 0.004322 -0.003207 -0.009120 0.027830
#
#
# Mechanical properties :
#
#
# Convention : Reuss Voigt Hill
#
# Bulk Modulus (GPa) = 12.09439 50.73749 31.41594
# Shear Modulus (GPa) = 18.70407 33.92074 26.31240
#
# Velocity S-wave (km/s) = 2.88759 3.88867 3.42490
# Velocity P-wave (km/s) = 4.06315 6.54071 5.44473
#
# Compressibility (1/GPa) = 0.08268297
#
# Stress axis : x y z
#
# Youngs Moduli (GPa) = 79.13841 63.30998 21.81446
#
# Poissons Ratio (x) = 0.17109 -0.02159
# Poissons Ratio (y) = 0.21387 -0.12910
# Poissons Ratio (z) = -0.07832 -0.37467
#
# Static dielectric constant tensor:
#      x y z
#    x 1.787560 0.030240 0.094110 
#    y 0.030240 1.965490 -0.007110 
#    z 0.094110 -0.007110 1.799670 
# 
# From -- ./inp_files/618334.got.cif
#   From: 2010.05.17/outbox.cif.g08.bks.cpg/sg2_310_cif.got.tgz:618334.got - 2010.06.03 11:33:40.
