data_PCOD9072905
_publ_section_title
;
Structure prediction by ZEFSAII (Michael W. Deem and Ramdas Pophale) SiO2 
 PCOD9072905
Probable space group: P -1
;
_chemical_formula_sum "Si O2"
_cell_formula_units_Z 14
_cell_length_a 9.000000
_cell_length_b 15.000000
_cell_length_c 9.000000
_cell_angle_alpha 70.000000
_cell_angle_beta 110.000000
_cell_angle_gamma 140.000000
_cell_volume 727.419504
_symmetry_space_group_name_H-M "P -1"
_symmetry_group_IT_number 2
_symmetry_cell_setting 'triclinic'
loop_
_space_group_symop_operation_xyz
x,y,z
-x,-y,-z
loop_
_atom_site_type_symbol
_atom_site_label
_atom_site_fract_x
_atom_site_fract_y
_atom_site_fract_z
Si Si1 0.828469 0.049616 0.855605
Si Si2 0.845272 0.277223 0.662432
Si Si3 0.636985 0.877067 0.581253
Si Si4 0.881359 0.838234 0.527320
Si Si5 0.225548 0.413212 0.459080
Si Si6 0.290904 0.159547 0.848377
Si Si7 0.824918 0.419469 0.845310
O O1 0.689015 0.938565 0.731102
O O2 0.794414 0.147136 0.774279
O O3 0.760433 0.968391 0.032812
O O4 0.102054 0.143496 0.874593
O O5 0.620340 0.213559 0.521092
O O6 0.869302 0.357744 0.768114
O O7 0.081489 0.372779 0.586348
O O8 0.722634 0.805370 0.628699
O O9 0.845581 0.014325 0.473703
O O10 0.887641 0.729475 0.569689
O O11 0.760437 0.833964 0.343424
O O12 0.500000 0.500000 0.500000
O O13 0.183184 0.485598 0.301687
O O14 0.563201 0.293446 0.890734
O O15 0.000000 0.500000 0.000000
#
# Coordination Sequence:
#
# PCOD9072905 Si02
#       7
#     2   2   2   2   2   2   2
#     4  10  22  38  70  96 128 164 205 272 332 381
#     4  12  23  43  67  95 127 170 218 271 324 376
#     4  10  20  38  65 102 125 157 214 275 318 388
#     4  10  20  40  67  94 128 168 214 260 327 384
#     4  12  23  46  69  89 131 182 217 260 310 393
#     4  10  20  45  60  90 138 163 211 265 323 381
#     4  12  28  45  61  95 135 173 221 266 315 381
#
# _framework density 19.246116000000001
#
# number of rings (size 3 to 8) (size 9 to 14) (size 15 to 20)
#    0.000    1.143    5.714    0.857    2.000    0.571 
#   10.286    1.429    0.000    0.000    0.000    0.000 
#    0.000    0.000    0.000    0.000    0.000    0.000 
#
# Total GULP energy -78006.900391 kJ/mol
# GULP energy per Si atom -5571.921456 kJ/mol
# Density = 1.920231 g / cm^3
# Si number density = 19.246116 Si / 1000 Ang^3
#
#
#
# Elastic Constant Matrix: (Units=GPa)
#
#
# Indices 1 2 3 4 5 6 
#
# 1 127.1841 59.5004 50.8440 10.5194 7.3370 -8.8489
# 2 59.5004 91.4110 46.0074 10.4833 -0.0585 4.8821
# 3 50.8440 46.0074 88.8876 -5.7268 11.7742 -18.6227
# 4 10.5194 10.4833 -5.7268 32.4783 -4.3971 6.0523
# 5 7.3370 -0.0585 11.7742 -4.3971 23.6392 1.8008
# 6 -8.8489 4.8821 -18.6227 6.0523 1.8008 51.1782
#
#
#
# Elastic Compliance Matrix: (Units=1/GPa)
#
#
# Indices 1 2 3 4 5 6 
#
# 1 0.012806 -0.006317 -0.003434 -0.003523 -0.003095 0.002093
# 2 -0.006317 0.020673 -0.009524 -0.004270 0.006438 -0.006251
# 3 -0.003434 -0.009524 0.021331 0.005253 -0.009198 0.007779
# 4 -0.003523 -0.004270 0.005253 0.035445 0.005263 -0.002667
# 5 -0.003095 0.006438 -0.009198 0.005263 0.049361 -0.006855
# 6 0.002093 -0.006251 0.007779 -0.002667 -0.006855 0.023885
#
#
# Mechanical properties :
#
#
# Convention : Reuss Voigt Hill
#
# Bulk Modulus (GPa) = 61.50524 68.90957 65.20741
# Shear Modulus (GPa) = 24.09974 31.53455 27.81715
#
# Velocity S-wave (km/s) = 3.54246 4.05222 3.80588
# Velocity P-wave (km/s) = 6.98274 7.60106 7.29845
#
# Compressibility (1/GPa) = 0.01625878
#
# Stress axis : x y z
#
# Youngs Moduli (GPa) = 78.08633 48.37335 46.88080
#
# Poissons Ratio (x) = 0.30557 0.16100
# Poissons Ratio (y) = 0.49327 0.44650
# Poissons Ratio (z) = 0.26817 0.46071
#
# Static dielectric constant tensor:
#      x y z
#    x 1.694000 -0.028740 -0.022840 
#    y -0.028740 1.775030 -0.009190 
#    z -0.022840 -0.009190 1.680980 
# 
# From -- ./inp_files/206490.got.cif
#   From: 2010.05.17/outbox.ucp.g08.bks.cvg/sg2_104_cif.got.tgz:206490.got - 2010.06.11 11:32:03.
