data_PCOD9072177
_publ_section_title
;
Structure prediction by ZEFSAII (Michael W. Deem and Ramdas Pophale) SiO2 
 PCOD9072177
Probable space group: P -1
;
_chemical_formula_sum "Si O2"
_cell_formula_units_Z 14
_cell_length_a 15.000000
_cell_length_b 15.000000
_cell_length_c 15.000000
_cell_angle_alpha 20.000000
_cell_angle_beta 40.000000
_cell_angle_gamma 40.000000
_cell_volume 725.414092
_symmetry_space_group_name_H-M "P -1"
_symmetry_group_IT_number 2
_symmetry_cell_setting 'triclinic'
loop_
_space_group_symop_operation_xyz
x,y,z
-x,-y,-z
loop_
_atom_site_type_symbol
_atom_site_label
_atom_site_fract_x
_atom_site_fract_y
_atom_site_fract_z
Si Si1 0.187764 0.001134 0.582270
Si Si2 0.945498 0.506935 0.888296
Si Si3 0.788501 0.697841 0.008350
Si Si4 0.570439 0.439035 0.857021
Si Si5 0.630905 0.163998 0.246245
Si Si6 0.601286 0.277132 0.574203
Si Si7 0.495796 0.082989 0.663969
O O1 0.082479 0.269737 0.377423
O O2 0.233658 0.000758 0.651275
O O3 0.340823 0.978271 0.438121
O O4 0.128735 0.738024 0.850063
O O5 0.104540 0.373002 0.923726
O O6 0.877440 0.675822 0.868937
O O7 0.710450 0.450340 0.291474
O O8 0.686806 0.992682 0.815319
O O9 0.427782 0.576686 0.890797
O O10 0.595575 0.690511 0.543932
O O11 0.661113 0.281577 0.016943
O O12 0.548676 0.199479 0.036323
O O13 0.500000 0.000000 0.500000
O O14 0.500000 0.500000 0.500000
O O15 0.502623 0.198767 0.646837
#
# Coordination Sequence:
#
# PCOD9072177 Si02
#       7
#     2   2   2   2   2   2   2
#     4  11  19  30  50  76 109 144 176 203 261 327
#     4  11  21  34  54  77 105 149 178 213 258 328
#     4  11  22  38  54  76 107 139 187 221 264 314
#     4  10  19  29  44  68 104 145 166 204 257 320
#     4  10  19  27  45  73 108 143 168 206 256 318
#     4  12  24  38  57  79 106 141 185 232 267 301
#     4  11  19  32  49  70 106 140 174 210 259 320
#
# _framework density 19.299322
#
# number of rings (size 3 to 8) (size 9 to 14) (size 15 to 20)
#    0.000    1.143    5.714    3.857    2.000    2.286 
#    0.000    0.000    0.000    0.000    0.000    0.000 
#    0.000   22.857    0.000    0.000    0.000    0.000 
#
# Total GULP energy -78027.815702 kJ/mol
# GULP energy per Si atom -5573.415407 kJ/mol
# Density = 1.925540 g / cm^3
# Si number density = 19.299322 Si / 1000 Ang^3
#
#
#
# Elastic Constant Matrix: (Units=GPa)
#
#
# Indices 1 2 3 4 5 6 
#
# 1 109.3956 27.4806 33.4142 -21.8625 32.6109 -3.0603
# 2 27.4806 36.6645 19.7644 -22.8331 5.7394 2.0508
# 3 33.4142 19.7644 108.7011 -44.9661 17.2078 -7.8674
# 4 -21.8625 -22.8331 -44.9661 27.2888 -4.1819 2.1496
# 5 32.6109 5.7394 17.2078 -4.1819 42.0221 -15.4140
# 6 -3.0603 2.0508 -7.8674 2.1496 -15.4140 13.4204
#
#
#
# Elastic Compliance Matrix: (Units=1/GPa)
#
#
# Indices 1 2 3 4 5 6 
#
# 1 0.018199 0.013295 0.012761 0.044826 -0.027330 -0.028971
# 2 0.013295 0.236264 0.137341 0.429394 -0.110459 -0.148206
# 3 0.012761 0.137341 0.112544 0.305824 -0.077262 -0.089827
# 4 0.044826 0.429394 0.305824 0.922951 -0.234323 -0.293080
# 5 -0.027330 -0.110459 -0.077262 -0.234323 0.120047 0.140768
# 6 -0.028971 -0.148206 -0.089827 -0.293080 0.140768 0.246520
#
#
# Mechanical properties :
#
#
# Convention : Reuss Voigt Hill
#
# Bulk Modulus (GPa) = 1.44134 46.23106 23.83620
# Shear Modulus (GPa) = 3.20308 28.15307 15.67807
#
# Velocity S-wave (km/s) = 1.28968 3.82351 2.85329
# Velocity P-wave (km/s) = 1.72226 6.59539 4.82003
#
# Compressibility (1/GPa) = 0.69380080
#
# Stress axis : x y z
#
# Youngs Moduli (GPa) = 54.94921 4.23255 8.88540
#
# Poissons Ratio (x) = -0.05627 -0.11339
# Poissons Ratio (y) = -0.73056 -1.22033
# Poissons Ratio (z) = -0.70121 -0.58130
#
# Static dielectric constant tensor:
#      x y z
#    x 1.766400 0.018480 0.032360 
#    y 0.018480 1.689580 0.033730 
#    z 0.032360 0.033730 1.715090 
# 
# From -- ./inp_files/108896.got.cif
#   From: 2010.05.17/outbox.ucp.g08.bks.cvg/sg2_55_cif.got.tgz:108896.got - 2010.06.11 11:32:03.
