data_PCOD9072314
_publ_section_title
;
Structure prediction by ZEFSAII (Michael W. Deem and Ramdas Pophale) SiO2 
 PCOD9072314
Probable space group: P -1
;
_chemical_formula_sum "Si O2"
_cell_formula_units_Z 16
_cell_length_a 8.649032
_cell_length_b 12.487197
_cell_length_c 11.423877
_cell_angle_alpha 134.798058
_cell_angle_beta 115.581616
_cell_angle_gamma 62.360671
_cell_volume 764.712595
_symmetry_space_group_name_H-M "P -1"
_symmetry_group_IT_number 2
_symmetry_cell_setting 'triclinic'
loop_
_space_group_symop_operation_xyz
x,y,z
-x,-y,-z
loop_
_atom_site_type_symbol
_atom_site_label
_atom_site_fract_x
_atom_site_fract_y
_atom_site_fract_z
Si Si1 0.166640 0.355144 0.970683
Si Si2 0.518301 0.282111 0.170204
Si Si3 0.784613 0.466757 0.480415
Si Si4 0.679344 0.100706 0.847882
Si Si5 0.978371 0.818459 0.034115
Si Si6 0.654724 0.830425 0.775179
Si Si7 0.110408 0.496086 0.707305
Si Si8 0.420129 0.350816 0.833808
O O1 0.278992 0.331833 0.871313
O O2 0.318679 0.369217 0.127581
O O3 0.000000 0.500000 0.000000
O O4 0.099931 0.207806 0.884689
O O5 0.623549 0.388364 0.354235
O O6 0.493712 0.159672 0.166599
O O7 0.622425 0.207670 0.029607
O O8 0.710481 0.651318 0.615659
O O9 0.882275 0.428745 0.358705
O O10 0.943002 0.420328 0.591499
O O11 0.575478 0.197579 0.780534
O O12 0.620592 0.946650 0.745144
O O13 0.883854 0.079137 0.865170
O O14 0.078432 0.638465 0.896903
O O15 0.820737 0.865236 0.925868
O O16 0.302007 0.384076 0.705507
O O17 0.500000 0.500000 0.000000
#
# Coordination Sequence:
#
# PCOD9072314 Si02
#       8
#     2   2   2   2   2   2   2   2
#     4  10  18  30  54  87 112 128 179 237 270 305
#     4  10  20  35  57  82 109 144 182 225 272 317
#     4  10  20  35  56  80 109 145 181 220 267 325
#     4  11  20  35  57  82 110 142 179 226 277 322
#     4  10  18  33  53  81 110 140 176 228 271 314
#     4  10  22  34  52  84 114 140 181 224 272 321
#     4  10  18  33  55  80 107 140 184 222 267 318
#     4  11  19  33  57  82 111 141 178 226 276 319
#
# _framework density 20.922893999999999
#
# number of rings (size 3 to 8) (size 9 to 14) (size 15 to 20)
#    0.000    1.750    3.750    1.875    0.000    0.000 
#    0.000    0.625    0.000    0.750    0.000    0.000 
#    0.000    0.000    0.000    0.000    0.000    0.000 
#
# Total GULP energy -89151.526277 kJ/mol
# GULP energy per Si atom -5571.970392 kJ/mol
# Density = 2.087527 g / cm^3
# Si number density = 20.922894 Si / 1000 Ang^3
#
#
#
# Elastic Constant Matrix: (Units=GPa)
#
#
# Indices 1 2 3 4 5 6 
#
# 1 80.6354 2.4093 16.7241 3.8948 20.0419 15.4856
# 2 2.4093 74.2022 16.1447 3.4221 26.3527 4.5583
# 3 16.7241 16.1447 52.4178 1.6487 26.2082 -8.7830
# 4 3.8948 3.4221 1.6487 14.9214 -1.1561 -0.8567
# 5 20.0419 26.3527 26.2082 -1.1561 37.4098 -7.2416
# 6 15.4856 4.5583 -8.7830 -0.8567 -7.2416 29.3238
#
#
#
# Elastic Compliance Matrix: (Units=1/GPa)
#
#
# Indices 1 2 3 4 5 6 
#
# 1 0.021607 0.008430 -0.002441 -0.009899 -0.019712 -0.018610
# 2 0.008430 0.022985 0.000087 -0.010142 -0.023827 -0.014179
# 3 -0.002441 0.000087 0.030448 -0.003910 -0.019130 0.005557
# 4 -0.009899 -0.010142 -0.003910 0.074638 0.019960 0.012743
# 5 -0.019712 -0.023827 -0.019130 0.019960 0.073336 0.027078
# 6 -0.018610 -0.014179 0.005557 0.012743 0.027078 0.054857
#
#
# Mechanical properties :
#
#
# Convention : Reuss Voigt Hill
#
# Bulk Modulus (GPa) = 11.46883 30.86794 21.16839
# Shear Modulus (GPa) = 16.96158 27.79616 22.37887
#
# Velocity S-wave (km/s) = 2.85032 3.64882 3.27400
# Velocity P-wave (km/s) = 4.04052 5.70413 4.94282
#
# Compressibility (1/GPa) = 0.08719283
#
# Stress axis : x y z
#
# Youngs Moduli (GPa) = 46.28030 43.50712 32.84252
#
# Poissons Ratio (x) = -0.36677 0.08018
# Poissons Ratio (y) = -0.39015 -0.00287
# Poissons Ratio (z) = 0.11298 -0.00380
#
# Static dielectric constant tensor:
#      x y z
#    x 1.845750 -0.010380 0.000800 
#    y -0.010380 1.837420 -0.032700 
#    z 0.000800 -0.032700 1.782310 
# 
# From -- ./inp_files/185905.got.cif
#   From: 2010.05.17/outbox.cif.g08.bks.cpg/sg2_93_cif.got.tgz:185905.got - 2010.06.03 11:33:40.
