data_PCOD9072186
_publ_section_title
;
Structure prediction by ZEFSAII (Michael W. Deem and Ramdas Pophale) SiO2 
 PCOD9072186
Probable space group: P -1
;
_chemical_formula_sum "Si O2"
_cell_formula_units_Z 16
_cell_length_a 16.301565
_cell_length_b 9.038687
_cell_length_c 20.164215
_cell_angle_alpha 151.119128
_cell_angle_beta 26.990678
_cell_angle_gamma 148.057055
_cell_volume 618.828842
_symmetry_space_group_name_H-M "P -1"
_symmetry_group_IT_number 2
_symmetry_cell_setting 'triclinic'
loop_
_space_group_symop_operation_xyz
x,y,z
-x,-y,-z
loop_
_atom_site_type_symbol
_atom_site_label
_atom_site_fract_x
_atom_site_fract_y
_atom_site_fract_z
Si Si1 0.225586 0.939185 0.473026
Si Si2 0.860339 0.218080 0.672689
Si Si3 0.800173 0.391449 0.256830
Si Si4 0.192986 0.804601 0.965901
Si Si5 0.423642 0.450753 0.741227
Si Si6 0.236277 0.732786 0.613240
Si Si7 0.214916 0.282823 0.252783
Si Si8 0.254343 0.720279 0.082075
O O1 0.245261 0.901017 0.365574
O O2 0.304637 0.668878 0.342004
O O3 0.000129 0.806922 0.599705
O O4 0.281332 0.320073 0.594951
O O5 0.724928 0.232401 0.836416
O O6 0.016102 0.569051 0.693147
O O7 0.000000 0.000000 0.500000
O O8 0.780121 0.154456 0.116248
O O9 0.728682 0.257422 0.328473
O O10 0.026843 0.558517 0.170533
O O11 0.356050 0.676266 0.828899
O O12 0.000000 0.500000 0.000000
O O13 0.196949 0.118900 0.128583
O O14 0.642376 0.481281 0.588272
O O15 0.311436 0.077943 0.660492
O O16 0.350900 0.504267 0.887005
O O17 0.309401 0.066695 0.143152
#
# Coordination Sequence:
#
# PCOD9072186 Si02
#       8
#     2   2   2   2   2   2   2   2
#     4  10  18  30  52  81 113 136 180 231 276 326
#     4  11  19  34  56  82 107 145 188 229 272 324
#     4  10  19  35  57  85 110 142 190 236 279 322
#     4  11  19  35  57  83 109 145 191 235 276 324
#     4  10  22  39  55  82 117 147 185 227 287 340
#     4  10  23  37  56  82 116 151 180 230 286 337
#     4   9  18  29  50  80 109 136 176 232 278 315
#     4   9  18  34  54  76 111 138 186 228 269 325
#
# _framework density 25.855291000000001
#
# number of rings (size 3 to 8) (size 9 to 14) (size 15 to 20)
#    0.000    2.000    7.500    0.000    1.750    3.500 
#    0.000    0.625    0.000    3.000    0.000    0.000 
#    0.000    0.000    0.000    0.000    0.000    0.000 
#
# Total GULP energy -89599.301875 kJ/mol
# GULP energy per Si atom -5599.956367 kJ/mol
# Density = 2.579644 g / cm^3
# Si number density = 25.855291 Si / 1000 Ang^3
#
#
#
# Elastic Constant Matrix: (Units=GPa)
#
#
# Indices 1 2 3 4 5 6 
#
# 1 59.6359 16.0876 50.8331 -10.8696 22.2996 -9.9489
# 2 16.0876 62.8996 21.1370 -5.7584 -8.8985 3.5208
# 3 50.8331 21.1370 122.5327 -20.2226 23.5625 -14.8098
# 4 -10.8696 -5.7584 -20.2226 24.2456 -16.2864 7.1952
# 5 22.2996 -8.8985 23.5625 -16.2864 50.2633 -3.3223
# 6 -9.9489 3.5208 -14.8098 7.1952 -3.3223 33.6758
#
#
#
# Elastic Compliance Matrix: (Units=1/GPa)
#
#
# Indices 1 2 3 4 5 6 
#
# 1 0.031511 -0.007367 -0.009682 -0.005604 -0.012177 0.005818
# 2 -0.007367 0.021007 -0.001815 0.008904 0.010323 -0.006055
# 3 -0.009682 -0.001815 0.013792 0.005785 -0.000478 0.002112
# 4 -0.005604 0.008904 0.005785 0.063239 0.021083 -0.011474
# 5 -0.012177 0.010323 -0.000478 0.021083 0.033780 -0.006059
# 6 0.005818 -0.006055 0.002112 -0.011474 -0.006059 0.034829
#
#
# Mechanical properties :
#
#
# Convention : Reuss Voigt Hill
#
# Bulk Modulus (GPa) = 34.98630 46.79819 40.89225
# Shear Modulus (GPa) = 20.37372 32.10431 26.23902
#
# Velocity S-wave (km/s) = 2.81016 3.52759 3.18911
# Velocity P-wave (km/s) = 4.90819 5.89332 5.42317
#
# Compressibility (1/GPa) = 0.02858261
#
# Stress axis : x y z
#
# Youngs Moduli (GPa) = 31.73507 47.60310 72.50350
#
# Poissons Ratio (x) = 0.35071 0.70196
# Poissons Ratio (y) = 0.23381 0.13158
# Poissons Ratio (z) = 0.30725 0.08639
#
# Static dielectric constant tensor:
#      x y z
#    x 2.035340 0.032400 -0.012070 
#    y 0.032400 2.070610 0.007670 
#    z -0.012070 0.007670 2.005260 
# 
# From -- ./inp_files/199689.got.cif
#   From: 2010.05.17/outbox.cif.g08.bks.cpg/sg2_100_cif.got.tgz:199689.got - 2010.06.03 11:33:40.
