data_PCOD9072317
_publ_section_title
;
Structure prediction by ZEFSAII (Michael W. Deem and Ramdas Pophale) SiO2 
 PCOD9072317
Probable space group: P -1
;
_chemical_formula_sum "Si O2"
_cell_formula_units_Z 12
_cell_length_a 9.000000
_cell_length_b 9.000000
_cell_length_c 18.000000
_cell_angle_alpha 40.000000
_cell_angle_beta 60.000000
_cell_angle_gamma 90.000000
_cell_volume 588.959657
_symmetry_space_group_name_H-M "P -1"
_symmetry_group_IT_number 2
_symmetry_cell_setting 'triclinic'
loop_
_space_group_symop_operation_xyz
x,y,z
-x,-y,-z
loop_
_atom_site_type_symbol
_atom_site_label
_atom_site_fract_x
_atom_site_fract_y
_atom_site_fract_z
Si Si1 0.375593 0.751990 0.514735
Si Si2 0.617846 0.409485 0.270674
Si Si3 0.600904 0.348417 0.835854
Si Si4 0.256416 0.313993 0.174180
Si Si5 0.956623 0.367366 0.478777
Si Si6 0.898112 0.285469 0.178821
O O1 0.357302 0.549344 0.662953
O O2 0.821249 0.409703 0.437682
O O3 0.404988 0.034425 0.440750
O O4 0.642567 0.954134 0.343568
O O5 0.574755 0.608686 0.162800
O O6 0.840831 0.456193 0.178041
O O7 0.707221 0.507766 0.828403
O O8 0.803444 0.507891 0.663380
O O9 0.500000 0.000000 0.000000
O O10 0.062253 0.255026 0.192037
O O11 0.500000 0.500000 0.000000
O O12 0.196907 0.002505 0.333642
O O13 0.000000 0.500000 0.500000
O O14 0.000000 0.500000 0.000000
#
# Coordination Sequence:
#
# PCOD9072317 Si02
#       6
#     2   2   2   2   2   2
#     4   9  19  39  65  90 124 167 224 258 334 382
#     4   9  19  39  65  90 124 167 224 258 334 382
#     4  12  25  42  65  98 133 176 224 276 331 391
#     4  12  23  42  69  98 132 176 222 276 329 398
#     4  12  25  42  65  98 133 176 224 276 331 391
#     4  10  19  34  61  94 124 166 212 268 325 384
#
# _framework density 20.37491
#
# number of rings (size 3 to 8) (size 9 to 14) (size 15 to 20)
#    1.000    0.333    1.667    5.500    0.000    0.000 
#    0.000    8.333    0.000    0.000    0.000    0.000 
#    0.000    0.000    0.000    0.000    0.000    0.000 
#
# Total GULP energy -66807.490988 kJ/mol
# GULP energy per Si atom -5567.290916 kJ/mol
# Density = 2.032854 g / cm^3
# Si number density = 20.374910 Si / 1000 Ang^3
#
#
#
# Elastic Constant Matrix: (Units=GPa)
#
#
# Indices 1 2 3 4 5 6 
#
# 1 119.6189 -14.1373 -34.9214 -0.0247 3.1461 13.8960
# 2 -14.1373 76.7831 -1.0867 2.4616 -6.7812 22.0803
# 3 -34.9214 -1.0867 46.5190 13.8349 6.3559 -8.1277
# 4 -0.0247 2.4616 13.8349 35.1255 -8.0300 0.6365
# 5 3.1461 -6.7812 6.3559 -8.0300 29.8504 7.5209
# 6 13.8960 22.0803 -8.1277 0.6365 7.5209 35.1508
#
#
#
# Elastic Compliance Matrix: (Units=1/GPa)
#
#
# Indices 1 2 3 4 5 6 
#
# 1 0.012408 0.003403 0.010695 -0.005113 -0.003234 -0.003785
# 2 0.003403 0.018686 -0.001194 0.001340 0.008322 -0.015164
# 3 0.010695 -0.001194 0.039431 -0.019623 -0.017529 0.009745
# 4 -0.005113 0.001340 -0.019623 0.040328 0.017863 -0.007910
# 5 -0.003234 0.008322 -0.017529 0.017863 0.049009 -0.018812
# 6 -0.003785 -0.015164 0.009745 -0.007910 -0.018812 0.045892
#
#
# Mechanical properties :
#
#
# Convention : Reuss Voigt Hill
#
# Bulk Modulus (GPa) = 10.38062 15.84780 13.11421
# Shear Modulus (GPa) = 23.57850 39.56310 31.57080
#
# Velocity S-wave (km/s) = 3.40550 4.41132 3.94063
# Velocity P-wave (km/s) = 4.53532 5.80872 5.21106
#
# Compressibility (1/GPa) = 0.09633340
#
# Stress axis : x y z
#
# Youngs Moduli (GPa) = 80.59219 53.51622 25.36058
#
# Poissons Ratio (x) = -0.18211 -0.27124
# Poissons Ratio (y) = -0.27424 0.03028
# Poissons Ratio (z) = -0.86196 0.06390
#
# Static dielectric constant tensor:
#      x y z
#    x 1.648890 0.017130 0.009010 
#    y 0.017130 1.715590 -0.019900 
#    z 0.009010 -0.019900 1.672880 
# 
# From -- ./inp_files/554015.got.cif
#   From: 2010.05.17/outbox.ucp.g08.bks.cvg/sg2_278_cif.got.tgz:554015.got - 2010.06.11 11:32:03.
