data_PCOD9072819
_publ_section_title
;
Structure prediction by ZEFSAII (Michael W. Deem and Ramdas Pophale) SiO2 
 PCOD9072819
Probable space group: P -1
;
_chemical_formula_sum "Si O2"
_cell_formula_units_Z 16
_cell_length_a 9.000000
_cell_length_b 9.000000
_cell_length_c 18.000000
_cell_angle_alpha 50.000000
_cell_angle_beta 60.000000
_cell_angle_gamma 90.000000
_cell_volume 846.172868
_symmetry_space_group_name_H-M "P -1"
_symmetry_group_IT_number 2
_symmetry_cell_setting 'triclinic'
loop_
_space_group_symop_operation_xyz
x,y,z
-x,-y,-z
loop_
_atom_site_type_symbol
_atom_site_label
_atom_site_fract_x
_atom_site_fract_y
_atom_site_fract_z
Si Si1 0.115503 0.802198 0.047356
Si Si2 0.200414 0.732495 0.884550
Si Si3 0.566124 0.692379 0.754895
Si Si4 0.609457 0.472834 0.553520
Si Si5 0.306104 0.816794 0.482723
Si Si6 0.264558 0.042094 0.626365
Si Si7 0.942924 0.650275 0.727881
Si Si8 0.328817 0.295901 0.824279
O O1 0.133297 0.595212 0.140880
O O2 0.884349 0.730099 0.135397
O O3 0.173269 0.823050 0.939931
O O4 0.260030 0.054065 0.957106
O O5 0.388720 0.690671 0.848997
O O6 0.228007 0.911394 0.756313
O O7 0.000000 0.500000 0.000000
O O8 0.749606 0.672964 0.750028
O O9 0.449394 0.496078 0.787408
O O10 0.661459 0.937212 0.616886
O O11 0.500000 0.500000 0.500000
O O12 0.683979 0.308618 0.554424
O O13 0.756412 0.735278 0.447923
O O14 0.466318 0.359372 0.696001
O O15 0.496306 0.859613 0.473033
O O16 0.089781 0.673282 0.616647
O O17 0.102366 0.849820 0.676500
#
# Coordination Sequence:
#
# PCOD9072819 Si02
#       8
#     2   2   2   2   2   2   2   2
#     4  11  22  38  63  87 118 155 204 241 293 352
#     4  11  20  41  61  88 116 154 197 241 298 344
#     4  11  24  40  60  85 123 159 196 242 297 355
#     4  10  20  37  63  92 114 144 202 253 290 335
#     4  10  21  40  62  86 121 152 199 244 295 347
#     4  10  20  37  65  89 116 152 200 247 287 351
#     4  12  23  38  59  91 120 159 197 240 297 351
#     4  11  22  39  61  88 118 159 196 248 294 346
#
# _framework density 18.908666
#
# number of rings (size 3 to 8) (size 9 to 14) (size 15 to 20)
#    0.000    1.250    2.500    6.000    0.000    2.000 
#    0.000    3.750    0.000    0.000    0.000    0.000 
#    0.000    0.000    0.000    0.000    0.000    0.000 
#
# Total GULP energy -89168.118754 kJ/mol
# GULP energy per Si atom -5573.007422 kJ/mol
# Density = 1.886563 g / cm^3
# Si number density = 18.908666 Si / 1000 Ang^3
#
#
#
# Elastic Constant Matrix: (Units=GPa)
#
#
# Indices 1 2 3 4 5 6 
#
# 1 88.5603 34.9640 35.8758 -5.5395 -8.2343 -15.8583
# 2 34.9640 127.5841 54.7359 -13.7524 1.3686 -9.2718
# 3 35.8758 54.7359 121.5849 -11.2029 -10.8059 -7.3158
# 4 -5.5395 -13.7524 -11.2029 55.4736 -12.2264 -1.1463
# 5 -8.2343 1.3686 -10.8059 -12.2264 24.2131 0.2654
# 6 -15.8583 -9.2718 -7.3158 -1.1463 0.2654 14.1964
#
#
#
# Elastic Compliance Matrix: (Units=1/GPa)
#
#
# Indices 1 2 3 4 5 6 
#
# 1 0.016626 -0.002265 -0.002201 0.002255 0.005763 0.016032
# 2 -0.002265 0.010515 -0.004068 0.001014 -0.002694 0.002372
# 3 -0.002201 -0.004068 0.011496 0.002392 0.005810 0.000893
# 4 0.002255 0.001014 0.002392 0.021927 0.012784 0.005946
# 5 0.005763 -0.002694 0.005810 0.012784 0.052376 0.007725
# 6 0.016032 0.002372 0.000893 0.005946 0.007725 0.090695
#
#
# Mechanical properties :
#
#
# Convention : Reuss Voigt Hill
#
# Bulk Modulus (GPa) = 46.36787 65.43119 55.89953
# Shear Modulus (GPa) = 21.94011 32.92020 27.43015
#
# Velocity S-wave (km/s) = 3.41004 4.17707 3.81289
# Velocity P-wave (km/s) = 6.33086 7.61202 7.00081
#
# Compressibility (1/GPa) = 0.02156666
#
# Stress axis : x y z
#
# Youngs Moduli (GPa) = 60.14811 95.10345 86.98449
#
# Poissons Ratio (x) = 0.21545 0.19146
# Poissons Ratio (y) = 0.13626 0.35389
# Poissons Ratio (z) = 0.13239 0.38693
#
# Static dielectric constant tensor:
#      x y z
#    x 1.646570 -0.005190 0.015900 
#    y -0.005190 1.756730 -0.003700 
#    z 0.015900 -0.003700 1.668390 
# 
# From -- ./inp_files/239152.got.cif
#   From: 2010.05.17/outbox.ucp.g08.bks.cvg/sg2_120_cif.got.tgz:239152.got - 2010.06.11 11:32:03.
