data_PCOD9072598
_publ_section_title
;
Structure prediction by ZEFSAII (Michael W. Deem and Ramdas Pophale) SiO2 
 PCOD9072598
Probable space group: P -1
;
_chemical_formula_sum "Si O2"
_cell_formula_units_Z 16
_cell_length_a 12.000000
_cell_length_b 18.000000
_cell_length_c 9.000000
_cell_angle_alpha 140.000000
_cell_angle_beta 100.000000
_cell_angle_gamma 50.000000
_cell_volume 729.599496
_symmetry_space_group_name_H-M "P -1"
_symmetry_group_IT_number 2
_symmetry_cell_setting 'triclinic'
loop_
_space_group_symop_operation_xyz
x,y,z
-x,-y,-z
loop_
_atom_site_type_symbol
_atom_site_label
_atom_site_fract_x
_atom_site_fract_y
_atom_site_fract_z
Si Si1 0.084377 0.089900 0.399374
Si Si2 0.063706 0.250120 0.342664
Si Si3 0.665389 0.633009 0.750677
Si Si4 0.679638 0.764310 0.682740
Si Si5 0.639646 0.294230 0.293864
Si Si6 0.569553 0.072181 0.601184
Si Si7 0.382744 0.886912 0.645374
Si Si8 0.303986 0.699347 0.336346
O O1 0.051132 0.200752 0.421875
O O2 0.882458 0.220833 0.623739
O O3 0.235571 0.035967 0.450755
O O4 0.180044 0.894045 0.051716
O O5 0.138654 0.321050 0.475831
O O6 0.860243 0.403355 0.453427
O O7 0.226498 0.057312 0.987088
O O8 0.713001 0.703617 0.767881
O O9 0.491078 0.713051 0.751839
O O10 0.592835 0.719656 0.032353
O O11 0.595572 0.722106 0.512620
O O12 0.500000 0.000000 0.000000
O O13 0.500000 0.500000 0.500000
O O14 0.685032 0.299730 0.478823
O O15 0.593054 0.059658 0.413368
O O16 0.500000 0.000000 0.500000
O O17 0.299030 0.835119 0.492618
O O18 0.500000 0.500000 0.000000
#
# Coordination Sequence:
#
# PCOD9072598 Si02
#       8
#     2   2   2   2   2   2   2   2
#     4  11  25  46  68  96 132 181 224 265 336 399
#     4  11  22  41  70  97 127 172 227 273 323 403
#     4  11  23  40  67 103 127 171 229 262 330 405
#     4  10  19  41  66  94 128 172 218 271 323 392
#     4  11  23  43  70  95 129 179 226 269 323 400
#     4  11  24  45  66  98 138 173 213 275 337 391
#     4  11  23  42  66  92 136 176 214 276 337 381
#     4  12  27  44  65  98 136 173 224 277 334 390
#
# _framework density 21.929839999999999
#
# number of rings (size 3 to 8) (size 9 to 14) (size 15 to 20)
#    0.000    1.000    2.500    6.000    7.000    1.500 
#    2.250    1.250    0.000    0.000    0.000    0.000 
#    0.000    0.000    0.000    0.000    0.000    0.000 
#
# Total GULP energy -89218.504049 kJ/mol
# GULP energy per Si atom -5576.156503 kJ/mol
# Density = 2.187993 g / cm^3
# Si number density = 21.929840 Si / 1000 Ang^3
#
#
#
# Elastic Constant Matrix: (Units=GPa)
#
#
# Indices 1 2 3 4 5 6 
#
# 1 124.7993 0.7605 41.2266 -3.1714 -26.9128 -4.8244
# 2 0.7605 48.2325 9.0575 2.6434 -6.9229 0.5228
# 3 41.2266 9.0575 57.3191 4.4217 -14.9667 -16.7063
# 4 -3.1714 2.6434 4.4217 22.0306 -8.2297 0.8235
# 5 -26.9128 -6.9229 -14.9667 -8.2297 27.0255 4.6246
# 6 -4.8244 0.5228 -16.7063 0.8235 4.6246 41.1667
#
#
#
# Elastic Compliance Matrix: (Units=1/GPa)
#
#
# Indices 1 2 3 4 5 6 
#
# 1 0.013636 0.002803 -0.008610 0.008204 0.012628 -0.003515
# 2 0.002803 0.022501 -0.004660 0.001284 0.006817 -0.002640
# 3 -0.008610 -0.004660 0.028518 -0.005883 0.002442 0.010467
# 4 0.008204 0.001284 -0.005883 0.056511 0.023338 -0.005195
# 5 0.012628 0.006817 0.002442 0.023338 0.060621 -0.004892
# 6 -0.003515 -0.002640 0.010467 -0.005195 -0.004892 0.028814
#
#
# Mechanical properties :
#
#
# Convention : Reuss Voigt Hill
#
# Bulk Modulus (GPa) = 22.87312 36.93780 29.90546
# Shear Modulus (GPa) = 20.31620 29.99830 25.15725
#
# Velocity S-wave (km/s) = 3.04701 3.70255 3.39066
# Velocity P-wave (km/s) = 4.77827 5.92948 5.38473
#
# Compressibility (1/GPa) = 0.04371944
#
# Stress axis : x y z
#
# Youngs Moduli (GPa) = 73.33481 44.44332 35.06588
#
# Poissons Ratio (x) = -0.12458 0.30193
# Poissons Ratio (y) = -0.20556 0.16341
# Poissons Ratio (z) = 0.63145 0.20711
#
# Static dielectric constant tensor:
#      x y z
#    x 1.756980 -0.004440 -0.033960 
#    y -0.004440 1.883050 0.027820 
#    z -0.033960 0.027820 1.745830 
# 
# From -- ./inp_files/242001.got.cif
#   From: 2010.05.17/outbox.ucp.g08.bks.cvg/sg2_122_cif.got.tgz:242001.got - 2010.06.11 11:32:03.
