data_PCOD9072315
_publ_section_title
;
Structure prediction by ZEFSAII (Michael W. Deem and Ramdas Pophale) SiO2 
 PCOD9072315
Probable space group: P -1
;
_chemical_formula_sum "Si O2"
_cell_formula_units_Z 16
_cell_length_a 24.000000
_cell_length_b 6.000000
_cell_length_c 18.000000
_cell_angle_alpha 90.000000
_cell_angle_beta 160.000000
_cell_angle_gamma 80.000000
_cell_volume 763.756843
_symmetry_space_group_name_H-M "P -1"
_symmetry_group_IT_number 2
_symmetry_cell_setting 'triclinic'
loop_
_space_group_symop_operation_xyz
x,y,z
-x,-y,-z
loop_
_atom_site_type_symbol
_atom_site_label
_atom_site_fract_x
_atom_site_fract_y
_atom_site_fract_z
Si Si1 0.906011 0.321400 0.249062
Si Si2 0.408624 0.111807 0.128914
Si Si3 0.684038 0.020304 0.240469
Si Si4 0.097021 0.925186 0.909924
Si Si5 0.325967 0.789589 0.924417
Si Si6 0.345340 0.421406 0.290440
Si Si7 0.320630 0.742877 0.606171
Si Si8 0.534668 0.052251 0.648343
O O1 0.902560 0.154528 0.175330
O O2 0.826480 0.249689 0.221995
O O3 0.765126 0.621439 0.059265
O O4 0.121297 0.250222 0.524954
O O5 0.581957 0.151283 0.327269
O O6 0.474077 0.901129 0.275592
O O7 0.327719 0.039808 0.956486
O O8 0.696228 0.196488 0.191213
O O9 0.678398 0.135349 0.313251
O O10 0.500000 0.000000 0.000000
O O11 0.149794 0.670274 0.023934
O O12 0.895881 0.162170 0.680523
O O13 0.271085 0.970649 0.136353
O O14 0.534420 0.558921 0.205893
O O15 0.500000 0.500000 0.500000
O O16 0.432015 0.226522 0.330069
O O17 0.359082 0.259251 0.380402
#
# Coordination Sequence:
#
# PCOD9072315 Si02
#       8
#     2   2   2   2   2   2   2   2
#     4  10  22  37  59  83 112 151 195 236 283 334
#     4  11  21  38  59  87 114 151 189 236 282 341
#     4  11  22  41  57  82 116 153 193 243 284 330
#     4  10  19  37  58  86 115 149 190 235 280 337
#     4  11  22  40  56  81 114 155 193 235 287 336
#     4   9  19  34  60  90 116 144 186 234 278 336
#     4  10  24  38  57  82 119 154 189 236 289 331
#     4  10  19  34  61  89 113 148 190 228 282 339
#
# _framework density 20.949076000000002
#
# number of rings (size 3 to 8) (size 9 to 14) (size 15 to 20)
#    0.000    1.750    3.750    0.750    0.000    2.500 
#    2.250    0.625    0.000    7.500    0.000    0.000 
#    0.000    0.000    0.000    0.000    0.000    0.000 
#
# Total GULP energy -89180.196683 kJ/mol
# GULP energy per Si atom -5573.762293 kJ/mol
# Density = 2.090139 g / cm^3
# Si number density = 20.949076 Si / 1000 Ang^3
#
#
#
# Elastic Constant Matrix: (Units=GPa)
#
#
# Indices 1 2 3 4 5 6 
#
# 1 65.9410 8.0388 63.2611 -18.1222 -1.3342 3.7940
# 2 8.0388 22.6009 9.1497 -9.5353 7.8865 -1.8750
# 3 63.2611 9.1497 86.4134 -7.0456 8.9786 1.8478
# 4 -18.1222 -9.5353 -7.0456 10.2485 -6.5357 0.8552
# 5 -1.3342 7.8865 8.9786 -6.5357 18.9609 -9.5361
# 6 3.7940 -1.8750 1.8478 0.8552 -9.5361 11.1688
#
#
#
# Elastic Compliance Matrix: (Units=1/GPa)
#
#
# Indices 1 2 3 4 5 6 
#
# 1 -0.036652 -0.023904 0.028335 -0.104437 -0.063347 -0.042340
# 2 -0.023904 0.058737 0.016481 -0.005248 -0.048813 -0.026021
# 3 0.028335 0.016481 -0.008603 0.081902 0.037779 0.020550
# 4 -0.104437 -0.005248 0.081902 -0.102310 -0.113375 -0.067921
# 5 -0.063347 -0.048813 0.037779 -0.113375 0.034246 0.044995
# 6 -0.042340 -0.026021 0.020550 -0.067921 0.044995 0.139769
#
#
# Mechanical properties :
#
#
# Convention : Reuss Voigt Hill
#
# Bulk Modulus (GPa) = 18.08163 37.31716 27.69940
# Shear Modulus (GPa) = 80.90940 14.37601 47.64271
#
# Velocity S-wave (km/s) = 6.22140 2.62245 4.77405
# Velocity P-wave (km/s) = 7.76258 5.19823 6.60603
#
# Compressibility (1/GPa) = 0.05530474
#
# Stress axis : x y z
#
# Youngs Moduli (GPa) = -27.28376 17.02518 -116.23549
#
# Poissons Ratio (x) = 0.40698 3.29355
# Poissons Ratio (y) = -0.65220 1.91567
# Poissons Ratio (z) = 0.77309 -0.28059
#
# Static dielectric constant tensor:
#      x y z
#    x 1.815100 0.023960 -0.062150 
#    y 0.023960 1.804370 -0.018410 
#    z -0.062150 -0.018410 1.761080 
# 
# From -- ./inp_files/37814.got.cif
#   From: 2010.05.17/outbox.ucp.g08.bks.cvg/sg2_19_cif.got.tgz:37814.got - 2010.06.11 11:32:03.
