data_PCOD9072219
_publ_section_title
;
Structure prediction by ZEFSAII (Michael W. Deem and Ramdas Pophale) SiO2 
 PCOD9072219
Probable space group: P -1
;
_chemical_formula_sum "Si O2"
_cell_formula_units_Z 16
_cell_length_a 8.076005
_cell_length_b 17.685771
_cell_length_c 14.833921
_cell_angle_alpha 26.994020
_cell_angle_beta 42.876280
_cell_angle_gamma 56.855131
_cell_volume 614.424072
_symmetry_space_group_name_H-M "P -1"
_symmetry_group_IT_number 2
_symmetry_cell_setting 'triclinic'
loop_
_space_group_symop_operation_xyz
x,y,z
-x,-y,-z
loop_
_atom_site_type_symbol
_atom_site_label
_atom_site_fract_x
_atom_site_fract_y
_atom_site_fract_z
Si Si1 0.180819 0.815197 0.764745
Si Si2 0.153429 0.186935 0.347184
Si Si3 0.416523 0.939918 0.312014
Si Si4 0.368996 0.324467 0.297656
Si Si5 0.660765 0.461273 0.758197
Si Si6 0.585321 0.838845 0.173786
Si Si7 0.161440 0.846706 0.944718
Si Si8 0.413372 0.323455 0.830477
O O1 0.386501 0.739707 0.719577
O O2 0.731671 0.141153 0.212433
O O3 0.883457 0.684394 0.032684
O O4 0.180308 0.995806 0.527926
O O5 0.161721 0.211904 0.426277
O O6 0.388197 0.332701 0.048110
O O7 0.880817 0.178736 0.424721
O O8 0.493054 0.825658 0.326554
O O9 0.647053 0.013121 0.213551
O O10 0.401136 0.127464 0.079984
O O11 0.500000 0.500000 0.000000
O O12 0.260655 0.369883 0.386571
O O13 0.593859 0.467105 0.674080
O O14 0.850432 0.347893 0.811926
O O15 0.491666 0.681120 0.305119
O O16 0.500000 0.000000 0.000000
O O17 0.891914 0.878459 0.012470
#
# Coordination Sequence:
#
# PCOD9072219 Si02
#       8
#     2   2   2   2   2   2   2   2
#     4  10  18  32  50  78 107 145 174 215 268 304
#     4  10  20  34  52  79 117 140 171 222 267 319
#     4   9  18  31  51  80 107 139 172 223 271 306
#     4  10  19  33  51  73 110 150 180 209 257 330
#     4  10  20  35  52  80 109 147 176 212 270 318
#     4   9  17  33  52  78 107 136 176 225 268 310
#     4  10  18  30  53  78 106 140 176 218 262 321
#     4   8  18  31  52  76 105 139 175 224 259 310
#
# _framework density 26.040645000000001
#
# number of rings (size 3 to 8) (size 9 to 14) (size 15 to 20)
#    0.000    2.500    2.500    1.500    0.000    5.000 
#    0.000    0.000    0.000    1.500    0.000    0.000 
#    0.000    0.000    0.000    0.000    0.000    0.000 
#
# Total GULP energy -89551.906415 kJ/mol
# GULP energy per Si atom -5596.994151 kJ/mol
# Density = 2.598138 g / cm^3
# Si number density = 26.040645 Si / 1000 Ang^3
#
#
#
# Elastic Constant Matrix: (Units=GPa)
#
#
# Indices 1 2 3 4 5 6 
#
# 1 167.5803 97.7750 18.1152 -4.2742 -32.5504 11.0343
# 2 97.7750 169.2172 32.0044 -15.9176 -28.5245 12.0473
# 3 18.1152 32.0044 46.3316 -3.1032 -10.3800 -5.7645
# 4 -4.2742 -15.9176 -3.1032 32.3313 -7.8871 -4.4399
# 5 -32.5504 -28.5245 -10.3800 -7.8871 23.4684 -6.4618
# 6 11.0343 12.0473 -5.7645 -4.4399 -6.4618 61.5658
#
#
#
# Elastic Compliance Matrix: (Units=1/GPa)
#
#
# Indices 1 2 3 4 5 6 
#
# 1 0.010441 -0.004361 0.001494 0.002021 0.010626 0.000383
# 2 -0.004361 0.011091 -0.003864 0.006329 0.007716 -0.000484
# 3 0.001494 -0.003864 0.027300 0.004547 0.012262 0.004659
# 4 0.002021 0.006329 0.004547 0.042248 0.028030 0.004814
# 5 0.010626 0.007716 0.012262 0.028030 0.083928 0.008564
# 6 0.000383 -0.000484 0.004659 0.004814 0.008564 0.017951
#
#
# Mechanical properties :
#
#
# Convention : Reuss Voigt Hill
#
# Bulk Modulus (GPa) = 28.27319 75.43537 51.85428
# Shear Modulus (GPa) = 22.91375 39.15538 31.03456
#
# Velocity S-wave (km/s) = 2.96957 3.88187 3.45595
# Velocity P-wave (km/s) = 4.75801 7.00879 5.99006
#
# Compressibility (1/GPa) = 0.03536919
#
# Stress axis : x y z
#
# Youngs Moduli (GPa) = 95.77996 90.16601 36.63067
#
# Poissons Ratio (x) = 0.39323 -0.05473
# Poissons Ratio (y) = 0.41772 0.14153
# Poissons Ratio (z) = -0.14310 0.34836
#
# Static dielectric constant tensor:
#      x y z
#    x 2.149110 0.072480 0.069170 
#    y 0.072480 2.055290 0.003360 
#    z 0.069170 0.003360 2.083180 
# 
# From -- ./inp_files/495505.got.cif
#   From: 2010.05.17/outbox.cif.g08.bks.cpg/sg2_248_cif.got.tgz:495505.got - 2010.06.03 11:33:40.
