data_PCOD9072449
_publ_section_title
;
Structure prediction by ZEFSAII (Michael W. Deem and Ramdas Pophale) SiO2 
 PCOD9072449
Probable space group: P -1
;
_chemical_formula_sum "Si O2"
_cell_formula_units_Z 14
_cell_length_a 12.000000
_cell_length_b 18.000000
_cell_length_c 9.000000
_cell_angle_alpha 140.000000
_cell_angle_beta 80.000000
_cell_angle_gamma 130.000000
_cell_volume 729.599496
_symmetry_space_group_name_H-M "P -1"
_symmetry_group_IT_number 2
_symmetry_cell_setting 'triclinic'
loop_
_space_group_symop_operation_xyz
x,y,z
-x,-y,-z
loop_
_atom_site_type_symbol
_atom_site_label
_atom_site_fract_x
_atom_site_fract_y
_atom_site_fract_z
Si Si1 0.786884 0.499516 0.574710
Si Si2 0.187507 0.916010 0.250250
Si Si3 0.299379 0.835970 0.874392
Si Si4 0.421916 0.333230 0.366176
Si Si5 0.854063 0.918006 0.701069
Si Si6 0.137226 0.955536 0.646937
Si Si7 0.006913 0.258217 0.364545
O O1 0.777602 0.356481 0.386850
O O2 0.593813 0.405377 0.513575
O O3 0.811656 0.542483 0.457404
O O4 0.967522 0.703597 0.930739
O O5 0.204375 0.952631 0.475963
O O6 0.238004 0.073006 0.385566
O O7 0.304431 0.905915 0.138179
O O8 0.160772 0.799170 0.748677
O O9 0.500000 0.000000 0.000000
O O10 0.500000 0.500000 0.500000
O O11 0.289215 0.260792 0.424618
O O12 0.304874 0.148186 0.004503
O O13 0.994510 0.944331 0.630660
O O14 0.973897 0.103935 0.064456
O O15 0.017969 0.772589 0.502324
#
# Coordination Sequence:
#
# PCOD9072449 Si02
#       7
#     2   2   2   2   2   2   2
#     4  10  19  37  57  77 103 143 182 213 258 328
#     4  10  21  36  56  80 105 140 180 222 266 308
#     4  10  19  37  58  76 103 144 181 212 261 331
#     4  11  20  34  57  83 107 142 181 213 257 322
#     4   9  18  34  53  75 109 148 174 205 263 326
#     4  11  20  35  54  81 111 137 175 229 266 298
#     4   9  18  33  54  78 103 142 180 212 258 317
#
# _framework density 19.188610000000001
#
# number of rings (size 3 to 8) (size 9 to 14) (size 15 to 20)
#    0.000    2.286    0.000    9.000    0.000    0.000 
#    0.000   12.857    0.000    0.000    0.000    0.000 
#    0.000    0.000    0.000    0.000    0.000    0.000 
#
# Total GULP energy -78042.705286 kJ/mol
# GULP energy per Si atom -5574.478949 kJ/mol
# Density = 1.914494 g / cm^3
# Si number density = 19.188610 Si / 1000 Ang^3
#
#
#
# Elastic Constant Matrix: (Units=GPa)
#
#
# Indices 1 2 3 4 5 6 
#
# 1 67.3962 4.7048 3.0203 6.1798 -14.6234 9.4640
# 2 4.7048 95.4181 26.8005 -8.3663 -10.9098 -1.8374
# 3 3.0203 26.8005 37.0516 -1.5864 -6.4512 4.1348
# 4 6.1798 -8.3663 -1.5864 33.5018 -0.9156 -5.4622
# 5 -14.6234 -10.9098 -6.4512 -0.9156 19.1508 8.7656
# 6 9.4640 -1.8374 4.1348 -5.4622 8.7656 37.5484
#
#
#
# Elastic Compliance Matrix: (Units=1/GPa)
#
#
# Indices 1 2 3 4 5 6 
#
# 1 0.021860 -0.000092 0.003417 -0.005225 0.023048 -0.012031
# 2 -0.000092 0.013907 -0.009288 0.003365 0.004333 0.001204
# 3 0.003417 -0.009288 0.036694 -0.002286 0.013630 -0.008871
# 4 -0.005225 0.003365 -0.002286 0.032653 -0.004758 0.007594
# 5 0.023048 0.004333 0.013630 -0.004758 0.089811 -0.028756
# 6 -0.012031 0.001204 -0.008871 0.007594 -0.028756 0.038518
#
#
# Mechanical properties :
#
#
# Convention : Reuss Voigt Hill
#
# Bulk Modulus (GPa) = 16.51934 29.87968 23.19951
# Shear Modulus (GPa) = 18.82889 29.06288 23.94589
#
# Velocity S-wave (km/s) = 3.13589 3.89600 3.53643
# Velocity P-wave (km/s) = 4.66255 5.98697 5.36578
#
# Compressibility (1/GPa) = 0.06053510
#
# Stress axis : x y z
#
# Youngs Moduli (GPa) = 45.74478 71.90572 27.25222
#
# Poissons Ratio (x) = 0.00662 -0.09311
# Poissons Ratio (y) = 0.00421 0.25311
# Poissons Ratio (z) = -0.15629 0.66785
#
# Static dielectric constant tensor:
#      x y z
#    x 1.199590 -0.362420 0.038980 
#    y -0.362420 1.439720 0.046100 
#    z 0.038980 0.046100 1.645520 
# 
# From -- ./inp_files/249973.got.cif
#   From: 2010.05.17/outbox.ucp.g08.bks.cvg/sg2_125_cif.got.tgz:249973.got - 2010.06.11 11:32:03.
