data_PCOD9072063
_publ_section_title
;
Structure prediction by ZEFSAII (Michael W. Deem and Ramdas Pophale) SiO2 
 PCOD9072063
Probable space group: P -1
;
_chemical_formula_sum "Si O2"
_cell_formula_units_Z 16
_cell_length_a 9.507778
_cell_length_b 10.760763
_cell_length_c 17.339492
_cell_angle_alpha 31.392539
_cell_angle_beta 97.364531
_cell_angle_gamma 73.851836
_cell_volume 606.002216
_symmetry_space_group_name_H-M "P -1"
_symmetry_group_IT_number 2
_symmetry_cell_setting 'triclinic'
loop_
_space_group_symop_operation_xyz
x,y,z
-x,-y,-z
loop_
_atom_site_type_symbol
_atom_site_label
_atom_site_fract_x
_atom_site_fract_y
_atom_site_fract_z
Si Si1 0.153362 0.994553 0.558576
Si Si2 0.819231 0.186720 0.676494
Si Si3 0.447446 0.172916 0.152063
Si Si4 0.545964 0.425610 0.788946
Si Si5 0.610946 0.109208 0.816854
Si Si6 0.184099 0.960385 0.757705
Si Si7 0.254939 0.086738 0.301120
Si Si8 0.758497 0.624146 0.714454
O O1 0.402091 0.601058 0.763449
O O2 0.101791 0.060508 0.610573
O O3 0.144742 0.287742 0.378303
O O4 0.000000 0.000000 0.500000
O O5 0.748026 0.156014 0.767158
O O6 0.616406 0.555139 0.420718
O O7 0.886269 0.888887 0.779339
O O8 0.006013 0.140677 0.713366
O O9 0.679684 0.976432 0.252002
O O10 0.434599 0.984815 0.315269
O O11 0.324235 0.220566 0.044216
O O12 0.337142 0.536830 0.991795
O O13 0.609714 0.117586 0.904677
O O14 0.746220 0.356552 0.842822
O O15 0.369761 0.762950 0.539470
O O16 0.156931 0.410461 0.177227
O O17 0.500000 0.000000 0.500000
#
# Coordination Sequence:
#
# PCOD9072063 Si02
#       8
#     2   2   2   2   2   2   2   2
#     4  10  18  30  51  77 104 131 168 216 253 296
#     4   9  18  31  52  72 100 130 171 216 248 301
#     4  10  21  33  51  75 110 138 165 209 258 315
#     4   9  16  29  50  70  96 130 171 210 246 296
#     4   9  18  34  50  74 101 138 173 207 258 301
#     4  11  21  34  50  80 107 136 170 206 260 308
#     4   8  14  29  47  71  94 126 169 209 247 283
#     4   8  14  25  46  69  91 125 168 212 241 278
#
# _framework density 26.402543000000001
#
# number of rings (size 3 to 8) (size 9 to 14) (size 15 to 20)
#    0.000    3.000    0.000    5.250    0.000    2.500 
#    0.000    1.875    0.000    0.000    0.000   11.375 
#    0.000    0.000    0.000    0.000    0.000    0.000 
#
# Total GULP energy -89337.887569 kJ/mol
# GULP energy per Si atom -5583.617973 kJ/mol
# Density = 2.634245 g / cm^3
# Si number density = 26.402543 Si / 1000 Ang^3
#
#
#
# Elastic Constant Matrix: (Units=GPa)
#
#
# Indices 1 2 3 4 5 6 
#
# 1 168.9699 13.5572 15.7136 4.3437 6.7484 -29.8408
# 2 13.5572 86.0888 5.5253 1.1215 -10.1015 8.1357
# 3 15.7136 5.5253 46.0377 -1.8458 1.2096 0.0825
# 4 4.3437 1.1215 -1.8458 32.9456 0.4069 -0.5928
# 5 6.7484 -10.1015 1.2096 0.4069 29.2220 -1.7261
# 6 -29.8408 8.1357 0.0825 -0.5928 -1.7261 42.7992
#
#
#
# Elastic Compliance Matrix: (Units=1/GPa)
#
#
# Indices 1 2 3 4 5 6 
#
# 1 0.007309 -0.001715 -0.002286 -0.000914 -0.001858 0.005339
# 2 -0.001715 0.012836 -0.001088 -0.000392 0.004680 -0.003450
# 3 -0.002286 -0.001088 0.022722 0.001597 -0.000896 -0.001445
# 4 -0.000914 -0.000392 0.001597 0.030579 -0.000426 -0.000160
# 5 -0.001858 0.004680 -0.000896 -0.000426 0.036268 -0.000727
# 6 0.005339 -0.003450 -0.001445 -0.000160 -0.000727 0.027714
#
#
# Mechanical properties :
#
#
# Convention : Reuss Voigt Hill
#
# Bulk Modulus (GPa) = 30.59075 41.18763 35.88919
# Shear Modulus (GPa) = 31.54518 38.74671 35.14594
#
# Velocity S-wave (km/s) = 3.46031 3.83500 3.65246
# Velocity P-wave (km/s) = 5.25132 5.93661 5.60445
#
# Compressibility (1/GPa) = 0.03268962
#
# Stress axis : x y z
#
# Youngs Moduli (GPa) = 136.81761 77.90536 44.00950
#
# Poissons Ratio (x) = 0.13360 0.10062
# Poissons Ratio (y) = 0.23463 0.04787
# Poissons Ratio (z) = 0.31281 0.08474
#
# Static dielectric constant tensor:
#      x y z
#    x 2.074620 0.006060 -0.018530 
#    y 0.006060 2.199950 -0.120610 
#    z -0.018530 -0.120610 2.246190 
# 
# From -- ./inp_files/588865.got.cif
#   From: 2010.05.17/outbox.cif.g08.bks.cpg/sg2_295_cif.got.tgz:588865.got - 2010.06.03 11:33:40.
