data_PCOD9072474
_publ_section_title
;
Structure prediction by ZEFSAII (Michael W. Deem and Ramdas Pophale) SiO2 
 PCOD9072474
Probable space group: P -1
;
_chemical_formula_sum "Si O2"
_cell_formula_units_Z 16
_cell_length_a 9.000000
_cell_length_b 15.000000
_cell_length_c 12.000000
_cell_angle_alpha 50.000000
_cell_angle_beta 130.000000
_cell_angle_gamma 140.000000
_cell_volume 759.581896
_symmetry_space_group_name_H-M "P -1"
_symmetry_group_IT_number 2
_symmetry_cell_setting 'triclinic'
loop_
_space_group_symop_operation_xyz
x,y,z
-x,-y,-z
loop_
_atom_site_type_symbol
_atom_site_label
_atom_site_fract_x
_atom_site_fract_y
_atom_site_fract_z
Si Si1 0.068410 0.251782 0.504554
Si Si2 0.599280 0.637834 0.209635
Si Si3 0.537817 0.076298 0.340497
Si Si4 0.532022 0.067962 0.808112
Si Si5 0.811033 0.678525 0.740644
Si Si6 0.011649 0.958681 0.723242
Si Si7 0.701854 0.240079 0.962517
Si Si8 0.163946 0.136394 0.048994
O O1 0.220089 0.331036 0.626234
O O2 0.213450 0.327509 0.400390
O O3 0.815282 0.218341 0.371925
O O4 0.988817 0.088069 0.611386
O O5 0.426276 0.473977 0.215023
O O6 0.420087 0.678552 0.135236
O O7 0.746636 0.732466 0.096276
O O8 0.382819 0.134989 0.197230
O O9 0.500000 0.000000 0.500000
O O10 0.460013 0.958001 0.298955
O O11 0.710676 0.210570 0.857572
O O12 0.272071 0.031992 0.735295
O O13 0.494496 0.924612 0.955039
O O14 0.827880 0.818528 0.673072
O O15 0.050453 0.701571 0.895031
O O16 0.981690 0.892903 0.884362
O O17 0.000000 0.000000 0.000000
#
# Coordination Sequence:
#
# PCOD9072474 Si02
#       8
#     2   2   2   2   2   2   2   2
#     4  12  22  41  62  92 127 170 209 260 311 378
#     4  12  23  41  62  95 130 169 210 263 320 378
#     4  12  23  38  63 101 126 159 204 271 317 369
#     4  10  20  37  64  97 123 156 218 263 306 371
#     4  11  25  38  63  94 130 166 215 263 319 372
#     4  11  22  39  66  91 124 166 214 260 311 365
#     4  10  19  37  64  89 124 164 210 262 311 367
#     4  12  23  41  67  95 126 163 214 259 320 375
#
# _framework density 21.064219999999999
#
# number of rings (size 3 to 8) (size 9 to 14) (size 15 to 20)
#    0.000    0.750    7.500    1.125    3.500    0.500 
#    0.000    0.000    0.000    0.750    0.000    0.000 
#    0.000    0.000    0.000    0.000    0.000    0.000 
#
# Total GULP energy -89172.715043 kJ/mol
# GULP energy per Si atom -5573.294690 kJ/mol
# Density = 2.101628 g / cm^3
# Si number density = 21.064220 Si / 1000 Ang^3
#
#
#
# Elastic Constant Matrix: (Units=GPa)
#
#
# Indices 1 2 3 4 5 6 
#
# 1 46.2188 -10.5371 13.7201 8.6570 -7.0962 3.0742
# 2 -10.5371 57.3543 26.6439 4.9479 18.4189 22.4746
# 3 13.7201 26.6439 85.3939 27.5271 -25.6006 7.3981
# 4 8.6570 4.9479 27.5271 26.8336 4.1890 -9.1572
# 5 -7.0962 18.4189 -25.6006 4.1890 47.7345 -1.6365
# 6 3.0742 22.4746 7.3981 -9.1572 -1.6365 20.5003
#
#
#
# Elastic Compliance Matrix: (Units=1/GPa)
#
#
# Indices 1 2 3 4 5 6 
#
# 1 0.049751 0.061101 -0.012180 -0.042331 -0.022108 -0.090724
# 2 0.061101 0.158965 -0.050996 -0.050120 -0.081856 -0.193956
# 3 -0.012180 -0.050996 0.063515 -0.055844 0.057326 0.014444
# 4 -0.042331 -0.050120 -0.055844 0.175459 -0.026895 0.157676
# 5 -0.022108 -0.081856 0.057326 -0.026895 0.084654 0.067111
# 6 -0.090724 -0.193956 0.014444 0.157676 0.067111 0.345597
#
#
# Mechanical properties :
#
#
# Convention : Reuss Voigt Hill
#
# Bulk Modulus (GPa) = 3.73022 27.62453 15.67737
# Shear Modulus (GPa) = 5.14694 29.62302 17.38498
#
# Velocity S-wave (km/s) = 1.56485 3.75416 2.87598
# Velocity P-wave (km/s) = 2.24494 5.65106 4.29967
#
# Compressibility (1/GPa) = 0.26808042
#
# Stress axis : x y z
#
# Youngs Moduli (GPa) = 20.10021 6.29070 15.74432
#
# Poissons Ratio (x) = -0.38437 0.19177
# Poissons Ratio (y) = -1.22814 0.80289
# Poissons Ratio (z) = 0.24482 0.32080
#
# Static dielectric constant tensor:
#      x y z
#    x 1.966290 0.072110 0.010860 
#    y 0.072110 1.778560 0.002170 
#    z 0.010860 0.002170 1.924940 
# 
# From -- ./inp_files/398667.got.cif
#   From: 2010.05.17/outbox.ucp.g08.bks.cvg/sg2_200_cif.got.tgz:398667.got - 2010.06.11 11:32:03.
