data_PCOD9072994
_publ_section_title
;
Structure prediction by ZEFSAII (Michael W. Deem and Ramdas Pophale) SiO2 
 PCOD9072994
Probable space group: P -1
;
_chemical_formula_sum "Si O2"
_cell_formula_units_Z 16
_cell_length_a 20.908362
_cell_length_b 11.633220
_cell_length_c 14.611933
_cell_angle_alpha 29.760802
_cell_angle_beta 148.051188
_cell_angle_gamma 139.476513
_cell_volume 929.779596
_symmetry_space_group_name_H-M "P -1"
_symmetry_group_IT_number 2
_symmetry_cell_setting 'triclinic'
loop_
_space_group_symop_operation_xyz
x,y,z
-x,-y,-z
loop_
_atom_site_type_symbol
_atom_site_label
_atom_site_fract_x
_atom_site_fract_y
_atom_site_fract_z
Si Si1 0.977785 0.804594 0.499476
Si Si2 0.993797 0.242772 0.081302
Si Si3 0.207367 0.541747 0.208671
Si Si4 0.980335 0.886251 0.153963
Si Si5 0.452989 0.338153 0.638904
Si Si6 0.199959 0.956306 0.787811
Si Si7 0.877317 0.396815 0.338406
Si Si8 0.352364 0.848585 0.875186
O O1 0.078493 0.822259 0.688326
O O2 0.015831 0.623305 0.595079
O O3 0.994492 0.048692 0.295795
O O4 0.847027 0.814258 0.381598
O O5 0.128055 0.374333 0.156708
O O6 0.959751 0.099369 0.048505
O O7 0.891820 0.412444 0.866386
O O8 0.329079 0.433747 0.457318
O O9 0.243826 0.787675 0.034776
O O10 0.878112 0.668076 0.175573
O O11 0.086977 0.757115 0.424832
O O12 0.000000 0.000000 0.000000
O O13 0.500000 0.500000 0.500000
O O14 0.420055 0.069792 0.753634
O O15 0.554006 0.319584 0.852671
O O16 0.292307 0.964016 0.811180
O O17 0.754674 0.283731 0.221647
#
# Coordination Sequence:
#
# PCOD9072994 Si02
#       8
#     2   2   2   2   2   2   2   2
#     4   8  15  27  44  69 103 134 166 199 252 313
#     4   9  19  32  49  79 110 137 167 215 266 316
#     4  10  18  31  52  77 112 138 165 214 268 314
#     4  10  20  32  52  78 106 138 177 215 260 312
#     4  11  21  34  51  78 108 140 177 216 260 317
#     4   9  15  26  46  72 101 137 166 200 253 311
#     4   9  19  35  49  73 107 139 174 217 258 310
#     4  10  21  34  51  73 106 142 176 215 262 313
#
# _framework density 17.208379000000001
#
# number of rings (size 3 to 8) (size 9 to 14) (size 15 to 20)
#    0.000    2.500    1.250    2.250    3.500    2.000 
#    0.000    0.000    0.000    0.750    0.000    1.750 
#    0.000    0.000    0.000    0.000    0.000    0.000 
#
# Total GULP energy -89071.531057 kJ/mol
# GULP energy per Si atom -5566.970691 kJ/mol
# Density = 1.716921 g / cm^3
# Si number density = 17.208379 Si / 1000 Ang^3
#
#
#
# Elastic Constant Matrix: (Units=GPa)
#
#
# Indices 1 2 3 4 5 6 
#
# 1 59.8605 32.6077 37.1473 3.5338 -4.9935 -6.4310
# 2 32.6077 89.2607 37.1898 5.7753 -3.4590 -5.6812
# 3 37.1473 37.1898 116.7142 10.6469 -6.1933 4.8118
# 4 3.5338 5.7753 10.6469 23.6303 3.7411 -0.8697
# 5 -4.9935 -3.4590 -6.1933 3.7411 30.3082 -1.9162
# 6 -6.4310 -5.6812 4.8118 -0.8697 -1.9162 26.1452
#
#
#
# Elastic Compliance Matrix: (Units=1/GPa)
#
#
# Indices 1 2 3 4 5 6 
#
# 1 0.024564 -0.005991 -0.006060 0.000354 0.002464 0.006048
# 2 -0.005991 0.014788 -0.002738 -0.001476 0.000464 0.002228
# 3 -0.006060 -0.002738 0.012006 -0.004213 0.001389 -0.004333
# 4 0.000354 -0.001476 -0.004213 0.045612 -0.006501 0.001582
# 5 0.002464 0.000464 0.001389 -0.006501 0.034715 0.002779
# 6 0.006048 0.002228 -0.004333 0.001582 0.002779 0.041274
#
#
# Mechanical properties :
#
#
# Convention : Reuss Voigt Hill
#
# Bulk Modulus (GPa) = 45.91397 53.30278 49.60837
# Shear Modulus (GPa) = 23.83265 26.60943 25.22104
#
# Velocity S-wave (km/s) = 3.72552 3.93658 3.83250
# Velocity P-wave (km/s) = 6.72645 7.19057 6.96238
#
# Compressibility (1/GPa) = 0.02177987
#
# Stress axis : x y z
#
# Youngs Moduli (GPa) = 40.70996 67.62365 83.29369
#
# Poissons Ratio (x) = 0.40514 0.50476
# Poissons Ratio (y) = 0.24390 0.22803
# Poissons Ratio (z) = 0.24670 0.18513
#
# Static dielectric constant tensor:
#      x y z
#    x 1.652410 0.011740 0.004470 
#    y 0.011740 1.589060 -0.025240 
#    z 0.004470 -0.025240 1.620740 
# 
# From -- ./inp_files/424505.got.cif
#   From: 2010.05.17/outbox.cif.g08.bks.cpg/sg2_213_cif.got.tgz:424505.got - 2010.06.03 11:33:40.
