data_PCOD9072640
_publ_section_title
;
Structure prediction by ZEFSAII (Michael W. Deem and Ramdas Pophale) SiO2 
 PCOD9072640
Probable space group: P -1
;
_chemical_formula_sum "Si O2"
_cell_formula_units_Z 12
_cell_length_a 12.000000
_cell_length_b 9.000000
_cell_length_c 12.000000
_cell_angle_alpha 70.000000
_cell_angle_beta 120.000000
_cell_angle_gamma 60.000000
_cell_volume 596.740311
_symmetry_space_group_name_H-M "P -1"
_symmetry_group_IT_number 2
_symmetry_cell_setting 'triclinic'
loop_
_space_group_symop_operation_xyz
x,y,z
-x,-y,-z
loop_
_atom_site_type_symbol
_atom_site_label
_atom_site_fract_x
_atom_site_fract_y
_atom_site_fract_z
Si Si1 0.185675 0.761260 0.986944
Si Si2 0.136523 0.448892 0.984984
Si Si3 0.726494 0.365694 0.674261
Si Si4 0.579360 0.918698 0.231317
Si Si5 0.398377 0.855219 0.003368
Si Si6 0.922735 0.491995 0.674311
O O1 0.181692 0.586935 0.988266
O O2 0.359360 0.707446 0.028106
O O3 0.237009 0.702881 0.159192
O O4 0.928747 0.087355 0.772316
O O5 0.982883 0.565606 0.772434
O O6 0.378724 0.121606 0.168931
O O7 0.000000 0.500000 0.000000
O O8 0.500000 0.500000 0.500000
O O9 0.752650 0.527593 0.625035
O O10 0.543311 0.110203 0.088749
O O11 0.818875 0.682353 0.468683
O O12 0.569255 0.763511 0.199516
O O13 0.156473 0.169715 0.842674
#
# Coordination Sequence:
#
# PCOD9072640 Si02
#       6
#     2   2   2   2   2   2
#     4  10  21  37  53  79 116 139 181 229 266 325
#     4  11  23  37  53  83 118 148 173 225 281 323
#     4  10  20  33  57  81 104 145 184 226 270 315
#     4  10  21  37  60  82 109 147 184 222 275 325
#     4   9  20  39  59  81 108 145 186 230 266 315
#     4  10  20  36  58  83 109 142 187 226 269 325
#
# _framework density 20.109249999999999
#
# number of rings (size 3 to 8) (size 9 to 14) (size 15 to 20)
#    0.000    2.000    1.667    1.500    4.667    2.667 
#    0.000    0.833    0.000    0.000    0.000    0.000 
#    0.000    0.000    0.000    0.000    0.000    0.000 
#
# Total GULP energy -66836.075765 kJ/mol
# GULP energy per Si atom -5569.672980 kJ/mol
# Density = 2.006348 g / cm^3
# Si number density = 20.109250 Si / 1000 Ang^3
#
#
#
# Elastic Constant Matrix: (Units=GPa)
#
#
# Indices 1 2 3 4 5 6 
#
# 1 90.1445 17.5220 1.2573 -1.8283 18.1336 4.3280
# 2 17.5220 14.9731 37.0595 21.6680 10.2133 27.0126
# 3 1.2573 37.0595 63.8078 22.6803 11.1489 7.0799
# 4 -1.8283 21.6680 22.6803 -0.9963 11.8702 -5.1085
# 5 18.1336 10.2133 11.1489 11.8702 14.3048 2.8963
# 6 4.3280 27.0126 7.0799 -5.1085 2.8963 28.3562
#
#
#
# Elastic Compliance Matrix: (Units=1/GPa)
#
#
# Indices 1 2 3 4 5 6 
#
# 1 0.013455 -0.000347 0.006302 -0.010772 -0.011968 -0.004015
# 2 -0.000347 -0.063787 0.042508 -0.049686 0.046695 0.036484
# 3 0.006302 0.042508 -0.011532 0.044456 -0.061320 -0.024305
# 4 -0.010772 -0.049686 0.044456 -0.089757 0.086354 0.012886
# 5 -0.011968 0.046695 -0.061320 0.086354 0.030898 -0.014945
# 6 -0.004015 0.036484 -0.024305 0.012886 -0.014945 0.011040
#
#
# Mechanical properties :
#
#
# Convention : Reuss Voigt Hill
#
# Bulk Modulus (GPa) = 28.52058 31.17811 29.84934
# Shear Modulus (GPa) = -25.65120 15.87206 -4.88957
#
# Velocity S-wave (km/s) = -3.57542 2.81248 -1.56102
# Velocity P-wave (km/s) = 1.68262 5.10732 3.40981
#
# Compressibility (1/GPa) = 0.03506240
#
# Stress axis : x y z
#
# Youngs Moduli (GPa) = 74.32432 -15.67712 -86.71781
#
# Poissons Ratio (x) = -0.00544 0.54649
# Poissons Ratio (y) = 0.02577 3.68622
# Poissons Ratio (z) = -0.46838 0.66641
#
# Static dielectric constant tensor:
#      x y z
#    x 1.597670 0.024720 0.077890 
#    y 0.024720 1.715680 -0.029050 
#    z 0.077890 -0.029050 1.657730 
# 
# From -- ./inp_files/19008.got.cif
#   From: 2010.05.17/outbox.ucp.g08.bks.cvg/sg2_10_cif.got.tgz:19008.got - 2010.06.11 11:32:03.
