data_PCOD9072825
_publ_section_title
;
Structure prediction by ZEFSAII (Michael W. Deem and Ramdas Pophale) SiO2 
 PCOD9072825
Probable space group: P -1
;
_chemical_formula_sum "Si O2"
_cell_formula_units_Z 14
_cell_length_a 5.423103
_cell_length_b 10.688908
_cell_length_c 11.860550
_cell_angle_alpha 88.622943
_cell_angle_beta 87.948185
_cell_angle_gamma 74.934288
_cell_volume 663.386954
_symmetry_space_group_name_H-M "P -1"
_symmetry_group_IT_number 2
_symmetry_cell_setting 'triclinic'
loop_
_space_group_symop_operation_xyz
x,y,z
-x,-y,-z
loop_
_atom_site_type_symbol
_atom_site_label
_atom_site_fract_x
_atom_site_fract_y
_atom_site_fract_z
Si Si1 0.354457 0.248101 0.625597
Si Si2 0.212871 0.438542 0.089344
Si Si3 0.672683 0.301755 0.948849
Si Si4 0.863386 0.888266 0.972133
Si Si5 0.964276 0.487020 0.319461
Si Si6 0.448848 0.917136 0.175278
Si Si7 0.174272 0.656220 0.473144
O O1 0.234701 0.373599 0.705803
O O2 0.442818 0.119932 0.702143
O O3 0.594311 0.281391 0.558945
O O4 0.108980 0.250983 0.551301
O O5 0.426985 0.323515 0.033126
O O6 0.088741 0.415590 0.208369
O O7 0.338318 0.559152 0.105957
O O8 0.000000 0.500000 0.000000
O O9 0.920513 0.244797 0.023295
O O10 0.688652 0.195860 0.853313
O O11 0.724332 0.940795 0.856046
O O12 0.669044 0.894209 0.077979
O O13 0.000000 0.000000 0.000000
O O14 0.830900 0.401446 0.401315
O O15 0.171586 0.533872 0.393251
#
# Coordination Sequence:
#
# PCOD9072825 Si02
#       7
#     2   2   2   2   2   2   2
#     4  10  18  31  51  75 102 132 175 219 268 312
#     4  11  21  33  49  78 106 151 172 213 259 326
#     4  10  20  33  48  73 110 138 183 205 263 328
#     4   9  19  32  50  76 102 138 173 221 272 319
#     4   9  19  31  49  70 109 136 181 215 268 309
#     4  10  19  32  53  73 109 136 175 225 269 318
#     4   9  20  32  50  75 103 139 177 225 265 312
#
# _framework density 21.103822999999998
#
# number of rings (size 3 to 8) (size 9 to 14) (size 15 to 20)
#    0.857    1.429    0.000    3.857    4.000    1.143 
#    0.000    0.000    0.000    0.000    0.000    2.000 
#    0.000    0.000    0.000    0.000    0.000    0.000 
#
# Total GULP energy -78033.035098 kJ/mol
# GULP energy per Si atom -5573.788221 kJ/mol
# Density = 2.105579 g / cm^3
# Si number density = 21.103823 Si / 1000 Ang^3
#
#
#
# Elastic Constant Matrix: (Units=GPa)
#
#
# Indices 1 2 3 4 5 6 
#
# 1 73.8376 8.7725 8.1064 -2.4343 -11.3312 -21.0988
# 2 8.7725 52.6461 9.0911 -15.0120 0.1905 -16.4960
# 3 8.1064 9.0911 78.8423 -10.7772 -5.7717 -12.0414
# 4 -2.4343 -15.0120 -10.7772 25.9028 -2.6725 4.3076
# 5 -11.3312 0.1905 -5.7717 -2.6725 19.3136 -5.3868
# 6 -21.0988 -16.4960 -12.0414 4.3076 -5.3868 41.9981
#
#
#
# Elastic Compliance Matrix: (Units=1/GPa)
#
#
# Indices 1 2 3 4 5 6 
#
# 1 0.019178 0.001038 0.001217 0.002479 0.015323 0.012102
# 2 0.001038 0.025934 0.000811 0.014333 0.005414 0.010164
# 3 0.001217 0.000811 0.014751 0.006594 0.007547 0.005451
# 4 0.002479 0.014333 0.006594 0.050243 0.011660 0.005108
# 5 0.015323 0.005414 0.007547 0.011660 0.070101 0.019784
# 6 0.012102 0.010164 0.005451 0.005108 0.019784 0.037459
#
#
# Mechanical properties :
#
#
# Convention : Reuss Voigt Hill
#
# Bulk Modulus (GPa) = 15.15265 28.58513 21.86889
# Shear Modulus (GPa) = 21.41027 29.39997 25.40512
#
# Velocity S-wave (km/s) = 3.18861 3.73649 3.47337
# Velocity P-wave (km/s) = 4.55543 5.67358 5.14497
#
# Compressibility (1/GPa) = 0.06599505
#
# Stress axis : x y z
#
# Youngs Moduli (GPa) = 52.14382 38.55890 67.79072
#
# Poissons Ratio (x) = -0.04001 -0.08253
# Poissons Ratio (y) = -0.05410 -0.05497
# Poissons Ratio (z) = -0.06348 -0.03127
#
# Static dielectric constant tensor:
#      x y z
#    x 1.879260 0.017550 0.022510 
#    y 0.017550 1.823470 -0.017990 
#    z 0.022510 -0.017990 1.734610 
# 
# From -- ./inp_files/364243.got.cif
#   From: 2010.05.17/outbox.cif.g08.bks.cpg/sg2_183_cif.got.tgz:364243.got - 2010.06.03 11:33:40.
