data_PCOD9072202
_publ_section_title
;
Structure prediction by ZEFSAII (Michael W. Deem and Ramdas Pophale) SiO2 
 PCOD9072202
Probable space group: P -1
;
_chemical_formula_sum "Si O2"
_cell_formula_units_Z 12
_cell_length_a 8.578664
_cell_length_b 16.674166
_cell_length_c 17.388255
_cell_angle_alpha 163.320967
_cell_angle_beta 39.203209
_cell_angle_gamma 141.176691
_cell_volume 441.846350
_symmetry_space_group_name_H-M "P -1"
_symmetry_group_IT_number 2
_symmetry_cell_setting 'triclinic'
loop_
_space_group_symop_operation_xyz
x,y,z
-x,-y,-z
loop_
_atom_site_type_symbol
_atom_site_label
_atom_site_fract_x
_atom_site_fract_y
_atom_site_fract_z
Si Si1 0.404398 0.807228 0.433053
Si Si2 0.932401 0.782033 0.039245
Si Si3 0.796029 0.679913 0.720072
Si Si4 0.672230 0.238868 0.246388
Si Si5 0.848079 0.022282 0.708271
Si Si6 0.287499 0.427435 0.775071
O O1 0.627519 0.743562 0.343374
O O2 0.500000 0.000000 0.500000
O O3 0.218309 0.972235 0.703272
O O4 0.242216 0.511461 0.191207
O O5 0.962755 0.840342 0.171612
O O6 0.212558 0.766271 0.886997
O O7 0.727006 0.563012 0.552404
O O8 0.555838 0.553084 0.747054
O O9 0.000000 0.500000 0.500000
O O10 0.836370 0.019667 0.018540
O O11 0.399924 0.108040 0.264970
O O12 0.876020 0.768897 0.407651
O O13 0.811768 0.283737 0.907939
#
# Coordination Sequence:
#
# PCOD9072202 Si02
#       6
#     2   2   2   2   2   2
#     4  12  27  46  65  88 119 164 218 266 305 350
#     4  12  23  42  66  93 125 165 205 252 306 365
#     4  10  18  30  52  87 123 161 197 234 294 368
#     4  10  20  33  57  91 127 158 191 236 299 375
#     4  10  22  39  64  98 130 159 195 244 311 382
#     4  10  21  40  61  87 127 163 200 256 306 358
#
# _framework density 27.158764000000001
#
# number of rings (size 3 to 8) (size 9 to 14) (size 15 to 20)
#    0.000    1.333    0.000    6.500    0.000    2.667 
#    0.000   11.667    0.000    0.000    0.000    0.000 
#    0.000    0.000    0.000    0.000    0.000    0.000 
#
# Total GULP energy -67144.145836 kJ/mol
# GULP energy per Si atom -5595.345486 kJ/mol
# Density = 2.709695 g / cm^3
# Si number density = 27.158764 Si / 1000 Ang^3
#
#
#
# Elastic Constant Matrix: (Units=GPa)
#
#
# Indices 1 2 3 4 5 6 
#
# 1 79.1642 9.3153 49.4184 1.8880 2.5446 -11.3530
# 2 9.3153 103.6559 25.2545 -11.2990 6.4824 -6.8564
# 3 49.4184 25.2545 171.1209 16.2088 1.1410 10.9160
# 4 1.8880 -11.2990 16.2088 49.7449 0.4027 3.1631
# 5 2.5446 6.4824 1.1410 0.4027 41.4911 0.7190
# 6 -11.3530 -6.8564 10.9160 3.1631 0.7190 32.9835
#
#
#
# Elastic Compliance Matrix: (Units=1/GPa)
#
#
# Indices 1 2 3 4 5 6 
#
# 1 0.017219 0.000496 -0.005614 0.000799 -0.001123 0.007836
# 2 0.000496 0.010757 -0.002184 0.002967 -0.001730 0.002883
# 3 -0.005614 -0.002184 0.008352 -0.002697 0.000567 -0.004904
# 4 0.000799 0.002967 -0.002697 0.021648 -0.000644 -0.000278
# 5 -0.001123 -0.001730 0.000567 -0.000644 0.024456 -0.001405
# 6 0.007836 0.002883 -0.004904 -0.000278 -0.001405 0.035295
#
#
# Mechanical properties :
#
#
# Convention : Reuss Voigt Hill
#
# Bulk Modulus (GPa) = 46.03274 57.99081 52.01178
# Shear Modulus (GPa) = 35.82386 42.84076 39.33231
#
# Velocity S-wave (km/s) = 3.63582 3.97598 3.80970
# Velocity P-wave (km/s) = 5.88318 6.51742 6.20841
#
# Compressibility (1/GPa) = 0.02172367
#
# Stress axis : x y z
#
# Youngs Moduli (GPa) = 58.07590 92.96128 119.73221
#
# Poissons Ratio (x) = -0.04611 0.67217
# Poissons Ratio (y) = -0.02880 0.26152
# Poissons Ratio (z) = 0.32603 0.20305
#
# Static dielectric constant tensor:
#      x y z
#    x 2.245230 0.008950 -0.024490 
#    y 0.008950 2.238330 -0.047490 
#    z -0.024490 -0.047490 2.020370 
# 
# From -- ./inp_files/22217.got.cif
#   From: 2010.05.17/outbox.cif.g08.bks.cpg/sg2_12_cif.got.tgz:22217.got - 2010.06.03 11:33:40.
