data_PCOD9072113
_publ_section_title
;
Structure prediction by ZEFSAII (Michael W. Deem and Ramdas Pophale) SiO2 
 PCOD9072113
Probable space group: P -1
;
_chemical_formula_sum "Si O2"
_cell_formula_units_Z 12
_cell_length_a 9.370481
_cell_length_b 10.804439
_cell_length_c 9.240022
_cell_angle_alpha 66.985575
_cell_angle_beta 148.704860
_cell_angle_gamma 109.064711
_cell_volume 447.203369
_symmetry_space_group_name_H-M "P -1"
_symmetry_group_IT_number 2
_symmetry_cell_setting 'triclinic'
loop_
_space_group_symop_operation_xyz
x,y,z
-x,-y,-z
loop_
_atom_site_type_symbol
_atom_site_label
_atom_site_fract_x
_atom_site_fract_y
_atom_site_fract_z
Si Si1 0.713421 0.368502 0.919192
Si Si2 0.282859 0.120839 0.294378
Si Si3 0.665462 0.104873 0.881595
Si Si4 0.357992 0.199154 0.001578
Si Si5 0.140093 0.645232 0.563123
Si Si6 0.830510 0.452585 0.665463
O O1 0.692264 0.208738 0.989034
O O2 0.849922 0.382694 0.870343
O O3 0.427307 0.446563 0.619018
O O4 0.904927 0.451833 0.153919
O O5 0.437716 0.175271 0.545814
O O6 0.277818 0.200320 0.103217
O O7 0.500000 0.000000 0.500000
O O8 0.971385 0.084553 0.085581
O O9 0.563343 0.954828 0.893300
O O10 0.585992 0.313655 0.136634
O O11 0.095649 0.244823 0.661694
O O12 0.209342 0.653743 0.447303
O O13 0.000000 0.500000 0.500000
#
# Coordination Sequence:
#
# PCOD9072113 Si02
#       6
#     2   2   2   2   2   2
#     4  10  20  35  59  86 116 148 179 229 290 356
#     4  10  18  30  51  85 122 148 172 220 294 358
#     4  11  20  33  56  89 121 147 181 230 301 356
#     4  11  21  36  57  83 114 147 192 244 287 336
#     4  12  25  41  60  80 112 158 204 244 277 326
#     4  10  21  37  56  83 115 151 191 226 278 342
#
# _framework density 26.83343
#
# number of rings (size 3 to 8) (size 9 to 14) (size 15 to 20)
#    0.000    1.333    0.000    9.500    0.000    2.667 
#    0.000    0.000    0.000    6.000    0.000    0.000 
#    0.000    0.000    0.000    0.000    0.000    0.000 
#
# Total GULP energy -67165.162030 kJ/mol
# GULP energy per Si atom -5597.096836 kJ/mol
# Density = 2.677236 g / cm^3
# Si number density = 26.833430 Si / 1000 Ang^3
#
#
#
# Elastic Constant Matrix: (Units=GPa)
#
#
# Indices 1 2 3 4 5 6 
#
# 1 53.4239 12.0232 2.9969 18.5600 1.2406 -1.2958
# 2 12.0232 126.0548 25.9034 18.7733 10.5713 -6.1268
# 3 2.9969 25.9034 107.9584 17.5580 17.4225 0.7191
# 4 18.5600 18.7733 17.5580 51.7081 -5.1471 0.3089
# 5 1.2406 10.5713 17.4225 -5.1471 27.6626 14.2151
# 6 -1.2958 -6.1268 0.7191 0.3089 14.2151 52.4265
#
#
#
# Elastic Compliance Matrix: (Units=1/GPa)
#
#
# Indices 1 2 3 4 5 6 
#
# 1 0.021903 -0.000718 0.001618 -0.008573 -0.004149 0.001611
# 2 -0.000718 0.009184 -0.000907 -0.003253 -0.004729 0.002369
# 3 0.001618 -0.000907 0.011763 -0.005184 -0.009293 0.002323
# 4 -0.008573 -0.003253 -0.005184 0.026559 0.011831 -0.003886
# 5 -0.004149 -0.004729 -0.009293 0.011831 0.054033 -0.015248
# 6 0.001611 0.002369 0.002323 -0.003886 -0.015248 0.023517
#
#
# Mechanical properties :
#
#
# Convention : Reuss Voigt Hill
#
# Bulk Modulus (GPa) = 23.34597 41.03155 32.18876
# Shear Modulus (GPa) = 31.00718 42.79366 36.90042
#
# Velocity S-wave (km/s) = 3.40302 3.99781 3.71235
# Velocity P-wave (km/s) = 4.91527 6.05264 5.51336
#
# Compressibility (1/GPa) = 0.04283394
#
# Stress axis : x y z
#
# Youngs Moduli (GPa) = 45.65604 108.88136 85.01263
#
# Poissons Ratio (x) = 0.07823 -0.13751
# Poissons Ratio (y) = 0.03280 0.07712
# Poissons Ratio (z) = -0.07385 0.09878
#
# Static dielectric constant tensor:
#      x y z
#    x 2.410120 0.143780 -0.026380 
#    y 0.143780 2.120170 0.015600 
#    z -0.026380 0.015600 2.014860 
# 
# From -- ./inp_files/65865.got.cif
#   From: 2010.05.17/outbox.cif.g08.bks.cpg/sg2_33_cif.got.tgz:65865.got - 2010.06.03 11:33:40.
