data_PCOD9073960
_publ_section_title
;
Structure prediction by ZEFSAII (Michael W. Deem and Ramdas Pophale) SiO2 
 PCOD9073960
Probable space group: P -1
;
_chemical_formula_sum "Si O2"
_cell_formula_units_Z 16
_cell_length_a 9.000000
_cell_length_b 24.000000
_cell_length_c 21.000000
_cell_angle_alpha 160.000000
_cell_angle_beta 40.000000
_cell_angle_gamma 150.000000
_cell_volume 744.844803
_symmetry_space_group_name_H-M "P -1"
_symmetry_group_IT_number 2
_symmetry_cell_setting 'triclinic'
loop_
_space_group_symop_operation_xyz
x,y,z
-x,-y,-z
loop_
_atom_site_type_symbol
_atom_site_label
_atom_site_fract_x
_atom_site_fract_y
_atom_site_fract_z
Si Si1 0.875092 0.302625 0.147365
Si Si2 0.166344 0.922720 0.525729
Si Si3 0.040045 0.169941 0.214569
Si Si4 0.219671 0.053200 0.137819
Si Si5 0.269006 0.660559 0.496048
Si Si6 0.560399 0.622500 0.476254
Si Si7 0.357063 0.385686 0.991836
Si Si8 0.809235 0.774739 0.357723
O O1 0.505762 0.134442 0.086119
O O2 0.984340 0.499992 0.368456
O O3 0.069153 0.364677 0.086672
O O4 0.968724 0.191602 0.041695
O O5 0.500000 0.000000 0.500000
O O6 0.224694 0.139802 0.761021
O O7 0.891221 0.727566 0.451647
O O8 0.036278 0.823493 0.391313
O O9 0.025816 0.098259 0.214034
O O10 0.377628 0.402670 0.339545
O O11 0.779027 0.178936 0.294309
O O12 0.000000 0.000000 0.000000
O O13 0.365429 0.192957 0.303944
O O14 0.329230 0.574773 0.445013
O O15 0.554155 0.756476 0.460615
O O16 0.626712 0.557413 0.140217
O O17 0.500000 0.500000 0.000000
O O18 0.000000 0.000000 0.500000
#
# Coordination Sequence:
#
# PCOD9073960 Si02
#       8
#     2   2   2   2   2   2   2   2
#     4  10  22  40  65  93 127 173 211 264 335 391
#     4  11  25  44  66  98 137 174 218 282 338 388
#     4  12  26  40  61  99 133 168 219 270 327 391
#     4  11  23  38  66  93 128 164 215 262 323 397
#     4  10  23  41  65  90 129 172 207 270 327 390
#     4  11  23  44  66  90 134 171 219 260 333 403
#     4  11  22  42  71  97 128 176 230 272 330 400
#     4  10  22  43  67  96 127 170 228 270 325 400
#
# _framework density 21.480985
#
# number of rings (size 3 to 8) (size 9 to 14) (size 15 to 20)
#    0.000    1.250    3.750    1.500    3.500    2.500 
#    2.250    0.000    0.000    0.000    0.000    0.000 
#    0.000    0.000    0.000    0.000    0.000    0.000 
#
# Total GULP energy -89210.078817 kJ/mol
# GULP energy per Si atom -5575.629926 kJ/mol
# Density = 2.143209 g / cm^3
# Si number density = 21.480985 Si / 1000 Ang^3
#
#
#
# Elastic Constant Matrix: (Units=GPa)
#
#
# Indices 1 2 3 4 5 6 
#
# 1 43.5532 43.1256 12.0052 -5.7909 10.8840 0.7609
# 2 43.1256 87.3397 -5.7437 -12.6005 2.4216 -2.8219
# 3 12.0052 -5.7437 86.7146 -11.7981 16.8982 -5.6155
# 4 -5.7909 -12.6005 -11.7981 28.6952 -4.6023 1.8355
# 5 10.8840 2.4216 16.8982 -4.6023 36.1286 1.7130
# 6 0.7609 -2.8219 -5.6155 1.8355 1.7130 28.4278
#
#
#
# Elastic Compliance Matrix: (Units=1/GPa)
#
#
# Indices 1 2 3 4 5 6 
#
# 1 0.056367 -0.029191 -0.008702 -0.006553 -0.011552 -0.005006
# 2 -0.029191 0.027637 0.006444 0.009439 0.004945 0.003890
# 3 -0.008702 0.006444 0.015094 0.006364 -0.004235 0.003699
# 4 -0.006553 0.009439 0.006364 0.040896 0.003598 -0.000488
# 5 -0.011552 0.004945 -0.004235 0.003598 0.033375 -0.002280
# 6 -0.005006 0.003890 0.003699 -0.000488 -0.002280 0.036597
#
#
# Mechanical properties :
#
#
# Convention : Reuss Voigt Hill
#
# Bulk Modulus (GPa) = 27.62362 35.15352 31.38857
# Shear Modulus (GPa) = 17.54815 29.86501 23.70658
#
# Velocity S-wave (km/s) = 2.86127 3.73272 3.32566
# Velocity P-wave (km/s) = 4.87887 5.91422 5.42132
#
# Compressibility (1/GPa) = 0.03620090
#
# Stress axis : x y z
#
# Youngs Moduli (GPa) = 17.74097 36.18282 66.24991
#
# Poissons Ratio (x) = 1.05622 0.57650
# Poissons Ratio (y) = 0.51788 -0.42694
# Poissons Ratio (z) = 0.15438 -0.23318
#
# Static dielectric constant tensor:
#      x y z
#    x 1.944370 0.008040 -0.053790 
#    y 0.008040 1.817260 -0.007420 
#    z -0.053790 -0.007420 1.847780 
# 
# From -- ./inp_files/313754.got.cif
#   From: 2010.05.17/outbox.ucp.g08.bks.cvg/sg2_157_cif.got.tgz:313754.got - 2010.06.11 11:32:03.
