data_PCOD9073852
_publ_section_title
;
Structure prediction by ZEFSAII (Michael W. Deem and Ramdas Pophale) SiO2 
 PCOD9073852
Probable space group: P -1
;
_chemical_formula_sum "Si O2"
_cell_formula_units_Z 15
_cell_length_a 12.000000
_cell_length_b 12.000000
_cell_length_c 15.000000
_cell_angle_alpha 160.000000
_cell_angle_beta 80.000000
_cell_angle_gamma 100.000000
_cell_volume 727.188304
_symmetry_space_group_name_H-M "P -1"
_symmetry_group_IT_number 2
_symmetry_cell_setting 'triclinic'
loop_
_space_group_symop_operation_xyz
x,y,z
-x,-y,-z
loop_
_atom_site_type_symbol
_atom_site_label
_atom_site_fract_x
_atom_site_fract_y
_atom_site_fract_z
Si Si1 0.649073 0.748874 0.725358
Si Si2 0.050060 0.259490 0.992866
Si Si3 0.778741 0.377920 0.269347
Si Si4 0.196599 0.472206 0.818431
Si Si5 0.558542 0.211210 0.949274
Si Si6 0.182893 0.910530 0.547750
Si Si7 0.000000 0.000000 0.000000
Si Si8 0.426757 0.747356 0.480696
O O1 0.718652 0.555959 0.494136
O O2 0.605316 0.495237 0.615051
O O3 0.555363 0.939547 0.824881
O O4 0.719550 0.034210 0.984355
O O5 0.115059 0.074215 0.763771
O O6 0.120721 0.578961 0.265611
O O7 0.926942 0.362039 0.047384
O O8 0.032271 0.029055 0.908707
O O9 0.778440 0.592707 0.339554
O O10 0.903402 0.277503 0.206060
O O11 0.188303 0.166989 0.657434
O O12 0.306427 0.689901 0.001357
O O13 0.498772 0.045779 0.745076
O O14 0.497761 0.532402 0.238197
O O15 0.309324 0.845380 0.521347
#
# Coordination Sequence:
#
# PCOD9073852 Si02
#       8
#     2   2   2   2   2   2   1   2
#     4  11  21  40  62  91 126 162 212 263 318 379
#     4  11  25  44  70  97 127 169 210 264 321 373
#     4  10  22  37  63  91 126 169 206 261 319 370
#     4  10  25  44  66  93 130 171 218 260 309 383
#     4  11  24  41  64  94 128 171 212 262 323 374
#     4  12  26  44  67  96 130 170 215 260 315 378
#     4  10  22  40  64  98 130 158 208 260 320 382
#     4  12  24  40  65  96 130 167 211 267 322 378
#
# _framework density 20.627393999999999
#
# number of rings (size 3 to 8) (size 9 to 14) (size 15 to 20)
#    0.000    1.067    0.000    6.400    0.000   12.800 
#    0.000    0.000    0.000    0.000    0.000    0.000 
#    0.000    0.000    0.000    0.000    0.000    0.000 
#
# Total GULP energy -83574.067721 kJ/mol
# GULP energy per Si atom -5571.604515 kJ/mol
# Density = 2.058045 g / cm^3
# Si number density = 20.627394 Si / 1000 Ang^3
#
#
#
# Elastic Constant Matrix: (Units=GPa)
#
#
# Indices 1 2 3 4 5 6 
#
# 1 157.7384 32.0687 61.3959 -8.9999 -5.9466 -22.4587
# 2 32.0687 115.9762 42.1903 3.0842 5.3880 -16.0044
# 3 61.3959 42.1903 143.0629 -41.2083 -3.4975 2.3071
# 4 -8.9999 3.0842 -41.2083 41.4575 -0.5970 -8.7246
# 5 -5.9466 5.3880 -3.4975 -0.5970 32.5615 -0.1638
# 6 -22.4587 -16.0044 2.3071 -8.7246 -0.1638 36.9218
#
#
#
# Elastic Compliance Matrix: (Units=1/GPa)
#
#
# Indices 1 2 3 4 5 6 
#
# 1 0.008668 -0.000272 -0.003960 -0.000925 0.001212 0.005189
# 2 -0.000272 0.011166 -0.004670 -0.004761 -0.002467 0.003831
# 3 -0.003960 -0.004670 0.013827 0.012779 0.001758 -0.002270
# 4 -0.000925 -0.004761 0.012779 0.038198 0.002720 0.005613
# 5 0.001212 -0.002467 0.001758 0.002720 0.031581 0.000341
# 6 0.005189 0.003831 -0.002270 0.005613 0.000341 0.033371
#
#
# Mechanical properties :
#
#
# Convention : Reuss Voigt Hill
#
# Bulk Modulus (GPa) = 63.05999 76.45414 69.75707
# Shear Modulus (GPa) = 31.26946 40.92968 36.09957
#
# Velocity S-wave (km/s) = 3.89770 4.45931 4.18793
# Velocity P-wave (km/s) = 7.13397 7.97865 7.56810
#
# Compressibility (1/GPa) = 0.01585791
#
# Stress axis : x y z
#
# Youngs Moduli (GPa) = 115.36680 89.55563 72.32088
#
# Poissons Ratio (x) = 0.02433 0.28641
# Poissons Ratio (y) = 0.03135 0.33772
# Poissons Ratio (z) = 0.45689 0.41821
#
# Static dielectric constant tensor:
#      x y z
#    x 1.785170 0.042770 0.013810 
#    y 0.042770 1.734200 0.015510 
#    z 0.013810 0.015510 1.768720 
# 
# From -- ./inp_files/519449.got.cif
#   From: 2010.05.17/outbox.ucp.g08.bks.cvg/sg2_260_cif.got.tgz:519449.got - 2010.06.11 11:32:03.
