data_PCOD9073192
_publ_section_title
;
Structure prediction by ZEFSAII (Michael W. Deem and Ramdas Pophale) SiO2 
 PCOD9073192
Probable space group: P -1
;
_chemical_formula_sum "Si O2"
_cell_formula_units_Z 16
_cell_length_a 12.000000
_cell_length_b 9.000000
_cell_length_c 15.000000
_cell_angle_alpha 100.000000
_cell_angle_beta 30.000000
_cell_angle_gamma 110.000000
_cell_volume 734.803614
_symmetry_space_group_name_H-M "P -1"
_symmetry_group_IT_number 2
_symmetry_cell_setting 'triclinic'
loop_
_space_group_symop_operation_xyz
x,y,z
-x,-y,-z
loop_
_atom_site_type_symbol
_atom_site_label
_atom_site_fract_x
_atom_site_fract_y
_atom_site_fract_z
Si Si1 0.576655 0.308945 0.484200
Si Si2 0.205099 0.898039 0.097966
Si Si3 0.896179 0.858620 0.128639
Si Si4 0.076134 0.349022 0.063082
Si Si5 0.699413 0.737850 0.936486
Si Si6 0.200896 0.459281 0.298776
Si Si7 0.520491 0.306060 0.173327
Si Si8 0.717816 0.661208 0.481361
O O1 0.377114 0.163381 0.661268
O O2 0.674774 0.470013 0.495961
O O3 0.410933 0.329647 0.521164
O O4 0.803198 0.290649 0.279300
O O5 0.065083 0.884304 0.099553
O O6 0.001245 0.774659 0.291232
O O7 0.274500 0.085423 0.096193
O O8 0.426997 0.843134 0.920414
O O9 0.892515 0.696743 0.064271
O O10 0.000000 0.000000 0.000000
O O11 0.206009 0.263654 0.029114
O O12 0.218665 0.542945 0.994880
O O13 0.858014 0.662233 0.758832
O O14 0.415059 0.621078 0.127420
O O15 0.337836 0.370893 0.255839
O O16 0.000000 0.500000 0.500000
O O17 0.416337 0.281895 0.342571
#
# Coordination Sequence:
#
# PCOD9073192 Si02
#       8
#     2   2   2   2   2   2   2   2
#     4  10  21  35  59  88 130 169 211 248 290 367
#     4  11  23  41  62  95 136 159 208 258 310 373
#     4  11  22  38  58  94 133 174 210 248 301 363
#     4  11  21  38  64  89 127 172 210 250 306 368
#     4  10  24  44  65  94 123 162 204 270 323 364
#     4  10  25  46  70  91 116 158 217 264 324 384
#     4  11  23  39  67  92 119 171 208 261 314 372
#     4  10  21  36  57  94 126 168 207 247 302 362
#
# _framework density 21.774525000000001
#
# number of rings (size 3 to 8) (size 9 to 14) (size 15 to 20)
#    0.000    1.500    3.750    0.750    1.750    4.000 
#    2.250    1.250    0.000    0.000    0.000    0.000 
#    0.000    0.000    0.000    0.000    0.000    0.000 
#
# Total GULP energy -89343.341354 kJ/mol
# GULP energy per Si atom -5583.958835 kJ/mol
# Density = 2.172497 g / cm^3
# Si number density = 21.774525 Si / 1000 Ang^3
#
#
#
# Elastic Constant Matrix: (Units=GPa)
#
#
# Indices 1 2 3 4 5 6 
#
# 1 39.3090 18.6244 13.0516 -3.6594 4.0247 11.1229
# 2 18.6244 90.8252 35.6798 14.5470 -2.7365 1.1015
# 3 13.0516 35.6798 153.8791 19.7230 9.1174 0.1651
# 4 -3.6594 14.5470 19.7230 33.0888 -6.8747 8.0471
# 5 4.0247 -2.7365 9.1174 -6.8747 25.1332 5.3556
# 6 11.1229 1.1015 0.1651 8.0471 5.3556 21.5559
#
#
#
# Elastic Compliance Matrix: (Units=1/GPa)
#
#
# Indices 1 2 3 4 5 6 
#
# 1 0.040585 -0.009291 -0.004021 0.019104 0.005330 -0.028893
# 2 -0.009291 0.014779 -0.001562 -0.008386 -0.000170 0.007224
# 3 -0.004021 -0.001562 0.008543 -0.007697 -0.006112 0.006481
# 4 0.019104 -0.008386 -0.007697 0.053284 0.020727 -0.034412
# 5 0.005330 -0.000170 -0.006112 0.020727 0.051766 -0.023294
# 6 -0.028893 0.007224 0.006481 -0.034412 -0.023294 0.079515
#
#
# Mechanical properties :
#
#
# Convention : Reuss Voigt Hill
#
# Bulk Modulus (GPa) = 29.27471 46.52499 37.89985
# Shear Modulus (GPa) = 17.26469 30.39942 23.83206
#
# Velocity S-wave (km/s) = 2.81888 3.74050 3.31190
# Velocity P-wave (km/s) = 4.90596 6.32994 5.66289
#
# Compressibility (1/GPa) = 0.03415917
#
# Stress axis : x y z
#
# Youngs Moduli (GPa) = 24.63963 67.66198 117.04893
#
# Poissons Ratio (x) = 0.62867 0.47070
# Poissons Ratio (y) = 0.22893 0.18278
# Poissons Ratio (z) = 0.09909 0.10566
#
# Static dielectric constant tensor:
#      x y z
#    x 1.867500 0.050070 0.024200 
#    y 0.050070 1.874990 -0.019880 
#    z 0.024200 -0.019880 1.763680 
# 
# From -- ./inp_files/83488.got.cif
#   From: 2010.05.17/outbox.ucp.g08.bks.cvg/sg2_42_cif.got.tgz:83488.got - 2010.06.11 11:32:03.
