data_PCOD9073305
_publ_section_title
;
Structure prediction by ZEFSAII (Michael W. Deem and Ramdas Pophale) SiO2 
 PCOD9073305
Probable space group: P -1
;
_chemical_formula_sum "Si O2"
_cell_formula_units_Z 16
_cell_length_a 12.000000
_cell_length_b 12.000000
_cell_length_c 15.000000
_cell_angle_alpha 120.000000
_cell_angle_beta 150.000000
_cell_angle_gamma 80.000000
_cell_volume 748.962810
_symmetry_space_group_name_H-M "P -1"
_symmetry_group_IT_number 2
_symmetry_cell_setting 'triclinic'
loop_
_space_group_symop_operation_xyz
x,y,z
-x,-y,-z
loop_
_atom_site_type_symbol
_atom_site_label
_atom_site_fract_x
_atom_site_fract_y
_atom_site_fract_z
Si Si1 0.423886 0.821019 0.368735
Si Si2 0.718138 0.731486 0.035054
Si Si3 0.269114 0.175122 0.722484
Si Si4 0.234303 0.737368 0.401997
Si Si5 0.436675 0.599934 0.608085
Si Si6 0.673833 0.082880 0.929469
Si Si7 0.083993 0.278385 0.137428
Si Si8 0.941760 0.896019 0.642102
O O1 0.374708 0.757497 0.411065
O O2 0.675237 0.841552 0.496789
O O3 0.500000 0.000000 0.500000
O O4 0.136366 0.713405 0.070019
O O5 0.651768 0.719646 0.090086
O O6 0.931753 0.688458 0.153318
O O7 0.476718 0.630451 0.753291
O O8 0.891375 0.917986 0.198720
O O9 0.167925 0.200850 0.567530
O O10 0.528220 0.171556 0.875884
O O11 0.000000 0.000000 0.500000
O O12 0.224374 0.619833 0.418749
O O13 0.417080 0.904728 0.650223
O O14 0.316245 0.422935 0.420515
O O15 0.732969 0.728664 0.814720
O O16 0.884883 0.141086 0.015776
O O17 0.840341 0.104619 0.143837
#
# Coordination Sequence:
#
# PCOD9073305 Si02
#       8
#     2   2   2   2   2   2   2   2
#     4  12  19  36  63  88 122 154 192 253 301 347
#     4  11  21  39  59  88 126 157 197 249 304 350
#     4  10  21  38  59  93 123 152 200 261 300 342
#     4  12  22  36  65  93 119 159 200 246 302 361
#     4  11  25  41  60  90 126 163 198 239 302 371
#     4  12  22  38  66  93 119 157 204 250 304 348
#     4  11  23  43  61  88 129 160 195 247 302 365
#     4  11  21  35  61  91 121 153 198 253 299 350
#
# _framework density 21.362876
#
# number of rings (size 3 to 8) (size 9 to 14) (size 15 to 20)
#    0.000    0.750    8.750    0.750    0.000    4.500 
#    2.250    0.625    0.000    1.500    0.000    0.000 
#    0.000    0.000    0.000    0.000    0.000    0.000 
#
# Total GULP energy -89319.637839 kJ/mol
# GULP energy per Si atom -5582.477365 kJ/mol
# Density = 2.131425 g / cm^3
# Si number density = 21.362876 Si / 1000 Ang^3
#
#
#
# Elastic Constant Matrix: (Units=GPa)
#
#
# Indices 1 2 3 4 5 6 
#
# 1 103.4268 2.6952 24.0358 -8.9563 -41.8971 15.8520
# 2 2.6952 38.9029 13.9768 -31.1646 -12.2731 10.8616
# 3 24.0358 13.9768 82.6387 -31.9553 -33.6664 8.1385
# 4 -8.9563 -31.1646 -31.9553 34.1342 10.5443 -16.1880
# 5 -41.8971 -12.2731 -33.6664 10.5443 51.5977 -15.6584
# 6 15.8520 10.8616 8.1385 -16.1880 -15.6584 20.3930
#
#
#
# Elastic Compliance Matrix: (Units=1/GPa)
#
#
# Indices 1 2 3 4 5 6 
#
# 1 0.013735 -0.009140 -0.007481 -0.020695 0.003239 -0.016763
# 2 -0.009140 -0.097837 -0.080596 -0.205889 -0.082235 -0.135198
# 3 -0.007481 -0.080596 -0.028664 -0.121902 -0.039295 -0.066757
# 4 -0.020695 -0.205889 -0.121902 -0.325615 -0.135974 -0.188483
# 5 0.003239 -0.082235 -0.039295 -0.135974 -0.014173 -0.061855
# 6 -0.016763 -0.135198 -0.066757 -0.188483 -0.061855 -0.036395
#
#
# Mechanical properties :
#
#
# Convention : Reuss Voigt Hill
#
# Bulk Modulus (GPa) = -3.25520 34.04267 15.39374
# Shear Modulus (GPa) = -12.59715 33.50902 10.45593
#
# Velocity S-wave (km/s) = -2.43096 3.96481 2.21474
# Velocity P-wave (km/s) = 3.06700 6.07697 3.70966
#
# Compressibility (1/GPa) = -0.30720122
#
# Stress axis : x y z
#
# Youngs Moduli (GPa) = 72.80798 -10.22109 -34.88672
#
# Poissons Ratio (x) = -0.09342 -0.26098
# Poissons Ratio (y) = 0.66549 -2.81174
# Poissons Ratio (z) = 0.54467 -0.82378
#
# Static dielectric constant tensor:
#      x y z
#    x 1.773200 -0.015200 -0.008340 
#    y -0.015200 1.846980 0.015090 
#    z -0.008340 0.015090 1.772920 
# 
# From -- ./inp_files/273019.got.cif
#   From: 2010.05.17/outbox.ucp.g08.bks.cvg/sg2_137_cif.got.tgz:273019.got - 2010.06.11 11:32:03.
