data_PCOD9073930
_publ_section_title
;
Structure prediction by ZEFSAII (Michael W. Deem and Ramdas Pophale) SiO2 
 PCOD9073930
Probable space group: P -1
;
_chemical_formula_sum "Si O2"
_cell_formula_units_Z 14
_cell_length_a 11.164159
_cell_length_b 12.187114
_cell_length_c 7.117102
_cell_angle_alpha 86.861955
_cell_angle_beta 76.714363
_cell_angle_gamma 45.410182
_cell_volume 663.167390
_symmetry_space_group_name_H-M "P -1"
_symmetry_group_IT_number 2
_symmetry_cell_setting 'triclinic'
loop_
_space_group_symop_operation_xyz
x,y,z
-x,-y,-z
loop_
_atom_site_type_symbol
_atom_site_label
_atom_site_fract_x
_atom_site_fract_y
_atom_site_fract_z
Si Si1 0.269390 0.933237 0.019679
Si Si2 0.335261 0.309587 0.138233
Si Si3 0.991597 0.852532 0.571076
Si Si4 0.213087 0.882373 0.659451
Si Si5 0.578353 0.768687 0.472528
Si Si6 0.111975 0.539484 0.480886
Si Si7 0.343254 0.124568 0.898628
O O1 0.474524 0.779936 0.003800
O O2 0.211930 0.884625 0.885154
O O3 0.253031 0.064721 0.915613
O O4 0.155141 0.017638 0.238026
O O5 0.385666 0.217041 0.326315
O O6 0.217004 0.481444 0.249067
O O7 0.242193 0.285038 0.033027
O O8 0.169869 0.792397 0.592184
O O9 0.936380 0.944440 0.388510
O O10 0.005525 0.714182 0.552561
O O11 0.396842 0.819178 0.536657
O O12 0.739200 0.582006 0.407199
O O13 0.592317 0.859097 0.315415
O O14 0.000000 0.500000 0.500000
O O15 0.500000 0.000000 0.000000
#
# Coordination Sequence:
#
# PCOD9073930 Si02
#       7
#     2   2   2   2   2   2   2
#     4  10  20  35  60  88 114 157 200 244 289 355
#     4   8  19  36  54  84 120 154 189 241 295 355
#     4  11  23  40  62  87 122 155 205 251 292 346
#     4  10  22  40  63  85 117 163 205 245 289 355
#     4   9  21  38  59  88 122 158 198 237 306 361
#     4  10  22  40  59  88 126 157 191 255 303 356
#     4  10  18  31  60  90 116 151 198 247 288 348
#
# _framework density 21.110809
#
# number of rings (size 3 to 8) (size 9 to 14) (size 15 to 20)
#    0.857    1.429    0.000    3.000    2.000    6.857 
#    2.571    1.429    0.000    2.571    0.000    0.000 
#    0.000    0.000    0.000    0.000    0.000    0.000 
#
# Total GULP energy -77977.965963 kJ/mol
# GULP energy per Si atom -5569.854712 kJ/mol
# Density = 2.106276 g / cm^3
# Si number density = 21.110809 Si / 1000 Ang^3
#
#
#
# Elastic Constant Matrix: (Units=GPa)
#
#
# Indices 1 2 3 4 5 6 
#
# 1 99.3769 17.3442 5.8320 11.7863 6.4640 1.8754
# 2 17.3442 50.6620 8.8037 12.9582 -0.2343 4.9605
# 3 5.8320 8.8037 69.0943 12.4205 -2.2405 3.2732
# 4 11.7863 12.9582 12.4205 16.2527 -1.9172 -6.6948
# 5 6.4640 -0.2343 -2.2405 -1.9172 31.1062 2.3004
# 6 1.8754 4.9605 3.2732 -6.6948 2.3004 21.2356
#
#
#
# Elastic Compliance Matrix: (Units=1/GPa)
#
#
# Indices 1 2 3 4 5 6 
#
# 1 0.011673 -0.001195 0.001109 -0.010272 -0.002702 -0.003868
# 2 -0.001195 0.029543 0.002924 -0.032073 -0.000012 -0.017356
# 3 0.001109 0.002924 0.018365 -0.021395 0.000566 -0.010418
# 4 -0.010272 -0.032073 -0.021395 0.133378 0.004635 0.053244
# 5 -0.002702 -0.000012 0.000566 0.004635 0.033182 -0.001979
# 6 -0.003868 -0.017356 -0.010418 0.053244 -0.001979 0.070093
#
#
# Mechanical properties :
#
#
# Convention : Reuss Voigt Hill
#
# Bulk Modulus (GPa) = 15.32427 31.45476 23.38952
# Shear Modulus (GPa) = 16.00971 26.19578 21.10274
#
# Velocity S-wave (km/s) = 2.75683 3.52642 3.16510
# Velocity P-wave (km/s) = 4.17232 5.61365 4.94577
#
# Compressibility (1/GPa) = 0.06525596
#
# Stress axis : x y z
#
# Youngs Moduli (GPa) = 85.66558 33.84943 54.45244
#
# Poissons Ratio (x) = 0.04047 -0.06040
# Poissons Ratio (y) = 0.10241 -0.15922
# Poissons Ratio (z) = -0.09502 -0.09897
#
# Static dielectric constant tensor:
#      x y z
#    x 1.821810 -0.019160 0.001720 
#    y -0.019160 1.824670 0.075280 
#    z 0.001720 0.075280 1.825320 
# 
# From -- ./inp_files/267572.got.cif
#   From: 2010.05.17/outbox.cif.g08.bks.cpg/sg2_134_cif.got.tgz:267572.got - 2010.06.03 11:33:40.
