data_PCOD9073742
_publ_section_title
;
Structure prediction by ZEFSAII (Michael W. Deem and Ramdas Pophale) SiO2 
 PCOD9073742
Probable space group: P -1
;
_chemical_formula_sum "Si O2"
_cell_formula_units_Z 16
_cell_length_a 12.000000
_cell_length_b 12.000000
_cell_length_c 9.000000
_cell_angle_alpha 120.000000
_cell_angle_beta 50.000000
_cell_angle_gamma 90.000000
_cell_volume 752.153660
_symmetry_space_group_name_H-M "P -1"
_symmetry_group_IT_number 2
_symmetry_cell_setting 'triclinic'
loop_
_space_group_symop_operation_xyz
x,y,z
-x,-y,-z
loop_
_atom_site_type_symbol
_atom_site_label
_atom_site_fract_x
_atom_site_fract_y
_atom_site_fract_z
Si Si1 0.427029 0.767393 0.253050
Si Si2 0.511984 0.346459 0.556015
Si Si3 0.247234 0.914317 0.003920
Si Si4 0.765328 0.637309 0.416374
Si Si5 0.068198 0.018370 0.797771
Si Si6 0.044770 0.678875 0.038820
Si Si7 0.664054 0.328918 0.018709
Si Si8 0.391394 0.119415 0.046273
O O1 0.516384 0.680359 0.266927
O O2 0.374835 0.675856 0.123186
O O3 0.256370 0.902784 0.541767
O O4 0.523281 0.835470 0.125362
O O5 0.688610 0.219078 0.260242
O O6 0.386384 0.324425 0.540742
O O7 0.476829 0.514207 0.693069
O O8 0.326982 0.819262 0.020457
O O9 0.048932 0.997853 0.236936
O O10 0.299028 0.035336 0.001185
O O11 0.715273 0.732306 0.670475
O O12 0.898735 0.666833 0.237453
O O13 0.149751 0.536854 0.753215
O O14 0.036651 0.179757 0.899607
O O15 0.000000 0.000000 0.000000
O O16 0.167653 0.680958 0.064449
O O17 0.500000 0.000000 0.000000
#
# Coordination Sequence:
#
# PCOD9073742 Si02
#       8
#     2   2   2   2   2   2   2   2
#     4  12  25  40  64  96 129 166 204 263 318 363
#     4  11  22  40  63  93 129 162 209 256 317 373
#     4  11  23  41  66  91 123 171 210 258 309 373
#     4  10  21  43  67  93 125 164 216 255 311 373
#     4  11  24  42  61  93 129 166 209 254 316 375
#     4   9  22  40  70  90 122 172 210 257 306 375
#     4  10  22  40  64  95 122 164 211 261 309 370
#     4  12  23  40  63  97 125 161 212 262 308 371
#
# _framework density 21.272248999999999
#
# number of rings (size 3 to 8) (size 9 to 14) (size 15 to 20)
#    0.000    1.250    3.750    1.500    1.750    4.500 
#    2.250    0.000    0.000    3.000    0.000    0.000 
#    0.000    0.000    0.000    0.000    0.000    0.000 
#
# Total GULP energy -89250.291755 kJ/mol
# GULP energy per Si atom -5578.143235 kJ/mol
# Density = 2.122383 g / cm^3
# Si number density = 21.272249 Si / 1000 Ang^3
#
#
#
# Elastic Constant Matrix: (Units=GPa)
#
#
# Indices 1 2 3 4 5 6 
#
# 1 37.2432 35.3141 24.6349 8.2537 -0.0857 1.9126
# 2 35.3141 83.1283 36.8624 0.5080 -1.5298 9.6077
# 3 24.6349 36.8624 95.7860 2.2751 -0.1026 5.9150
# 4 8.2537 0.5080 2.2751 23.6630 1.3542 9.3772
# 5 -0.0857 -1.5298 -0.1026 1.3542 28.1731 -4.4899
# 6 1.9126 9.6077 5.9150 9.3772 -4.4899 28.9050
#
#
#
# Elastic Compliance Matrix: (Units=1/GPa)
#
#
# Indices 1 2 3 4 5 6 
#
# 1 0.057516 -0.023057 -0.006163 -0.024402 0.002205 0.013378
# 2 -0.023057 0.024237 -0.003069 0.011777 -0.000903 -0.009863
# 3 -0.006163 -0.003069 0.013284 0.001736 -0.000529 -0.001936
# 4 -0.024402 0.011777 0.001736 0.059800 -0.005965 -0.022982
# 5 0.002205 -0.000903 -0.000529 -0.005965 0.037004 0.007946
# 6 0.013378 -0.009863 -0.001936 -0.022982 0.007946 0.046075
#
#
# Mechanical properties :
#
#
# Convention : Reuss Voigt Hill
#
# Bulk Modulus (GPa) = 32.83203 45.53116 39.18160
# Shear Modulus (GPa) = 15.99246 24.10462 20.04854
#
# Velocity S-wave (km/s) = 2.74487 3.36988 3.07330
# Velocity P-wave (km/s) = 5.05109 6.04913 5.57250
#
# Compressibility (1/GPa) = 0.03045806
#
# Stress axis : x y z
#
# Youngs Moduli (GPa) = 17.38652 41.25940 75.27946
#
# Poissons Ratio (x) = 0.95132 0.46396
# Poissons Ratio (y) = 0.40088 0.23103
# Poissons Ratio (z) = 0.10716 0.12663
#
# Static dielectric constant tensor:
#      x y z
#    x 1.843930 0.005020 -0.013520 
#    y 0.005020 1.787360 0.012430 
#    z -0.013520 0.012430 1.810970 
# 
# From -- ./inp_files/262916.got.cif
#   From: 2010.05.17/outbox.ucp.g08.bks.cvg/sg2_132_cif.got.tgz:262916.got - 2010.06.11 11:32:03.
