data_PCOD9073552
_publ_section_title
;
Structure prediction by ZEFSAII (Michael W. Deem and Ramdas Pophale) SiO2 
 PCOD9073552
Probable space group: P -1
;
_chemical_formula_sum "Si O2"
_cell_formula_units_Z 16
_cell_length_a 12.000000
_cell_length_b 9.000000
_cell_length_c 30.000000
_cell_angle_alpha 30.000000
_cell_angle_beta 30.000000
_cell_angle_gamma 50.000000
_cell_volume 731.734496
_symmetry_space_group_name_H-M "P -1"
_symmetry_group_IT_number 2
_symmetry_cell_setting 'triclinic'
loop_
_space_group_symop_operation_xyz
x,y,z
-x,-y,-z
loop_
_atom_site_type_symbol
_atom_site_label
_atom_site_fract_x
_atom_site_fract_y
_atom_site_fract_z
Si Si1 0.039659 0.806401 0.289094
Si Si2 0.463328 0.800192 0.747341
Si Si3 0.079413 0.314905 0.939880
Si Si4 0.900216 0.879785 0.717700
Si Si5 0.875501 0.218730 0.430193
Si Si6 0.620005 0.476501 0.054133
Si Si7 0.470592 0.516589 0.571772
Si Si8 0.839586 0.551695 0.221034
O O1 0.038418 0.502387 0.337341
O O2 0.752599 0.745070 0.402123
O O3 0.080180 0.853016 0.318146
O O4 0.228150 0.140694 0.112304
O O5 0.226647 0.544556 0.869416
O O6 0.475380 0.624008 0.835468
O O7 0.697009 0.920117 0.601461
O O8 0.434605 0.139201 0.678183
O O9 0.223250 0.455786 0.807279
O O10 0.817753 0.325195 0.020297
O O11 0.019993 0.936309 0.067394
O O12 0.612191 0.689288 0.855004
O O13 0.018870 0.907342 0.617549
O O14 0.015610 0.662235 0.759850
O O15 0.710871 0.386666 0.420401
O O16 0.399626 0.557623 0.636425
#
# Coordination Sequence:
#
# PCOD9073552 Si02
#       8
#     2   2   2   2   2   2   2   2
#     4  11  23  42  68  96 134 178 216 273 331 387
#     4  11  23  41  70  93 133 171 219 279 331 385
#     4  11  22  39  68  99 131 169 219 282 328 381
#     4  11  26  43  68  96 139 176 221 268 327 409
#     4  10  24  43  65 102 131 172 227 269 330 395
#     4  12  24  42  68  96 135 177 217 269 339 391
#     4  10  21  40  67  98 126 170 222 277 327 387
#     4  10  23  39  64 100 134 164 227 270 331 392
#
# _framework density 21.865853999999999
#
# number of rings (size 3 to 8) (size 9 to 14) (size 15 to 20)
#    0.000    1.250    2.500    3.750    5.250    2.000 
#    0.000    2.500    0.000    0.000    0.000    0.000 
#    0.000    0.000    0.000    0.000    0.000    0.000 
#
# Total GULP energy -89307.191493 kJ/mol
# GULP energy per Si atom -5581.699468 kJ/mol
# Density = 2.181609 g / cm^3
# Si number density = 21.865854 Si / 1000 Ang^3
#
#
#
# Elastic Constant Matrix: (Units=GPa)
#
#
# Indices 1 2 3 4 5 6 
#
# 1 92.5503 25.2266 31.8441 10.8791 1.0528 31.7293
# 2 25.2266 51.5704 14.3100 4.1933 -0.4034 23.1386
# 3 31.8441 14.3100 80.3669 13.7794 12.6762 16.5085
# 4 10.8791 4.1933 13.7794 25.1066 15.5345 5.8965
# 5 1.0528 -0.4034 12.6762 15.5345 48.5776 7.8143
# 6 31.7293 23.1386 16.5085 5.8965 7.8143 38.3380
#
#
#
# Elastic Compliance Matrix: (Units=1/GPa)
#
#
# Indices 1 2 3 4 5 6 
#
# 1 0.017070 -0.001680 -0.003919 -0.004740 0.004007 -0.011514
# 2 -0.001680 0.027551 -0.001403 -0.001809 0.003638 -0.015097
# 3 -0.003919 -0.001403 0.015754 -0.005007 -0.002199 -0.001476
# 4 -0.004740 -0.001809 -0.005007 0.054585 -0.016402 0.002119
# 5 0.004007 0.003638 -0.002199 -0.016402 0.027581 -0.007664
# 6 -0.011514 -0.015097 -0.001476 0.002119 -0.007664 0.046596
#
#
# Mechanical properties :
#
#
# Convention : Reuss Voigt Hill
#
# Bulk Modulus (GPa) = 21.56430 40.80542 31.18486
# Shear Modulus (GPa) = 22.87303 32.61157 27.74230
#
# Velocity S-wave (km/s) = 3.23780 3.86610 3.56582
# Velocity P-wave (km/s) = 4.88480 6.21540 5.58983
#
# Compressibility (1/GPa) = 0.04637293
#
# Stress axis : x y z
#
# Youngs Moduli (GPa) = 58.58190 36.29579 63.47663
#
# Poissons Ratio (x) = 0.06098 0.24875
# Poissons Ratio (y) = 0.09842 0.08903
# Poissons Ratio (z) = 0.22957 0.05091
#
# Static dielectric constant tensor:
#      x y z
#    x 1.801750 0.049200 0.014090 
#    y 0.049200 1.850230 0.029180 
#    z 0.014090 0.029180 1.814300 
# 
# From -- ./inp_files/622979.got.cif
#   From: 2010.05.17/outbox.ucp.g08.bks.cvg/sg2_312_cif.got.tgz:622979.got - 2010.06.11 11:32:03.
