data_PCOD9073692
_publ_section_title
;
Structure prediction by ZEFSAII (Michael W. Deem and Ramdas Pophale) SiO2 
 PCOD9073692
Probable space group: P -1
;
_chemical_formula_sum "Si O2"
_cell_formula_units_Z 16
_cell_length_a 9.000000
_cell_length_b 9.000000
_cell_length_c 15.000000
_cell_angle_alpha 40.000000
_cell_angle_beta 70.000000
_cell_angle_gamma 70.000000
_cell_volume 727.419504
_symmetry_space_group_name_H-M "P -1"
_symmetry_group_IT_number 2
_symmetry_cell_setting 'triclinic'
loop_
_space_group_symop_operation_xyz
x,y,z
-x,-y,-z
loop_
_atom_site_type_symbol
_atom_site_label
_atom_site_fract_x
_atom_site_fract_y
_atom_site_fract_z
Si Si1 0.649398 0.890974 0.833397
Si Si2 0.442654 0.073274 0.621904
Si Si3 0.605463 0.333912 0.312266
Si Si4 0.892840 0.476997 0.942782
Si Si5 0.907043 0.001375 0.859180
Si Si6 0.638771 0.855604 0.110143
Si Si7 0.155022 0.331372 0.675409
Si Si8 0.941439 0.265204 0.365828
O O1 0.715261 0.613180 0.936285
O O2 0.814915 0.975779 0.795868
O O3 0.572241 0.009641 0.704191
O O4 0.510492 0.972453 0.897624
O O5 0.505870 0.232650 0.458783
O O6 0.281083 0.227027 0.621576
O O7 0.419596 0.822720 0.697468
O O8 0.583305 0.618131 0.187675
O O9 0.787908 0.268786 0.333171
O O10 0.945457 0.598816 0.784526
O O11 0.000000 0.500000 0.000000
O O12 0.944171 0.198153 0.052370
O O13 0.762891 0.972363 0.969804
O O14 0.988525 0.232992 0.739617
O O15 0.749220 0.767257 0.211277
O O16 0.107817 0.598207 0.594315
O O17 0.000000 0.000000 0.500000
#
# Coordination Sequence:
#
# PCOD9073692 Si02
#       8
#     2   2   2   2   2   2   2   2
#     4  10  23  40  65 100 131 182 226 279 326 409
#     4  10  23  44  66  98 136 180 235 278 342 412
#     4  10  22  43  69  92 138 183 221 284 350 405
#     4  10  22  39  68  99 141 182 220 285 348 401
#     4  11  21  42  69  99 140 178 224 278 348 406
#     4  10  21  42  68  96 138 181 222 278 343 406
#     4  10  23  41  71 102 130 184 225 287 343 413
#     4  11  23  43  72 101 137 178 234 288 345 410
#
# _framework density 21.995560999999999
#
# number of rings (size 3 to 8) (size 9 to 14) (size 15 to 20)
#    0.000    1.750    2.500    1.500    3.500    5.500 
#    6.750    6.250    0.000    0.000    0.000    0.000 
#    0.000    0.000    0.000    0.000    0.000    0.000 
#
# Total GULP energy -89258.290645 kJ/mol
# GULP energy per Si atom -5578.643165 kJ/mol
# Density = 2.194550 g / cm^3
# Si number density = 21.995561 Si / 1000 Ang^3
#
#
#
# Elastic Constant Matrix: (Units=GPa)
#
#
# Indices 1 2 3 4 5 6 
#
# 1 92.0545 66.9442 36.4623 -25.3001 -2.2201 -6.2754
# 2 66.9442 142.9987 40.0942 4.2747 8.2814 -16.9792
# 3 36.4623 40.0942 68.1480 -0.5500 9.8133 -1.5997
# 4 -25.3001 4.2747 -0.5500 12.8016 -4.8724 1.1732
# 5 -2.2201 8.2814 9.8133 -4.8724 25.3140 -5.5373
# 6 -6.2754 -16.9792 -1.5997 1.1732 -5.5373 42.8471
#
#
#
# Elastic Compliance Matrix: (Units=1/GPa)
#
#
# Indices 1 2 3 4 5 6 
#
# 1 -0.056743 0.028147 0.019666 -0.139205 -0.048353 0.001140
# 2 0.028147 -0.004966 -0.014859 0.065147 0.023003 0.002789
# 3 0.019666 -0.014859 0.011660 0.048705 0.010894 -0.002498
# 4 -0.139205 0.065147 0.048705 -0.255321 -0.101295 0.001146
# 5 -0.048353 0.023003 0.010894 -0.101295 0.005308 0.005900
# 6 0.001140 0.002789 -0.002498 0.001146 0.005900 0.025249
#
#
# Mechanical properties :
#
#
# Convention : Reuss Voigt Hill
#
# Bulk Modulus (GPa) = 63.05882 65.57807 64.31845
# Shear Modulus (GPa) = -14.90600 26.83922 5.96661
#
# Velocity S-wave (km/s) = -2.60606 3.49694 1.64880
# Velocity P-wave (km/s) = 4.43573 6.79586 5.73844
#
# Compressibility (1/GPa) = 0.01585821
#
# Stress axis : x y z
#
# Youngs Moduli (GPa) = -17.62329 -201.36869 85.76570
#
# Poissons Ratio (x) = 5.66791 -1.68669
# Poissons Ratio (y) = 0.49604 1.27442
# Poissons Ratio (z) = 0.34658 -2.99221
#
# Static dielectric constant tensor:
#      x y z
#    x 1.787650 -0.000300 -0.006800 
#    y -0.000300 1.905830 0.000600 
#    z -0.006800 0.000600 1.847610 
# 
# From -- ./inp_files/494206.got.cif
#   From: 2010.05.17/outbox.ucp.g08.bks.cvg/sg2_248_cif.got.tgz:494206.got - 2010.06.11 11:32:03.
