data_PCOD9073037
_publ_section_title
;
Structure prediction by ZEFSAII (Michael W. Deem and Ramdas Pophale) SiO2 
 PCOD9073037
Probable space group: P -1
;
_chemical_formula_sum "Si O2"
_cell_formula_units_Z 16
_cell_length_a 15.000000
_cell_length_b 9.000000
_cell_length_c 9.000000
_cell_angle_alpha 100.000000
_cell_angle_beta 70.000000
_cell_angle_gamma 50.000000
_cell_volume 732.374747
_symmetry_space_group_name_H-M "P -1"
_symmetry_group_IT_number 2
_symmetry_cell_setting 'triclinic'
loop_
_space_group_symop_operation_xyz
x,y,z
-x,-y,-z
loop_
_atom_site_type_symbol
_atom_site_label
_atom_site_fract_x
_atom_site_fract_y
_atom_site_fract_z
Si Si1 0.492554 0.668296 0.612350
Si Si2 0.607002 0.690941 0.793388
Si Si3 0.103754 0.545723 0.290267
Si Si4 0.954201 0.381450 0.994922
Si Si5 0.204527 0.916147 0.941789
Si Si6 0.151239 0.149234 0.296315
Si Si7 0.420669 0.946625 0.218758
Si Si8 0.335385 0.423398 0.755350
O O1 0.500000 0.500000 0.500000
O O2 0.595856 0.557184 0.677089
O O3 0.327598 0.878206 0.795874
O O4 0.556297 0.709641 0.468381
O O5 0.748329 0.542321 0.785227
O O6 0.601500 0.847778 0.722119
O O7 0.466312 0.866247 0.007699
O O8 0.037176 0.668000 0.192409
O O9 0.133714 0.328837 0.247081
O O10 0.999536 0.705005 0.514458
O O11 0.787477 0.555440 0.168463
O O12 0.055204 0.148729 0.992278
O O13 0.000000 0.500000 0.000000
O O14 0.252585 0.685393 0.850084
O O15 0.196641 0.963179 0.127972
O O16 0.269516 0.042428 0.337675
O O17 0.553418 0.726604 0.199111
#
# Coordination Sequence:
#
# PCOD9073037 Si02
#       8
#     2   2   2   2   2   2   2   2
#     4  10  24  44  66  95 134 177 218 270 333 393
#     4  10  20  40  67  93 131 167 219 279 321 386
#     4  10  22  40  64 100 127 166 221 272 327 389
#     4  12  25  42  70  95 134 173 219 271 331 392
#     4  11  24  45  64  93 137 177 214 274 331 394
#     4  10  21  40  66  95 131 169 217 270 332 388
#     4  10  21  38  68  95 126 170 223 272 330 382
#     4  11  26  44  63  98 132 176 223 266 336 396
#
# _framework density 21.846738999999999
#
# number of rings (size 3 to 8) (size 9 to 14) (size 15 to 20)
#    0.000    1.500    3.750    0.375    5.250    2.000 
#    0.000    0.625    0.000    0.000    0.000    0.000 
#    0.000    0.000    0.000    0.000    0.000    0.000 
#
# Total GULP energy -89274.955061 kJ/mol
# GULP energy per Si atom -5579.684691 kJ/mol
# Density = 2.179701 g / cm^3
# Si number density = 21.846739 Si / 1000 Ang^3
#
#
#
# Elastic Constant Matrix: (Units=GPa)
#
#
# Indices 1 2 3 4 5 6 
#
# 1 42.0223 6.5430 17.6421 -1.1083 37.4264 -1.7389
# 2 6.5430 50.5495 -32.5432 8.0676 29.0416 -32.0255
# 3 17.6421 -32.5432 59.8151 2.0850 18.2070 -8.5291
# 4 -1.1083 8.0676 2.0850 16.4823 -6.6836 0.8614
# 5 37.4264 29.0416 18.2070 -6.6836 4.8392 12.5285
# 6 -1.7389 -32.0255 -8.5291 0.8614 12.5285 9.0402
#
#
#
# Elastic Compliance Matrix: (Units=1/GPa)
#
#
# Indices 1 2 3 4 5 6 
#
# 1 0.519949 -0.256676 -0.228289 0.040643 -0.423885 -0.441085
# 2 -0.256676 0.130837 0.109483 -0.015692 0.223000 0.209868
# 3 -0.228289 0.109483 0.111681 -0.014551 0.192644 0.183711
# 4 0.040643 -0.015692 -0.014551 0.059649 -0.035125 -0.018505
# 5 -0.423885 0.223000 0.192644 -0.035125 0.363231 0.390166
# 6 -0.441085 0.209868 0.183711 -0.018505 0.390166 0.403614
#
#
# Mechanical properties :
#
#
# Convention : Reuss Voigt Hill
#
# Bulk Modulus (GPa) = 86.94493 15.07454 51.00973
# Shear Modulus (GPa) = 2.13332 16.78869 9.46101
#
# Velocity S-wave (km/s) = 0.98925 2.77515 2.08327
# Velocity P-wave (km/s) = 6.41786 4.14532 5.40243
#
# Compressibility (1/GPa) = 0.01150153
#
# Stress axis : x y z
#
# Youngs Moduli (GPa) = 1.92327 7.64307 8.95411
#
# Poissons Ratio (x) = 1.96179 2.04413
# Poissons Ratio (y) = 0.49366 -0.98032
# Poissons Ratio (z) = 0.43906 -0.83678
#
# Static dielectric constant tensor:
#      x y z
#    x 1.827760 -0.008260 0.013330 
#    y -0.008260 1.758760 -0.015860 
#    z 0.013330 -0.015860 1.812610 
# 
# From -- ./inp_files/205617.got.cif
#   From: 2010.05.17/outbox.ucp.g08.bks.cvg/sg2_103_cif.got.tgz:205617.got - 2010.06.11 11:32:03.
