data_PCOD9073746
_publ_section_title
;
Structure prediction by ZEFSAII (Michael W. Deem and Ramdas Pophale) SiO2 
 PCOD9073746
Probable space group: P -1
;
_chemical_formula_sum "Si O2"
_cell_formula_units_Z 16
_cell_length_a 9.157909
_cell_length_b 14.769372
_cell_length_c 8.637901
_cell_angle_alpha 133.475598
_cell_angle_beta 105.221511
_cell_angle_gamma 73.505943
_cell_volume 809.131923
_symmetry_space_group_name_H-M "P -1"
_symmetry_group_IT_number 2
_symmetry_cell_setting 'triclinic'
loop_
_space_group_symop_operation_xyz
x,y,z
-x,-y,-z
loop_
_atom_site_type_symbol
_atom_site_label
_atom_site_fract_x
_atom_site_fract_y
_atom_site_fract_z
Si Si1 0.679960 0.456516 0.529100
Si Si2 0.173545 0.875028 0.304261
Si Si3 0.917656 0.590670 0.949635
Si Si4 0.136414 0.673312 0.844294
Si Si5 0.823171 0.870249 0.259092
Si Si6 0.059416 0.133753 0.210849
Si Si7 0.676050 0.955438 0.012966
Si Si8 0.807554 0.204192 0.440561
O O1 0.500000 0.500000 0.500000
O O2 0.778994 0.541053 0.759886
O O3 0.761644 0.428375 0.352194
O O4 0.712761 0.324186 0.474820
O O5 0.207357 0.799587 0.384822
O O6 0.987803 0.897847 0.269121
O O7 0.226181 0.011399 0.501167
O O8 0.228257 0.779859 0.069546
O O9 0.045856 0.613466 0.884402
O O10 0.851871 0.728472 0.160441
O O11 0.000000 0.500000 0.000000
O O12 0.015647 0.757067 0.797729
O O13 0.715046 0.874176 0.083569
O O14 0.985220 0.182393 0.410106
O O15 0.237717 0.109597 0.189756
O O16 0.000000 0.000000 0.000000
O O17 0.745821 0.082095 0.215885
O O18 0.500000 0.000000 0.000000
#
# Coordination Sequence:
#
# PCOD9073746 Si02
#       8
#     2   2   2   2   2   2   2   2
#     4  11  24  39  61  92 125 166 208 258 311 368
#     4   9  16  34  62  87 112 151 206 251 306 354
#     4  11  22  40  63  88 126 169 216 248 297 376
#     4  10  20  39  64  87 121 162 210 262 300 371
#     4   9  18  31  58  85 116 153 193 251 305 355
#     4   9  17  32  52  88 112 145 197 243 301 358
#     4  10  18  31  56  87 117 151 190 256 316 354
#     4   9  20  34  56  86 113 155 203 247 302 367
#
# _framework density 19.774279
#
# number of rings (size 3 to 8) (size 9 to 14) (size 15 to 20)
#    0.000    2.250    2.500    1.875    3.500    0.000 
#    0.000    2.500    0.000   10.500    0.000    0.000 
#    0.000    0.000    0.000    0.000    0.000    0.000 
#
# Total GULP energy -89164.165996 kJ/mol
# GULP energy per Si atom -5572.760375 kJ/mol
# Density = 1.972927 g / cm^3
# Si number density = 19.774279 Si / 1000 Ang^3
#
#
#
# Elastic Constant Matrix: (Units=GPa)
#
#
# Indices 1 2 3 4 5 6 
#
# 1 84.6213 42.4311 33.1572 -4.9467 -7.7000 -24.1835
# 2 42.4311 131.3643 33.6556 8.1167 3.5546 -4.3521
# 3 33.1572 33.6556 102.0542 -3.2795 6.0764 -5.0826
# 4 -4.9467 8.1167 -3.2795 18.9559 -2.9839 2.5410
# 5 -7.7000 3.5546 6.0764 -2.9839 15.1343 1.2744
# 6 -24.1835 -4.3521 -5.0826 2.5410 1.2744 28.3569
#
#
#
# Elastic Compliance Matrix: (Units=1/GPa)
#
#
# Indices 1 2 3 4 5 6 
#
# 1 0.024317 -0.006857 -0.005485 0.008615 0.016435 0.017192
# 2 -0.006857 0.010664 -0.001301 -0.007147 -0.006584 -0.003508
# 3 -0.005485 -0.001301 0.012331 0.000454 -0.007145 -0.002387
# 4 0.008615 -0.007147 0.000454 0.060949 0.017891 0.000066
# 5 0.016435 -0.006584 -0.007145 0.017891 0.081837 0.006444
# 6 0.017192 -0.003508 -0.002387 0.000066 0.006444 0.048665
#
#
# Mechanical properties :
#
#
# Convention : Reuss Voigt Hill
#
# Bulk Modulus (GPa) = 49.93448 59.61417 54.77433
# Shear Modulus (GPa) = 18.33355 26.40915 22.37135
#
# Velocity S-wave (km/s) = 3.04820 3.65846 3.36718
# Velocity P-wave (km/s) = 6.13969 6.93242 6.54806
#
# Compressibility (1/GPa) = 0.02002624
#
# Stress axis : x y z
#
# Youngs Moduli (GPa) = 41.12363 93.77238 81.09596
#
# Poissons Ratio (x) = 0.64297 0.44480
# Poissons Ratio (y) = 0.28197 0.10554
# Poissons Ratio (z) = 0.22556 0.12204
#
# Static dielectric constant tensor:
#      x y z
#    x 1.723080 -0.001110 0.004410 
#    y -0.001110 1.746480 -0.004780 
#    z 0.004410 -0.004780 1.780540 
# 
# From -- ./inp_files/209026.got.cif
#   From: 2010.05.17/outbox.cif.g08.bks.cpg/sg2_105_cif.got.tgz:209026.got - 2010.06.03 11:33:40.
