data_PCOD9073568
_publ_section_title
;
Structure prediction by ZEFSAII (Michael W. Deem and Ramdas Pophale) SiO2 
 PCOD9073568
Probable space group: P -1
;
_chemical_formula_sum "Si O2"
_cell_formula_units_Z 16
_cell_length_a 6.000000
_cell_length_b 12.000000
_cell_length_c 30.000000
_cell_angle_alpha 160.000000
_cell_angle_beta 90.000000
_cell_angle_gamma 90.000000
_cell_volume 738.763510
_symmetry_space_group_name_H-M "P -1"
_symmetry_group_IT_number 2
_symmetry_cell_setting 'triclinic'
loop_
_space_group_symop_operation_xyz
x,y,z
-x,-y,-z
loop_
_atom_site_type_symbol
_atom_site_label
_atom_site_fract_x
_atom_site_fract_y
_atom_site_fract_z
Si Si1 0.134524 0.812284 0.708825
Si Si2 0.898123 0.274604 0.814900
Si Si3 0.843004 0.413293 0.620339
Si Si4 0.110307 0.349260 0.137400
Si Si5 0.438817 0.217176 0.165808
Si Si6 0.254808 0.381759 0.471348
Si Si7 0.618545 0.726473 0.048516
Si Si8 0.162308 0.301974 0.657224
O O1 0.247293 0.501144 0.567733
O O2 0.909529 0.664737 0.675923
O O3 0.270611 0.983595 0.813162
O O4 0.089484 0.078591 0.769487
O O5 0.920014 0.496020 0.853797
O O6 0.749362 0.985219 0.685033
O O7 0.795064 0.502341 0.938606
O O8 0.694661 0.577543 0.719874
O O9 0.064034 0.322622 0.614839
O O10 0.748831 0.064934 0.473593
O O11 0.328437 0.244442 0.127234
O O12 0.005741 0.614294 0.271189
O O13 0.000000 0.000000 0.000000
O O14 0.670163 0.399369 0.228456
O O15 0.472620 0.876057 0.063826
O O16 0.500000 0.500000 0.500000
O O17 0.000000 0.500000 0.500000
O O18 0.500000 0.500000 0.000000
#
# Coordination Sequence:
#
# PCOD9073568 Si02
#       8
#     2   2   2   2   2   2   2   2
#     4  11  23  44  72 103 139 180 233 297 358 427
#     4  11  25  45  68 100 140 188 236 290 359 432
#     4  10  21  40  71 100 135 174 223 287 355 419
#     4  11  26  44  67  94 137 186 235 284 350 431
#     4  11  24  44  68 100 137 178 229 294 351 421
#     4  10  23  47  72 104 148 192 240 299 365 438
#     4  12  25  41  70 104 136 177 232 294 360 425
#     4  10  21  43  66  98 134 175 229 279 348 425
#
# _framework density 21.657810000000001
#
# number of rings (size 3 to 8) (size 9 to 14) (size 15 to 20)
#    0.000    1.250    1.250    3.750    3.500    3.000 
#   11.250    0.000    0.000    0.000    0.000    0.000 
#    0.000    0.000    0.000    0.000    0.000    0.000 
#
# Total GULP energy -89073.000647 kJ/mol
# GULP energy per Si atom -5567.062540 kJ/mol
# Density = 2.160852 g / cm^3
# Si number density = 21.657810 Si / 1000 Ang^3
#
#
#
# Elastic Constant Matrix: (Units=GPa)
#
#
# Indices 1 2 3 4 5 6 
#
# 1 26.9095 17.7818 -7.0041 4.5136 -3.6682 -0.2688
# 2 17.7818 137.0440 -2.6212 7.2422 10.9964 -2.1754
# 3 -7.0041 -2.6212 71.4389 -15.4564 9.6383 -0.9190
# 4 4.5136 7.2422 -15.4564 52.2529 6.1613 -6.4347
# 5 -3.6682 10.9964 9.6383 6.1613 18.6745 -1.1957
# 6 -0.2688 -2.1754 -0.9190 -6.4347 -1.1957 31.9925
#
#
#
# Elastic Compliance Matrix: (Units=1/GPa)
#
#
# Indices 1 2 3 4 5 6 
#
# 1 0.044358 -0.006574 0.001441 -0.004091 0.013167 -0.000364
# 2 -0.006574 0.008700 0.000703 0.000430 -0.006894 0.000385
# 3 0.001441 0.000703 0.017007 0.006265 -0.010886 0.001402
# 4 -0.004091 0.000430 0.006265 0.023202 -0.011664 0.004406
# 5 0.013167 -0.006894 -0.010886 -0.011664 0.069635 -0.000414
# 6 -0.000364 0.000385 0.001402 0.004406 -0.000414 0.032191
#
#
# Mechanical properties :
#
#
# Convention : Reuss Voigt Hill
#
# Bulk Modulus (GPa) = 16.33821 27.96725 22.15273
# Shear Modulus (GPa) = 22.28596 35.73303 29.00950
#
# Velocity S-wave (km/s) = 3.21129 4.06629 3.66382
# Velocity P-wave (km/s) = 4.61628 5.91503 5.30554
#
# Compressibility (1/GPa) = 0.06120620
#
# Stress axis : x y z
#
# Youngs Moduli (GPa) = 22.54360 114.94301 58.79831
#
# Poissons Ratio (x) = 0.75565 -0.08475
# Poissons Ratio (y) = 0.14820 -0.04133
# Poissons Ratio (z) = -0.03250 -0.08080
#
# Static dielectric constant tensor:
#      x y z
#    x 1.729250 0.150160 -0.079610 
#    y 0.150160 1.648380 0.105650 
#    z -0.079610 0.105650 1.782100 
# 
# From -- ./inp_files/70604.got.cif
#   From: 2010.05.17/outbox.ucp.g08.bks.cvg/sg2_36_cif.got.tgz:70604.got - 2010.06.11 11:32:03.
