data_PCOD9073573
_publ_section_title
;
Structure prediction by ZEFSAII (Michael W. Deem and Ramdas Pophale) SiO2 
 PCOD9073573
Probable space group: P -1
;
_chemical_formula_sum "Si O2"
_cell_formula_units_Z 14
_cell_length_a 11.619326
_cell_length_b 11.724717
_cell_length_c 14.397445
_cell_angle_alpha 93.992478
_cell_angle_beta 150.669900
_cell_angle_gamma 105.052294
_cell_volume 723.662054
_symmetry_space_group_name_H-M "P -1"
_symmetry_group_IT_number 2
_symmetry_cell_setting 'triclinic'
loop_
_space_group_symop_operation_xyz
x,y,z
-x,-y,-z
loop_
_atom_site_type_symbol
_atom_site_label
_atom_site_fract_x
_atom_site_fract_y
_atom_site_fract_z
Si Si1 0.627087 0.279615 0.542289
Si Si2 0.128031 0.003547 0.284844
Si Si3 0.013171 0.831129 0.008087
Si Si4 0.148037 0.929570 0.638330
Si Si5 0.136909 0.410907 0.232834
Si Si6 0.869061 0.157819 0.183075
Si Si7 0.291918 0.882635 0.545178
O O1 0.480235 0.151088 0.510768
O O2 0.857419 0.450693 0.749836
O O3 0.785718 0.256641 0.572494
O O4 0.302760 0.223416 0.265989
O O5 0.942805 0.061029 0.177934
O O6 0.008226 0.882349 0.111106
O O7 0.139964 0.937469 0.384112
O O8 0.335600 0.980480 0.199229
O O9 0.000491 0.693738 0.961442
O O10 0.002191 0.823717 0.621100
O O11 0.180723 0.854568 0.570172
O O12 0.503816 0.067920 0.925318
O O13 0.000000 0.000000 0.500000
O O14 0.500000 0.500000 0.500000
O O15 0.001875 0.302121 0.221514
#
# Coordination Sequence:
#
# PCOD9073573 Si02
#       7
#     2   2   2   2   2   2   2
#     4  10  19  33  57  82 118 151 184 233 299 346
#     4  11  19  33  56  87 117 144 192 243 283 343
#     4  10  18  31  55  84 111 147 186 233 289 338
#     4  11  22  37  61  86 111 153 199 247 272 327
#     4  10  19  34  58  85 120 149 182 231 296 359
#     4  11  21  37  60  88 115 150 195 236 291 334
#     4  11  20  35  54  85 114 149 199 241 277 332
#
# _framework density 19.346046999999999
#
# number of rings (size 3 to 8) (size 9 to 14) (size 15 to 20)
#    0.000    1.429    5.714    4.286    0.000    0.000 
#    0.000    3.571   12.571    0.857    0.000    0.000 
#    0.000    0.000    0.000    0.000    0.000    0.000 
#
# Total GULP energy -77993.348638 kJ/mol
# GULP energy per Si atom -5570.953474 kJ/mol
# Density = 1.930201 g / cm^3
# Si number density = 19.346047 Si / 1000 Ang^3
#
#
#
# Elastic Constant Matrix: (Units=GPa)
#
#
# Indices 1 2 3 4 5 6 
#
# 1 95.9046 28.1313 21.1740 4.1799 -23.6754 0.4340
# 2 28.1313 80.8904 30.1523 14.1426 -17.5617 -10.4327
# 3 21.1740 30.1523 46.4541 2.7720 -13.3255 1.0131
# 4 4.1799 14.1426 2.7720 35.7641 -7.1147 -8.0244
# 5 -23.6754 -17.5617 -13.3255 -7.1147 32.6229 -0.8366
# 6 0.4340 -10.4327 1.0131 -8.0244 -0.8366 38.2287
#
#
#
# Elastic Compliance Matrix: (Units=1/GPa)
#
#
# Indices 1 2 3 4 5 6 
#
# 1 0.013530 -0.002307 -0.002494 0.000993 0.007766 -0.000339
# 2 -0.002307 0.019160 -0.010180 -0.004778 0.003558 0.004600
# 3 -0.002494 -0.010180 0.030843 0.002414 0.005760 -0.002934
# 4 0.000993 -0.004778 0.002414 0.032022 0.006259 0.005479
# 5 0.007766 0.003558 0.005760 0.006259 0.041999 0.002963
# 6 -0.000339 0.004600 -0.002934 0.005479 0.002963 0.028710
#
#
# Mechanical properties :
#
#
# Convention : Reuss Voigt Hill
#
# Bulk Modulus (GPa) = 29.78616 42.46271 36.12443
# Shear Modulus (GPa) = 24.10629 30.90924 27.50777
#
# Velocity S-wave (km/s) = 3.53378 4.00146 3.77487
# Velocity P-wave (km/s) = 5.66393 6.58374 6.14108
#
# Compressibility (1/GPa) = 0.03357264
#
# Stress axis : x y z
#
# Youngs Moduli (GPa) = 73.91119 52.19118 32.42247
#
# Poissons Ratio (x) = 0.12040 0.08085
# Poissons Ratio (y) = 0.17051 0.33005
# Poissons Ratio (z) = 0.18430 0.53128
#
# Static dielectric constant tensor:
#      x y z
#    x 1.745910 0.022230 -0.020050 
#    y 0.022230 1.868770 -0.018850 
#    z -0.020050 -0.018850 1.691200 
# 
# From -- ./inp_files/272743.got.cif
#   From: 2010.05.17/outbox.cif.g08.bks.cpg/sg2_137_cif.got.tgz:272743.got - 2010.06.03 11:33:40.
