data_PCOD9073993
_publ_section_title
;
Structure prediction by ZEFSAII (Michael W. Deem and Ramdas Pophale) SiO2 
 PCOD9073993
Probable space group: P -1
;
_chemical_formula_sum "Si O2"
_cell_formula_units_Z 16
_cell_length_a 21.000000
_cell_length_b 18.000000
_cell_length_c 12.000000
_cell_angle_alpha 30.000000
_cell_angle_beta 30.000000
_cell_angle_gamma 20.000000
_cell_volume 738.640068
_symmetry_space_group_name_H-M "P -1"
_symmetry_group_IT_number 2
_symmetry_cell_setting 'triclinic'
loop_
_space_group_symop_operation_xyz
x,y,z
-x,-y,-z
loop_
_atom_site_type_symbol
_atom_site_label
_atom_site_fract_x
_atom_site_fract_y
_atom_site_fract_z
Si Si1 0.121113 0.331203 0.833695
Si Si2 0.130360 0.107695 0.915007
Si Si3 0.454405 0.238396 0.358343
Si Si4 0.737444 0.268188 0.629147
Si Si5 0.148354 0.043540 0.319186
Si Si6 0.434265 0.714994 0.652220
Si Si7 0.876433 0.835830 0.552815
Si Si8 0.156603 0.689197 0.118482
O O1 0.049930 0.293060 0.887824
O O2 0.320092 0.227718 0.621611
O O3 0.961458 0.597554 0.758084
O O4 0.179653 0.178708 0.047075
O O5 0.974557 0.209253 0.924109
O O6 0.325990 0.994862 0.704926
O O7 0.202599 0.901436 0.144112
O O8 0.461037 0.352016 0.301856
O O9 0.338602 0.413799 0.202940
O O10 0.568338 0.521003 0.607078
O O11 0.929309 0.196937 0.412970
O O12 0.711992 0.195707 0.647943
O O13 0.142770 0.053736 0.447484
O O14 0.336519 0.956686 0.449204
O O15 0.254902 0.762060 0.882859
O O16 0.031606 0.759476 0.326161
#
# Coordination Sequence:
#
# PCOD9073993 Si02
#       8
#     2   2   2   2   2   2   2   2
#     4  10  24  44  64  91 131 182 216 264 318 390
#     4  11  22  43  68  99 132 167 219 269 334 381
#     4  11  23  39  66 100 134 171 210 270 329 394
#     4  10  22  40  69  96 124 173 214 279 324 376
#     4  10  22  44  66  88 129 176 226 261 322 383
#     4  12  23  40  63 104 135 161 220 271 335 384
#     4  11  23  38  64  92 129 178 210 261 322 388
#     4  11  23  39  69 102 134 168 207 282 330 385
#
# _framework density 21.661429999999999
#
# number of rings (size 3 to 8) (size 9 to 14) (size 15 to 20)
#    0.000    1.250    2.500    3.750    1.750    2.500 
#    2.250    2.500    0.000    0.000    0.000    0.000 
#    0.000    0.000    0.000    0.000    0.000    0.000 
#
# Total GULP energy -89375.917896 kJ/mol
# GULP energy per Si atom -5585.994868 kJ/mol
# Density = 2.161213 g / cm^3
# Si number density = 21.661430 Si / 1000 Ang^3
#
#
#
# Elastic Constant Matrix: (Units=GPa)
#
#
# Indices 1 2 3 4 5 6 
#
# 1 101.3171 18.4211 1.0394 13.5969 7.6170 10.7487
# 2 18.4211 87.4387 -8.8697 -2.6562 -6.5338 14.4711
# 3 1.0394 -8.8697 47.2619 10.3554 -8.7982 -5.2217
# 4 13.5969 -2.6562 10.3554 4.4104 7.8922 0.2959
# 5 7.6170 -6.5338 -8.7982 7.8922 14.6222 8.4692
# 6 10.7487 14.4711 -5.2217 0.2959 8.4692 37.1872
#
#
#
# Elastic Compliance Matrix: (Units=1/GPa)
#
#
# Indices 1 2 3 4 5 6 
#
# 1 0.010509 -0.004042 -0.006050 0.009484 -0.016882 0.001455
# 2 -0.004042 0.013912 0.000092 0.012995 0.004464 -0.005352
# 3 -0.006050 0.000092 0.005582 0.053095 -0.026849 0.008189
# 4 0.009484 0.012995 0.053095 -0.140274 0.124500 -0.027581
# 5 -0.016882 0.004464 -0.026849 0.124500 -0.003730 -0.000769
# 6 0.001455 -0.005352 0.008189 -0.027581 -0.000769 0.030098
#
#
# Mechanical properties :
#
#
# Convention : Reuss Voigt Hill
#
# Bulk Modulus (GPa) = 99.96117 28.57770 64.26944
# Shear Modulus (GPa) = -82.54942 26.27242 -28.13850
#
# Velocity S-wave (km/s) = -6.17994 3.48640 -3.60809
# Velocity P-wave (km/s) = 2.16217 5.42478 3.51804
#
# Compressibility (1/GPa) = 0.01000388
#
# Stress axis : x y z
#
# Youngs Moduli (GPa) = 95.15610 71.88266 179.14215
#
# Poissons Ratio (x) = 0.29054 1.08374
# Poissons Ratio (y) = 0.38461 -0.01650
# Poissons Ratio (z) = 0.57566 -0.00662
#
# Static dielectric constant tensor:
#      x y z
#    x 1.800360 0.007830 0.000710 
#    y 0.007830 1.806530 -0.032010 
#    z 0.000710 -0.032010 1.845410 
# 
# From -- ./inp_files/425107.got.cif
#   From: 2010.05.17/outbox.ucp.g08.bks.cvg/sg2_213_cif.got.tgz:425107.got - 2010.06.11 11:32:03.
