data_PCOD9073140
_publ_section_title
;
Structure prediction by ZEFSAII (Michael W. Deem and Ramdas Pophale) SiO2 
 PCOD9073140
Probable space group: P -1
;
_chemical_formula_sum "Si O2"
_cell_formula_units_Z 15
_cell_length_a 21.000000
_cell_length_b 9.000000
_cell_length_c 18.000000
_cell_angle_alpha 140.000000
_cell_angle_beta 160.000000
_cell_angle_gamma 50.000000
_cell_volume 700.468056
_symmetry_space_group_name_H-M "P -1"
_symmetry_group_IT_number 2
_symmetry_cell_setting 'triclinic'
loop_
_space_group_symop_operation_xyz
x,y,z
-x,-y,-z
loop_
_atom_site_type_symbol
_atom_site_label
_atom_site_fract_x
_atom_site_fract_y
_atom_site_fract_z
Si Si1 0.401657 0.344010 0.007392
Si Si2 0.192066 0.672473 0.820996
Si Si3 0.000981 0.805286 0.989680
Si Si4 0.575542 0.437483 0.389945
Si Si5 0.851287 0.635022 0.051771
Si Si6 0.537370 0.879082 0.157969
Si Si7 0.949307 0.995323 0.721305
Si Si8 0.000000 0.000000 0.500000
O O1 0.282865 0.515337 0.912692
O O2 0.510027 0.268008 0.028029
O O3 0.229717 0.106519 0.761654
O O4 0.540440 0.468085 0.275604
O O5 0.000000 0.500000 0.500000
O O6 0.103098 0.848881 0.836774
O O7 0.358735 0.802109 0.991664
O O8 0.778382 0.649967 0.713442
O O9 0.091029 0.608954 0.979584
O O10 0.101774 0.929275 0.224562
O O11 0.000000 0.000000 0.000000
O O12 0.592923 0.169334 0.315876
O O13 0.386416 0.439281 0.230428
O O14 0.945111 0.784873 0.137139
O O15 0.933006 0.813471 0.280870
O O16 0.735251 0.839816 0.391020
#
# Coordination Sequence:
#
# PCOD9073140 Si02
#       8
#     2   2   2   2   2   2   2   1
#     4  11  24  42  71 109 149 186 235 300 364 436
#     4  12  26  44  71 108 148 187 241 305 366 421
#     4  12  30  48  72 104 148 196 243 301 362 433
#     4  11  26  45  72 102 143 191 239 297 361 431
#     4  11  23  48  73 107 140 189 245 295 358 438
#     4  12  24  46  72 110 140 192 246 295 367 434
#     4  12  26  48  73 104 144 195 247 296 362 436
#     4  10  20  42  76 102 148 180 226 294 366 426
#
# _framework density 21.414252999999999
#
# number of rings (size 3 to 8) (size 9 to 14) (size 15 to 20)
#    0.000    0.533    5.333    1.200    7.467    3.200 
#    0.000    0.000    0.000    0.000    0.000    0.000 
#    0.000    0.000    0.000    0.000    0.000    0.000 
#
# Total GULP energy -83683.915329 kJ/mol
# GULP energy per Si atom -5578.927689 kJ/mol
# Density = 2.136551 g / cm^3
# Si number density = 21.414253 Si / 1000 Ang^3
#
#
#
# Elastic Constant Matrix: (Units=GPa)
#
#
# Indices 1 2 3 4 5 6 
#
# 1 101.3267 7.7413 8.7413 -8.5685 -2.2521 -14.1983
# 2 7.7413 84.1880 12.4222 -8.3161 0.9759 -17.5607
# 3 8.7413 12.4222 28.8919 -4.6558 6.7893 4.1471
# 4 -8.5685 -8.3161 -4.6558 17.0060 -3.7173 1.5993
# 5 -2.2521 0.9759 6.7893 -3.7173 31.9357 -7.3756
# 6 -14.1983 -17.5607 4.1471 1.5993 -7.3756 29.3874
#
#
#
# Elastic Compliance Matrix: (Units=1/GPa)
#
#
# Indices 1 2 3 4 5 6 
#
# 1 0.012051 0.002131 -0.006037 0.005673 0.004769 0.008836
# 2 0.002131 0.016498 -0.009936 0.006387 0.005584 0.013344
# 3 -0.006037 -0.009936 0.047440 0.003794 -0.014229 -0.019327
# 4 0.005673 0.006387 0.003794 0.067208 0.008245 0.004433
# 5 0.004769 0.005584 -0.014229 0.008245 0.039411 0.017091
# 6 0.008836 0.013344 -0.019327 0.004433 0.017091 0.053046
#
#
# Mechanical properties :
#
#
# Convention : Reuss Voigt Hill
#
# Bulk Modulus (GPa) = 20.70247 30.24623 25.47435
# Shear Modulus (GPa) = 17.89295 28.03262 22.96278
#
# Velocity S-wave (km/s) = 2.89375 3.62202 3.27817
# Velocity P-wave (km/s) = 4.56658 5.62557 5.12351
#
# Compressibility (1/GPa) = 0.04830341
#
# Stress axis : x y z
#
# Youngs Moduli (GPa) = 82.98178 60.61357 21.07939
#
# Poissons Ratio (x) = -0.12915 0.12725
# Poissons Ratio (y) = -0.17681 0.20945
# Poissons Ratio (z) = 0.50095 0.60228
#
# Static dielectric constant tensor:
#      x y z
#    x 1.724480 0.027290 -0.002350 
#    y 0.027290 1.805450 -0.002480 
#    z -0.002350 -0.002480 1.765730 
# 
# From -- ./inp_files/277307.got.cif
#   From: 2010.05.17/outbox.ucp.g08.bks.cvg/sg2_139_cif.got.tgz:277307.got - 2010.06.11 11:32:03.
