data_PCOD9073277
_publ_section_title
;
Structure prediction by ZEFSAII (Michael W. Deem and Ramdas Pophale) SiO2 
 PCOD9073277
Probable space group: P -1
;
_chemical_formula_sum "Si O2"
_cell_formula_units_Z 16
_cell_length_a 15.000000
_cell_length_b 9.000000
_cell_length_c 30.000000
_cell_angle_alpha 140.000000
_cell_angle_beta 160.000000
_cell_angle_gamma 50.000000
_cell_volume 833.890543
_symmetry_space_group_name_H-M "P -1"
_symmetry_group_IT_number 2
_symmetry_cell_setting 'triclinic'
loop_
_space_group_symop_operation_xyz
x,y,z
-x,-y,-z
loop_
_atom_site_type_symbol
_atom_site_label
_atom_site_fract_x
_atom_site_fract_y
_atom_site_fract_z
Si Si1 0.457985 0.559442 0.378793
Si Si2 0.087446 0.915678 0.289245
Si Si3 0.953260 0.783439 0.829305
Si Si4 0.964354 0.009266 0.430315
Si Si5 0.015128 0.776860 0.122423
Si Si6 0.826612 0.646654 0.195449
Si Si7 0.542618 0.402214 0.757673
Si Si8 0.554681 0.815380 0.793265
O O1 0.273946 0.737616 0.335104
O O2 0.405489 0.362518 0.268398
O O3 0.345909 0.371240 0.324553
O O4 0.757649 0.784346 0.569505
O O5 0.960365 0.842464 0.162608
O O6 0.928853 0.835196 0.243944
O O7 0.044483 0.569906 0.800561
O O8 0.952407 0.988184 0.839850
O O9 0.176383 0.946620 0.009598
O O10 0.701662 0.099325 0.320495
O O11 0.261084 0.201949 0.597401
O O12 0.897134 0.783743 0.309004
O O13 0.000000 0.000000 0.500000
O O14 0.295188 0.714160 0.228386
O O15 0.764767 0.535231 0.931464
O O16 0.500000 0.500000 0.000000
O O17 0.479746 0.627185 0.756399
#
# Coordination Sequence:
#
# PCOD9073277 Si02
#       8
#     2   2   2   2   2   2   2   2
#     4  10  21  37  64  97 128 173 220 271 323 396
#     4  10  22  40  68  95 129 177 219 266 335 388
#     4  10  23  39  68  98 133 169 220 274 333 381
#     4  12  28  42  68  98 133 176 224 273 327 394
#     4  10  22  41  67 100 128 170 220 280 327 381
#     4  11  24  47  67  93 138 177 217 269 335 403
#     4  10  23  42  65  95 138 167 222 273 327 394
#     4  11  21  43  64  96 131 181 216 264 335 394
#
# _framework density 19.187169999999998
#
# number of rings (size 3 to 8) (size 9 to 14) (size 15 to 20)
#    0.000    1.500    2.500    1.500    7.000    1.500 
#    0.000    0.625    0.000    0.000    0.000    0.000 
#    0.000    0.000    0.000    0.000    0.000    0.000 
#
# Total GULP energy -89081.175199 kJ/mol
# GULP energy per Si atom -5567.573450 kJ/mol
# Density = 1.914350 g / cm^3
# Si number density = 19.187170 Si / 1000 Ang^3
#
#
#
# Elastic Constant Matrix: (Units=GPa)
#
#
# Indices 1 2 3 4 5 6 
#
# 1 128.5988 32.1626 51.8513 13.8005 -16.8079 -1.9961
# 2 32.1626 90.2825 34.3393 12.3624 -3.3404 -0.7243
# 3 51.8513 34.3393 104.7264 26.0741 1.0622 8.4035
# 4 13.8005 12.3624 26.0741 39.2632 -2.9616 -8.1868
# 5 -16.8079 -3.3404 1.0622 -2.9616 39.0482 7.0615
# 6 -1.9961 -0.7243 8.4035 -8.1868 7.0615 30.1656
#
#
#
# Elastic Compliance Matrix: (Units=1/GPa)
#
#
# Indices 1 2 3 4 5 6 
#
# 1 0.010807 -0.001846 -0.005077 0.000751 0.004464 0.001244
# 2 -0.001846 0.013108 -0.003131 -0.001242 0.000194 0.000682
# 3 -0.005077 -0.003131 0.016030 -0.009492 -0.002362 -0.006900
# 4 0.000751 -0.001242 -0.009492 0.034429 0.000955 0.011784
# 5 0.004464 0.000194 -0.002362 0.000955 0.028678 -0.005496
# 6 0.001244 0.000682 -0.006900 0.011784 -0.005496 0.039656
#
#
# Mechanical properties :
#
#
# Convention : Reuss Voigt Hill
#
# Bulk Modulus (GPa) = 50.41633 62.25711 56.33672
# Shear Modulus (GPa) = 29.51070 35.37905 32.44487
#
# Velocity S-wave (km/s) = 3.92604 4.29871 4.11660
# Velocity P-wave (km/s) = 6.84725 7.56018 7.21253
#
# Compressibility (1/GPa) = 0.01983484
#
# Stress axis : x y z
#
# Youngs Moduli (GPa) = 92.52975 76.29018 62.38268
#
# Poissons Ratio (x) = 0.14087 0.31674
# Poissons Ratio (y) = 0.17086 0.19534
# Poissons Ratio (z) = 0.46981 0.23889
#
# Static dielectric constant tensor:
#      x y z
#    x 1.702430 0.014560 -0.004480 
#    y 0.014560 1.677000 -0.027780 
#    z -0.004480 -0.027780 1.699430 
# 
# From -- ./inp_files/320174.got.cif
#   From: 2010.05.17/outbox.ucp.g08.bks.cvg/sg2_161_cif.got.tgz:320174.got - 2010.06.11 11:32:03.
