data_PCOD9073229
_publ_section_title
;
Structure prediction by ZEFSAII (Michael W. Deem and Ramdas Pophale) SiO2 
 PCOD9073229
Probable space group: P -1
;
_chemical_formula_sum "Si O2"
_cell_formula_units_Z 16
_cell_length_a 12.000000
_cell_length_b 15.000000
_cell_length_c 9.000000
_cell_angle_alpha 140.000000
_cell_angle_beta 130.000000
_cell_angle_gamma 70.000000
_cell_volume 759.581896
_symmetry_space_group_name_H-M "P -1"
_symmetry_group_IT_number 2
_symmetry_cell_setting 'triclinic'
loop_
_space_group_symop_operation_xyz
x,y,z
-x,-y,-z
loop_
_atom_site_type_symbol
_atom_site_label
_atom_site_fract_x
_atom_site_fract_y
_atom_site_fract_z
Si Si1 0.128362 0.301004 0.742903
Si Si2 0.123288 0.597247 0.962946
Si Si3 0.375303 0.784360 0.245250
Si Si4 0.776522 0.553925 0.681246
Si Si5 0.394921 0.365156 0.637307
Si Si6 0.220413 0.741295 0.536835
Si Si7 0.410976 0.929110 0.164628
Si Si8 0.822997 0.896847 0.709569
O O1 0.188186 0.182281 0.560575
O O2 0.944333 0.248548 0.538075
O O3 0.152148 0.446671 0.847042
O O4 0.201137 0.343049 0.021919
O O5 0.209515 0.672280 0.985946
O O6 0.198884 0.708089 0.302805
O O7 0.944392 0.580693 0.786096
O O8 0.486475 0.727821 0.374704
O O9 0.409482 0.802168 0.120393
O O10 0.422793 0.953664 0.546471
O O11 0.657466 0.577338 0.487574
O O12 0.747393 0.396271 0.530599
O O13 0.241415 0.247306 0.423322
O O14 0.500000 0.500000 0.000000
O O15 0.352068 0.875665 0.883726
O O16 0.287718 0.005800 0.222753
O O17 0.000000 0.000000 0.000000
#
# Coordination Sequence:
#
# PCOD9073229 Si02
#       8
#     2   2   2   2   2   2   2   2
#     4   9  18  37  59  90 117 147 194 247 291 339
#     4   9  19  36  62  88 111 149 197 241 286 351
#     4  10  22  38  54  81 121 153 193 237 291 350
#     4   9  20  37  64  88 115 150 195 246 291 341
#     4  11  23  40  59  89 122 154 197 249 294 344
#     4   9  17  35  59  86 116 147 191 242 293 342
#     4  10  21  37  56  80 119 159 189 238 296 347
#     4  11  22  37  61  87 118 156 198 241 289 352
#
# _framework density 21.064219999999999
#
# number of rings (size 3 to 8) (size 9 to 14) (size 15 to 20)
#    0.000    2.250    1.250    3.000    1.750    0.500 
#    0.000   15.625    0.000    0.000    0.000    0.000 
#    0.000    0.000    0.000    0.000    0.000    0.000 
#
# Total GULP energy -89133.597536 kJ/mol
# GULP energy per Si atom -5570.849846 kJ/mol
# Density = 2.101628 g / cm^3
# Si number density = 21.064220 Si / 1000 Ang^3
#
#
#
# Elastic Constant Matrix: (Units=GPa)
#
#
# Indices 1 2 3 4 5 6 
#
# 1 36.9422 5.1047 -2.8689 16.2274 4.0046 -1.1040
# 2 5.1047 91.9707 6.8165 -17.9877 -5.6141 -1.8529
# 3 -2.8689 6.8165 93.3902 -6.5706 -4.1510 -1.0710
# 4 16.2274 -17.9877 -6.5706 27.2088 11.0354 5.6398
# 5 4.0046 -5.6141 -4.1510 11.0354 26.8148 12.1733
# 6 -1.1040 -1.8529 -1.0710 5.6398 12.1733 25.8256
#
#
#
# Elastic Compliance Matrix: (Units=1/GPa)
#
#
# Indices 1 2 3 4 5 6 
#
# 1 0.043238 -0.008767 -0.000246 -0.034137 0.002271 0.007594
# 2 -0.008767 0.014306 -0.000296 0.015531 -0.001124 -0.002222
# 3 -0.000246 -0.000296 0.010921 0.002310 0.000957 -0.000535
# 4 -0.034137 0.015531 0.002310 0.077531 -0.019593 -0.007945
# 5 0.002271 -0.001124 0.000957 -0.019593 0.054658 -0.021429
# 6 0.007594 -0.002222 -0.000535 -0.007945 -0.021429 0.050700
#
#
# Mechanical properties :
#
#
# Convention : Reuss Voigt Hill
#
# Bulk Modulus (GPa) = 20.06127 26.71197 23.38662
# Shear Modulus (GPa) = 17.44675 30.18655 23.81665
#
# Velocity S-wave (km/s) = 2.88108 3.78970 3.36619
# Velocity P-wave (km/s) = 4.54005 5.64428 5.12201
#
# Compressibility (1/GPa) = 0.04984730
#
# Stress axis : x y z
#
# Youngs Moduli (GPa) = 23.12802 69.90200 91.56832
#
# Poissons Ratio (x) = 0.61280 0.02249
# Poissons Ratio (y) = 0.20275 0.02713
# Poissons Ratio (z) = 0.00568 0.02071
#
# Static dielectric constant tensor:
#      x y z
#    x 1.812990 0.005530 -0.016500 
#    y 0.005530 1.762990 0.045390 
#    z -0.016500 0.045390 1.817140 
# 
# From -- ./inp_files/274785.got.cif
#   From: 2010.05.17/outbox.ucp.g08.bks.cvg/sg2_138_cif.got.tgz:274785.got - 2010.06.11 11:32:03.
