data_PCOD9073096
_publ_section_title
;
Structure prediction by ZEFSAII (Michael W. Deem and Ramdas Pophale) SiO2 
 PCOD9073096
Probable space group: P -1
;
_chemical_formula_sum "Si O2"
_cell_formula_units_Z 16
_cell_length_a 9.000000
_cell_length_b 27.000000
_cell_length_c 27.000000
_cell_angle_alpha 10.000000
_cell_angle_beta 40.000000
_cell_angle_gamma 40.000000
_cell_volume 728.340053
_symmetry_space_group_name_H-M "P -1"
_symmetry_group_IT_number 2
_symmetry_cell_setting 'triclinic'
loop_
_space_group_symop_operation_xyz
x,y,z
-x,-y,-z
loop_
_atom_site_type_symbol
_atom_site_label
_atom_site_fract_x
_atom_site_fract_y
_atom_site_fract_z
Si Si1 0.748376 0.331191 0.588346
Si Si2 0.894854 0.743986 0.976247
Si Si3 0.854333 0.429761 0.814326
Si Si4 0.857138 0.756150 0.756185
Si Si5 0.803508 0.354718 0.663652
Si Si6 0.479592 0.908075 0.204371
Si Si7 0.103853 0.809586 0.542283
Si Si8 0.522132 0.989009 0.328761
O O1 0.500000 0.500000 0.500000
O O2 0.862277 0.296304 0.648143
O O3 0.928750 0.481989 0.359894
O O4 0.666515 0.075527 0.826346
O O5 0.681951 0.948404 0.853075
O O6 0.997747 0.941011 0.714456
O O7 0.824236 0.469335 0.234891
O O8 0.056267 0.649158 0.075359
O O9 0.658678 0.698751 0.599585
O O10 0.723796 0.174228 0.075586
O O11 0.604098 0.830421 0.771247
O O12 0.910077 0.738056 0.702284
O O13 0.000000 0.000000 0.500000
O O14 0.000000 0.500000 0.000000
O O15 0.000000 0.500000 0.500000
O O16 0.567910 0.573696 0.515489
O O17 0.715596 0.059115 0.994590
O O18 0.324773 0.915503 0.411928
#
# Coordination Sequence:
#
# PCOD9073096 Si02
#       8
#     2   2   2   2   2   2   2   2
#     4  10  23  44  67  89 123 179 222 253 322 410
#     4  12  24  42  63  96 133 173 220 268 325 394
#     4  12  25  42  65  98 138 171 216 280 334 386
#     4  10  20  41  68  96 131 175 220 263 323 405
#     4  11  24  41  65  97 126 158 216 284 330 374
#     4  11  23  43  64  86 128 177 212 258 327 406
#     4  11  23  42  70  97 129 177 225 265 322 399
#     4  11  24  43  67  99 131 170 220 277 332 386
#
# _framework density 21.967760999999999
#
# number of rings (size 3 to 8) (size 9 to 14) (size 15 to 20)
#    0.000    1.000    0.000    9.000    0.000    6.000 
#    0.000    5.000    0.000    0.000    0.000    0.000 
#    0.000    0.000    0.000    0.000    0.000    0.000 
#
# Total GULP energy -89325.258464 kJ/mol
# GULP energy per Si atom -5582.828654 kJ/mol
# Density = 2.191776 g / cm^3
# Si number density = 21.967761 Si / 1000 Ang^3
#
#
#
# Elastic Constant Matrix: (Units=GPa)
#
#
# Indices 1 2 3 4 5 6 
#
# 1 56.2431 27.2469 4.3352 -1.9939 -6.8334 9.8250
# 2 27.2469 89.9848 27.6107 -4.2115 1.7807 15.8913
# 3 4.3352 27.6107 109.7660 -8.0692 5.9684 3.3814
# 4 -1.9939 -4.2115 -8.0692 38.2532 -1.0643 -3.7035
# 5 -6.8334 1.7807 5.9684 -1.0643 53.8537 -2.6053
# 6 9.8250 15.8913 3.3814 -3.7035 -2.6053 37.3162
#
#
#
# Elastic Compliance Matrix: (Units=1/GPa)
#
#
# Indices 1 2 3 4 5 6 
#
# 1 0.021619 -0.006294 0.000696 0.000382 0.002744 -0.002846
# 2 -0.006294 0.014835 -0.003273 0.000154 -0.001137 -0.004428
# 3 0.000696 -0.003273 0.010074 0.001817 -0.000864 0.000418
# 4 0.000382 0.000154 0.001817 0.026804 0.000486 0.002363
# 5 0.002744 -0.001137 -0.000864 0.000486 0.019119 0.001223
# 6 -0.002846 -0.004428 0.000418 0.002363 0.001223 0.029715
#
#
# Mechanical properties :
#
#
# Convention : Reuss Voigt Hill
#
# Bulk Modulus (GPa) = 34.73977 41.59772 38.16875
# Shear Modulus (GPa) = 33.44396 39.00469 36.22433
#
# Velocity S-wave (km/s) = 3.90604 4.21829 4.06516
# Velocity P-wave (km/s) = 6.01591 6.53469 6.28066
#
# Compressibility (1/GPa) = 0.02878546
#
# Stress axis : x y z
#
# Youngs Moduli (GPa) = 46.25501 67.40920 99.26652
#
# Poissons Ratio (x) = 0.42425 -0.06907
# Poissons Ratio (y) = 0.29111 0.32494
# Poissons Ratio (z) = -0.03218 0.22066
#
# Static dielectric constant tensor:
#      x y z
#    x 1.789380 0.011270 0.039770 
#    y 0.011270 1.773890 -0.033250 
#    z 0.039770 -0.033250 1.835410 
# 
# From -- ./inp_files/617667.got.cif
#   From: 2010.05.17/outbox.ucp.g08.bks.cvg/sg2_309_cif.got.tgz:617667.got - 2010.06.11 11:32:03.
