data_PCOD9073500
_publ_section_title
;
Structure prediction by ZEFSAII (Michael W. Deem and Ramdas Pophale) SiO2 
 PCOD9073500
Probable space group: P -1
;
_chemical_formula_sum "Si O2"
_cell_formula_units_Z 16
_cell_length_a 15.000000
_cell_length_b 9.000000
_cell_length_c 12.000000
_cell_angle_alpha 100.000000
_cell_angle_beta 120.000000
_cell_angle_gamma 40.000000
_cell_volume 835.587839
_symmetry_space_group_name_H-M "P -1"
_symmetry_group_IT_number 2
_symmetry_cell_setting 'triclinic'
loop_
_space_group_symop_operation_xyz
x,y,z
-x,-y,-z
loop_
_atom_site_type_symbol
_atom_site_label
_atom_site_fract_x
_atom_site_fract_y
_atom_site_fract_z
Si Si1 0.358838 0.317626 0.526571
Si Si2 0.779107 0.842145 0.222748
Si Si3 0.572028 0.612609 0.889370
Si Si4 0.548055 0.283268 0.810381
Si Si5 0.419317 0.194914 0.292870
Si Si6 0.748918 0.525652 0.199490
Si Si7 0.827720 0.744962 0.984931
Si Si8 0.016957 0.799468 0.500023
O O1 0.491732 0.287660 0.653420
O O2 0.344088 0.326622 0.384548
O O3 0.178161 0.566821 0.496274
O O4 0.422025 0.089140 0.597196
O O5 0.739963 0.718297 0.225175
O O6 0.874985 0.846868 0.368362
O O7 0.596662 0.128003 0.123256
O O8 0.859018 0.720781 0.134146
O O9 0.555272 0.453155 0.850906
O O10 0.559595 0.691692 0.765131
O O11 0.722656 0.497251 0.051560
O O12 0.402856 0.378758 0.812699
O O13 0.734962 0.005912 0.922791
O O14 0.308208 0.216213 0.145398
O O15 0.924394 0.287852 0.345401
O O16 0.000000 0.500000 0.000000
O O17 0.000000 0.000000 0.500000
#
# Coordination Sequence:
#
# PCOD9073500 Si02
#       8
#     2   2   2   2   2   2   2   2
#     4   9  20  42  63  86 125 163 201 255 301 368
#     4  12  22  38  65  92 120 160 208 255 303 364
#     4  12  22  38  67  95 120 159 207 263 305 359
#     4  10  22  38  62  91 122 160 206 252 312 358
#     4  10  21  40  64  89 118 161 214 249 298 370
#     4  11  22  40  61  91 125 159 208 254 301 367
#     4  11  22  38  59  87 120 163 204 245 305 369
#     4  11  24  39  60  93 128 162 200 251 317 363
#
# _framework density 19.148195999999999
#
# number of rings (size 3 to 8) (size 9 to 14) (size 15 to 20)
#    0.000    1.250    2.500    5.625    1.750    0.500 
#    0.000    1.875    0.000    0.000    0.000    0.000 
#    0.000    0.000    0.000    0.000    0.000    0.000 
#
# Total GULP energy -89101.665939 kJ/mol
# GULP energy per Si atom -5568.854121 kJ/mol
# Density = 1.910461 g / cm^3
# Si number density = 19.148196 Si / 1000 Ang^3
#
#
#
# Elastic Constant Matrix: (Units=GPa)
#
#
# Indices 1 2 3 4 5 6 
#
# 1 90.7575 41.6638 40.3770 2.2291 -6.7394 33.9993
# 2 41.6638 11.2627 0.2089 -13.6977 -19.2729 39.8550
# 3 40.3770 0.2089 141.4194 13.2144 -10.8512 19.4194
# 4 2.2291 -13.6977 13.2144 27.5827 -8.9113 5.3966
# 5 -6.7394 -19.2729 -10.8512 -8.9113 28.6455 16.4190
# 6 33.9993 39.8550 19.4194 5.3966 16.4190 39.9523
#
#
#
# Elastic Compliance Matrix: (Units=1/GPa)
#
#
# Indices 1 2 3 4 5 6 
#
# 1 0.021625 -0.005770 -0.003639 0.003199 0.009555 -0.015237
# 2 -0.005770 -0.004282 -0.001445 -0.010955 -0.019240 0.019272
# 3 -0.003639 -0.001445 0.008250 -0.005146 -0.001316 0.001765
# 4 0.003199 -0.010955 -0.005146 0.030143 -0.003916 0.008245
# 5 0.009555 -0.019240 -0.001316 -0.003916 0.020258 0.003905
# 6 -0.015237 0.019272 0.001765 0.008245 0.003905 0.015195
#
#
# Mechanical properties :
#
#
# Convention : Reuss Voigt Hill
#
# Bulk Modulus (GPa) = 257.50211 45.32656 151.41433
# Shear Modulus (GPa) = 43.78550 29.98210 36.88380
#
# Velocity S-wave (km/s) = 4.78710 3.96130 4.39364
# Velocity P-wave (km/s) = 12.85790 6.68172 10.24624
#
# Compressibility (1/GPa) = 0.00388346
#
# Stress axis : x y z
#
# Youngs Moduli (GPa) = 46.24192 -233.51077 121.21283
#
# Poissons Ratio (x) = -1.34743 0.44111
# Poissons Ratio (y) = 0.26683 0.17518
# Poissons Ratio (z) = 0.16828 -0.33748
#
# Static dielectric constant tensor:
#      x y z
#    x 1.721210 0.021910 -0.008300 
#    y 0.021910 1.710150 0.002410 
#    z -0.008300 0.002410 1.713070 
# 
# From -- ./inp_files/223803.got.cif
#   From: 2010.05.17/outbox.ucp.g08.bks.cvg/sg2_112_cif.got.tgz:223803.got - 2010.06.11 11:32:03.
