data_PCOD9073248
_publ_section_title
;
Structure prediction by ZEFSAII (Michael W. Deem and Ramdas Pophale) SiO2 
 PCOD9073248
Probable space group: P -1
;
_chemical_formula_sum "Si O2"
_cell_formula_units_Z 12
_cell_length_a 12.009980
_cell_length_b 5.356252
_cell_length_c 13.621360
_cell_angle_alpha 82.189420
_cell_angle_beta 137.311052
_cell_angle_gamma 110.758184
_cell_volume 544.703050
_symmetry_space_group_name_H-M "P -1"
_symmetry_group_IT_number 2
_symmetry_cell_setting 'triclinic'
loop_
_space_group_symop_operation_xyz
x,y,z
-x,-y,-z
loop_
_atom_site_type_symbol
_atom_site_label
_atom_site_fract_x
_atom_site_fract_y
_atom_site_fract_z
Si Si1 0.605835 0.821050 0.039684
Si Si2 0.823486 0.706643 0.793730
Si Si3 0.792079 0.882456 0.348524
Si Si4 0.870056 0.262210 0.713530
Si Si5 0.187801 0.167626 0.010376
Si Si6 0.812912 0.365776 0.445172
O O1 0.769726 0.897003 0.217407
O O2 0.672498 0.869881 0.970098
O O3 0.500000 0.500000 0.000000
O O4 0.500000 0.000000 0.000000
O O5 0.779680 0.937183 0.692717
O O6 0.035365 0.866763 0.945589
O O7 0.799948 0.441319 0.730233
O O8 0.740609 0.683155 0.849085
O O9 0.717358 0.574731 0.354085
O O10 0.715632 0.075452 0.346734
O O11 0.000000 0.000000 0.500000
O O12 0.850425 0.333869 0.584778
O O13 0.075340 0.319920 0.872343
O O14 0.000000 0.500000 0.500000
#
# Coordination Sequence:
#
# PCOD9073248 Si02
#       6
#     2   2   2   2   2   2
#     4  12  27  40  60  91 130 166 190 240 314 372
#     4   9  20  31  57  84 116 155 194 262 295 331
#     4  10  21  38  57  84 115 158 203 241 289 347
#     4  10  18  31  53  89 117 139 196 256 308 323
#     4   9  21  35  56  80 126 150 207 236 308 348
#     4  10  19  29  53  82 113 146 184 246 298 336
#
# _framework density 22.030353999999999
#
# number of rings (size 3 to 8) (size 9 to 14) (size 15 to 20)
#    1.000    1.000    0.000    4.500    7.000    0.000 
#    0.000    0.000    0.000    0.000    0.000   23.333 
#    0.000    0.000    0.000    0.000    0.000    0.000 
#
# Total GULP energy -66946.334068 kJ/mol
# GULP energy per Si atom -5578.861172 kJ/mol
# Density = 2.198021 g / cm^3
# Si number density = 22.030354 Si / 1000 Ang^3
#
#
#
# Elastic Constant Matrix: (Units=GPa)
#
#
# Indices 1 2 3 4 5 6 
#
# 1 107.4758 41.2671 41.8569 0.4754 -39.3356 -25.4851
# 2 41.2671 162.4553 15.6594 1.8851 -16.9623 -45.4304
# 3 41.8569 15.6594 84.0185 -2.4981 -31.0162 -10.1076
# 4 0.4754 1.8851 -2.4981 27.1980 1.3667 -8.8577
# 5 -39.3356 -16.9623 -31.0162 1.3667 39.2964 10.7319
# 6 -25.4851 -45.4304 -10.1076 -8.8577 10.7319 25.3298
#
#
#
# Elastic Compliance Matrix: (Units=1/GPa)
#
#
# Indices 1 2 3 4 5 6 
#
# 1 0.017912 0.001207 -0.002788 0.003738 0.011936 0.015325
# 2 0.001207 0.013980 0.000281 0.008830 -0.001013 0.029917
# 3 -0.002788 0.000281 0.017333 0.001222 0.010847 0.000447
# 4 0.003738 0.008830 0.001222 0.049044 -0.003796 0.038845
# 5 0.011936 -0.001013 0.010847 -0.003796 0.047550 -0.006954
# 6 0.015325 0.029917 0.000447 0.038845 -0.006954 0.125265
#
#
# Mechanical properties :
#
#
# Convention : Reuss Voigt Hill
#
# Bulk Modulus (GPa) = 21.44760 61.27961 41.36360
# Shear Modulus (GPa) = 17.28749 35.37594 26.33171
#
# Velocity S-wave (km/s) = 2.80431 4.01157 3.46098
# Velocity P-wave (km/s) = 4.49913 7.02377 5.89811
#
# Compressibility (1/GPa) = 0.04662526
#
# Stress axis : x y z
#
# Youngs Moduli (GPa) = 55.82696 71.53093 57.69381
#
# Poissons Ratio (x) = -0.08634 0.16084
# Poissons Ratio (y) = -0.06739 -0.01619
# Poissons Ratio (z) = 0.15563 -0.02007
#
# Static dielectric constant tensor:
#      x y z
#    x 1.772530 -0.030680 0.005820 
#    y -0.030680 1.901220 0.004020 
#    z 0.005820 0.004020 1.814770 
# 
# From -- ./inp_files/408670.got.cif
#   From: 2010.05.17/outbox.cif.g08.bks.cpg/sg2_205_cif.got.tgz:408670.got - 2010.06.03 11:33:40.
