data_PCOD9073242
_publ_section_title
;
Structure prediction by ZEFSAII (Michael W. Deem and Ramdas Pophale) SiO2 
 PCOD9073242
Probable space group: P -1
;
_chemical_formula_sum "Si O2"
_cell_formula_units_Z 16
_cell_length_a 7.036593
_cell_length_b 16.116251
_cell_length_c 8.818169
_cell_angle_alpha 58.635428
_cell_angle_beta 102.668079
_cell_angle_gamma 131.078827
_cell_volume 631.857551
_symmetry_space_group_name_H-M "P -1"
_symmetry_group_IT_number 2
_symmetry_cell_setting 'triclinic'
loop_
_space_group_symop_operation_xyz
x,y,z
-x,-y,-z
loop_
_atom_site_type_symbol
_atom_site_label
_atom_site_fract_x
_atom_site_fract_y
_atom_site_fract_z
Si Si1 0.122812 0.754383 0.429469
Si Si2 0.782601 0.053975 0.950906
Si Si3 0.255451 0.519229 0.485092
Si Si4 0.541381 0.122879 0.344102
Si Si5 0.334925 0.510944 0.845918
Si Si6 0.717520 0.794352 0.648631
Si Si7 0.586629 0.799708 0.286596
Si Si8 0.926189 0.228223 0.081605
O O1 0.231761 0.774833 0.596369
O O2 0.335682 0.774804 0.334764
O O3 0.860518 0.609318 0.503121
O O4 0.127242 0.867470 0.265072
O O5 0.950364 0.168104 0.996199
O O6 0.752364 0.929021 0.094729
O O7 0.500000 0.000000 0.000000
O O8 0.369907 0.516542 0.665867
O O9 0.464185 0.663259 0.319418
O O10 0.000000 0.500000 0.500000
O O11 0.300716 0.111767 0.351929
O O12 0.640354 0.155257 0.159757
O O13 0.500000 0.000000 0.500000
O O14 0.440672 0.651921 0.765901
O O15 0.500000 0.500000 0.000000
O O16 0.053522 0.375083 0.946786
O O17 0.730008 0.818246 0.450068
O O18 0.930059 0.789904 0.749517
#
# Coordination Sequence:
#
# PCOD9073242 Si02
#       8
#     2   2   2   2   2   2   2   2
#     4   9  17  32  53  78 114 152 191 236 297 351
#     4  10  18  31  53  87 110 150 202 236 289 363
#     4   9  15  29  52  83 111 151 200 244 295 355
#     4  11  23  38  57  88 123 154 198 253 298 358
#     4   9  18  34  59  92 117 156 205 249 301 365
#     4   9  20  38  57  88 121 151 199 247 298 362
#     4   8  16  28  51  79 112 143 190 243 280 348
#     4  11  21  36  65  86 115 163 196 244 308 352
#
# _framework density 25.322163
#
# number of rings (size 3 to 8) (size 9 to 14) (size 15 to 20)
#    0.000    2.500    1.250    3.000    0.000    2.500 
#    0.000    0.000    0.000   16.500    0.000    0.000 
#    0.000    0.000    0.000    0.000    0.000    0.000 
#
# Total GULP energy -89352.710432 kJ/mol
# GULP energy per Si atom -5584.544402 kJ/mol
# Density = 2.526453 g / cm^3
# Si number density = 25.322163 Si / 1000 Ang^3
#
#
#
# Elastic Constant Matrix: (Units=GPa)
#
#
# Indices 1 2 3 4 5 6 
#
# 1 85.1008 17.0855 41.3249 -13.4950 -6.3608 -6.6139
# 2 17.0855 92.7070 29.5370 -13.7340 9.1368 0.4863
# 3 41.3249 29.5370 115.7894 -13.7773 18.9646 -1.0714
# 4 -13.4950 -13.7340 -13.7773 39.3670 8.9846 9.5641
# 5 -6.3608 9.1368 18.9646 8.9846 37.2953 -2.1195
# 6 -6.6139 0.4863 -1.0714 9.5641 -2.1195 15.2740
#
#
#
# Elastic Compliance Matrix: (Units=1/GPa)
#
#
# Indices 1 2 3 4 5 6 
#
# 1 0.016365 -0.001828 -0.006623 -0.001049 0.007334 0.008355
# 2 -0.001828 0.012858 -0.001243 0.005812 -0.004546 -0.005558
# 3 -0.006623 -0.001243 0.013506 0.005857 -0.009494 -0.006866
# 4 -0.001049 0.005812 0.005857 0.039217 -0.015560 -0.026944
# 5 0.007334 -0.004546 -0.009494 -0.015560 0.038764 0.017777
# 6 0.008355 -0.005558 -0.006866 -0.026944 0.017777 0.088122
#
#
# Mechanical properties :
#
#
# Convention : Reuss Voigt Hill
#
# Bulk Modulus (GPa) = 42.84436 52.16579 47.50507
# Shear Modulus (GPa) = 21.18651 32.09725 26.64188
#
# Velocity S-wave (km/s) = 2.89568 3.56414 3.24715
# Velocity P-wave (km/s) = 5.30437 6.13050 5.73234
#
# Compressibility (1/GPa) = 0.02334030
#
# Stress axis : x y z
#
# Youngs Moduli (GPa) = 61.10562 77.77453 74.04331
#
# Poissons Ratio (x) = 0.14217 0.49040
# Poissons Ratio (y) = 0.11170 0.09203
# Poissons Ratio (z) = 0.40471 0.09667
#
# Static dielectric constant tensor:
#      x y z
#    x 2.009870 0.016300 0.020190 
#    y 0.016300 2.047390 0.022090 
#    z 0.020190 0.022090 1.908840 
# 
# From -- ./inp_files/214494.got.cif
#   From: 2010.05.17/outbox.cif.g08.bks.cpg/sg2_108_cif.got.tgz:214494.got - 2010.06.03 11:33:40.
