data_PCOD9073755
_publ_section_title
;
Structure prediction by ZEFSAII (Michael W. Deem and Ramdas Pophale) SiO2 
 PCOD9073755
Probable space group: P -1
;
_chemical_formula_sum "Si O2"
_cell_formula_units_Z 14
_cell_length_a 9.000000
_cell_length_b 9.000000
_cell_length_c 12.000000
_cell_angle_alpha 60.000000
_cell_angle_beta 120.000000
_cell_angle_gamma 130.000000
_cell_volume 621.029576
_symmetry_space_group_name_H-M "P -1"
_symmetry_group_IT_number 2
_symmetry_cell_setting 'triclinic'
loop_
_space_group_symop_operation_xyz
x,y,z
-x,-y,-z
loop_
_atom_site_type_symbol
_atom_site_label
_atom_site_fract_x
_atom_site_fract_y
_atom_site_fract_z
Si Si1 0.036186 0.225378 0.812635
Si Si2 0.676962 0.778697 0.903506
Si Si3 0.685283 0.542013 0.794890
Si Si4 0.069120 0.477000 0.413998
Si Si5 0.270187 0.292832 0.640778
Si Si6 0.370269 0.800183 0.951982
Si Si7 0.061466 0.850325 0.675137
O O1 0.147125 0.245490 0.729113
O O2 0.941310 0.364306 0.726111
O O3 0.203906 0.290021 0.945574
O O4 0.852294 0.000541 0.847830
O O5 0.607674 0.643368 0.817376
O O6 0.511779 0.784697 0.916620
O O7 0.497338 0.369011 0.722034
O O8 0.847097 0.711530 0.709300
O O9 0.741807 0.406812 0.941573
O O10 0.270570 0.476150 0.510446
O O11 0.000000 0.500000 0.500000
O O12 0.927257 0.258494 0.390347
O O13 0.151876 0.086302 0.606560
O O14 0.209053 0.835626 0.821602
O O15 0.500000 0.000000 0.000000
#
# Coordination Sequence:
#
# PCOD9073755 Si02
#       7
#     2   2   2   2   2   2   2
#     4  10  21  43  69 102 134 180 230 277 338 407
#     4  11  23  40  73 100 140 180 224 278 346 409
#     4  12  25  42  70 101 139 183 224 277 349 403
#     4  10  25  43  73  96 134 184 230 280 338 400
#     4  11  23  47  66  98 141 176 232 280 333 407
#     4  12  25  41  67 107 143 176 221 284 340 410
#     4  12  25  45  70 100 139 180 225 284 345 397
#
# _framework density 22.543209999999998
#
# number of rings (size 3 to 8) (size 9 to 14) (size 15 to 20)
#    0.000    0.857    4.286    2.143    8.000    0.571 
#    0.000    2.143    0.000    0.000    0.000    0.000 
#    0.000    0.000    0.000    0.000    0.000    0.000 
#
# Total GULP energy -78193.086337 kJ/mol
# GULP energy per Si atom -5585.220453 kJ/mol
# Density = 2.249190 g / cm^3
# Si number density = 22.543210 Si / 1000 Ang^3
#
#
#
# Elastic Constant Matrix: (Units=GPa)
#
#
# Indices 1 2 3 4 5 6 
#
# 1 70.1502 45.7147 21.7367 -4.8175 -18.1819 0.0195
# 2 45.7147 119.5277 21.5817 11.6910 -15.2035 -15.9456
# 3 21.7367 21.5817 48.3616 -4.2619 9.0649 -10.8900
# 4 -4.8175 11.6910 -4.2619 38.5421 -10.4984 -3.4917
# 5 -18.1819 -15.2035 9.0649 -10.4984 31.3509 2.5459
# 6 0.0195 -15.9456 -10.8900 -3.4917 2.5459 39.7195
#
#
#
# Elastic Compliance Matrix: (Units=1/GPa)
#
#
# Indices 1 2 3 4 5 6 
#
# 1 0.030853 -0.008254 -0.015304 0.010017 0.022326 -0.008075
# 2 -0.008254 0.012809 -0.001425 -0.004706 -0.000092 0.004348
# 3 -0.015304 -0.001425 0.034158 -0.002553 -0.021104 0.009929
# 4 0.010017 -0.004706 -0.002553 0.032412 0.015178 -0.000717
# 5 0.022326 -0.000092 -0.021104 0.015178 0.056645 -0.008131
# 6 -0.008075 0.004348 0.009929 -0.000717 -0.008131 0.030106
#
#
# Mechanical properties :
#
#
# Convention : Reuss Voigt Hill
#
# Bulk Modulus (GPa) = 35.90012 46.23397 41.06705
# Shear Modulus (GPa) = 19.51345 31.85626 25.68486
#
# Velocity S-wave (km/s) = 2.94530 3.76323 3.37910
# Velocity P-wave (km/s) = 5.24652 6.27981 5.78628
#
# Compressibility (1/GPa) = 0.02785506
#
# Stress axis : x y z
#
# Youngs Moduli (GPa) = 32.41204 78.07086 29.27530
#
# Poissons Ratio (x) = 0.64440 0.44803
# Poissons Ratio (y) = 0.26753 0.04170
# Poissons Ratio (z) = 0.49603 0.11121
#
# Static dielectric constant tensor:
#      x y z
#    x 1.818660 -0.024770 0.017820 
#    y -0.024770 1.828990 0.006220 
#    z 0.017820 0.006220 1.936860 
# 
# From -- ./inp_files/224129.got.cif
#   From: 2010.05.17/outbox.ucp.g08.bks.cvg/sg2_113_cif.got.tgz:224129.got - 2010.06.11 11:32:03.
