data_PCOD9074484
_publ_section_title
;
Structure prediction by ZEFSAII (Michael W. Deem and Ramdas Pophale) SiO2 
 PCOD9074484
Probable space group: P -1
;
_chemical_formula_sum "Si O2"
_cell_formula_units_Z 16
_cell_length_a 18.000000
_cell_length_b 21.000000
_cell_length_c 12.000000
_cell_angle_alpha 40.000000
_cell_angle_beta 30.000000
_cell_angle_gamma 20.000000
_cell_volume 744.844803
_symmetry_space_group_name_H-M "P -1"
_symmetry_group_IT_number 2
_symmetry_cell_setting 'triclinic'
loop_
_space_group_symop_operation_xyz
x,y,z
-x,-y,-z
loop_
_atom_site_type_symbol
_atom_site_label
_atom_site_fract_x
_atom_site_fract_y
_atom_site_fract_z
Si Si1 0.301606 0.455382 0.513007
Si Si2 0.243122 0.805933 0.172526
Si Si3 0.709459 0.393596 0.174728
Si Si4 0.601352 0.866193 0.906579
Si Si5 0.886009 0.979735 0.757823
Si Si6 0.622096 0.065868 0.652162
Si Si7 0.685644 0.613983 0.659122
Si Si8 0.776110 0.780793 0.384664
O O1 0.500972 0.430091 0.337173
O O2 0.429629 0.274775 0.621399
O O3 0.349152 0.423097 0.361894
O O4 0.955961 0.656460 0.725843
O O5 0.482300 0.612269 0.197599
O O6 0.123349 0.969546 0.174088
O O7 0.431431 0.725229 0.926430
O O8 0.953008 0.905313 0.404473
O O9 0.872362 0.244743 0.262402
O O10 0.987547 0.281437 0.897754
O O11 0.535997 0.018048 0.757206
O O12 0.431664 0.941255 0.142440
O O13 0.435311 0.881356 0.026888
O O14 0.000000 0.000000 0.500000
O O15 0.676635 0.739715 0.498649
O O16 0.011021 0.394621 0.566999
O O17 0.500000 0.000000 0.500000
#
# Coordination Sequence:
#
# PCOD9074484 Si02
#       8
#     2   2   2   2   2   2   2   2
#     4  12  25  44  69 103 136 183 226 277 343 404
#     4  11  23  47  65  99 143 173 226 283 335 407
#     4  11  25  43  69  99 138 182 223 281 342 401
#     4  11  26  44  71 100 136 178 231 282 336 403
#     4  12  25  45  70 102 132 181 229 280 340 402
#     4  11  24  47  69  99 138 178 228 283 338 401
#     4  10  26  42  67 101 138 176 226 283 336 405
#     4  10  23  44  65  95 136 179 222 281 335 397
#
# _framework density 21.480985
#
# number of rings (size 3 to 8) (size 9 to 14) (size 15 to 20)
#    0.000    1.000    3.750    1.125    8.750    3.000 
#    0.000    0.000    0.000    0.000    0.000    0.000 
#    0.000    0.000    0.000    0.000    0.000    0.000 
#
# Total GULP energy -89235.329375 kJ/mol
# GULP energy per Si atom -5577.208086 kJ/mol
# Density = 2.143209 g / cm^3
# Si number density = 21.480985 Si / 1000 Ang^3
#
#
#
# Elastic Constant Matrix: (Units=GPa)
#
#
# Indices 1 2 3 4 5 6 
#
# 1 30.4254 -6.3355 35.9561 5.8692 -13.6164 1.9025
# 2 -6.3355 106.0112 34.0540 -7.5935 -16.1119 3.2453
# 3 35.9561 34.0540 156.0027 15.9725 -29.7367 -1.8364
# 4 5.8692 -7.5935 15.9725 40.1789 -2.9668 -1.3437
# 5 -13.6164 -16.1119 -29.7367 -2.9668 34.4504 -3.7295
# 6 1.9025 3.2453 -1.8364 -1.3437 -3.7295 24.9237
#
#
#
# Elastic Compliance Matrix: (Units=1/GPa)
#
#
# Indices 1 2 3 4 5 6 
#
# 1 0.056876 0.009843 -0.012187 -0.000556 0.016067 -0.004147
# 2 0.009843 0.012569 -0.004141 0.002994 0.006280 -0.001592
# 3 -0.012187 -0.004141 0.010991 -0.003085 0.002741 0.002523
# 4 -0.000556 0.002994 -0.003085 0.026865 0.000941 0.001015
# 5 0.016067 0.006280 0.002741 0.000941 0.041236 0.004379
# 6 -0.004147 -0.001592 0.002523 0.001015 0.004379 0.041542
#
#
# Mechanical properties :
#
#
# Convention : Reuss Voigt Hill
#
# Bulk Modulus (GPa) = 14.82200 46.64319 30.73259
# Shear Modulus (GPa) = 22.16920 35.16159 28.66540
#
# Velocity S-wave (km/s) = 3.21602 4.05021 3.65698
# Velocity P-wave (km/s) = 4.55032 6.60554 5.67180
#
# Compressibility (1/GPa) = 0.06746729
#
# Stress axis : x y z
#
# Youngs Moduli (GPa) = 17.58199 79.56120 90.98381
#
# Poissons Ratio (x) = -0.78312 1.10882
# Poissons Ratio (y) = -0.17306 0.37672
# Poissons Ratio (z) = 0.21427 0.32942
#
# Static dielectric constant tensor:
#      x y z
#    x 1.892650 -0.048830 0.016380 
#    y -0.048830 1.800930 -0.064760 
#    z 0.016380 -0.064760 1.761390 
# 
# From -- ./inp_files/467085.got.cif
#   From: 2010.05.17/outbox.ucp.g08.bks.cvg/sg2_234_cif.got.tgz:467085.got - 2010.06.11 11:32:03.
