data_PCOD9074930
_publ_section_title
;
Structure prediction by ZEFSAII (Michael W. Deem and Ramdas Pophale) SiO2 
 PCOD9074930
Probable space group: P -1
;
_chemical_formula_sum "Si O2"
_cell_formula_units_Z 16
_cell_length_a 12.394738
_cell_length_b 11.992113
_cell_length_c 12.443190
_cell_angle_alpha 57.337185
_cell_angle_beta 104.913861
_cell_angle_gamma 56.812921
_cell_volume 807.923182
_symmetry_space_group_name_H-M "P -1"
_symmetry_group_IT_number 2
_symmetry_cell_setting 'triclinic'
loop_
_space_group_symop_operation_xyz
x,y,z
-x,-y,-z
loop_
_atom_site_type_symbol
_atom_site_label
_atom_site_fract_x
_atom_site_fract_y
_atom_site_fract_z
Si Si1 0.349104 0.943420 0.967642
Si Si2 0.342137 0.238346 0.709750
Si Si3 0.313191 0.850490 0.674856
Si Si4 0.272843 0.599779 0.724051
Si Si5 0.988154 0.778735 0.403827
Si Si6 0.334371 0.327722 0.193726
Si Si7 0.002956 0.667729 0.757847
Si Si8 0.293755 0.255260 0.442585
O O1 0.448497 0.894901 0.129957
O O2 0.502000 0.676015 0.105765
O O3 0.363997 0.062737 0.837666
O O4 0.120390 0.116688 0.794407
O O5 0.293758 0.303175 0.539009
O O6 0.146539 0.495662 0.590967
O O7 0.277601 0.730540 0.722031
O O8 0.550629 0.655962 0.827859
O O9 0.199995 0.027426 0.657998
O O10 0.195717 0.035550 0.446859
O O11 0.164554 0.589291 0.767675
O O12 0.135332 0.748109 0.502503
O O13 0.305984 0.351048 0.301950
O O14 0.500733 0.044370 0.357918
O O15 0.121479 0.520383 0.974703
O O16 0.907814 0.632371 0.696772
#
# Coordination Sequence:
#
# PCOD9074930 Si02
#       8
#     2   2   2   2   2   2   2   2
#     4  10  20  32  51  80 108 143 175 210 273 324
#     4  10  20  33  51  78 111 139 174 217 267 324
#     4  10  21  35  53  82 112 138 174 221 268 313
#     4  10  20  33  53  82 112 137 172 223 270 314
#     4  10  19  32  50  77 110 138 169 216 267 317
#     4  10  21  35  53  77 107 144 182 217 259 316
#     4  10  18  32  53  78 106 137 173 217 271 317
#     4  10  21  36  52  76 110 144 179 219 260 313
#
# _framework density 19.803861999999999
#
# number of rings (size 3 to 8) (size 9 to 14) (size 15 to 20)
#    0.000    2.000    0.000    6.000    0.000    7.000 
#    0.000    0.000    0.000    3.000    0.000   11.375 
#    0.000    0.000    0.000    0.000    0.000    0.000 
#
# Total GULP energy -89148.949966 kJ/mol
# GULP energy per Si atom -5571.809373 kJ/mol
# Density = 1.975879 g / cm^3
# Si number density = 19.803862 Si / 1000 Ang^3
#
#
#
# Elastic Constant Matrix: (Units=GPa)
#
#
# Indices 1 2 3 4 5 6 
#
# 1 49.7256 34.7759 28.1329 6.1450 5.6695 4.0982
# 2 34.7759 97.4883 41.2699 20.4711 -4.4277 11.7913
# 3 28.1329 41.2699 123.3428 30.9653 24.3911 7.7342
# 4 6.1450 20.4711 30.9653 28.8149 1.2576 -2.2208
# 5 5.6695 -4.4277 24.3911 1.2576 18.3343 4.3149
# 6 4.0982 11.7913 7.7342 -2.2208 4.3149 17.9431
#
#
#
# Elastic Compliance Matrix: (Units=1/GPa)
#
#
# Indices 1 2 3 4 5 6 
#
# 1 0.029914 -0.011890 -0.002549 0.005665 -0.010360 0.005272
# 2 -0.011890 0.021264 -0.005067 -0.009137 0.019696 -0.014941
# 3 -0.002549 -0.005067 0.019180 -0.015407 -0.024826 -0.000292
# 4 0.005665 -0.009137 -0.015407 0.057423 0.008751 0.016354
# 5 -0.010360 0.019696 -0.024826 0.008751 0.100324 -0.022919
# 6 0.005272 -0.014941 -0.000292 0.016354 -0.022919 0.072008
#
#
# Mechanical properties :
#
#
# Convention : Reuss Voigt Hill
#
# Bulk Modulus (GPa) = 31.90103 53.21268 42.55685
# Shear Modulus (GPa) = 14.30312 24.11032 19.20672
#
# Velocity S-wave (km/s) = 2.69037 3.49299 3.11762
# Velocity P-wave (km/s) = 5.07880 6.57238 5.87326
#
# Compressibility (1/GPa) = 0.03134695
#
# Stress axis : x y z
#
# Youngs Moduli (GPa) = 33.42895 47.02682 52.13778
#
# Poissons Ratio (x) = 0.55913 0.13289
# Poissons Ratio (y) = 0.39746 0.26420
# Poissons Ratio (z) = 0.08520 0.23830
#
# Static dielectric constant tensor:
#      x y z
#    x 1.711420 0.003270 0.034820 
#    y 0.003270 1.717240 0.031290 
#    z 0.034820 0.031290 1.779340 
# 
# From -- ./inp_files/451352.got.cif
#   From: 2010.05.17/outbox.cif.g08.bks.cpg/sg2_226_cif.got.tgz:451352.got - 2010.06.03 11:33:40.
