data_PCOD9074661
_publ_section_title
;
Structure prediction by ZEFSAII (Michael W. Deem and Ramdas Pophale) SiO2 
 PCOD9074661
Probable space group: P -1
;
_chemical_formula_sum "Si O2"
_cell_formula_units_Z 14
_cell_length_a 15.000000
_cell_length_b 12.000000
_cell_length_c 9.000000
_cell_angle_alpha 50.000000
_cell_angle_beta 60.000000
_cell_angle_gamma 30.000000
_cell_volume 613.666794
_symmetry_space_group_name_H-M "P -1"
_symmetry_group_IT_number 2
_symmetry_cell_setting 'triclinic'
loop_
_space_group_symop_operation_xyz
x,y,z
-x,-y,-z
loop_
_atom_site_type_symbol
_atom_site_label
_atom_site_fract_x
_atom_site_fract_y
_atom_site_fract_z
Si Si1 0.442822 0.834675 0.263512
Si Si2 0.839756 0.813448 0.062353
Si Si3 0.649755 0.948751 0.388503
Si Si4 0.233190 0.309725 0.202842
Si Si5 0.494630 0.404435 0.287237
Si Si6 0.917047 0.044590 0.876279
Si Si7 0.287725 0.565699 0.863679
O O1 0.441297 0.722205 0.494743
O O2 0.626001 0.591384 0.228145
O O3 0.392463 0.045983 0.203857
O O4 0.284563 0.003626 0.129995
O O5 0.730597 0.845427 0.245508
O O6 0.038222 0.526814 0.101292
O O7 0.876280 0.921255 0.025107
O O8 0.791939 0.742910 0.575100
O O9 0.500000 0.000000 0.500000
O O10 0.571865 0.196935 0.285368
O O11 0.279968 0.425205 0.084389
O O12 0.276979 0.658903 0.247434
O O13 0.584114 0.459777 0.150703
O O14 0.083031 0.864369 0.774997
O O15 0.000000 0.000000 0.000000
#
# Coordination Sequence:
#
# PCOD9074661 Si02
#       7
#     2   2   2   2   2   2   2
#     4  11  23  45  70 101 142 183 228 284 349 402
#     4  11  23  43  73 100 141 180 233 288 337 415
#     4  11  25  43  70  99 137 183 229 281 348 408
#     4  10  24  44  67 106 136 183 233 284 343 411
#     4  11  26  47  69 102 144 178 230 290 341 412
#     4  11  26  42  70 106 137 182 232 282 350 406
#     4  11  23  44  75  96 142 181 231 278 347 405
#
# _framework density 22.813683000000001
#
# number of rings (size 3 to 8) (size 9 to 14) (size 15 to 20)
#    0.000    1.143    1.429    3.429    6.000    2.857 
#    7.714    0.000    0.000    0.000    0.000    0.000 
#    0.000    0.000    0.000    0.000    0.000    0.000 
#
# Total GULP energy -78263.849911 kJ/mol
# GULP energy per Si atom -5590.274994 kJ/mol
# Density = 2.276176 g / cm^3
# Si number density = 22.813683 Si / 1000 Ang^3
#
#
#
# Elastic Constant Matrix: (Units=GPa)
#
#
# Indices 1 2 3 4 5 6 
#
# 1 117.4804 40.8231 50.5152 -5.9469 -3.0510 -5.3234
# 2 40.8231 144.1768 42.1581 -6.0462 0.9111 -11.8030
# 3 50.5152 42.1581 117.6412 -7.5554 10.3124 -9.1611
# 4 -5.9469 -6.0462 -7.5554 29.1283 1.0206 0.6395
# 5 -3.0510 0.9111 10.3124 1.0206 28.7113 -9.6165
# 6 -5.3234 -11.8030 -9.1611 0.6395 -9.6165 37.9560
#
#
#
# Elastic Compliance Matrix: (Units=1/GPa)
#
#
# Indices 1 2 3 4 5 6 
#
# 1 0.011137 -0.001832 -0.004291 0.000660 0.002995 0.000704
# 2 -0.001832 0.008244 -0.002044 0.000729 0.000934 0.002038
# 3 -0.004291 -0.002044 0.011620 0.001863 -0.004498 0.000396
# 4 0.000660 0.000729 0.001863 0.035177 -0.001982 -0.000326
# 5 0.002995 0.000934 -0.004498 -0.001982 0.040092 0.009816
# 6 0.000704 0.002038 0.000396 -0.000326 0.009816 0.029667
#
#
# Mechanical properties :
#
#
# Convention : Reuss Voigt Hill
#
# Bulk Modulus (GPa) = 68.18094 71.81012 69.99553
# Shear Modulus (GPa) = 31.81478 35.54591 33.68034
#
# Velocity S-wave (km/s) = 3.73842 3.95155 3.84646
# Velocity P-wave (km/s) = 6.97031 7.23635 7.10458
#
# Compressibility (1/GPa) = 0.01466686
#
# Stress axis : x y z
#
# Youngs Moduli (GPa) = 89.79159 121.30212 86.05707
#
# Poissons Ratio (x) = 0.22226 0.36926
# Poissons Ratio (y) = 0.16452 0.17589
# Poissons Ratio (z) = 0.38529 0.24793
#
# Static dielectric constant tensor:
#      x y z
#    x 1.861730 -0.010760 0.027220 
#    y -0.010760 1.884070 0.001300 
#    z 0.027220 0.001300 1.884330 
# 
# From -- ./inp_files/306464.got.cif
#   From: 2010.05.17/outbox.ucp.g08.bks.cvg/sg2_154_cif.got.tgz:306464.got - 2010.06.11 11:32:03.
