data_PCOD9074631
_publ_section_title
;
Structure prediction by ZEFSAII (Michael W. Deem and Ramdas Pophale) SiO2 
 PCOD9074631
Probable space group: P -1
;
_chemical_formula_sum "Si O2"
_cell_formula_units_Z 9
_cell_length_a 9.000000
_cell_length_b 12.000000
_cell_length_c 9.000000
_cell_angle_alpha 140.000000
_cell_angle_beta 100.000000
_cell_angle_gamma 50.000000
_cell_volume 364.799748
_symmetry_space_group_name_H-M "P -1"
_symmetry_group_IT_number 2
_symmetry_cell_setting 'triclinic'
loop_
_space_group_symop_operation_xyz
x,y,z
-x,-y,-z
loop_
_atom_site_type_symbol
_atom_site_label
_atom_site_fract_x
_atom_site_fract_y
_atom_site_fract_z
Si Si1 0.501169 0.201895 0.163166
Si Si2 0.963701 0.710662 0.121132
Si Si3 0.565770 0.643527 0.376655
Si Si4 0.813250 0.301255 0.593606
Si Si5 0.000000 0.000000 0.000000
O O1 0.357431 0.435290 0.515475
O O2 0.320319 0.406271 0.201451
O O3 0.768069 0.054345 0.028764
O O4 0.500000 0.000000 0.000000
O O5 0.002703 0.817980 0.364814
O O6 0.194594 0.523733 0.851883
O O7 0.676080 0.001987 0.310633
O O8 0.000000 0.500000 0.000000
O O9 0.421972 0.595219 0.278690
O O10 0.956538 0.077327 0.251896
#
# Coordination Sequence:
#
# PCOD9074631 Si02
#       5
#     2   2   2   2   1
#     4  11  26  45  74 106 147 191 248 304 363 442
#     4  12  27  46  73 107 147 190 245 303 369 438
#     4  11  26  46  72 106 146 193 241 301 371 435
#     4  11  26  45  73 102 144 192 245 297 367 442
#     4  10  24  42  72  98 146 182 244 288 372 414
#
# _framework density 24.67107
#
# number of rings (size 3 to 8) (size 9 to 14) (size 15 to 20)
#    0.000    0.889    0.000    6.000   18.667    0.889 
#    0.000    0.000    0.000    0.000    0.000    0.000 
#    0.000    0.000    0.000    0.000    0.000    0.000 
#
# Total GULP energy -50169.984722 kJ/mol
# GULP energy per Si atom -5574.442747 kJ/mol
# Density = 2.461492 g / cm^3
# Si number density = 24.671070 Si / 1000 Ang^3
#
#
#
# Elastic Constant Matrix: (Units=GPa)
#
#
# Indices 1 2 3 4 5 6 
#
# 1 148.2080 41.0304 53.8280 -4.8009 -16.4657 37.2385
# 2 41.0304 116.1754 25.4146 3.9589 -9.0261 -2.6918
# 3 53.8280 25.4146 83.2469 -20.5725 -39.3783 9.2869
# 4 -4.8009 3.9589 -20.5725 47.6561 13.4105 13.6600
# 5 -16.4657 -9.0261 -39.3783 13.4105 75.3535 -3.3074
# 6 37.2385 -2.6918 9.2869 13.6600 -3.3074 54.9155
#
#
#
# Elastic Compliance Matrix: (Units=1/GPa)
#
#
# Indices 1 2 3 4 5 6 
#
# 1 0.011543 -0.003076 -0.006136 0.001336 -0.001614 -0.007370
# 2 -0.003076 0.010431 -0.002412 -0.003341 0.000080 0.003841
# 3 -0.006136 -0.002412 0.022879 0.007240 0.008990 -0.001086
# 4 0.001336 -0.003341 0.007240 0.027643 -0.001651 -0.009270
# 5 -0.001614 0.000080 0.008990 -0.001651 0.017967 0.001071
# 6 -0.007370 0.003841 -0.001086 -0.009270 0.001071 0.025950
#
#
# Mechanical properties :
#
#
# Convention : Reuss Voigt Hill
#
# Bulk Modulus (GPa) = 46.28262 65.35292 55.81777
# Shear Modulus (GPa) = 34.04558 50.74218 42.39388
#
# Velocity S-wave (km/s) = 3.71884 4.54006 4.14981
# Velocity P-wave (km/s) = 6.10248 7.35051 6.75538
#
# Compressibility (1/GPa) = 0.02160638
#
# Stress axis : x y z
#
# Youngs Moduli (GPa) = 86.63138 95.87039 43.70765
#
# Poissons Ratio (x) = 0.29492 0.26818
# Poissons Ratio (y) = 0.26650 0.10540
# Poissons Ratio (z) = 0.53154 0.23119
#
# Static dielectric constant tensor:
#      x y z
#    x 1.650380 -1.581400 -2.474850 
#    y -1.581400 -7.681990 -15.287540 
#    z -2.474850 -15.287540 -22.407360 
# 
# From -- ./inp_files/15105.got.cif
#   From: 2010.05.17/outbox.ucp.g08.bks.cvg/sg2_8_cif.got.tgz:15105.got - 2010.06.11 11:32:03.
