data_PCOD9074094
_publ_section_title
;
Structure prediction by ZEFSAII (Michael W. Deem and Ramdas Pophale) SiO2 
 PCOD9074094
Probable space group: P -1
;
_chemical_formula_sum "Si O2"
_cell_formula_units_Z 10
_cell_length_a 15.000000
_cell_length_b 6.000000
_cell_length_c 6.000000
_cell_angle_alpha 90.000000
_cell_angle_beta 110.000000
_cell_angle_gamma 60.000000
_cell_volume 429.638546
_symmetry_space_group_name_H-M "P -1"
_symmetry_group_IT_number 2
_symmetry_cell_setting 'triclinic'
loop_
_space_group_symop_operation_xyz
x,y,z
-x,-y,-z
loop_
_atom_site_type_symbol
_atom_site_label
_atom_site_fract_x
_atom_site_fract_y
_atom_site_fract_z
Si Si1 0.065780 0.786362 0.866922
Si Si2 0.862646 0.932676 0.426382
Si Si3 0.263047 0.228801 0.000434
Si Si4 0.332221 0.780952 0.431554
Si Si5 0.537540 0.768493 0.710571
O O1 0.109119 0.921875 0.736415
O O2 0.171030 0.508125 0.029083
O O3 0.975663 0.745389 0.659681
O O4 0.000000 0.000000 0.000000
O O5 0.775281 0.150517 0.521722
O O6 0.799311 0.804418 0.261350
O O7 0.377113 0.222430 0.045172
O O8 0.295393 0.000767 0.208396
O O9 0.424027 0.781050 0.674398
O O10 0.390159 0.503418 0.360614
O O11 0.500000 0.000000 0.500000
#
# Coordination Sequence:
#
# PCOD9074094 Si02
#       5
#     2   2   2   2   2
#     4  11  25  43  61  88 126 164 203 252 306 360
#     4  11  24  39  63  93 121 159 209 251 299 363
#     4  11  22  40  64  91 123 161 202 253 304 355
#     4  10  22  42  64  91 124 161 204 248 301 364
#     4   9  20  40  65  90 124 162 197 248 307 360
#
# _framework density 23.275379000000001
#
# number of rings (size 3 to 8) (size 9 to 14) (size 15 to 20)
#    0.000    1.600    0.000    4.200    0.000   10.400 
#    0.000   14.000    0.000    0.000    0.000    0.000 
#    0.000    0.000    0.000    0.000    0.000    0.000 
#
# Total GULP energy -55929.503753 kJ/mol
# GULP energy per Si atom -5592.950375 kJ/mol
# Density = 2.322240 g / cm^3
# Si number density = 23.275379 Si / 1000 Ang^3
#
#
#
# Elastic Constant Matrix: (Units=GPa)
#
#
# Indices 1 2 3 4 5 6 
#
# 1 104.2955 6.3624 32.3767 0.4519 33.9486 -11.9891
# 2 6.3624 126.0344 29.2775 -25.4325 10.0450 -16.4328
# 3 32.3767 29.2775 72.6383 2.7905 48.4510 6.7637
# 4 0.4519 -25.4325 2.7905 34.2245 6.5088 12.7291
# 5 33.9486 10.0450 48.4510 6.5088 61.5040 10.8748
# 6 -11.9891 -16.4328 6.7637 12.7291 10.8748 29.2678
#
#
#
# Elastic Compliance Matrix: (Units=1/GPa)
#
#
# Indices 1 2 3 4 5 6 
#
# 1 0.014073 0.001710 -0.002882 -0.001237 -0.007543 0.010732
# 2 0.001710 0.011411 -0.006605 0.006856 0.000718 0.005385
# 3 -0.002882 -0.006605 0.033267 -0.002055 -0.022749 -0.003231
# 4 -0.001237 0.006856 -0.002055 0.039503 -0.000681 -0.013110
# 5 -0.007543 0.000718 -0.022749 -0.000681 0.040449 -0.012163
# 6 0.010732 0.005385 -0.003231 -0.013110 -0.012163 0.052555
#
#
# Mechanical properties :
#
#
# Convention : Reuss Voigt Hill
#
# Bulk Modulus (GPa) = 23.15024 48.77793 35.96409
# Shear Modulus (GPa) = 22.60289 40.66269 31.63279
#
# Velocity S-wave (km/s) = 3.11964 4.18428 3.69055
# Velocity P-wave (km/s) = 4.78999 6.65933 5.80046
#
# Compressibility (1/GPa) = 0.04319609
#
# Stress axis : x y z
#
# Youngs Moduli (GPa) = 71.05854 87.63692 30.05960
#
# Poissons Ratio (x) = -0.14985 0.08663
# Poissons Ratio (y) = -0.12150 0.19855
# Poissons Ratio (z) = 0.20479 0.57886
#
# Static dielectric constant tensor:
#      x y z
#    x 1.875310 0.010730 0.069380 
#    y 0.010730 1.844090 0.039550 
#    z 0.069380 0.039550 1.883440 
# 
# From -- ./inp_files/1451.got.cif
#   From: 2010.05.17/outbox.ucp.g08.bks.cvg/sg2_1_cif.got.tgz:1451.got - 2010.06.11 11:32:03.
