data_PCOD9074393
_publ_section_title
;
Structure prediction by ZEFSAII (Michael W. Deem and Ramdas Pophale) SiO2 
 PCOD9074393
Probable space group: P -1
;
_chemical_formula_sum "Si O2"
_cell_formula_units_Z 16
_cell_length_a 23.466021
_cell_length_b 9.889837
_cell_length_c 20.166324
_cell_angle_alpha 40.782953
_cell_angle_beta 17.891508
_cell_angle_gamma 31.530246
_cell_volume 708.226407
_symmetry_space_group_name_H-M "P -1"
_symmetry_group_IT_number 2
_symmetry_cell_setting 'triclinic'
loop_
_space_group_symop_operation_xyz
x,y,z
-x,-y,-z
loop_
_atom_site_type_symbol
_atom_site_label
_atom_site_fract_x
_atom_site_fract_y
_atom_site_fract_z
Si Si1 0.862682 0.434927 0.491839
Si Si2 0.919587 0.050616 0.145678
Si Si3 0.474665 0.908142 0.376863
Si Si4 0.738540 0.577549 0.969164
Si Si5 0.082784 0.147949 0.052004
Si Si6 0.687840 0.195446 0.541225
Si Si7 0.897698 0.361566 0.636951
Si Si8 0.431309 0.490623 0.940930
O O1 0.680269 0.765910 0.563321
O O2 0.891594 0.377470 0.559354
O O3 0.708576 0.352620 0.668858
O O4 0.117230 0.313521 0.220397
O O5 0.636233 0.192920 0.416351
O O6 0.058386 0.750821 0.132971
O O7 0.006113 0.177913 0.048270
O O8 0.000000 0.000000 0.000000
O O9 0.406564 0.872718 0.391876
O O10 0.751592 0.778616 0.136304
O O11 0.543587 0.640339 0.214748
O O12 0.636391 0.645329 0.982667
O O13 0.257607 0.817511 0.995617
O O14 0.830985 0.290063 0.318410
O O15 0.903457 0.941344 0.441791
O O16 0.000000 0.500000 0.500000
O O17 0.638006 0.512683 0.905680
#
# Coordination Sequence:
#
# PCOD9074393 Si02
#       8
#     2   2   2   2   2   2   2   2
#     4  10  18  32  51  70  95 132 170 201 233 281
#     4   9  18  34  56  77  94 121 162 201 238 288
#     4   9  17  33  53  71  97 132 165 193 234 288
#     4  10  20  34  49  72 102 127 155 200 253 288
#     4   8  17  33  52  72  96 131 164 191 233 293
#     4  10  20  32  49  72 102 132 158 198 243 283
#     4  11  17  32  51  71  95 129 173 203 229 278
#     4   9  18  32  50  69  96 130 167 202 235 282
#
# _framework density 22.591646000000001
#
# number of rings (size 3 to 8) (size 9 to 14) (size 15 to 20)
#    0.000    2.500    2.500    1.875    0.000    2.000 
#    0.000    3.125    0.000    1.500    0.000    0.000 
#    0.000    0.000    0.000    0.000    0.000    0.000 
#
# Total GULP energy -89171.688545 kJ/mol
# GULP energy per Si atom -5573.230534 kJ/mol
# Density = 2.254023 g / cm^3
# Si number density = 22.591646 Si / 1000 Ang^3
#
#
#
# Elastic Constant Matrix: (Units=GPa)
#
#
# Indices 1 2 3 4 5 6 
#
# 1 50.5121 -16.4811 44.7620 -10.0795 2.7159 -6.9320
# 2 -16.4811 3.3851 3.2162 -2.8939 -1.0620 -3.0734
# 3 44.7620 3.2162 183.3857 -12.9633 -16.8558 14.1481
# 4 -10.0795 -2.8939 -12.9633 23.2585 5.7822 -2.0836
# 5 2.7159 -1.0620 -16.8558 5.7822 32.1275 0.7785
# 6 -6.9320 -3.0734 14.1481 -2.0836 0.7785 10.6065
#
#
#
# Elastic Compliance Matrix: (Units=1/GPa)
#
#
# Indices 1 2 3 4 5 6 
#
# 1 -0.003802 -0.048611 0.003146 -0.008581 0.002458 -0.022633
# 2 -0.048611 -0.046449 0.018358 -0.028242 0.019147 -0.076671
# 3 0.003146 0.018358 0.004792 0.006077 0.001712 0.002052
# 4 -0.008581 -0.028242 0.006077 0.038806 -0.003665 -0.014005
# 5 0.002458 0.019147 0.001712 -0.003665 0.033067 0.001724
# 6 -0.022633 -0.076671 0.002052 -0.014005 0.001724 0.051659
#
#
# Mechanical properties :
#
#
# Convention : Reuss Voigt Hill
#
# Bulk Modulus (GPa) = -10.03300 33.36413 11.66557
# Shear Modulus (GPa) = 50.47364 26.91755 38.69559
#
# Velocity S-wave (km/s) = 4.73183 3.45553 4.14312
# Velocity P-wave (km/s) = 5.04014 5.54268 5.29737
#
# Compressibility (1/GPa) = -0.09967109
#
# Stress axis : x y z
#
# Youngs Moduli (GPa) = -263.04925 -21.52920 208.69382
#
# Poissons Ratio (x) = -1.04655 -0.65652
# Poissons Ratio (y) = -12.78697 -3.83127
# Poissons Ratio (z) = 0.82751 0.39524
#
# Static dielectric constant tensor:
#      x y z
#    x 1.804870 -0.009430 -0.020900 
#    y -0.009430 1.839650 0.007940 
#    z -0.020900 0.007940 1.908400 
# 
# From -- ./inp_files/267277.got.cif
#   From: 2010.05.17/outbox.cif.g08.bks.cpg/sg2_134_cif.got.tgz:267277.got - 2010.06.03 11:33:40.
