data_PCOD9074928
_publ_section_title
;
Structure prediction by ZEFSAII (Michael W. Deem and Ramdas Pophale) SiO2 
 PCOD9074928
Probable space group: P -1
;
_chemical_formula_sum "Si O2"
_cell_formula_units_Z 16
_cell_length_a 10.506751
_cell_length_b 8.183702
_cell_length_c 15.289942
_cell_angle_alpha 97.123108
_cell_angle_beta 122.582270
_cell_angle_gamma 128.732157
_cell_volume 616.074960
_symmetry_space_group_name_H-M "P -1"
_symmetry_group_IT_number 2
_symmetry_cell_setting 'triclinic'
loop_
_space_group_symop_operation_xyz
x,y,z
-x,-y,-z
loop_
_atom_site_type_symbol
_atom_site_label
_atom_site_fract_x
_atom_site_fract_y
_atom_site_fract_z
Si Si1 0.236583 0.391940 0.159143
Si Si2 0.344901 0.636812 0.617415
Si Si3 0.097152 0.629391 0.300559
Si Si4 0.427768 0.754493 0.995367
Si Si5 0.743480 0.791556 0.666861
Si Si6 0.902911 0.120051 0.298832
Si Si7 0.337444 0.164983 0.082968
Si Si8 0.377172 0.010643 0.585340
O O1 0.210638 0.268604 0.231805
O O2 0.264338 0.286309 0.085408
O O3 0.510222 0.738318 0.300187
O O4 0.933359 0.191286 0.026309
O O5 0.591708 0.814238 0.653441
O O6 0.079544 0.299388 0.464316
O O7 0.442590 0.685179 0.753554
O O8 0.296669 0.786245 0.600973
O O9 0.002025 0.373562 0.296851
O O10 0.355189 0.800260 0.355926
O O11 0.891619 0.528154 0.150239
O O12 0.163231 0.821358 0.414495
O O13 0.550023 0.748967 0.965888
O O14 0.500000 0.000000 0.000000
O O15 0.582808 0.854115 0.148223
O O16 0.500000 0.500000 0.500000
O O17 0.999196 0.964005 0.714528
#
# Coordination Sequence:
#
# PCOD9074928 Si02
#       8
#     2   2   2   2   2   2   2   2
#     4  10  18  32  53  78 105 144 169 222 264 308
#     4   9  20  30  51  87 108 133 169 226 266 305
#     4   9  18  29  54  80 103 138 183 216 255 315
#     4  10  18  33  56  79 100 139 182 223 252 308
#     4   9  15  27  49  80 103 129 175 214 256 292
#     4   9  15  31  51  76 104 135 177 216 255 302
#     4  10  20  34  54  82 105 132 187 216 262 307
#     4  10  18  34  52  80 111 136 174 214 271 320
#
# _framework density 25.970865
#
# number of rings (size 3 to 8) (size 9 to 14) (size 15 to 20)
#    0.000    2.500    2.500    0.750    1.750    0.500 
#    0.000    6.250    0.000    0.750    6.500    0.000 
#    0.000    0.000    0.000    0.000    0.000    0.000 
#
# Total GULP energy -89318.563067 kJ/mol
# GULP energy per Si atom -5582.410192 kJ/mol
# Density = 2.591175 g / cm^3
# Si number density = 25.970865 Si / 1000 Ang^3
#
#
#
# Elastic Constant Matrix: (Units=GPa)
#
#
# Indices 1 2 3 4 5 6 
#
# 1 56.7476 0.6347 13.7239 12.2130 -7.7976 -14.7181
# 2 0.6347 34.2677 20.5493 13.4112 -6.3285 -3.2933
# 3 13.7239 20.5493 182.7996 -4.1138 15.3681 -3.1084
# 4 12.2130 13.4112 -4.1138 34.1264 0.3848 -4.1814
# 5 -7.7976 -6.3285 15.3681 0.3848 47.9913 4.2490
# 6 -14.7181 -3.2933 -3.1084 -4.1814 4.2490 19.2452
#
#
#
# Elastic Compliance Matrix: (Units=1/GPa)
#
#
# Indices 1 2 3 4 5 6 
#
# 1 0.025749 0.008221 -0.003217 -0.010786 0.004865 0.017161
# 2 0.008221 0.042949 -0.006516 -0.019928 0.008685 0.006338
# 3 -0.003217 -0.006516 0.006831 0.004488 -0.003542 -0.000715
# 4 -0.010786 -0.019928 0.004488 0.041535 -0.006101 -0.000563
# 5 0.004865 0.008685 -0.003542 -0.006101 0.024135 -0.002019
# 6 0.017161 0.006338 -0.000715 -0.000563 -0.002019 0.066378
#
#
# Mechanical properties :
#
#
# Convention : Reuss Voigt Hill
#
# Bulk Modulus (GPa) = 13.79216 38.18120 25.98668
# Shear Modulus (GPa) = 21.29748 36.19970 28.74859
#
# Velocity S-wave (km/s) = 2.86676 3.73749 3.33070
# Velocity P-wave (km/s) = 4.03484 5.77569 4.98189
#
# Compressibility (1/GPa) = 0.07250496
#
# Stress axis : x y z
#
# Youngs Moduli (GPa) = 38.83686 23.28330 146.38813
#
# Poissons Ratio (x) = -0.19142 0.47096
# Poissons Ratio (y) = -0.31929 0.95389
# Poissons Ratio (z) = 0.12495 0.15172
#
# Static dielectric constant tensor:
#      x y z
#    x 2.076170 -0.179350 -0.305170 
#    y -0.179350 1.567070 -0.932450 
#    z -0.305170 -0.932450 0.075790 
# 
# From -- ./inp_files/279527.got.cif
#   From: 2010.05.17/outbox.cif.g08.bks.cpg/sg2_140_cif.got.tgz:279527.got - 2010.06.03 11:33:40.
