data_PCOD9074891
_publ_section_title
;
Structure prediction by ZEFSAII (Michael W. Deem and Ramdas Pophale) SiO2 
 PCOD9074891
Probable space group: P -1
;
_chemical_formula_sum "Si O2"
_cell_formula_units_Z 16
_cell_length_a 9.000000
_cell_length_b 24.000000
_cell_length_c 9.000000
_cell_angle_alpha 50.000000
_cell_angle_beta 130.000000
_cell_angle_gamma 150.000000
_cell_volume 725.531033
_symmetry_space_group_name_H-M "P -1"
_symmetry_group_IT_number 2
_symmetry_cell_setting 'triclinic'
loop_
_space_group_symop_operation_xyz
x,y,z
-x,-y,-z
loop_
_atom_site_type_symbol
_atom_site_label
_atom_site_fract_x
_atom_site_fract_y
_atom_site_fract_z
Si Si1 0.329853 0.777334 0.671163
Si Si2 0.280603 0.239373 0.006264
Si Si3 0.263536 0.754336 0.013804
Si Si4 0.327267 0.622981 0.457760
Si Si5 0.643645 0.618272 0.432689
Si Si6 0.848665 0.982133 0.083587
Si Si7 0.159667 0.252788 0.204150
Si Si8 0.868075 0.022821 0.485814
O O1 0.373520 0.783918 0.864793
O O2 0.993023 0.699284 0.545265
O O3 0.533161 0.900108 0.522957
O O4 0.465014 0.737382 0.788817
O O5 0.383897 0.321045 0.800868
O O6 0.175868 0.264680 0.019379
O O7 0.012581 0.103947 0.028232
O O8 0.935235 0.695535 0.891168
O O9 0.290748 0.686439 0.231407
O O10 0.487071 0.877067 0.025438
O O11 0.487923 0.606415 0.496253
O O12 0.540205 0.690817 0.621648
O O13 0.000000 0.500000 0.500000
O O14 0.500000 0.500000 0.500000
O O15 0.929002 0.935696 0.313624
O O16 0.000000 0.000000 0.000000
O O17 0.914129 0.118147 0.307831
O O18 0.000000 0.000000 0.500000
#
# Coordination Sequence:
#
# PCOD9074891 Si02
#       8
#     2   2   2   2   2   2   2   2
#     4  11  24  46  72 104 144 185 230 288 352 418
#     4  11  26  46  69 108 147 182 231 293 348 419
#     4  12  25  44  73 104 143 189 231 287 356 420
#     4  12  29  50  72 102 144 184 239 301 346 417
#     4  12  29  49  75 104 133 189 249 287 350 424
#     4  11  20  40  71 100 142 185 224 281 351 415
#     4  12  27  44  71 110 143 186 232 288 358 419
#     4  11  22  41  70 107 147 182 228 286 348 416
#
# _framework density 22.052813
#
# number of rings (size 3 to 8) (size 9 to 14) (size 15 to 20)
#    0.000    0.500    8.750    0.000    5.250    4.000 
#    0.000    0.000    0.000    0.000    0.000    0.000 
#    0.000    0.000    0.000    0.000    0.000    0.000 
#
# Total GULP energy -89110.621516 kJ/mol
# GULP energy per Si atom -5569.413845 kJ/mol
# Density = 2.200262 g / cm^3
# Si number density = 22.052813 Si / 1000 Ang^3
#
#
#
# Elastic Constant Matrix: (Units=GPa)
#
#
# Indices 1 2 3 4 5 6 
#
# 1 33.9411 58.9510 69.1928 -0.5908 -15.0248 -28.8635
# 2 58.9510 122.5647 49.2030 -3.4888 12.8751 25.5842
# 3 69.1928 49.2030 19.5288 25.0850 18.9072 22.2732
# 4 -0.5908 -3.4888 25.0850 9.2185 -1.5140 2.6100
# 5 -15.0248 12.8751 18.9072 -1.5140 33.7235 -7.7008
# 6 -28.8635 25.5842 22.2732 2.6100 -7.7008 7.6607
#
#
#
# Elastic Compliance Matrix: (Units=1/GPa)
#
#
# Indices 1 2 3 4 5 6 
#
# 1 0.000688 0.005973 -0.001567 0.012044 -0.005729 -0.022659
# 2 0.005973 -0.004897 0.010666 -0.036476 0.002004 0.022292
# 3 -0.001567 0.010666 -0.013916 0.046381 0.001638 -0.015221
# 4 0.012044 -0.036476 0.046381 -0.044555 0.002778 0.050317
# 5 -0.005729 0.002004 0.001638 0.002778 0.023079 -0.010787
# 6 -0.022659 0.022292 -0.015221 0.050317 -0.010787 -0.013019
#
#
# Mechanical properties :
#
#
# Convention : Reuss Voigt Hill
#
# Bulk Modulus (GPa) = 83.21509 58.96980 71.09244
# Shear Modulus (GPa) = -63.48667 10.03307 -26.72680
#
# Velocity S-wave (km/s) = -5.37131 2.13528 -3.48508
# Velocity P-wave (km/s) = 0.80721 5.73390 4.01410
#
# Compressibility (1/GPa) = 0.01201705
#
# Stress axis : x y z
#
# Youngs Moduli (GPa) = 1453.16885 -204.18637 -71.86182
#
# Poissons Ratio (x) = 1.21956 -0.11263
# Poissons Ratio (y) = -8.67942 0.76644
# Poissons Ratio (z) = 2.27755 2.17776
#
# Static dielectric constant tensor:
#      x y z
#    x 1.836830 0.051550 -0.019650 
#    y 0.051550 1.819610 0.071920 
#    z -0.019650 0.071920 1.767870 
# 
# From -- ./inp_files/226195.got.cif
#   From: 2010.05.17/outbox.ucp.g08.bks.cvg/sg2_114_cif.got.tgz:226195.got - 2010.06.11 11:32:03.
