data_PCOD9074574
_publ_section_title
;
Structure prediction by ZEFSAII (Michael W. Deem and Ramdas Pophale) SiO2 
 PCOD9074574
Probable space group: P -1
;
_chemical_formula_sum "Si O2"
_cell_formula_units_Z 16
_cell_length_a 13.712540
_cell_length_b 10.553912
_cell_length_c 10.997347
_cell_angle_alpha 79.199455
_cell_angle_beta 122.589508
_cell_angle_gamma 145.820175
_cell_volume 631.393996
_symmetry_space_group_name_H-M "P -1"
_symmetry_group_IT_number 2
_symmetry_cell_setting 'triclinic'
loop_
_space_group_symop_operation_xyz
x,y,z
-x,-y,-z
loop_
_atom_site_type_symbol
_atom_site_label
_atom_site_fract_x
_atom_site_fract_y
_atom_site_fract_z
Si Si1 0.190601 0.582722 0.464386
Si Si2 0.826705 0.019644 0.305429
Si Si3 0.476431 0.681095 0.796003
Si Si4 0.135999 0.756549 0.099299
Si Si5 0.320281 0.547474 0.117827
Si Si6 0.965658 0.894753 0.318416
Si Si7 0.664158 0.699358 0.691093
Si Si8 0.500593 0.098387 0.609850
O O1 0.284363 0.603541 0.643877
O O2 0.358226 0.698828 0.442866
O O3 0.933428 0.267484 0.321481
O O4 0.232563 0.777103 0.474473
O O5 0.891514 0.025887 0.483442
O O6 0.541412 0.739449 0.142040
O O7 0.955586 0.039465 0.304500
O O8 0.309003 0.423622 0.808531
O O9 0.540432 0.662663 0.719874
O O10 0.723620 0.000835 0.933849
O O11 0.350326 0.890895 0.285114
O O12 0.000000 0.500000 0.000000
O O13 0.924952 0.622403 0.053335
O O14 0.258119 0.354728 0.178891
O O15 0.449969 0.768527 0.264196
O O16 0.111999 0.010980 0.274085
O O17 0.500000 0.500000 0.500000
#
# Coordination Sequence:
#
# PCOD9074574 Si02
#       8
#     2   2   2   2   2   2   2   2
#     4   9  18  32  57  80 110 141 184 243 287 327
#     4  10  18  32  51  83 118 145 177 235 285 338
#     4  10  20  37  60  86 115 148 186 232 284 339
#     4   9  21  40  61  74 111 159 194 229 277 330
#     4  11  20  33  56  81 109 153 191 222 281 343
#     4  10  19  34  53  86 122 141 178 233 290 335
#     4  12  20  33  60  91 116 145 182 233 289 341
#     4   9  18  35  55  79 104 148 196 231 281 332
#
# _framework density 25.340754
#
# number of rings (size 3 to 8) (size 9 to 14) (size 15 to 20)
#    0.000    2.000    2.500    3.000    0.000    1.000 
#    0.000    1.250    5.500    0.000    0.000    0.000 
#    0.000    0.000    0.000    0.000    0.000    0.000 
#
# Total GULP energy -89278.493421 kJ/mol
# GULP energy per Si atom -5579.905839 kJ/mol
# Density = 2.528308 g / cm^3
# Si number density = 25.340754 Si / 1000 Ang^3
#
#
#
# Elastic Constant Matrix: (Units=GPa)
#
#
# Indices 1 2 3 4 5 6 
#
# 1 74.0069 26.9339 34.5308 12.7825 -6.5959 -1.3911
# 2 26.9339 134.9777 28.5268 46.3196 -6.3247 -7.5385
# 3 34.5308 28.5268 60.2335 22.4803 7.2702 -1.7415
# 4 12.7825 46.3196 22.4803 41.0970 -6.0120 8.1431
# 5 -6.5959 -6.3247 7.2702 -6.0120 43.0641 5.0902
# 6 -1.3911 -7.5385 -1.7415 8.1431 5.0902 34.6771
#
#
#
# Elastic Compliance Matrix: (Units=1/GPa)
#
#
# Indices 1 2 3 4 5 6 
#
# 1 0.020244 -0.003154 -0.013100 0.005854 0.005996 -0.002786
# 2 -0.003154 0.014009 0.002347 -0.017916 -0.002218 0.007570
# 3 -0.013100 0.002347 0.031518 -0.018840 -0.010503 0.007533
# 4 0.005854 -0.017916 -0.018840 0.058768 0.012035 -0.020173
# 5 0.005996 -0.002218 -0.010503 0.012035 0.028181 -0.007732
# 6 -0.002786 0.007570 0.007533 -0.020173 -0.007732 0.036622
#
#
# Mechanical properties :
#
#
# Convention : Reuss Voigt Hill
#
# Bulk Modulus (GPa) = 26.34713 49.91123 38.12918
# Shear Modulus (GPa) = 21.75717 35.71610 28.73664
#
# Velocity S-wave (km/s) = 2.93334 3.75831 3.37116
# Velocity P-wave (km/s) = 4.67893 6.21064 5.49838
#
# Compressibility (1/GPa) = 0.03795480
#
# Stress axis : x y z
#
# Youngs Moduli (GPa) = 49.39828 71.38184 31.72800
#
# Poissons Ratio (x) = 0.22516 0.41565
# Poissons Ratio (y) = 0.15582 -0.07446
# Poissons Ratio (z) = 0.64714 -0.16752
#
# Static dielectric constant tensor:
#      x y z
#    x 1.972860 0.004920 -0.059350 
#    y 0.004920 2.135340 0.050850 
#    z -0.059350 0.050850 2.178980 
# 
# From -- ./inp_files/267907.got.cif
#   From: 2010.05.17/outbox.cif.g08.bks.cpg/sg2_134_cif.got.tgz:267907.got - 2010.06.03 11:33:40.
