data_PCOD9074536
_publ_section_title
;
Structure prediction by ZEFSAII (Michael W. Deem and Ramdas Pophale) SiO2 
 PCOD9074536
Probable space group: P -1
;
_chemical_formula_sum "Si O2"
_cell_formula_units_Z 16
_cell_length_a 6.000000
_cell_length_b 18.000000
_cell_length_c 15.000000
_cell_angle_alpha 30.000000
_cell_angle_beta 100.000000
_cell_angle_gamma 90.000000
_cell_volume 759.581896
_symmetry_space_group_name_H-M "P -1"
_symmetry_group_IT_number 2
_symmetry_cell_setting 'triclinic'
loop_
_space_group_symop_operation_xyz
x,y,z
-x,-y,-z
loop_
_atom_site_type_symbol
_atom_site_label
_atom_site_fract_x
_atom_site_fract_y
_atom_site_fract_z
Si Si1 0.366930 0.839605 0.413751
Si Si2 0.093883 0.718091 0.810867
Si Si3 0.176520 0.196716 0.762029
Si Si4 0.280942 0.964601 0.476554
Si Si5 0.939880 0.085051 0.026133
Si Si6 0.157337 0.561305 0.636726
Si Si7 0.139563 0.410784 0.240241
Si Si8 0.501304 0.360503 0.717904
O O1 0.309279 0.920519 0.421324
O O2 0.264999 0.697399 0.533191
O O3 0.649730 0.735614 0.549631
O O4 0.200516 0.980952 0.191492
O O5 0.266783 0.804712 0.688238
O O6 0.964697 0.663845 0.773238
O O7 0.194590 0.562738 0.041010
O O8 0.926400 0.870674 0.693405
O O9 0.384245 0.243534 0.778573
O O10 0.054676 0.349405 0.536910
O O11 0.205493 0.042473 0.863369
O O12 0.000717 0.160040 0.861111
O O13 0.500000 0.000000 0.500000
O O14 0.757758 0.243885 0.890183
O O15 0.343946 0.437286 0.714315
O O16 0.046868 0.519318 0.764539
O O17 0.500000 0.500000 0.500000
#
# Coordination Sequence:
#
# PCOD9074536 Si02
#       8
#     2   2   2   2   2   2   2   2
#     4  11  25  43  70 104 144 179 239 292 348 422
#     4  10  24  44  72 102 139 181 238 288 355 421
#     4  10  23  45  69  98 142 185 231 286 354 420
#     4  11  22  45  73 103 140 186 228 289 359 423
#     4  10  24  45  71 105 136 187 235 287 357 413
#     4  11  25  42  70 105 142 186 232 295 352 416
#     4  11  24  45  71 102 140 185 235 296 346 420
#     4  12  25  43  74 101 141 187 235 294 351 418
#
# _framework density 21.064219999999999
#
# number of rings (size 3 to 8) (size 9 to 14) (size 15 to 20)
#    0.000    1.250    3.750    0.750    1.750    5.500 
#    0.000    1.250    0.000    0.000    0.000    0.000 
#    0.000    0.000    0.000    0.000    0.000    0.000 
#
# Total GULP energy -89081.696605 kJ/mol
# GULP energy per Si atom -5567.606038 kJ/mol
# Density = 2.101628 g / cm^3
# Si number density = 21.064220 Si / 1000 Ang^3
#
#
#
# Elastic Constant Matrix: (Units=GPa)
#
#
# Indices 1 2 3 4 5 6 
#
# 1 41.2741 30.6552 23.7535 -7.5408 3.1937 -0.4896
# 2 30.6552 87.9676 42.3157 6.5901 9.7921 -18.3193
# 3 23.7535 42.3157 123.9528 -19.7346 3.7079 -14.5794
# 4 -7.5408 6.5901 -19.7346 30.0421 0.7718 1.8687
# 5 3.1937 9.7921 3.7079 0.7718 38.5196 -7.4580
# 6 -0.4896 -18.3193 -14.5794 1.8687 -7.4580 41.1577
#
#
#
# Elastic Compliance Matrix: (Units=1/GPa)
#
#
# Indices 1 2 3 4 5 6 
#
# 1 0.038558 -0.015425 -0.000914 0.012950 -0.000896 -0.007481
# 2 -0.015425 0.022370 -0.005754 -0.013000 -0.002054 0.007953
# 3 -0.000914 -0.005754 0.011718 0.008638 0.000484 0.001275
# 4 0.012950 -0.013000 0.008638 0.045367 -0.000421 -0.004709
# 5 -0.000896 -0.002054 0.000484 -0.000421 0.027336 0.004219
# 6 -0.007481 0.007953 0.001275 -0.004709 0.004219 0.029178
#
#
# Mechanical properties :
#
#
# Convention : Reuss Voigt Hill
#
# Bulk Modulus (GPa) = 35.13873 49.62703 42.38288
# Shear Modulus (GPa) = 21.91078 32.37523 27.14300
#
# Velocity S-wave (km/s) = 3.22870 3.92468 3.59358
# Velocity P-wave (km/s) = 5.53328 6.64444 6.11415
#
# Compressibility (1/GPa) = 0.02845863
#
# Stress axis : x y z
#
# Youngs Moduli (GPa) = 25.93521 44.70327 85.34064
#
# Poissons Ratio (x) = 0.68956 0.07804
# Poissons Ratio (y) = 0.40006 0.49102
# Poissons Ratio (z) = 0.02372 0.25721
#
# Static dielectric constant tensor:
#      x y z
#    x 1.847180 -0.018440 0.030350 
#    y -0.018440 1.769040 0.013310 
#    z 0.030350 0.013310 1.754660 
# 
# From -- ./inp_files/485153.got.cif
#   From: 2010.05.17/outbox.ucp.g08.bks.cvg/sg2_243_cif.got.tgz:485153.got - 2010.06.11 11:32:03.
