data_PCOD9074622
_publ_section_title
;
Structure prediction by ZEFSAII (Michael W. Deem and Ramdas Pophale) SiO2 
 PCOD9074622
Probable space group: P -1
;
_chemical_formula_sum "Si O2"
_cell_formula_units_Z 12
_cell_length_a 8.989399
_cell_length_b 7.309144
_cell_length_c 8.959003
_cell_angle_alpha 112.003189
_cell_angle_beta 84.057089
_cell_angle_gamma 88.706595
_cell_volume 541.637774
_symmetry_space_group_name_H-M "P -1"
_symmetry_group_IT_number 2
_symmetry_cell_setting 'triclinic'
loop_
_space_group_symop_operation_xyz
x,y,z
-x,-y,-z
loop_
_atom_site_type_symbol
_atom_site_label
_atom_site_fract_x
_atom_site_fract_y
_atom_site_fract_z
Si Si1 0.741751 0.353497 0.011864
Si Si2 0.958640 0.412550 0.237013
Si Si3 0.221410 0.649867 0.344834
Si Si4 0.463799 0.322407 0.225778
Si Si5 0.779866 0.906796 0.984388
Si Si6 0.272894 0.857907 0.665540
O O1 0.741315 0.361937 0.838018
O O2 0.584884 0.407702 0.126730
O O3 0.865670 0.475914 0.117977
O O4 0.630600 0.821679 0.908331
O O5 0.051990 0.582955 0.349993
O O6 0.838981 0.309901 0.321665
O O7 0.084078 0.240664 0.125892
O O8 0.342950 0.486700 0.350672
O O9 0.251854 0.851570 0.488649
O O10 0.562480 0.210533 0.309723
O O11 0.785956 0.124957 0.981034
O O12 0.773801 0.947283 0.174631
#
# Coordination Sequence:
#
# PCOD9074622 Si02
#       6
#     2   2   2   2   2   2
#     4  10  18  32  52  74  96 126 162 200 236 282
#     4   9  19  35  52  68  96 135 163 185 236 302
#     4  11  20  30  50  79 100 118 158 211 242 266
#     4   9  19  35  52  68  96 135 163 185 236 302
#     4   9  18  36  54  67  92 136 168 185 230 302
#     4  10  18  32  52  74  96 126 162 200 236 282
#
# _framework density 22.155031000000001
#
# number of rings (size 3 to 8) (size 9 to 14) (size 15 to 20)
#    0.000    2.667    0.000    6.000    0.000    0.000 
#    0.000    6.667    0.000   12.000    0.000    0.000 
#    0.000    0.000    0.000    0.000    0.000    0.000 
#
# Total GULP energy -66961.251115 kJ/mol
# GULP energy per Si atom -5580.104260 kJ/mol
# Density = 2.210460 g / cm^3
# Si number density = 22.155031 Si / 1000 Ang^3
#
#
#
# Elastic Constant Matrix: (Units=GPa)
#
#
# Indices 1 2 3 4 5 6 
#
# 1 144.5028 9.1927 42.0698 5.2006 22.6189 11.1834
# 2 9.1927 29.2044 -1.7188 9.9357 3.5951 -4.0626
# 3 42.0698 -1.7188 100.3048 16.7153 33.4493 -1.1468
# 4 5.2006 9.9357 16.7153 22.2442 9.9130 2.3010
# 5 22.6189 3.5951 33.4493 9.9130 30.0667 6.0394
# 6 11.1834 -4.0626 -1.1468 2.3010 6.0394 19.9592
#
#
#
# Elastic Compliance Matrix: (Units=1/GPa)
#
#
# Indices 1 2 3 4 5 6 
#
# 1 0.009102 -0.005468 -0.004187 0.004964 -0.001875 -0.006459
# 2 -0.005468 0.049651 0.010855 -0.027119 -0.008898 0.019613
# 3 -0.004187 0.010855 0.020665 -0.011911 -0.019846 0.013121
# 4 0.004964 -0.027119 -0.011911 0.069606 -0.007211 -0.014829
# 5 -0.001875 -0.008898 -0.019846 -0.007211 0.064314 -0.020530
# 6 -0.006459 0.019613 0.013121 -0.014829 -0.020530 0.066389
#
#
# Mechanical properties :
#
#
# Convention : Reuss Voigt Hill
#
# Bulk Modulus (GPa) = 12.22230 41.45551 26.83891
# Shear Modulus (GPa) = 16.41496 29.41858 22.91677
#
# Velocity S-wave (km/s) = 2.72493 3.64792 3.21967
# Velocity P-wave (km/s) = 3.92797 6.04113 5.09531
#
# Compressibility (1/GPa) = 0.08181763
#
# Stress axis : x y z
#
# Youngs Moduli (GPa) = 109.86883 20.14046 48.39090
#
# Poissons Ratio (x) = 0.11013 0.20262
# Poissons Ratio (y) = 0.60076 -0.52528
# Poissons Ratio (z) = 0.46004 -0.21862
#
# Static dielectric constant tensor:
#      x y z
#    x 1.832570 0.013080 0.013110 
#    y 0.013080 1.840130 -0.032600 
#    z 0.013110 -0.032600 1.904400 
# 
# From -- ./inp_files/151946.got.cif
#   From: 2010.05.17/outbox.cif.g08.bks.cpg/sg2_76_cif.got.tgz:151946.got - 2010.06.03 11:33:40.
