data_PCOD9074521
_publ_section_title
;
Structure prediction by ZEFSAII (Michael W. Deem and Ramdas Pophale) SiO2 
 PCOD9074521
Probable space group: P -1
;
_chemical_formula_sum "Si O2"
_cell_formula_units_Z 16
_cell_length_a 12.998931
_cell_length_b 10.101811
_cell_length_c 8.735041
_cell_angle_alpha 99.834884
_cell_angle_beta 75.623778
_cell_angle_gamma 41.195916
_cell_volume 606.030273
_symmetry_space_group_name_H-M "P -1"
_symmetry_group_IT_number 2
_symmetry_cell_setting 'triclinic'
loop_
_space_group_symop_operation_xyz
x,y,z
-x,-y,-z
loop_
_atom_site_type_symbol
_atom_site_label
_atom_site_fract_x
_atom_site_fract_y
_atom_site_fract_z
Si Si1 0.194638 0.975464 0.617078
Si Si2 0.935692 0.776661 0.678330
Si Si3 0.417695 0.659175 0.716698
Si Si4 0.290784 0.730732 0.248777
Si Si5 0.781233 0.483461 0.904052
Si Si6 0.673119 0.913814 0.559179
Si Si7 0.891100 0.511539 0.151193
Si Si8 0.629970 0.713881 0.705568
O O1 0.209406 0.906958 0.771482
O O2 0.184434 0.863303 0.479376
O O3 0.355527 0.909662 0.475501
O O4 0.004350 0.263722 0.735116
O O5 0.824598 0.788056 0.614438
O O6 0.957248 0.715251 0.834359
O O7 0.155421 0.551056 0.490315
O O8 0.801262 0.049563 0.765810
O O9 0.500000 0.500000 0.500000
O O10 0.490380 0.505727 0.810808
O O11 0.504311 0.715931 0.717593
O O12 0.258207 0.627274 0.153615
O O13 0.655111 0.701727 0.876215
O O14 0.773985 0.530312 0.092738
O O15 0.754473 0.737574 0.358346
O O16 0.549317 0.931829 0.698014
O O17 0.000000 0.500000 0.000000
#
# Coordination Sequence:
#
# PCOD9074521 Si02
#       8
#     2   2   2   2   2   2   2   2
#     4  10  18  32  51  80 103 136 171 218 251 304
#     4  10  19  32  56  81 106 132 170 222 260 301
#     4   9  20  31  51  79 104 137 176 216 252 301
#     4   9  19  33  52  75 104 135 176 211 260 300
#     4  11  19  30  55  79 105 137 170 214 261 306
#     4  10  19  33  55  80 109 131 171 219 263 301
#     4  11  19  31  49  84 108 130 168 217 263 311
#     4  10  18  32  52  81 102 137 169 213 262 303
#
# _framework density 26.401323000000001
#
# number of rings (size 3 to 8) (size 9 to 14) (size 15 to 20)
#    0.000    2.000    3.750    2.625    3.500    1.000 
#    0.000    0.000    0.000    3.750   32.500    0.000 
#    0.000    0.000    0.000    0.000    0.000    0.000 
#
# Total GULP energy -89308.150659 kJ/mol
# GULP energy per Si atom -5581.759416 kJ/mol
# Density = 2.634123 g / cm^3
# Si number density = 26.401323 Si / 1000 Ang^3
#
#
#
# Elastic Constant Matrix: (Units=GPa)
#
#
# Indices 1 2 3 4 5 6 
#
# 1 76.2515 40.7405 58.3649 -11.5489 34.2828 13.8058
# 2 40.7405 184.1876 55.3237 -54.8718 18.9990 16.6836
# 3 58.3649 55.3237 144.4796 -23.0680 42.5025 5.6762
# 4 -11.5489 -54.8718 -23.0680 55.0815 -6.8834 5.2086
# 5 34.2828 18.9990 42.5025 -6.8834 46.9762 -3.4843
# 6 13.8058 16.6836 5.6762 5.2086 -3.4843 31.1809
#
#
#
# Elastic Compliance Matrix: (Units=1/GPa)
#
#
# Indices 1 2 3 4 5 6 
#
# 1 0.027125 -0.001306 -0.005274 0.001441 -0.015196 -0.012290
# 2 -0.001306 0.009368 -0.001112 0.009028 -0.000941 -0.005845
# 3 -0.005274 -0.001112 0.011503 0.001886 -0.005842 -0.000131
# 4 0.001441 0.009028 0.001886 0.028905 -0.002988 -0.010974
# 5 -0.015196 -0.000941 -0.005842 -0.002988 0.038577 0.013105
# 6 -0.012290 -0.005845 -0.000131 -0.010974 0.013105 0.043961
#
#
# Mechanical properties :
#
#
# Convention : Reuss Voigt Hill
#
# Bulk Modulus (GPa) = 30.66416 79.30855 54.98635
# Shear Modulus (GPa) = 26.92614 43.34702 35.13658
#
# Velocity S-wave (km/s) = 3.19702 4.05637 3.65206
# Velocity P-wave (km/s) = 5.02670 7.21413 6.21737
#
# Compressibility (1/GPa) = 0.03261136
#
# Stress axis : x y z
#
# Youngs Moduli (GPa) = 36.86701 106.74489 86.93632
#
# Poissons Ratio (x) = 0.13936 0.45854
# Poissons Ratio (y) = 0.04813 0.09667
# Poissons Ratio (z) = 0.19445 0.11870
#
# Static dielectric constant tensor:
#      x y z
#    x 2.110380 -0.038370 -0.080400 
#    y -0.038370 2.223890 0.000220 
#    z -0.080400 0.000220 2.109290 
# 
# From -- ./inp_files/303680.got.cif
#   From: 2010.05.17/outbox.cif.g08.bks.cpg/sg2_152_cif.got.tgz:303680.got - 2010.06.03 11:33:40.
