data_PCOD9074185
_publ_section_title
;
Structure prediction by ZEFSAII (Michael W. Deem and Ramdas Pophale) SiO2 
 PCOD9074185
Probable space group: P -1
;
_chemical_formula_sum "Si O2"
_cell_formula_units_Z 16
_cell_length_a 9.000000
_cell_length_b 9.000000
_cell_length_c 21.000000
_cell_angle_alpha 60.000000
_cell_angle_beta 130.000000
_cell_angle_gamma 80.000000
_cell_volume 751.240448
_symmetry_space_group_name_H-M "P -1"
_symmetry_group_IT_number 2
_symmetry_cell_setting 'triclinic'
loop_
_space_group_symop_operation_xyz
x,y,z
-x,-y,-z
loop_
_atom_site_type_symbol
_atom_site_label
_atom_site_fract_x
_atom_site_fract_y
_atom_site_fract_z
Si Si1 0.847477 0.717943 0.604980
Si Si2 0.780808 0.420863 0.076983
Si Si3 0.779153 0.537587 0.358278
Si Si4 0.194501 0.721130 0.141553
Si Si5 0.134335 0.138168 0.656601
Si Si6 0.258156 0.928999 0.399894
Si Si7 0.726107 0.555980 0.901149
Si Si8 0.220856 0.257153 0.906056
O O1 0.591653 0.750465 0.509278
O O2 0.047601 0.633629 0.619535
O O3 0.049403 0.491593 0.760171
O O4 0.743201 0.964361 0.556330
O O5 0.726459 0.652540 0.037269
O O6 0.500000 0.500000 0.000000
O O7 0.795555 0.379298 0.014775
O O8 0.059674 0.162797 0.244924
O O9 0.477771 0.635303 0.261362
O O10 0.757303 0.760889 0.297707
O O11 0.970103 0.341323 0.510722
O O12 0.277512 0.530102 0.149853
O O13 0.998716 0.747978 0.132305
O O14 0.000000 0.000000 0.000000
O O15 0.902892 0.150500 0.619554
O O16 0.418521 0.848150 0.771714
O O17 0.000000 0.500000 0.000000
O O18 0.500000 0.000000 0.000000
#
# Coordination Sequence:
#
# PCOD9074185 Si02
#       8
#     2   2   2   2   2   2   2   2
#     4  10  23  41  68  97 128 174 225 273 331 399
#     4  11  24  42  66 102 131 175 221 272 330 403
#     4  11  26  44  66  99 134 175 227 274 340 393
#     4  12  26  45  69  99 136 177 225 278 335 402
#     4  11  25  45  65  96 136 177 222 281 330 401
#     4  10  22  43  67  95 133 172 226 272 330 397
#     4  12  25  43  70  98 137 179 224 276 335 395
#     4  11  25  43  67  96 136 175 218 274 333 397
#
# _framework density 21.298107999999999
#
# number of rings (size 3 to 8) (size 9 to 14) (size 15 to 20)
#    0.000    1.000    2.500    3.000    7.000    3.500 
#    0.000    0.000    0.000    0.000    0.000    0.000 
#    0.000    0.000    0.000    0.000    0.000    0.000 
#
# Total GULP energy -89267.594495 kJ/mol
# GULP energy per Si atom -5579.224656 kJ/mol
# Density = 2.124963 g / cm^3
# Si number density = 21.298108 Si / 1000 Ang^3
#
#
#
# Elastic Constant Matrix: (Units=GPa)
#
#
# Indices 1 2 3 4 5 6 
#
# 1 122.2347 9.8929 7.2906 6.9851 16.6507 11.0969
# 2 9.8929 54.6142 4.5461 3.8639 2.2515 12.5758
# 3 7.2906 4.5461 82.8712 5.6240 9.8476 -1.8981
# 4 6.9851 3.8639 5.6240 24.1174 9.0403 4.7184
# 5 16.6507 2.2515 9.8476 9.0403 34.7576 5.4173
# 6 11.0969 12.5758 -1.8981 4.7184 5.4173 37.6818
#
#
#
# Elastic Compliance Matrix: (Units=1/GPa)
#
#
# Indices 1 2 3 4 5 6 
#
# 1 0.008978 -0.001011 -0.000288 -0.000643 -0.003721 -0.001706
# 2 -0.001011 0.020150 -0.001157 -0.001775 0.000966 -0.006402
# 3 -0.000288 -0.001157 0.012701 -0.001852 -0.003185 0.001800
# 4 -0.000643 -0.001775 -0.001852 0.047107 -0.010733 -0.003667
# 5 -0.003721 0.000966 -0.003185 -0.010733 0.034656 -0.003026
# 6 -0.001706 -0.006402 0.001800 -0.003667 -0.003026 0.030162
#
#
# Mechanical properties :
#
#
# Convention : Reuss Voigt Hill
#
# Bulk Modulus (GPa) = 27.08750 33.68656 30.38703
# Shear Modulus (GPa) = 29.24466 35.17740 32.21103
#
# Velocity S-wave (km/s) = 3.70957 4.06848 3.89316
# Velocity P-wave (km/s) = 5.57618 6.15801 5.87430
#
# Compressibility (1/GPa) = 0.03691739
#
# Stress axis : x y z
#
# Youngs Moduli (GPa) = 111.37817 49.62874 78.73359
#
# Poissons Ratio (x) = 0.05016 0.02265
# Poissons Ratio (y) = 0.11258 0.09113
# Poissons Ratio (z) = 0.03204 0.05744
#
# Static dielectric constant tensor:
#      x y z
#    x 1.706200 0.007980 -0.028730 
#    y 0.007980 1.830550 0.041440 
#    z -0.028730 0.041440 1.790750 
# 
# From -- ./inp_files/559501.got.cif
#   From: 2010.05.17/outbox.ucp.g08.bks.cvg/sg2_280_cif.got.tgz:559501.got - 2010.06.11 11:32:03.
