data_PCOD9074648
_publ_section_title
;
Structure prediction by ZEFSAII (Michael W. Deem and Ramdas Pophale) SiO2 
 PCOD9074648
Probable space group: P -1
;
_chemical_formula_sum "Si O2"
_cell_formula_units_Z 16
_cell_length_a 15.000000
_cell_length_b 9.000000
_cell_length_c 15.000000
_cell_angle_alpha 50.000000
_cell_angle_beta 40.000000
_cell_angle_gamma 80.000000
_cell_volume 759.999475
_symmetry_space_group_name_H-M "P -1"
_symmetry_group_IT_number 2
_symmetry_cell_setting 'triclinic'
loop_
_space_group_symop_operation_xyz
x,y,z
-x,-y,-z
loop_
_atom_site_type_symbol
_atom_site_label
_atom_site_fract_x
_atom_site_fract_y
_atom_site_fract_z
Si Si1 0.011809 0.702986 0.321700
Si Si2 0.176118 0.121492 0.877954
Si Si3 0.565721 0.284790 0.844156
Si Si4 0.962501 0.723232 0.544962
Si Si5 0.424566 0.345704 0.425210
Si Si6 0.782784 0.507084 0.153083
Si Si7 0.280018 0.133628 0.276257
Si Si8 0.803922 0.096305 0.374531
O O1 0.788702 0.487321 0.585049
O O2 0.050026 0.841839 0.333979
O O3 0.084206 0.547449 0.320580
O O4 0.104926 0.896056 0.091884
O O5 0.332613 0.241434 0.634816
O O6 0.223008 0.345900 0.817823
O O7 0.000000 0.000000 0.000000
O O8 0.522487 0.390420 0.753017
O O9 0.459784 0.274444 0.019140
O O10 0.500000 0.000000 0.000000
O O11 0.796514 0.717865 0.699408
O O12 0.118154 0.894372 0.433322
O O13 0.610586 0.392728 0.266862
O O14 0.285332 0.132571 0.540364
O O15 0.766486 0.278723 0.296303
O O16 0.975183 0.712648 0.875223
O O17 0.275653 0.023406 0.419546
#
# Coordination Sequence:
#
# PCOD9074648 Si02
#       8
#     2   2   2   2   2   2   2   2
#     4  11  24  47  73 105 147 192 242 299 374 426
#     4  12  24  46  76 102 145 193 242 299 367 435
#     4  12  26  44  73 105 150 187 243 306 367 435
#     4  10  24  43  71 105 136 191 240 291 357 443
#     4  12  27  48  74 111 146 188 251 303 360 445
#     4  11  26  47  76 106 145 195 242 300 369 436
#     4  11  25  45  70 102 144 190 238 297 367 427
#     4  11  26  49  74 104 152 190 240 304 371 434
#
# _framework density 21.052645999999999
#
# number of rings (size 3 to 8) (size 9 to 14) (size 15 to 20)
#    0.000    0.750    3.750    2.250    8.750    2.000 
#    6.750    0.000    0.000    0.000    0.000    0.000 
#    0.000    0.000    0.000    0.000    0.000    0.000 
#
# Total GULP energy -89351.408966 kJ/mol
# GULP energy per Si atom -5584.463060 kJ/mol
# Density = 2.100473 g / cm^3
# Si number density = 21.052646 Si / 1000 Ang^3
#
#
#
# Elastic Constant Matrix: (Units=GPa)
#
#
# Indices 1 2 3 4 5 6 
#
# 1 104.5158 34.9285 49.1753 1.9707 30.0199 -11.5960
# 2 34.9285 121.3394 46.6957 7.7138 21.9760 -12.2015
# 3 49.1753 46.6957 140.5703 16.2069 31.0144 -9.8545
# 4 1.9707 7.7138 16.2069 45.1989 3.6655 5.4393
# 5 30.0199 21.9760 31.0144 3.6655 56.9012 2.8038
# 6 -11.5960 -12.2015 -9.8545 5.4393 2.8038 46.3604
#
#
#
# Elastic Compliance Matrix: (Units=1/GPa)
#
#
# Indices 1 2 3 4 5 6 
#
# 1 0.013130 -0.001578 -0.002913 0.000844 -0.004905 0.002447
# 2 -0.001578 0.010138 -0.002125 -0.000988 -0.001963 0.002057
# 3 -0.002913 -0.002125 0.009924 -0.002994 -0.002925 0.001350
# 4 0.000844 -0.000988 -0.002994 0.023732 0.000211 -0.003482
# 5 -0.004905 -0.001963 -0.002925 0.000211 0.022687 -0.003762
# 6 0.002447 0.002057 0.001350 -0.003482 -0.003762 0.023647
#
#
# Mechanical properties :
#
#
# Convention : Reuss Voigt Hill
#
# Bulk Modulus (GPa) = 50.09569 69.78048 59.93808
# Shear Modulus (GPa) = 40.60356 45.40050 43.00203
#
# Velocity S-wave (km/s) = 4.39642 4.64887 4.52441
# Velocity P-wave (km/s) = 7.04404 7.87615 7.47169
#
# Compressibility (1/GPa) = 0.01996180
#
# Stress axis : x y z
#
# Youngs Moduli (GPa) = 76.16011 98.63592 100.76687
#
# Poissons Ratio (x) = 0.15564 0.29350
# Poissons Ratio (y) = 0.12017 0.21410
# Poissons Ratio (z) = 0.22183 0.20957
#
# Static dielectric constant tensor:
#      x y z
#    x 1.823870 -0.005790 -0.035230 
#    y -0.005790 1.777400 -0.015770 
#    z -0.035230 -0.015770 1.774020 
# 
# From -- ./inp_files/529389.got.cif
#   From: 2010.05.17/outbox.ucp.g08.bks.cvg/sg2_265_cif.got.tgz:529389.got - 2010.06.11 11:32:03.
