data_PCOD9074701
_publ_section_title
;
Structure prediction by ZEFSAII (Michael W. Deem and Ramdas Pophale) SiO2 
 PCOD9074701
Probable space group: P -1
;
_chemical_formula_sum "Si O2"
_cell_formula_units_Z 13
_cell_length_a 12.000000
_cell_length_b 9.000000
_cell_length_c 18.000000
_cell_angle_alpha 130.000000
_cell_angle_beta 160.000000
_cell_angle_gamma 50.000000
_cell_volume 503.727372
_symmetry_space_group_name_H-M "P -1"
_symmetry_group_IT_number 2
_symmetry_cell_setting 'triclinic'
loop_
_space_group_symop_operation_xyz
x,y,z
-x,-y,-z
loop_
_atom_site_type_symbol
_atom_site_label
_atom_site_fract_x
_atom_site_fract_y
_atom_site_fract_z
Si Si1 0.560378 0.209549 0.572973
Si Si2 0.454511 0.806985 0.699954
Si Si3 0.000000 0.500000 0.000000
Si Si4 0.017281 0.463167 0.681381
Si Si5 0.325346 0.836963 0.799724
Si Si6 0.438392 0.050088 0.637580
Si Si7 0.557840 0.421790 0.882150
O O1 0.275837 0.374032 0.476570
O O2 0.500000 0.000000 0.500000
O O3 0.500155 0.156817 0.432752
O O4 0.892379 0.290816 0.828545
O O5 0.132864 0.722347 0.441788
O O6 0.362866 0.857471 0.742760
O O7 0.516159 0.991681 0.752286
O O8 0.750661 0.629403 0.828332
O O9 0.238444 0.410869 0.730561
O O10 0.185026 0.554495 0.884708
O O11 0.490550 0.619063 0.855621
O O12 0.942195 0.870971 0.591483
O O13 0.500000 0.000000 0.000000
O O14 0.622938 0.239319 0.807733
#
# Coordination Sequence:
#
# PCOD9074701 Si02
#       7
#     2   2   1   2   2   2   2
#     4  11  26  47  72 101 142 185 235 290 354 416
#     4  11  25  45  68 101 140 183 229 294 346 414
#     4  10  26  46  72  98 146 182 238 280 352 426
#     4  10  24  45  69  97 141 183 229 285 354 418
#     4  12  25  41  70 100 140 184 235 283 354 410
#     4  12  26  43  72 104 138 176 238 288 353 417
#     4  11  25  42  72 103 137 180 234 291 345 424
#
# _framework density 25.807611000000001
#
# number of rings (size 3 to 8) (size 9 to 14) (size 15 to 20)
#    0.000    0.923    1.538    3.692   10.769    4.308 
#    0.000    0.000    0.000    0.000    0.000    0.000 
#    0.000    0.000    0.000    0.000    0.000    0.000 
#
# Total GULP energy -72470.919129 kJ/mol
# GULP energy per Si atom -5574.686087 kJ/mol
# Density = 2.574887 g / cm^3
# Si number density = 25.807611 Si / 1000 Ang^3
#
#
#
# Elastic Constant Matrix: (Units=GPa)
#
#
# Indices 1 2 3 4 5 6 
#
# 1 76.6521 15.8674 19.9820 12.6017 -3.9328 7.0447
# 2 15.8674 118.8728 51.9650 44.3734 13.5608 22.4766
# 3 19.9820 51.9650 93.7064 17.1297 -12.4137 -19.7781
# 4 12.6017 44.3734 17.1297 30.7115 -25.7302 -27.8209
# 5 -3.9328 13.5608 -12.4137 -25.7302 18.1748 -3.9210
# 6 7.0447 22.4766 -19.7781 -27.8209 -3.9210 18.1559
#
#
#
# Elastic Compliance Matrix: (Units=1/GPa)
#
#
# Indices 1 2 3 4 5 6 
#
# 1 0.014052 -0.002080 -0.001675 0.001511 0.005321 -0.001238
# 2 -0.002080 0.004382 -0.000920 0.007052 0.007083 0.006714
# 3 -0.001675 -0.000920 0.012525 -0.009752 -0.005058 -0.000603
# 4 0.001511 0.007052 -0.009752 0.003552 -0.010168 -0.016692
# 5 0.005321 0.007083 -0.005058 -0.010168 0.027430 -0.025999
# 6 -0.001238 0.006714 -0.000603 -0.016692 -0.025999 0.015396
#
#
# Mechanical properties :
#
#
# Convention : Reuss Voigt Hill
#
# Bulk Modulus (GPa) = 46.28110 51.65112 48.96611
# Shear Modulus (GPa) = 53.25331 26.83623 40.04477
#
# Velocity S-wave (km/s) = 4.54747 3.22818 3.94339
# Velocity P-wave (km/s) = 6.74869 5.82685 6.30464
#
# Compressibility (1/GPa) = 0.02160709
#
# Stress axis : x y z
#
# Youngs Moduli (GPa) = 71.16607 228.18315 79.84256
#
# Poissons Ratio (x) = 0.47468 0.13376
# Poissons Ratio (y) = 0.14805 0.07347
# Poissons Ratio (z) = 0.11923 0.20998
#
# Static dielectric constant tensor:
#      x y z
#    x 2.511340 -0.183490 -0.095700 
#    y -0.183490 1.856820 0.039320 
#    z -0.095700 0.039320 2.173000 
# 
# From -- ./inp_files/159441.got.cif
#   From: 2010.05.17/outbox.ucp.g08.bks.cvg/sg2_80_cif.got.tgz:159441.got - 2010.06.11 11:32:03.
