data_PCOD9074748
_publ_section_title
;
Structure prediction by ZEFSAII (Michael W. Deem and Ramdas Pophale) SiO2 
 PCOD9074748
Probable space group: P -1
;
_chemical_formula_sum "Si O2"
_cell_formula_units_Z 16
_cell_length_a 6.000000
_cell_length_b 21.000000
_cell_length_c 21.000000
_cell_angle_alpha 160.000000
_cell_angle_beta 70.000000
_cell_angle_gamma 100.000000
_cell_volume 755.224245
_symmetry_space_group_name_H-M "P -1"
_symmetry_group_IT_number 2
_symmetry_cell_setting 'triclinic'
loop_
_space_group_symop_operation_xyz
x,y,z
-x,-y,-z
loop_
_atom_site_type_symbol
_atom_site_label
_atom_site_fract_x
_atom_site_fract_y
_atom_site_fract_z
Si Si1 0.408847 0.768534 0.476712
Si Si2 0.592522 0.097366 0.179995
Si Si3 0.866755 0.763374 0.064897
Si Si4 0.334373 0.480315 0.660911
Si Si5 0.767176 0.127130 0.048879
Si Si6 0.880608 0.798273 0.377521
Si Si7 0.616643 0.502296 0.884547
Si Si8 0.031840 0.792961 0.222791
O O1 0.463361 0.623000 0.396437
O O2 0.662655 0.779770 0.427544
O O3 0.303039 0.674830 0.343421
O O4 0.217929 0.006955 0.737654
O O5 0.410415 0.285415 0.422409
O O6 0.654270 0.167253 0.170338
O O7 0.398988 0.987440 0.076689
O O8 0.900359 0.978829 0.071254
O O9 0.961795 0.771626 0.136226
O O10 0.631105 0.701516 0.039535
O O11 0.065939 0.592229 0.835272
O O12 0.322241 0.665963 0.791445
O O13 0.160729 0.597337 0.177222
O O14 0.834512 0.807588 0.314118
O O15 0.923246 0.001146 0.580220
O O16 0.312920 0.588377 0.015321
#
# Coordination Sequence:
#
# PCOD9074748 Si02
#       8
#     2   2   2   2   2   2   2   2
#     4  12  26  43  64  97 135 174 229 284 345 419
#     4  10  24  48  77 112 149 187 237 289 340 414
#     4  12  26  43  64  97 135 174 229 284 345 419
#     4  12  25  44  71 102 138 192 222 284 353 424
#     4  10  24  48  77 112 149 187 237 289 340 414
#     4  11  24  43  67  93 126 174 232 293 351 411
#     4  12  23  44  68  90 125 178 224 282 355 418
#     4  11  24  43  67  93 126 174 232 293 351 411
#
# _framework density 21.185760999999999
#
# number of rings (size 3 to 8) (size 9 to 14) (size 15 to 20)
#    0.000    0.750    5.000    1.500    0.000    9.500 
#    0.000    3.750    0.000    0.000    0.000    0.000 
#    0.000    0.000    0.000    0.000    0.000    0.000 
#
# Total GULP energy -89165.530955 kJ/mol
# GULP energy per Si atom -5572.845685 kJ/mol
# Density = 2.113754 g / cm^3
# Si number density = 21.185761 Si / 1000 Ang^3
#
#
#
# Elastic Constant Matrix: (Units=GPa)
#
#
# Indices 1 2 3 4 5 6 
#
# 1 84.2216 36.6045 26.5629 0.4610 8.2817 -5.2056
# 2 36.6045 136.2071 42.7958 -2.9238 12.4994 -25.1208
# 3 26.5629 42.7958 103.4693 -5.7093 3.2972 -5.3116
# 4 0.4610 -2.9238 -5.7093 43.7363 -5.4065 2.3775
# 5 8.2817 12.4994 3.2972 -5.4065 32.7223 8.2315
# 6 -5.2056 -25.1208 -5.3116 2.3775 8.2315 16.8509
#
#
#
# Elastic Compliance Matrix: (Units=1/GPa)
#
#
# Indices 1 2 3 4 5 6 
#
# 1 0.014126 -0.002518 -0.002481 -0.001074 -0.002891 0.001392
# 2 -0.002518 0.015317 -0.004056 -0.002428 -0.011992 0.026978
# 3 -0.002481 -0.004056 0.011769 0.001841 0.002441 -0.004555
# 4 -0.001074 -0.002428 0.001841 0.024485 0.007726 -0.010600
# 5 -0.002891 -0.011992 0.002441 0.007726 0.047549 -0.042319
# 6 0.001392 0.026978 -0.004555 -0.010600 -0.042319 0.120724
#
#
# Mechanical properties :
#
#
# Convention : Reuss Voigt Hill
#
# Bulk Modulus (GPa) = 43.28353 59.53604 51.40979
# Shear Modulus (GPa) = 19.24711 33.19089 26.21900
#
# Velocity S-wave (km/s) = 3.01739 3.96240 3.52174
# Velocity P-wave (km/s) = 5.71090 7.00693 6.39185
#
# Compressibility (1/GPa) = 0.02310347
#
# Stress axis : x y z
#
# Youngs Moduli (GPa) = 70.78934 65.28840 84.96909
#
# Poissons Ratio (x) = 0.16439 0.21079
# Poissons Ratio (y) = 0.17824 0.34460
# Poissons Ratio (z) = 0.17562 0.26478
#
# Static dielectric constant tensor:
#      x y z
#    x 1.801820 -0.001770 -0.018380 
#    y -0.001770 1.760770 0.015420 
#    z -0.018380 0.015420 1.809080 
# 
# From -- ./inp_files/584273.got.cif
#   From: 2010.05.17/outbox.ucp.g08.bks.cvg/sg2_293_cif.got.tgz:584273.got - 2010.06.11 11:32:03.
