data_PCOD9074316
_publ_section_title
;
Structure prediction by ZEFSAII (Michael W. Deem and Ramdas Pophale) SiO2 
 PCOD9074316
Probable space group: P -1
;
_chemical_formula_sum "Si O2"
_cell_formula_units_Z 15
_cell_length_a 10.150538
_cell_length_b 5.167318
_cell_length_c 19.547502
_cell_angle_alpha 89.052912
_cell_angle_beta 134.017836
_cell_angle_gamma 105.090533
_cell_volume 691.644483
_symmetry_space_group_name_H-M "P -1"
_symmetry_group_IT_number 2
_symmetry_cell_setting 'triclinic'
loop_
_space_group_symop_operation_xyz
x,y,z
-x,-y,-z
loop_
_atom_site_type_symbol
_atom_site_label
_atom_site_fract_x
_atom_site_fract_y
_atom_site_fract_z
Si Si1 0.602069 0.899056 0.789990
Si Si2 0.478111 0.418933 0.381797
Si Si3 0.975736 0.135965 0.698409
Si Si4 0.147845 0.464383 0.109311
Si Si5 0.131413 0.268273 0.508079
Si Si6 0.944191 0.611855 0.769155
Si Si7 0.175492 0.569066 0.661878
Si Si8 0.500000 0.000000 0.500000
O O1 0.577420 0.780202 0.703677
O O2 0.746628 0.750936 0.873321
O O3 0.391153 0.782174 0.751157
O O4 0.692241 0.229239 0.821869
O O5 0.651923 0.711210 0.433075
O O6 0.288369 0.490146 0.329610
O O7 0.551630 0.262216 0.466533
O O8 0.018324 0.379635 0.768523
O O9 0.110301 0.288874 0.682635
O O10 0.025328 0.892794 0.754875
O O11 0.744291 0.040623 0.597463
O O12 0.041433 0.362265 0.143978
O O13 0.000000 0.500000 0.000000
O O14 0.178999 0.502784 0.582605
O O15 0.005507 0.321303 0.400746
O O16 0.000000 0.000000 0.500000
#
# Coordination Sequence:
#
# PCOD9074316 Si02
#       8
#     2   2   2   2   2   2   2   1
#     4  10  23  38  63  90 121 150 193 251 302 353
#     4   9  19  36  52  84 119 157 203 243 286 329
#     4  11  23  37  56  83 123 165 201 236 286 342
#     4  11  22  43  70  93 112 143 192 253 319 373
#     4  10  21  35  55  80 117 166 219 247 268 331
#     4  10  23  38  58  85 117 152 192 254 295 352
#     4  10  23  37  54  85 120 169 204 245 288 342
#     4  10  18  32  50  76 114 160 204 226 272 324
#
# _framework density 21.687442000000001
#
# number of rings (size 3 to 8) (size 9 to 14) (size 15 to 20)
#    0.000    1.867    1.333    2.800    7.467    3.200 
#    0.000    0.000    0.000    4.800    0.000    0.000 
#    0.000    0.000    0.000    0.000    0.000    0.000 
#
# Total GULP energy -83564.768474 kJ/mol
# GULP energy per Si atom -5570.984565 kJ/mol
# Density = 2.163808 g / cm^3
# Si number density = 21.687442 Si / 1000 Ang^3
#
#
#
# Elastic Constant Matrix: (Units=GPa)
#
#
# Indices 1 2 3 4 5 6 
#
# 1 30.1543 9.3602 6.6887 1.8792 -9.1972 10.3851
# 2 9.3602 102.0470 7.1331 -4.8590 -2.9158 23.5247
# 3 6.6887 7.1331 72.3349 -23.0728 -11.0761 15.0479
# 4 1.8792 -4.8590 -23.0728 30.0343 3.8691 -2.5952
# 5 -9.1972 -2.9158 -11.0761 3.8691 17.3019 -0.8444
# 6 10.3851 23.5247 15.0479 -2.5952 -0.8444 32.8781
#
#
#
# Elastic Compliance Matrix: (Units=1/GPa)
#
#
# Indices 1 2 3 4 5 6 
#
# 1 0.046533 -0.000595 0.000367 -0.007290 0.025800 -0.014353
# 2 -0.000595 0.011956 0.001759 0.002309 0.001872 -0.008941
# 3 0.000367 0.001759 0.022157 0.015020 0.010826 -0.010052
# 4 -0.007290 0.002309 0.015020 0.045982 -0.004285 -0.002705
# 5 0.025800 0.001872 0.010826 -0.004285 0.079094 -0.012751
# 6 -0.014353 -0.008941 -0.010052 -0.002705 -0.012751 0.045407
#
#
# Mechanical properties :
#
#
# Convention : Reuss Voigt Hill
#
# Bulk Modulus (GPa) = 11.94627 27.87781 19.91204
# Shear Modulus (GPa) = 18.11814 28.13313 23.12564
#
# Velocity S-wave (km/s) = 2.89350 3.60559 3.26899
# Velocity P-wave (km/s) = 4.08454 5.49690 4.84249
#
# Compressibility (1/GPa) = 0.08370816
#
# Stress axis : x y z
#
# Youngs Moduli (GPa) = 21.49035 83.64221 45.13268
#
# Poissons Ratio (x) = 0.04976 -0.01657
# Poissons Ratio (y) = 0.01279 -0.07940
# Poissons Ratio (z) = -0.00789 -0.14716
#
# Static dielectric constant tensor:
#      x y z
#    x 1.679180 0.054340 0.029890 
#    y 0.054340 1.821310 0.018750 
#    z 0.029890 0.018750 1.787290 
# 
# From -- ./inp_files/84967.got.cif
#   From: 2010.05.17/outbox.cif.g08.bks.cpg/sg2_43_cif.got.tgz:84967.got - 2010.06.03 11:33:40.
