data_PCOD9074387
_publ_section_title
;
Structure prediction by ZEFSAII (Michael W. Deem and Ramdas Pophale) SiO2 
 PCOD9074387
Probable space group: P -1
;
_chemical_formula_sum "Si O2"
_cell_formula_units_Z 14
_cell_length_a 12.000000
_cell_length_b 9.000000
_cell_length_c 21.000000
_cell_angle_alpha 140.000000
_cell_angle_beta 150.000000
_cell_angle_gamma 60.000000
_cell_volume 627.666119
_symmetry_space_group_name_H-M "P -1"
_symmetry_group_IT_number 2
_symmetry_cell_setting 'triclinic'
loop_
_space_group_symop_operation_xyz
x,y,z
-x,-y,-z
loop_
_atom_site_type_symbol
_atom_site_label
_atom_site_fract_x
_atom_site_fract_y
_atom_site_fract_z
Si Si1 0.226380 0.906728 0.975805
Si Si2 0.025978 0.748607 0.024258
Si Si3 0.023262 0.018938 0.395793
Si Si4 0.289599 0.564731 0.988548
Si Si5 0.267897 0.764321 0.740445
Si Si6 0.790339 0.529650 0.261758
Si Si7 0.431243 0.813216 0.342788
O O1 0.359650 0.830700 0.072254
O O2 0.102540 0.629215 0.781108
O O3 0.045799 0.019700 0.948819
O O4 0.472601 0.141517 0.138831
O O5 0.256731 0.879560 0.232434
O O6 0.130272 0.601418 0.979432
O O7 0.760919 0.497344 0.836827
O O8 0.032372 0.187658 0.518773
O O9 0.312439 0.143612 0.552021
O O10 0.831424 0.029488 0.252005
O O11 0.901319 0.700185 0.234367
O O12 0.550533 0.557891 0.127538
O O13 0.324441 0.692902 0.813007
O O14 0.000000 0.500000 0.500000
O O15 0.500000 0.000000 0.500000
#
# Coordination Sequence:
#
# PCOD9074387 Si02
#       7
#     2   2   2   2   2   2   2
#     4  12  26  44  68 102 138 180 220 275 347 395
#     4  11  25  44  69  97 139 177 223 277 336 394
#     4  11  23  43  68 104 132 174 228 279 333 395
#     4  12  25  46  67  97 143 181 220 274 335 410
#     4  10  23  41  69 101 131 168 226 285 326 394
#     4  11  24  44  70  96 139 173 226 278 331 396
#     4  11  23  41  73 102 130 177 229 276 333 399
#
# _framework density 22.304852
#
# number of rings (size 3 to 8) (size 9 to 14) (size 15 to 20)
#    0.000    0.857    4.286    3.000    4.000    0.571 
#    2.571    0.714    0.000    0.000    0.000    0.000 
#    0.000    0.000    0.000    0.000    0.000    0.000 
#
# Total GULP energy -77951.652896 kJ/mol
# GULP energy per Si atom -5567.975207 kJ/mol
# Density = 2.225409 g / cm^3
# Si number density = 22.304852 Si / 1000 Ang^3
#
#
#
# Elastic Constant Matrix: (Units=GPa)
#
#
# Indices 1 2 3 4 5 6 
#
# 1 51.4449 20.1006 27.7149 10.1498 17.7547 -29.1032
# 2 20.1006 131.7057 17.8246 -1.8586 3.1566 -23.8244
# 3 27.7149 17.8246 93.6678 -5.1793 -23.4341 -16.7353
# 4 10.1498 -1.8586 -5.1793 26.7649 -8.9704 0.4694
# 5 17.7547 3.1566 -23.4341 -8.9704 4.6577 12.3045
# 6 -29.1032 -23.8244 -16.7353 0.4694 12.3045 46.0630
#
#
#
# Elastic Compliance Matrix: (Units=1/GPa)
#
#
# Indices 1 2 3 4 5 6 
#
# 1 0.005925 -0.002589 0.005078 0.007201 0.025655 -0.002677
# 2 -0.002589 0.008438 -0.000061 0.001839 0.000972 0.002428
# 3 0.005078 -0.000061 0.007975 -0.003989 -0.010285 0.008862
# 4 0.007201 0.001839 -0.003989 0.027689 -0.018340 0.008668
# 5 0.025655 0.000972 -0.010285 -0.018340 -0.019001 0.018238
# 6 -0.002677 0.002428 0.008862 0.008668 0.018238 0.019533
#
#
# Mechanical properties :
#
#
# Convention : Reuss Voigt Hill
#
# Bulk Modulus (GPa) = 36.77339 45.34431 41.05885
# Shear Modulus (GPa) = 91.29445 29.57569 60.43507
#
# Velocity S-wave (km/s) = 6.40462 3.64535 5.21094
# Velocity P-wave (km/s) = 8.43888 6.17183 7.39278
#
# Compressibility (1/GPa) = 0.02719358
#
# Stress axis : x y z
#
# Youngs Moduli (GPa) = 168.76436 118.51320 125.39518
#
# Poissons Ratio (x) = 0.30683 -0.63671
# Poissons Ratio (y) = 0.43693 0.00764
# Poissons Ratio (z) = -0.85693 0.00722
#
# Static dielectric constant tensor:
#      x y z
#    x 1.980760 0.128300 -0.045700 
#    y 0.128300 1.940090 0.056760 
#    z -0.045700 0.056760 1.850880 
# 
# From -- ./inp_files/346272.got.cif
#   From: 2010.05.17/outbox.ucp.g08.bks.cvg/sg2_174_cif.got.tgz:346272.got - 2010.06.11 11:32:03.
