data_PCOD9074556
_publ_section_title
;
Structure prediction by ZEFSAII (Michael W. Deem and Ramdas Pophale) SiO2 
 PCOD9074556
Probable space group: P -1
;
_chemical_formula_sum "Si O2"
_cell_formula_units_Z 15
_cell_length_a 15.000000
_cell_length_b 9.000000
_cell_length_c 12.000000
_cell_angle_alpha 130.000000
_cell_angle_beta 30.000000
_cell_angle_gamma 120.000000
_cell_volume 613.666794
_symmetry_space_group_name_H-M "P -1"
_symmetry_group_IT_number 2
_symmetry_cell_setting 'triclinic'
loop_
_space_group_symop_operation_xyz
x,y,z
-x,-y,-z
loop_
_atom_site_type_symbol
_atom_site_label
_atom_site_fract_x
_atom_site_fract_y
_atom_site_fract_z
Si Si1 0.414269 0.753368 0.873050
Si Si2 0.080884 0.435246 0.591773
Si Si3 0.866460 0.175915 0.168993
Si Si4 0.410760 0.302646 0.006752
Si Si5 0.944832 0.209018 0.848355
Si Si6 0.681973 0.629705 0.103288
Si Si7 0.500000 0.000000 0.500000
Si Si8 0.700089 0.998507 0.671180
O O1 0.417349 0.545356 0.829803
O O2 0.614106 0.797728 0.653417
O O3 0.265029 0.776238 0.949257
O O4 0.330579 0.920308 0.131840
O O5 0.157717 0.631466 0.635984
O O6 0.227501 0.325677 0.291789
O O7 0.027807 0.324390 0.709822
O O8 0.880753 0.520466 0.804126
O O9 0.672320 0.109878 0.334145
O O10 0.942217 0.245557 0.001597
O O11 0.000000 0.000000 0.000000
O O12 0.500000 0.500000 0.000000
O O13 0.389492 0.251899 0.874741
O O14 0.564003 0.145160 0.816204
O O15 0.090480 0.011326 0.588205
O O16 0.645525 0.813083 0.313098
#
# Coordination Sequence:
#
# PCOD9074556 Si02
#       8
#     2   2   2   2   2   2   1   2
#     4  10  23  46  68 108 148 192 244 291 368 429
#     4  11  25  51  70 104 151 192 247 300 363 435
#     4  12  28  48  74 105 143 192 245 303 366 433
#     4  12  25  42  75 110 146 191 242 301 365 428
#     4  11  27  46  74 105 145 195 242 301 362 439
#     4  11  25  46  74 108 144 199 240 305 361 431
#     4  12  28  48  74 104 150 188 246 302 364 434
#     4  11  24  42  74 106 146 196 235 302 361 433
#
# _framework density 24.443231999999998
#
# number of rings (size 3 to 8) (size 9 to 14) (size 15 to 20)
#    0.000    0.800    2.667    3.600    7.467    1.067 
#    0.000    1.333    0.000    0.000    0.000    0.000 
#    0.000    0.000    0.000    0.000    0.000    0.000 
#
# Total GULP energy -83585.044773 kJ/mol
# GULP energy per Si atom -5572.336318 kJ/mol
# Density = 2.438760 g / cm^3
# Si number density = 24.443232 Si / 1000 Ang^3
#
#
#
# Elastic Constant Matrix: (Units=GPa)
#
#
# Indices 1 2 3 4 5 6 
#
# 1 91.5734 3.0946 -8.6518 1.2949 -19.8892 -29.1510
# 2 3.0946 113.3718 -11.2368 -6.6488 -6.2663 -4.5904
# 3 -8.6518 -11.2368 42.9994 -5.0206 -20.3695 -22.2567
# 4 1.2949 -6.6488 -5.0206 35.1407 -6.0625 -2.2147
# 5 -19.8892 -6.2663 -20.3695 -6.0625 33.8610 -2.2457
# 6 -29.1510 -4.5904 -22.2567 -2.2147 -2.2457 36.6699
#
#
#
# Elastic Compliance Matrix: (Units=1/GPa)
#
#
# Indices 1 2 3 4 5 6 
#
# 1 -0.006084 -0.006188 -0.030997 -0.011765 -0.027249 -0.026804
# 2 -0.006188 0.007096 -0.008993 -0.001861 -0.008737 -0.010137
# 3 -0.030997 -0.008993 -0.038821 -0.018105 -0.050013 -0.053486
# 4 -0.011765 -0.001861 -0.018105 0.021997 -0.015548 -0.020198
# 5 -0.027249 -0.008737 -0.050013 -0.015548 -0.024644 -0.055559
# 6 -0.026804 -0.010137 -0.053486 -0.020198 -0.055559 -0.032392
#
#
# Mechanical properties :
#
#
# Convention : Reuss Voigt Hill
#
# Bulk Modulus (GPa) = -7.68256 23.81742 8.06743
# Shear Modulus (GPa) = -209.36644 38.78356 -85.29144
#
# Velocity S-wave (km/s) = -9.26499 3.98764 -5.91350
# Velocity P-wave (km/s) = 10.84451 5.56478 6.58166
#
# Compressibility (1/GPa) = -0.13016496
#
# Stress axis : x y z
#
# Youngs Moduli (GPa) = -164.37204 140.93217 -25.75908
#
# Poissons Ratio (x) = 0.87203 -0.79845
# Poissons Ratio (y) = -1.01706 -0.23166
# Poissons Ratio (z) = -5.09501 1.26746
#
# Static dielectric constant tensor:
#      x y z
#    x 1.938430 -0.053310 -0.154440 
#    y -0.053310 1.995460 -0.026570 
#    z -0.154440 -0.026570 1.809220 
# 
# From -- ./inp_files/448133.got.cif
#   From: 2010.05.17/outbox.ucp.g08.bks.cvg/sg2_225_cif.got.tgz:448133.got - 2010.06.11 11:32:03.
