data_PCOD9074160
_publ_section_title
;
Structure prediction by ZEFSAII (Michael W. Deem and Ramdas Pophale) SiO2 
 PCOD9074160
Probable space group: P -1
;
_chemical_formula_sum "Si O2"
_cell_formula_units_Z 16
_cell_length_a 9.000000
_cell_length_b 27.000000
_cell_length_c 15.000000
_cell_angle_alpha 160.000000
_cell_angle_beta 130.000000
_cell_angle_gamma 40.000000
_cell_volume 750.501489
_symmetry_space_group_name_H-M "P -1"
_symmetry_group_IT_number 2
_symmetry_cell_setting 'triclinic'
loop_
_space_group_symop_operation_xyz
x,y,z
-x,-y,-z
loop_
_atom_site_type_symbol
_atom_site_label
_atom_site_fract_x
_atom_site_fract_y
_atom_site_fract_z
Si Si1 0.947758 0.075845 0.209516
Si Si2 0.607432 0.490350 0.619799
Si Si3 0.840947 0.127751 0.874694
Si Si4 0.259456 0.221473 0.613224
Si Si5 0.187792 0.123510 0.694267
Si Si6 0.992313 0.510320 0.862648
Si Si7 0.416328 0.321700 0.382756
Si Si8 0.951032 0.726630 0.920556
O O1 0.657218 0.179875 0.294811
O O2 0.059362 0.186178 0.455074
O O3 0.092075 0.922404 0.081610
O O4 0.000000 0.000000 0.000000
O O5 0.500000 0.500000 0.500000
O O6 0.881621 0.422613 0.619561
O O7 0.541781 0.384351 0.474872
O O8 0.444829 0.698303 0.945130
O O9 0.875650 0.970506 0.561196
O O10 0.985079 0.197386 0.007378
O O11 0.246116 0.332518 0.707294
O O12 0.517554 0.030214 0.425341
O O13 0.159831 0.365859 0.899743
O O14 0.067405 0.327187 0.951931
O O15 0.065977 0.169624 0.822388
O O16 0.300250 0.244564 0.149982
O O17 0.175601 0.508052 0.648176
#
# Coordination Sequence:
#
# PCOD9074160 Si02
#       8
#     2   2   2   2   2   2   2   2
#     4  12  23  41  66 100 131 166 214 286 342 389
#     4  11  20  37  63  93 126 168 210 271 340 394
#     4  11  24  40  65  93 130 175 218 269 330 392
#     4  11  23  40  65  99 136 165 213 279 341 395
#     4  12  22  44  66  97 137 174 219 270 330 404
#     4  11  22  38  65  97 133 173 209 274 344 390
#     4  10  22  43  61  89 131 165 223 273 308 399
#     4  10  24  44  65  88 126 186 222 260 323 390
#
# _framework density 21.319078000000001
#
# number of rings (size 3 to 8) (size 9 to 14) (size 15 to 20)
#    0.000    1.000    3.750    3.750    0.000    0.500 
#    2.250    0.625    0.000    0.000    0.000    0.000 
#    0.000    0.000    0.000    0.000    0.000    0.000 
#
# Total GULP energy -89161.866531 kJ/mol
# GULP energy per Si atom -5572.616658 kJ/mol
# Density = 2.127056 g / cm^3
# Si number density = 21.319078 Si / 1000 Ang^3
#
#
#
# Elastic Constant Matrix: (Units=GPa)
#
#
# Indices 1 2 3 4 5 6 
#
# 1 18.3473 20.3229 17.0260 7.3070 3.7014 11.1960
# 2 20.3229 117.4373 33.6877 2.5220 14.9743 2.6414
# 3 17.0260 33.6877 65.7088 -17.0214 6.6400 1.6355
# 4 7.3070 2.5220 -17.0214 50.4514 9.9558 2.8980
# 5 3.7014 14.9743 6.6400 9.9558 25.3831 -0.0220
# 6 11.1960 2.6414 1.6355 2.8980 -0.0220 37.2431
#
#
#
# Elastic Compliance Matrix: (Units=1/GPa)
#
#
# Indices 1 2 3 4 5 6 
#
# 1 0.134263 -0.012519 -0.036461 -0.030950 0.009453 -0.035459
# 2 -0.012519 0.011820 -0.002003 0.001400 -0.005170 0.002901
# 3 -0.036461 -0.002003 0.030668 0.016846 -0.008124 0.008441
# 4 -0.030950 0.001400 0.016846 0.032209 -0.013348 0.005951
# 5 0.009453 -0.005170 -0.008124 -0.013348 0.048427 -0.001051
# 6 -0.035459 0.002901 0.008441 0.005951 -0.001051 0.036470
#
#
# Mechanical properties :
#
#
# Convention : Reuss Voigt Hill
#
# Bulk Modulus (GPa) = 13.37169 38.17406 25.77287
# Shear Modulus (GPa) = 11.88346 31.31266 21.59806
#
# Velocity S-wave (km/s) = 2.36351 3.83660 3.18635
# Velocity P-wave (km/s) = 3.70595 6.12951 5.06483
#
# Compressibility (1/GPa) = 0.07478486
#
# Stress axis : x y z
#
# Youngs Moduli (GPa) = 7.44806 84.60112 32.60732
#
# Poissons Ratio (x) = 1.05910 1.18890
# Poissons Ratio (y) = 0.09324 0.06532
# Poissons Ratio (z) = 0.27157 0.16948
#
# Static dielectric constant tensor:
#      x y z
#    x 1.787510 -0.006900 0.007940 
#    y -0.006900 1.576770 0.023790 
#    z 0.007940 0.023790 1.811880 
# 
# From -- ./inp_files/272096.got.cif
#   From: 2010.05.17/outbox.ucp.g08.bks.cvg/sg2_137_cif.got.tgz:272096.got - 2010.06.11 11:32:03.
