data_PCOD9074176
_publ_section_title
;
Structure prediction by ZEFSAII (Michael W. Deem and Ramdas Pophale) SiO2 
 PCOD9074176
Probable space group: P -1
;
_chemical_formula_sum "Si O2"
_cell_formula_units_Z 14
_cell_length_a 9.000000
_cell_length_b 12.000000
_cell_length_c 9.000000
_cell_angle_alpha 50.000000
_cell_angle_beta 120.000000
_cell_angle_gamma 100.000000
_cell_volume 628.643806
_symmetry_space_group_name_H-M "P -1"
_symmetry_group_IT_number 2
_symmetry_cell_setting 'triclinic'
loop_
_space_group_symop_operation_xyz
x,y,z
-x,-y,-z
loop_
_atom_site_type_symbol
_atom_site_label
_atom_site_fract_x
_atom_site_fract_y
_atom_site_fract_z
Si Si1 0.159775 0.579033 0.468867
Si Si2 0.805407 0.297722 0.950119
Si Si3 0.861474 0.929357 0.687392
Si Si4 0.513794 0.407922 0.934634
Si Si5 0.060039 0.149066 0.736774
Si Si6 0.297624 0.992979 0.760272
Si Si7 0.377174 0.112986 0.148558
O O1 0.177960 0.628904 0.264761
O O2 0.347188 0.479654 0.689103
O O3 0.000000 0.500000 0.500000
O O4 0.109358 0.721060 0.430832
O O5 0.691160 0.397177 0.936008
O O6 0.008446 0.226940 0.153390
O O7 0.707827 0.156275 0.020470
O O8 0.811002 0.018259 0.434657
O O9 0.683938 0.923365 0.688749
O O10 0.975333 0.007864 0.787480
O O11 0.500000 0.500000 0.000000
O O12 0.478000 0.246452 0.094086
O O13 0.191017 0.136505 0.672384
O O14 0.191318 0.154129 0.933871
O O15 0.490190 0.002210 0.792265
#
# Coordination Sequence:
#
# PCOD9074176 Si02
#       7
#     2   2   2   2   2   2   2
#     4  12  24  45  67  94 130 172 223 264 312 395
#     4  10  22  43  66  92 129 167 218 266 321 379
#     4  11  22  42  68  98 130 168 211 275 324 379
#     4  11  26  45  67  94 132 174 216 269 320 381
#     4  11  22  40  66  93 130 168 214 259 331 378
#     4  10  24  39  67  96 134 163 212 273 327 376
#     4  11  22  44  62  99 130 165 221 264 319 388
#
# _framework density 22.270163
#
# number of rings (size 3 to 8) (size 9 to 14) (size 15 to 20)
#    0.000    1.143    2.857    3.429    8.000    0.000 
#    2.571    1.429    0.000    0.000    0.000    0.000 
#    0.000    0.000    0.000    0.000    0.000    0.000 
#
# Total GULP energy -78052.802737 kJ/mol
# GULP energy per Si atom -5575.200196 kJ/mol
# Density = 2.221948 g / cm^3
# Si number density = 22.270163 Si / 1000 Ang^3
#
#
#
# Elastic Constant Matrix: (Units=GPa)
#
#
# Indices 1 2 3 4 5 6 
#
# 1 182.5552 40.5652 47.8824 -18.4500 -0.4808 -30.1982
# 2 40.5652 68.8193 21.1135 5.2579 -13.0024 -23.4091
# 3 47.8824 21.1135 82.1804 0.9846 -8.1051 -1.4107
# 4 -18.4500 5.2579 0.9846 12.4052 -7.6721 13.1013
# 5 -0.4808 -13.0024 -8.1051 -7.6721 43.7180 -1.0787
# 6 -30.1982 -23.4091 -1.4107 13.1013 -1.0787 36.8595
#
#
#
# Elastic Compliance Matrix: (Units=1/GPa)
#
#
# Indices 1 2 3 4 5 6 
#
# 1 0.010186 -0.009507 -0.003834 0.028899 0.001446 -0.008069
# 2 -0.009507 0.046811 -0.004632 -0.092410 -0.001912 0.054553
# 3 -0.003834 -0.004632 0.015627 0.003043 0.001851 -0.006513
# 4 0.028899 -0.092410 0.003043 0.347948 0.030569 -0.157676
# 5 0.001446 -0.001912 0.001851 0.030569 0.027782 -0.010011
# 6 -0.008069 0.054553 -0.006513 -0.157676 -0.010011 0.110667
#
#
# Mechanical properties :
#
#
# Convention : Reuss Voigt Hill
#
# Bulk Modulus (GPa) = 27.26546 61.40858 44.33702
# Shear Modulus (GPa) = 8.23459 33.52946 20.88203
#
# Velocity S-wave (km/s) = 1.92500 3.88439 3.06546
# Velocity P-wave (km/s) = 4.14855 6.91030 5.69924
#
# Compressibility (1/GPa) = 0.03667644
#
# Stress axis : x y z
#
# Youngs Moduli (GPa) = 98.17611 21.36232 63.99259
#
# Poissons Ratio (x) = 0.20309 0.24537
# Poissons Ratio (y) = 0.93337 0.29643
# Poissons Ratio (z) = 0.37644 0.09896
#
# Static dielectric constant tensor:
#      x y z
#    x 1.859340 -0.038160 0.030590 
#    y -0.038160 1.908010 -0.072500 
#    z 0.030590 -0.072500 1.891330 
# 
# From -- ./inp_files/158618.got.cif
#   From: 2010.05.17/outbox.ucp.g08.bks.cvg/sg2_80_cif.got.tgz:158618.got - 2010.06.11 11:32:03.
