data_PCOD9074657
_publ_section_title
;
Structure prediction by ZEFSAII (Michael W. Deem and Ramdas Pophale) SiO2 
 PCOD9074657
Probable space group: P -1
;
_chemical_formula_sum "Si O2"
_cell_formula_units_Z 16
_cell_length_a 6.000000
_cell_length_b 27.000000
_cell_length_c 6.000000
_cell_angle_alpha 90.000000
_cell_angle_beta 80.000000
_cell_angle_gamma 130.000000
_cell_volume 725.212580
_symmetry_space_group_name_H-M "P -1"
_symmetry_group_IT_number 2
_symmetry_cell_setting 'triclinic'
loop_
_space_group_symop_operation_xyz
x,y,z
-x,-y,-z
loop_
_atom_site_type_symbol
_atom_site_label
_atom_site_fract_x
_atom_site_fract_y
_atom_site_fract_z
Si Si1 0.415108 0.748885 0.729841
Si Si2 0.090633 0.286848 0.855638
Si Si3 0.839662 0.923062 0.036955
Si Si4 0.998040 0.360923 0.541828
Si Si5 0.787363 0.524471 0.807044
Si Si6 0.022482 0.171705 0.064639
Si Si7 0.276618 0.596689 0.097628
Si Si8 0.451516 0.124791 0.416289
O O1 0.260695 0.688643 0.591165
O O2 0.709235 0.777374 0.812954
O O3 0.470870 0.806271 0.578521
O O4 0.191845 0.732649 0.964639
O O5 0.373736 0.341659 0.959359
O O6 0.113616 0.324890 0.627526
O O7 0.039804 0.219244 0.875721
O O8 0.665487 0.904395 0.311305
O O9 0.962381 0.882760 0.033607
O O10 0.732026 0.904456 0.790974
O O11 0.000000 0.000000 0.000000
O O12 0.865660 0.376217 0.757980
O O13 0.204482 0.431155 0.380677
O O14 0.753279 0.460460 0.766076
O O15 0.500000 0.500000 0.000000
O O16 0.094615 0.568008 0.898514
O O17 0.738401 0.135568 0.278813
#
# Coordination Sequence:
#
# PCOD9074657 Si02
#       8
#     2   2   2   2   2   2   2   2
#     4  10  24  44  65  98 139 182 226 296 354 430
#     4  11  24  43  65 100 132 178 232 291 358 432
#     4  11  25  48  75 112 153 197 251 307 362 439
#     4  12  24  40  68  96 130 172 232 289 351 430
#     4  11  25  46  64  89 134 174 226 286 355 433
#     4  10  24  47  71 105 150 191 241 299 372 429
#     4  11  25  41  67  93 129 175 226 286 361 424
#     4  10  25  43  75 108 150 197 248 304 369 437
#
# _framework density 22.062495999999999
#
# number of rings (size 3 to 8) (size 9 to 14) (size 15 to 20)
#    0.000    1.250    0.000    4.500    7.000   10.000 
#    2.250    0.000    0.000    0.000    0.000    0.000 
#    0.000    0.000    0.000    0.000    0.000    0.000 
#
# Total GULP energy -89093.089820 kJ/mol
# GULP energy per Si atom -5568.318114 kJ/mol
# Density = 2.201228 g / cm^3
# Si number density = 22.062496 Si / 1000 Ang^3
#
#
#
# Elastic Constant Matrix: (Units=GPa)
#
#
# Indices 1 2 3 4 5 6 
#
# 1 105.5320 47.1728 43.8880 -16.4997 3.7310 -24.5667
# 2 47.1728 135.7458 31.1035 -10.3593 4.3439 -44.2713
# 3 43.8880 31.1035 68.0225 -28.1767 14.4220 -5.5554
# 4 -16.4997 -10.3593 -28.1767 51.8514 -11.3100 3.1818
# 5 3.7310 4.3439 14.4220 -11.3100 23.5419 -2.8259
# 6 -24.5667 -44.2713 -5.5554 3.1818 -2.8259 31.2305
#
#
#
# Elastic Compliance Matrix: (Units=1/GPa)
#
#
# Indices 1 2 3 4 5 6 
#
# 1 0.016508 0.000739 -0.011247 -0.000280 0.005511 0.012559
# 2 0.000739 0.015711 -0.007022 -0.001046 0.003426 0.022020
# 3 -0.011247 -0.007022 0.030711 0.009852 -0.012863 -0.015506
# 4 -0.000280 -0.001046 0.009852 0.025857 0.006383 -0.002007
# 5 0.005511 0.003426 -0.012863 0.006383 0.053248 0.011072
# 6 0.012559 0.022020 -0.015506 -0.002007 0.011072 0.071562
#
#
# Mechanical properties :
#
#
# Convention : Reuss Voigt Hill
#
# Bulk Modulus (GPa) = 35.88256 61.51433 48.69844
# Shear Modulus (GPa) = 19.38383 33.80048 26.59216
#
# Velocity S-wave (km/s) = 2.96731 3.91837 3.47552
# Velocity P-wave (km/s) = 5.29521 6.95801 6.18276
#
# Compressibility (1/GPa) = 0.02786869
#
# Stress axis : x y z
#
# Youngs Moduli (GPa) = 60.57601 63.65031 32.56212
#
# Poissons Ratio (x) = -0.04702 0.36624
# Poissons Ratio (y) = -0.04475 0.22864
# Poissons Ratio (z) = 0.68133 0.44693
#
# Static dielectric constant tensor:
#      x y z
#    x 1.940920 0.081310 0.013090 
#    y 0.081310 1.885230 -0.028010 
#    z 0.013090 -0.028010 1.836820 
# 
# From -- ./inp_files/10570.got.cif
#   From: 2010.05.17/outbox.ucp.g08.bks.cvg/sg2_6_cif.got.tgz:10570.got - 2010.06.11 11:32:03.
