data_PCOD9074599
_publ_section_title
;
Structure prediction by ZEFSAII (Michael W. Deem and Ramdas Pophale) SiO2 
 PCOD9074599
Probable space group: P -1
;
_chemical_formula_sum "Si O2"
_cell_formula_units_Z 16
_cell_length_a 12.000000
_cell_length_b 9.000000
_cell_length_c 9.000000
_cell_angle_alpha 120.000000
_cell_angle_beta 80.000000
_cell_angle_gamma 120.000000
_cell_volume 725.212580
_symmetry_space_group_name_H-M "P -1"
_symmetry_group_IT_number 2
_symmetry_cell_setting 'triclinic'
loop_
_space_group_symop_operation_xyz
x,y,z
-x,-y,-z
loop_
_atom_site_type_symbol
_atom_site_label
_atom_site_fract_x
_atom_site_fract_y
_atom_site_fract_z
Si Si1 0.943294 0.408581 0.634585
Si Si2 0.593677 0.239926 0.986270
Si Si3 0.877969 0.982612 0.426222
Si Si4 0.131588 0.029713 0.921225
Si Si5 0.722007 0.516334 0.827782
Si Si6 0.368169 0.429570 0.405991
Si Si7 0.318758 0.039400 0.089333
Si Si8 0.792923 0.551687 0.307905
O O1 0.848505 0.493029 0.749653
O O2 0.000000 0.500000 0.500000
O O3 0.071742 0.450382 0.722232
O O4 0.859069 0.169948 0.563225
O O5 0.644655 0.387522 0.916900
O O6 0.443237 0.143897 0.005387
O O7 0.676301 0.361216 0.168805
O O8 0.640962 0.082279 0.873002
O O9 0.897060 0.026066 0.269323
O O10 0.790788 0.745990 0.340644
O O11 0.000000 0.000000 0.500000
O O12 0.193682 0.928265 0.958829
O O13 0.229718 0.259175 0.030170
O O14 0.000000 0.000000 0.000000
O O15 0.615984 0.459570 0.694928
O O16 0.500000 0.500000 0.500000
O O17 0.253007 0.450661 0.516750
O O18 0.308466 0.200728 0.270378
#
# Coordination Sequence:
#
# PCOD9074599 Si02
#       8
#     2   2   2   2   2   2   2   2
#     4  11  23  41  65  99 136 168 220 276 331 390
#     4  11  24  47  66  98 131 171 231 273 330 385
#     4  10  24  41  61  96 132 173 212 267 330 392
#     4  11  24  42  67  96 132 175 219 267 339 395
#     4  11  25  42  69 100 128 174 223 272 329 398
#     4  11  23  44  68  92 127 177 215 265 334 393
#     4  10  26  42  70  95 135 174 220 281 326 393
#     4  11  23  42  67  91 136 174 217 271 333 393
#
# _framework density 22.062495999999999
#
# number of rings (size 3 to 8) (size 9 to 14) (size 15 to 20)
#    0.000    1.250    3.750    0.750   10.500    4.500 
#    0.000    0.625    0.000    0.000    0.000    0.000 
#    0.000    0.000    0.000    0.000    0.000    0.000 
#
# Total GULP energy -89069.740244 kJ/mol
# GULP energy per Si atom -5566.858765 kJ/mol
# Density = 2.201228 g / cm^3
# Si number density = 22.062496 Si / 1000 Ang^3
#
#
#
# Elastic Constant Matrix: (Units=GPa)
#
#
# Indices 1 2 3 4 5 6 
#
# 1 83.9595 -20.2950 9.9906 10.8538 38.5728 -20.7679
# 2 -20.2950 34.8835 -21.5955 16.7242 13.9290 -12.1035
# 3 9.9906 -21.5955 41.5803 11.6889 15.0039 -18.1921
# 4 10.8538 16.7242 11.6889 9.5866 -17.6903 0.1616
# 5 38.5728 13.9290 15.0039 -17.6903 -3.4122 21.0598
# 6 -20.7679 -12.1035 -18.1921 0.1616 21.0598 13.4115
#
#
#
# Elastic Compliance Matrix: (Units=1/GPa)
#
#
# Indices 1 2 3 4 5 6 
#
# 1 0.009809 -0.004514 -0.008229 0.008647 0.000984 -0.001695
# 2 -0.004514 0.020725 0.003301 -0.004910 0.016260 -0.009281
# 3 -0.008229 0.003301 0.022537 0.000850 0.013422 -0.000279
# 4 0.008647 -0.004910 0.000850 0.066164 -0.019088 0.039290
# 5 0.000984 0.016260 0.013422 -0.019088 0.014606 0.011698
# 6 -0.001695 -0.009281 -0.000279 0.039290 0.011698 0.044341
#
#
# Mechanical properties :
#
#
# Convention : Reuss Voigt Hill
#
# Bulk Modulus (GPa) = 29.25026 10.73592 19.99309
# Shear Modulus (GPa) = 23.98495 16.73873 20.36184
#
# Velocity S-wave (km/s) = 3.30075 2.75743 3.04125
# Velocity P-wave (km/s) = 5.27383 3.87487 4.62752
#
# Compressibility (1/GPa) = 0.03418773
#
# Stress axis : x y z
#
# Youngs Moduli (GPa) = 101.94403 48.25042 44.37081
#
# Poissons Ratio (x) = 0.21781 0.36513
# Poissons Ratio (y) = 0.46018 -0.14647
# Poissons Ratio (z) = 0.83889 -0.15927
#
# Static dielectric constant tensor:
#      x y z
#    x 1.719200 -0.042700 -0.016730 
#    y -0.042700 1.828010 0.028560 
#    z -0.016730 0.028560 1.842860 
# 
# From -- ./inp_files/185343.got.cif
#   From: 2010.05.17/outbox.ucp.g08.bks.cvg/sg2_93_cif.got.tgz:185343.got - 2010.06.11 11:32:03.
