data_PCOD9074047
_publ_section_title
;
Structure prediction by ZEFSAII (Michael W. Deem and Ramdas Pophale) SiO2 
 PCOD9074047
Probable space group: P -1
;
_chemical_formula_sum "Si O2"
_cell_formula_units_Z 15
_cell_length_a 9.000000
_cell_length_b 18.000000
_cell_length_c 21.000000
_cell_angle_alpha 160.000000
_cell_angle_beta 140.000000
_cell_angle_gamma 50.000000
_cell_volume 700.468056
_symmetry_space_group_name_H-M "P -1"
_symmetry_group_IT_number 2
_symmetry_cell_setting 'triclinic'
loop_
_space_group_symop_operation_xyz
x,y,z
-x,-y,-z
loop_
_atom_site_type_symbol
_atom_site_label
_atom_site_fract_x
_atom_site_fract_y
_atom_site_fract_z
Si Si1 0.006923 0.216649 0.501699
Si Si2 0.068247 0.366159 0.110589
Si Si3 0.441497 0.959748 0.307327
Si Si4 0.780810 0.055515 0.158188
Si Si5 0.486716 0.419176 0.070641
Si Si6 0.000000 0.500000 0.500000
Si Si7 0.542302 0.551231 0.335599
Si Si8 0.024275 0.873668 0.340405
O O1 0.965213 0.013365 0.374982
O O2 0.931079 0.423097 0.674151
O O3 0.858633 0.121389 0.311021
O O4 0.303362 0.343334 0.691640
O O5 0.261571 0.469838 0.201956
O O6 0.150338 0.172401 0.016867
O O7 0.792845 0.219258 0.877592
O O8 0.381813 0.175096 0.432248
O O9 0.480682 0.793822 0.130271
O O10 0.685744 0.082338 0.527828
O O11 0.935068 0.280997 0.350875
O O12 0.500000 0.000000 0.000000
O O13 0.548425 0.418879 0.165255
O O14 0.195945 0.375462 0.931892
O O15 0.706994 0.481527 0.384930
O O16 0.000000 0.000000 0.500000
#
# Coordination Sequence:
#
# PCOD9074047 Si02
#       8
#     2   2   2   2   2   1   2   2
#     4  11  24  44  69  99 133 172 223 265 326 396
#     4  11  23  40  69  96 130 171 217 274 322 388
#     4  10  23  42  62  96 134 168 222 266 321 391
#     4  12  25  46  68  96 134 170 217 278 332 383
#     4  10  22  41  66  91 134 175 212 266 324 381
#     4  12  24  44  70  92 132 172 214 282 330 384
#     4  12  23  43  66  97 131 172 222 271 327 390
#     4  10  22  41  67  99 134 175 215 268 324 386
#
# _framework density 21.414252999999999
#
# number of rings (size 3 to 8) (size 9 to 14) (size 15 to 20)
#    0.000    1.067    4.000    2.400    0.000    6.933 
#    0.000    8.667    0.000    0.000    0.000    0.000 
#    0.000    0.000    0.000    0.000    0.000    0.000 
#
# Total GULP energy -83508.523647 kJ/mol
# GULP energy per Si atom -5567.234910 kJ/mol
# Density = 2.136551 g / cm^3
# Si number density = 21.414253 Si / 1000 Ang^3
#
#
#
# Elastic Constant Matrix: (Units=GPa)
#
#
# Indices 1 2 3 4 5 6 
#
# 1 84.1979 19.8222 41.2697 -0.9737 24.5544 1.7639
# 2 19.8222 70.2086 21.9478 -6.4797 7.5559 -2.0429
# 3 41.2697 21.9478 102.5975 -18.5414 17.7729 -2.2174
# 4 -0.9737 -6.4797 -18.5414 33.0931 -7.3049 14.5837
# 5 24.5544 7.5559 17.7729 -7.3049 34.7731 2.3892
# 6 1.7639 -2.0429 -2.2174 14.5837 2.3892 34.4417
#
#
#
# Elastic Compliance Matrix: (Units=1/GPa)
#
#
# Indices 1 2 3 4 5 6 
#
# 1 0.018631 -0.002708 -0.006200 -0.006820 -0.010978 0.002135
# 2 -0.002708 0.015802 -0.001931 0.001808 -0.000168 0.000198
# 3 -0.006200 -0.001931 0.014201 0.008317 -0.000551 -0.002366
# 4 -0.006820 0.001808 0.008317 0.045976 0.011153 -0.019249
# 5 -0.010978 -0.000168 -0.000551 0.011153 0.039649 -0.006956
# 6 0.002135 0.000198 -0.002366 -0.019249 -0.006956 0.037418
#
#
# Mechanical properties :
#
#
# Convention : Reuss Voigt Hill
#
# Bulk Modulus (GPa) = 37.09559 47.00927 42.05243
# Shear Modulus (GPa) = 24.71091 32.05919 28.38505
#
# Velocity S-wave (km/s) = 3.40066 3.87343 3.64472
# Velocity P-wave (km/s) = 5.72537 6.48110 6.11492
#
# Compressibility (1/GPa) = 0.02695738
#
# Stress axis : x y z
#
# Youngs Moduli (GPa) = 53.67408 63.28236 70.41701
#
# Poissons Ratio (x) = 0.17136 0.43656
# Poissons Ratio (y) = 0.14534 0.13597
# Poissons Ratio (z) = 0.33276 0.12220
#
# Static dielectric constant tensor:
#      x y z
#    x 1.856960 -0.053980 0.056820 
#    y -0.053980 1.757770 -0.023820 
#    z 0.056820 -0.023820 1.790340 
# 
# From -- ./inp_files/591151.got.cif
#   From: 2010.05.17/outbox.ucp.g08.bks.cvg/sg2_296_cif.got.tgz:591151.got - 2010.06.11 11:32:03.
