data_PCOD9074685
_publ_section_title
;
Structure prediction by ZEFSAII (Michael W. Deem and Ramdas Pophale) SiO2 
 PCOD9074685
Probable space group: P -1
;
_chemical_formula_sum "Si O2"
_cell_formula_units_Z 15
_cell_length_a 9.000000
_cell_length_b 15.000000
_cell_length_c 15.000000
_cell_angle_alpha 150.000000
_cell_angle_beta 110.000000
_cell_angle_gamma 50.000000
_cell_volume 642.379314
_symmetry_space_group_name_H-M "P -1"
_symmetry_group_IT_number 2
_symmetry_cell_setting 'triclinic'
loop_
_space_group_symop_operation_xyz
x,y,z
-x,-y,-z
loop_
_atom_site_type_symbol
_atom_site_label
_atom_site_fract_x
_atom_site_fract_y
_atom_site_fract_z
Si Si1 0.000000 0.000000 0.500000
Si Si2 0.061794 0.750741 0.556708
Si Si3 0.141989 0.069963 0.821479
Si Si4 0.638468 0.923191 0.551884
Si Si5 0.209263 0.880738 0.005900
Si Si6 0.309956 0.513212 0.009882
Si Si7 0.523763 0.265099 0.549502
Si Si8 0.441480 0.845210 0.859639
O O1 0.161209 0.714618 0.234728
O O2 0.244013 0.907079 0.492688
O O3 0.088802 0.909726 0.645408
O O4 0.321653 0.462874 0.381210
O O5 0.905345 0.765323 0.470261
O O6 0.908909 0.927533 0.766235
O O7 0.375779 0.903350 0.667711
O O8 0.227891 0.992000 0.873562
O O9 0.896119 0.365405 0.999942
O O10 0.644818 0.741421 0.452297
O O11 0.500000 0.000000 0.500000
O O12 0.472145 0.213814 0.811516
O O13 0.376009 0.570410 0.785329
O O14 0.368276 0.872350 0.969434
O O15 0.000000 0.000000 0.000000
O O16 0.500000 0.500000 0.000000
O O17 0.500000 0.000000 0.000000
#
# Coordination Sequence:
#
# PCOD9074685 Si02
#       8
#     1   2   2   2   2   2   2   2
#     4  10  24  44  74  98 144 190 238 294 366 432
#     4  12  26  48  75 106 147 196 245 299 373 441
#     4  11  24  48  74 103 148 194 242 301 365 447
#     4  12  29  44  76 113 150 193 252 311 365 440
#     4  12  26  47  80 102 145 197 241 300 374 439
#     4  11  23  46  74 105 142 192 241 297 371 432
#     4  11  26  46  72 109 145 189 249 296 366 436
#     4  12  29  48  73 111 147 188 247 306 370 440
#
# _framework density 23.35069
#
# number of rings (size 3 to 8) (size 9 to 14) (size 15 to 20)
#    0.000    0.533    4.000    2.800    9.333    2.667 
#    0.000    0.000    0.000    0.000    0.000    0.000 
#    0.000    0.000    0.000    0.000    0.000    0.000 
#
# Total GULP energy -83533.910846 kJ/mol
# GULP energy per Si atom -5568.927390 kJ/mol
# Density = 2.329754 g / cm^3
# Si number density = 23.350690 Si / 1000 Ang^3
#
#
#
# Elastic Constant Matrix: (Units=GPa)
#
#
# Indices 1 2 3 4 5 6 
#
# 1 97.2303 4.7685 8.0111 6.9948 9.7874 5.0771
# 2 4.7685 54.6070 -19.7150 11.7707 -5.9348 -22.1280
# 3 8.0111 -19.7150 66.4245 10.2928 -24.7247 7.1948
# 4 6.9948 11.7707 10.2928 39.4201 -1.8315 -5.4094
# 5 9.7874 -5.9348 -24.7247 -1.8315 38.6575 7.3333
# 6 5.0771 -22.1280 7.1948 -5.4094 7.3333 41.4277
#
#
#
# Elastic Compliance Matrix: (Units=1/GPa)
#
#
# Indices 1 2 3 4 5 6 
#
# 1 0.011603 -0.004056 -0.004740 -0.000131 -0.006281 -0.001670
# 2 -0.004056 0.032792 0.015653 -0.010960 0.013372 0.011496
# 3 -0.004740 0.015653 0.030822 -0.011073 0.023163 -0.001957
# 4 -0.000131 -0.010960 -0.011073 0.031414 -0.007532 0.001520
# 5 -0.006281 0.013372 0.023163 -0.007532 0.044927 -0.005046
# 6 -0.001670 0.011496 -0.001957 0.001520 -0.005046 0.031915
#
#
# Mechanical properties :
#
#
# Convention : Reuss Voigt Hill
#
# Bulk Modulus (GPa) = 11.24468 22.71010 16.97739
# Shear Modulus (GPa) = 25.07490 38.91420 31.99455
#
# Velocity S-wave (km/s) = 3.28050 4.08672 3.70560
# Velocity P-wave (km/s) = 4.37892 5.65820 5.05916
#
# Compressibility (1/GPa) = 0.08893097
#
# Stress axis : x y z
#
# Youngs Moduli (GPa) = 86.18254 30.49505 32.44463
#
# Poissons Ratio (x) = 0.12368 0.15379
# Poissons Ratio (y) = 0.34954 -0.50784
# Poissons Ratio (z) = 0.40850 -0.47733
#
# Static dielectric constant tensor:
#      x y z
#    x 2.038390 -0.117670 -0.064210 
#    y -0.117670 2.263950 0.007880 
#    z -0.064210 0.007880 1.916190 
# 
# From -- ./inp_files/505895.got.cif
#   From: 2010.05.17/outbox.ucp.g08.bks.cvg/sg2_253_cif.got.tgz:505895.got - 2010.06.11 11:32:03.
