data_PCOD9075792
_publ_section_title
;
Structure prediction by ZEFSAII (Michael W. Deem and Ramdas Pophale) SiO2 
 PCOD9075792
Probable space group: P -1
;
_chemical_formula_sum "Si O2"
_cell_formula_units_Z 16
_cell_length_a 22.538425
_cell_length_b 8.548243
_cell_length_c 13.412380
_cell_angle_alpha 40.534120
_cell_angle_beta 153.419636
_cell_angle_gamma 128.432465
_cell_volume 736.300182
_symmetry_space_group_name_H-M "P -1"
_symmetry_group_IT_number 2
_symmetry_cell_setting 'triclinic'
loop_
_space_group_symop_operation_xyz
x,y,z
-x,-y,-z
loop_
_atom_site_type_symbol
_atom_site_label
_atom_site_fract_x
_atom_site_fract_y
_atom_site_fract_z
Si Si1 0.651525 0.403795 0.314938
Si Si2 0.320023 0.504122 0.027506
Si Si3 0.787537 0.920386 0.455198
Si Si4 0.661296 0.397758 0.779490
Si Si5 0.107783 0.415439 0.617890
Si Si6 0.192261 0.152615 0.694540
Si Si7 0.124041 0.923732 0.295801
Si Si8 0.632390 0.506218 0.460937
O O1 0.723140 0.630603 0.285230
O O2 0.729548 0.156205 0.498347
O O3 0.668347 0.366444 0.477622
O O4 0.500000 0.500000 0.000000
O O5 0.250403 0.342407 0.926352
O O6 0.265625 0.788574 0.777592
O O7 0.282219 0.476501 0.100255
O O8 0.479116 0.476437 0.263700
O O9 0.864823 0.840993 0.506482
O O10 0.665354 0.774044 0.355424
O O11 0.872796 0.889645 0.699367
O O12 0.500000 0.500000 0.500000
O O13 0.700629 0.438867 0.704513
O O14 0.708173 0.107991 0.012159
O O15 0.092515 0.216093 0.608041
O O16 0.102305 0.668306 0.430812
O O17 0.000000 0.500000 0.500000
O O18 0.000000 0.000000 0.000000
#
# Coordination Sequence:
#
# PCOD9075792 Si02
#       8
#     2   2   2   2   2   2   2   2
#     4  10  20  36  59  84 112 152 194 232 285 349
#     4   9  18  35  54  79 114 145 186 237 283 340
#     4   9  18  34  58  80 106 147 182 227 290 347
#     4   9  19  33  51  80 114 141 177 234 287 332
#     4  10  21  38  57  77 109 159 196 225 279 351
#     4   9  19  37  56  80 113 148 190 236 282 341
#     4  10  22  39  56  85 119 145 187 245 287 332
#     4  10  18  32  55  85 110 141 187 238 288 334
#
# _framework density 21.730269
#
# number of rings (size 3 to 8) (size 9 to 14) (size 15 to 20)
#    0.000    2.500    0.000    2.625    0.000    6.000 
#    0.000   19.375    0.000    0.000    0.000    0.000 
#    0.000    0.000    0.000    0.000    0.000    0.000 
#
# Total GULP energy -89076.767325 kJ/mol
# GULP energy per Si atom -5567.297958 kJ/mol
# Density = 2.168081 g / cm^3
# Si number density = 21.730269 Si / 1000 Ang^3
#
#
#
# Elastic Constant Matrix: (Units=GPa)
#
#
# Indices 1 2 3 4 5 6 
#
# 1 158.0754 38.5816 52.5959 7.6824 -28.2894 -39.4759
# 2 38.5816 40.1491 13.2626 5.4161 -4.9788 -26.0690
# 3 52.5959 13.2626 77.3900 15.8706 -17.9179 -19.0524
# 4 7.6824 5.4161 15.8706 15.0707 -4.2396 -6.7931
# 5 -28.2894 -4.9788 -17.9179 -4.2396 34.8384 7.3224
# 6 -39.4759 -26.0690 -19.0524 -6.7931 7.3224 35.7015
#
#
#
# Elastic Compliance Matrix: (Units=1/GPa)
#
#
# Indices 1 2 3 4 5 6 
#
# 1 0.011691 -0.005796 -0.005532 0.006066 0.005339 0.005801
# 2 -0.005796 0.050320 0.003552 -0.005376 -0.003033 0.031829
# 3 -0.005532 0.003552 0.021746 -0.018515 0.004169 0.003704
# 4 0.006066 -0.005376 -0.018515 0.089885 0.003627 0.009260
# 5 0.005339 -0.003033 0.004169 0.003627 0.035326 -0.000642
# 6 0.005801 0.031829 0.003704 0.009260 -0.000642 0.061537
#
#
# Mechanical properties :
#
#
# Convention : Reuss Voigt Hill
#
# Bulk Modulus (GPa) = 14.66175 53.83273 34.24724
# Shear Modulus (GPa) = 16.19219 28.53375 22.36297
#
# Velocity S-wave (km/s) = 2.73270 3.62759 3.21146
# Velocity P-wave (km/s) = 4.08884 6.50944 5.43560
#
# Compressibility (1/GPa) = 0.06820467
#
# Stress axis : x y z
#
# Youngs Moduli (GPa) = 85.53818 19.87301 45.98505
#
# Poissons Ratio (x) = 0.11519 0.25437
# Poissons Ratio (y) = 0.49581 -0.16334
# Poissons Ratio (z) = 0.47316 -0.07059
#
# Static dielectric constant tensor:
#      x y z
#    x 1.955350 -0.055680 0.002560 
#    y -0.055680 1.809180 0.044170 
#    z 0.002560 0.044170 1.807120 
# 
# From -- ./inp_files/469254.got.cif
#   From: 2010.05.17/outbox.cif.g08.bks.cpg/sg2_235_cif.got.tgz:469254.got - 2010.06.03 11:33:40.
