data_PCOD9075746
_publ_section_title
;
Structure prediction by ZEFSAII (Michael W. Deem and Ramdas Pophale) SiO2 
 PCOD9075746
Probable space group: P -1
;
_chemical_formula_sum "Si O2"
_cell_formula_units_Z 12
_cell_length_a 12.074631
_cell_length_b 8.701817
_cell_length_c 7.069241
_cell_angle_alpha 101.014069
_cell_angle_beta 47.220843
_cell_angle_gamma 76.404754
_cell_volume 461.457360
_symmetry_space_group_name_H-M "P -1"
_symmetry_group_IT_number 2
_symmetry_cell_setting 'triclinic'
loop_
_space_group_symop_operation_xyz
x,y,z
-x,-y,-z
loop_
_atom_site_type_symbol
_atom_site_label
_atom_site_fract_x
_atom_site_fract_y
_atom_site_fract_z
Si Si1 0.761050 0.457992 0.514225
Si Si2 0.812591 0.462921 0.883585
Si Si3 0.861865 0.757320 0.051933
Si Si4 0.398233 0.740544 0.846339
Si Si5 0.785662 0.106509 0.303528
Si Si6 0.115915 0.098405 0.359757
O O1 0.792430 0.513071 0.696394
O O2 0.598056 0.618961 0.639255
O O3 0.737720 0.281363 0.526268
O O4 0.935412 0.379372 0.167979
O O5 0.774889 0.638723 0.082961
O O6 0.007906 0.287384 0.640641
O O7 0.683496 0.387910 0.052693
O O8 0.880216 0.834386 0.842598
O O9 0.765837 0.934008 0.336474
O O10 0.333331 0.805515 0.723193
O O11 0.308230 0.925464 0.118280
O O12 0.000000 0.000000 0.000000
O O13 0.000000 0.000000 0.500000
#
# Coordination Sequence:
#
# PCOD9075746 Si02
#       6
#     2   2   2   2   2   2
#     4  10  18  32  55  79 101 134 174 214 253 303
#     4  10  19  34  54  78 105 135 170 214 259 305
#     4   9  18  34  53  74 104 139 170 209 258 307
#     4  10  19  32  54  80 102 132 176 216 253 305
#     4   9  19  36  55  72 101 144 176 202 254 322
#     4   8  15  28  48  71  97 132 168 197 240 304
#
# _framework density 26.004570000000001
#
# number of rings (size 3 to 8) (size 9 to 14) (size 15 to 20)
#    0.000    2.667    0.000    4.000    0.000    0.000 
#    0.000   11.667    0.000    8.000    0.000    0.000 
#    0.000    0.000    0.000    0.000    0.000    0.000 
#
# Total GULP energy -67046.083439 kJ/mol
# GULP energy per Si atom -5587.173620 kJ/mol
# Density = 2.594538 g / cm^3
# Si number density = 26.004570 Si / 1000 Ang^3
#
#
#
# Elastic Constant Matrix: (Units=GPa)
#
#
# Indices 1 2 3 4 5 6 
#
# 1 100.7402 69.0422 54.7376 31.5699 0.8738 -8.4952
# 2 69.0422 116.6820 50.6906 16.6740 0.9079 -4.4021
# 3 54.7376 50.6906 92.6216 34.2078 -12.8687 -7.7066
# 4 31.5699 16.6740 34.2078 39.6553 -5.8795 9.0727
# 5 0.8738 0.9079 -12.8687 -5.8795 37.0999 23.2516
# 6 -8.4952 -4.4021 -7.7066 9.0727 23.2516 48.5790
#
#
#
# Elastic Compliance Matrix: (Units=1/GPa)
#
#
# Indices 1 2 3 4 5 6 
#
# 1 0.025699 -0.010617 -0.003637 -0.017302 -0.011751 0.011811
# 2 -0.010617 0.015966 -0.005180 0.007081 0.001122 -0.003091
# 3 -0.003637 -0.005180 0.021637 -0.013810 0.003506 0.003228
# 4 -0.017302 0.007081 -0.013810 0.056499 0.019825 -0.024616
# 5 -0.011751 0.001122 0.003506 0.019825 0.049652 -0.028865
# 6 0.011811 -0.003091 0.003228 -0.024616 -0.028865 0.041296
#
#
# Mechanical properties :
#
#
# Convention : Reuss Voigt Hill
#
# Bulk Modulus (GPa) = 40.92594 73.22052 57.07323
# Shear Modulus (GPa) = 19.39790 34.10508 26.75149
#
# Velocity S-wave (km/s) = 2.73416 3.62540 3.21085
# Velocity P-wave (km/s) = 5.07342 6.76333 5.97839
#
# Compressibility (1/GPa) = 0.02443438
#
# Stress axis : x y z
#
# Youngs Moduli (GPa) = 38.91203 62.63500 46.21710
#
# Poissons Ratio (x) = 0.66499 0.16808
# Poissons Ratio (y) = 0.41312 0.23940
# Poissons Ratio (z) = 0.14152 0.32444
#
# Static dielectric constant tensor:
#      x y z
#    x 2.087760 -0.001520 0.049810 
#    y -0.001520 2.073600 -0.019090 
#    z 0.049810 -0.019090 2.084110 
# 
# From -- ./inp_files/147373.got.cif
#   From: 2010.05.17/outbox.cif.g08.bks.cpg/sg2_74_cif.got.tgz:147373.got - 2010.06.03 11:33:40.
