data_PCOD9075310
_publ_section_title
;
Structure prediction by ZEFSAII (Michael W. Deem and Ramdas Pophale) SiO2 
 PCOD9075310
Probable space group: P -1
;
_chemical_formula_sum "Si O2"
_cell_formula_units_Z 16
_cell_length_a 12.000000
_cell_length_b 12.000000
_cell_length_c 12.000000
_cell_angle_alpha 120.000000
_cell_angle_beta 110.000000
_cell_angle_gamma 30.000000
_cell_volume 731.538865
_symmetry_space_group_name_H-M "P -1"
_symmetry_group_IT_number 2
_symmetry_cell_setting 'triclinic'
loop_
_space_group_symop_operation_xyz
x,y,z
-x,-y,-z
loop_
_atom_site_type_symbol
_atom_site_label
_atom_site_fract_x
_atom_site_fract_y
_atom_site_fract_z
Si Si1 0.667059 0.406163 0.598104
Si Si2 0.500341 0.774436 0.879717
Si Si3 0.035864 0.813544 0.787051
Si Si4 0.795870 0.615187 0.428779
Si Si5 0.359738 0.706005 0.961881
Si Si6 0.865360 0.992692 0.568636
Si Si7 0.377721 0.024140 0.631589
Si Si8 0.753434 0.785587 0.065292
O O1 0.500000 0.500000 0.500000
O O2 0.585572 0.616193 0.724329
O O3 0.899522 0.202779 0.510495
O O4 0.706024 0.264026 0.635383
O O5 0.513717 0.666268 0.932217
O O6 0.253644 0.064923 0.916323
O O7 0.628987 0.785718 0.956635
O O8 0.132730 0.581147 0.705137
O O9 0.238008 0.726096 0.840064
O O10 0.919495 0.928211 0.683935
O O11 0.841850 0.026914 0.915611
O O12 0.684793 0.802731 0.387199
O O13 0.000000 0.500000 0.500000
O O14 0.628818 0.748001 0.542669
O O15 0.500000 0.500000 0.000000
O O16 0.768020 0.961084 0.453738
O O17 0.339492 0.104119 0.785416
O O18 0.000000 0.500000 0.000000
#
# Coordination Sequence:
#
# PCOD9075310 Si02
#       8
#     2   2   2   2   2   2   2   2
#     4  11  24  42  70 102 137 179 225 286 341 420
#     4  11  26  44  68  99 135 180 229 278 343 408
#     4  11  26  43  68 103 134 179 226 288 348 410
#     4  11  26  43  71 102 138 174 235 290 345 415
#     4  11  27  45  71  99 142 182 230 282 348 420
#     4  11  24  42  69 102 137 172 232 281 350 413
#     4  11  26  43  70 100 134 185 227 287 349 411
#     4  11  27  45  70  97 140 180 230 281 342 416
#
# _framework density 21.871701999999999
#
# number of rings (size 3 to 8) (size 9 to 14) (size 15 to 20)
#    0.000    1.000    1.250    3.000   12.250    5.000 
#    0.000    0.000    0.000    0.000    0.000    0.000 
#    0.000    0.000    0.000    0.000    0.000    0.000 
#
# Total GULP energy -89270.012775 kJ/mol
# GULP energy per Si atom -5579.375798 kJ/mol
# Density = 2.182192 g / cm^3
# Si number density = 21.871702 Si / 1000 Ang^3
#
#
#
# Elastic Constant Matrix: (Units=GPa)
#
#
# Indices 1 2 3 4 5 6 
#
# 1 56.3464 31.6022 38.8151 16.8750 23.5637 2.4314
# 2 31.6022 68.0188 31.9177 22.8637 16.4612 -4.3091
# 3 38.8151 31.9177 139.1374 24.3047 42.1022 -4.2791
# 4 16.8750 22.8637 24.3047 36.4414 0.5010 -0.5396
# 5 23.5637 16.4612 42.1022 0.5010 36.9767 -2.1104
# 6 2.4314 -4.3091 -4.2791 -0.5396 -2.1104 14.9741
#
#
#
# Elastic Compliance Matrix: (Units=1/GPa)
#
#
# Indices 1 2 3 4 5 6 
#
# 1 0.033651 -0.008561 -0.000934 -0.009516 -0.017065 -0.010943
# 2 -0.008561 0.023942 0.000782 -0.011395 -0.005522 0.007315
# 3 -0.000934 0.000782 0.013271 -0.008681 -0.014643 0.001793
# 4 -0.009516 -0.011395 -0.008681 0.044510 0.020434 0.000269
# 5 -0.017065 -0.005522 -0.014643 0.020434 0.057104 0.005782
# 6 -0.010943 0.007315 0.001793 0.000269 0.005782 0.072001
#
#
# Mechanical properties :
#
#
# Convention : Reuss Voigt Hill
#
# Bulk Modulus (GPa) = 18.71312 52.01919 35.36615
# Shear Modulus (GPa) = 17.87522 28.42293 23.14908
#
# Velocity S-wave (km/s) = 2.86191 3.60881 3.25684
# Velocity P-wave (km/s) = 4.41533 6.41873 5.50887
#
# Compressibility (1/GPa) = 0.05343846
#
# Stress axis : x y z
#
# Youngs Moduli (GPa) = 29.71688 41.76737 75.35256
#
# Poissons Ratio (x) = 0.35756 0.07039
# Poissons Ratio (y) = 0.25440 -0.05894
# Poissons Ratio (z) = 0.02776 -0.03267
#
# Static dielectric constant tensor:
#      x y z
#    x 1.804750 0.037630 -0.040810 
#    y 0.037630 2.922220 -0.172740 
#    z -0.040810 -0.172740 1.760220 
# 
# From -- ./inp_files/70436.got.cif
#   From: 2010.05.17/outbox.ucp.g08.bks.cvg/sg2_36_cif.got.tgz:70436.got - 2010.06.11 11:32:03.
