data_PCOD9075462
_publ_section_title
;
Structure prediction by ZEFSAII (Michael W. Deem and Ramdas Pophale) SiO2 
 PCOD9075462
Probable space group: P -1
;
_chemical_formula_sum "Si O2"
_cell_formula_units_Z 12
_cell_length_a 12.000000
_cell_length_b 21.000000
_cell_length_c 6.000000
_cell_angle_alpha 60.000000
_cell_angle_beta 100.000000
_cell_angle_gamma 150.000000
_cell_volume 524.273967
_symmetry_space_group_name_H-M "P -1"
_symmetry_group_IT_number 2
_symmetry_cell_setting 'triclinic'
loop_
_space_group_symop_operation_xyz
x,y,z
-x,-y,-z
loop_
_atom_site_type_symbol
_atom_site_label
_atom_site_fract_x
_atom_site_fract_y
_atom_site_fract_z
Si Si1 0.063263 0.213803 0.416251
Si Si2 0.403198 0.499232 0.653593
Si Si3 0.569419 0.005629 0.764632
Si Si4 0.735321 0.898940 0.589589
Si Si5 0.346590 0.733565 0.374526
Si Si6 0.211092 0.533301 0.318492
O O1 0.302342 0.308874 0.457923
O O2 0.212663 0.346484 0.037213
O O3 0.892826 0.172549 0.572757
O O4 0.842929 0.027326 0.561721
O O5 0.500000 0.500000 0.500000
O O6 0.242136 0.469804 0.533136
O O7 0.500000 0.000000 0.500000
O O8 0.408049 0.833133 0.040056
O O9 0.500000 0.000000 0.000000
O O10 0.612202 0.866710 0.382192
O O11 0.466067 0.698779 0.949587
O O12 0.000000 0.000000 0.500000
O O13 0.256327 0.609241 0.422107
O O14 0.084445 0.614139 0.624753
#
# Coordination Sequence:
#
# PCOD9075462 Si02
#       6
#     2   2   2   2   2   2
#     4  11  26  46  70 109 147 194 266 313 385 464
#     4  11  26  46  74 106 150 199 254 321 389 462
#     4  12  27  47  78 111 155 207 260 323 391 464
#     4  12  25  45  76 108 149 200 255 320 389 464
#     4  11  26  46  73 106 151 195 256 316 386 462
#     4  11  25  46  71 104 150 193 253 312 393 450
#
# _framework density 22.888795999999999
#
# number of rings (size 3 to 8) (size 9 to 14) (size 15 to 20)
#    0.000    0.667    1.667    4.500    9.333    2.667 
#    0.000    0.000    0.000    0.000    0.000    0.000 
#    0.000    0.000    0.000    0.000    0.000    0.000 
#
# Total GULP energy -67038.340045 kJ/mol
# GULP energy per Si atom -5586.528337 kJ/mol
# Density = 2.283670 g / cm^3
# Si number density = 22.888796 Si / 1000 Ang^3
#
#
#
# Elastic Constant Matrix: (Units=GPa)
#
#
# Indices 1 2 3 4 5 6 
#
# 1 171.7437 42.1563 48.4305 8.6945 -14.0472 21.7028
# 2 42.1563 94.3361 19.3445 9.0900 7.0544 13.8277
# 3 48.4305 19.3445 116.2087 2.2484 -16.2170 17.1718
# 4 8.6945 9.0900 2.2484 33.0229 9.8354 -2.6088
# 5 -14.0472 7.0544 -16.2170 9.8354 52.8401 0.5892
# 6 21.7028 13.8277 17.1718 -2.6088 0.5892 48.4566
#
#
#
# Elastic Compliance Matrix: (Units=1/GPa)
#
#
# Indices 1 2 3 4 5 6 
#
# 1 0.007586 -0.002636 -0.002091 -0.001917 0.002106 -0.002033
# 2 -0.002636 0.012679 -0.000959 -0.002235 -0.002247 -0.002191
# 3 -0.002091 -0.000959 0.010455 -0.000993 0.002995 -0.002585
# 4 -0.001917 -0.002235 -0.000993 0.033806 -0.006851 0.003752
# 5 0.002106 -0.002247 0.002995 -0.006851 0.022001 -0.002000
# 6 -0.002033 -0.002191 -0.002585 0.003752 -0.002000 0.023315
#
#
# Mechanical properties :
#
#
# Convention : Reuss Voigt Hill
#
# Bulk Modulus (GPa) = 51.68244 66.90566 59.29405
# Shear Modulus (GPa) = 39.16527 45.02107 42.09317
#
# Velocity S-wave (km/s) = 4.14105 4.43984 4.29304
# Velocity P-wave (km/s) = 6.74486 7.45501 7.10881
#
# Compressibility (1/GPa) = 0.01934893
#
# Stress axis : x y z
#
# Youngs Moduli (GPa) = 131.83021 78.86825 95.64451
#
# Poissons Ratio (x) = 0.20787 0.20000
# Poissons Ratio (y) = 0.34747 0.09171
# Poissons Ratio (z) = 0.27567 0.07562
#
# Static dielectric constant tensor:
#      x y z
#    x 1.851590 0.009420 -0.014350 
#    y 0.009420 1.918240 -0.041700 
#    z -0.014350 -0.041700 1.883370 
# 
# From -- ./inp_files/21173.got.cif
#   From: 2010.05.17/outbox.ucp.g08.bks.cvg/sg2_11_cif.got.tgz:21173.got - 2010.06.11 11:32:03.
