data_PCOD9075481
_publ_section_title
;
Structure prediction by ZEFSAII (Michael W. Deem and Ramdas Pophale) SiO2 
 PCOD9075481
Probable space group: P -1
;
_chemical_formula_sum "Si O2"
_cell_formula_units_Z 16
_cell_length_a 12.000000
_cell_length_b 9.000000
_cell_length_c 15.000000
_cell_angle_alpha 110.000000
_cell_angle_beta 130.000000
_cell_angle_gamma 110.000000
_cell_volume 728.972637
_symmetry_space_group_name_H-M "P -1"
_symmetry_group_IT_number 2
_symmetry_cell_setting 'triclinic'
loop_
_space_group_symop_operation_xyz
x,y,z
-x,-y,-z
loop_
_atom_site_type_symbol
_atom_site_label
_atom_site_fract_x
_atom_site_fract_y
_atom_site_fract_z
Si Si1 0.433843 0.024335 0.838758
Si Si2 0.001339 0.850003 0.035067
Si Si3 0.699481 0.218846 0.578617
Si Si4 0.858526 0.135995 0.488185
Si Si5 0.471081 0.404995 0.720292
Si Si6 0.583779 0.721881 0.538382
Si Si7 0.389678 0.649601 0.837497
Si Si8 0.128766 0.633152 0.995653
O O1 0.188156 0.850645 0.633073
O O2 0.417210 0.836199 0.834270
O O3 0.476221 0.191163 0.970352
O O4 0.627398 0.200198 0.894240
O O5 0.745449 0.590580 0.889579
O O6 0.175991 0.018394 0.241795
O O7 0.109981 0.806031 0.020528
O O8 0.000000 0.000000 0.000000
O O9 0.723862 0.143041 0.486029
O O10 0.623873 0.334012 0.555040
O O11 0.942678 0.400388 0.787167
O O12 0.500000 0.000000 0.500000
O O13 0.134109 0.384204 0.688414
O O14 0.718917 0.855480 0.375060
O O15 0.391764 0.302144 0.557047
O O16 0.472252 0.578878 0.800618
O O17 0.500000 0.500000 0.500000
O O18 0.000000 0.500000 0.000000
#
# Coordination Sequence:
#
# PCOD9075481 Si02
#       8
#     2   2   2   2   2   2   2   2
#     4  11  25  47  72  99 136 181 236 284 346 408
#     4  12  23  42  65  99 140 179 225 280 351 411
#     4  12  22  42  67 104 140 174 226 282 348 412
#     4  12  25  45  70 100 137 180 236 285 343 412
#     4  12  26  44  68 102 141 182 233 283 345 417
#     4  12  25  42  67 104 142 180 222 286 356 410
#     4  11  27  48  69  97 138 187 234 286 336 413
#     4  12  23  41  71 104 137 176 222 289 348 407
#
# _framework density 21.948698
#
# number of rings (size 3 to 8) (size 9 to 14) (size 15 to 20)
#    0.000    0.250    5.000    4.500    1.750    2.500 
#    0.000    0.000    0.000    0.000    0.000    0.000 
#    0.000    0.000    0.000    0.000    0.000    0.000 
#
# Total GULP energy -89140.755187 kJ/mol
# GULP energy per Si atom -5571.297199 kJ/mol
# Density = 2.189874 g / cm^3
# Si number density = 21.948698 Si / 1000 Ang^3
#
#
#
# Elastic Constant Matrix: (Units=GPa)
#
#
# Indices 1 2 3 4 5 6 
#
# 1 77.6122 0.0795 29.0865 3.9505 -23.4746 -5.3201
# 2 0.0795 46.0067 -1.9905 6.9208 -6.5204 -1.2758
# 3 29.0865 -1.9905 109.1649 -0.5686 -31.1550 14.4294
# 4 3.9505 6.9208 -0.5686 23.2445 9.6608 1.4146
# 5 -23.4746 -6.5204 -31.1550 9.6608 35.5842 9.8009
# 6 -5.3201 -1.2758 14.4294 1.4146 9.8009 29.5236
#
#
#
# Elastic Compliance Matrix: (Units=1/GPa)
#
#
# Indices 1 2 3 4 5 6 
#
# 1 0.018175 0.003771 -0.000173 -0.010695 0.015764 -0.001198
# 2 0.003771 0.026649 0.005268 -0.015492 0.017818 -0.005916
# 3 -0.000173 0.005268 0.018258 -0.010100 0.024047 -0.016226
# 4 -0.010695 -0.015492 -0.010100 0.064991 -0.039807 0.012440
# 5 0.015764 0.017818 0.024047 -0.039807 0.082928 -0.033765
# 6 -0.001198 -0.005916 -0.016226 0.012440 -0.033765 0.051943
#
#
# Mechanical properties :
#
#
# Convention : Reuss Voigt Hill
#
# Bulk Modulus (GPa) = 12.37406 31.90389 22.13898
# Shear Modulus (GPa) = 18.37224 31.37768 24.87496
#
# Velocity S-wave (km/s) = 2.89633 3.78510 3.37014
# Velocity P-wave (km/s) = 4.10304 5.80257 5.02517
#
# Compressibility (1/GPa) = 0.08081420
#
# Stress axis : x y z
#
# Youngs Moduli (GPa) = 55.01917 37.52482 54.77170
#
# Poissons Ratio (x) = -0.14150 0.00945
# Poissons Ratio (y) = -0.20747 -0.28852
# Poissons Ratio (z) = 0.00949 -0.19767
#
# Static dielectric constant tensor:
#      x y z
#    x 2.201370 0.666880 -0.333580 
#    y 0.666880 3.325650 -0.908030 
#    z -0.333580 -0.908030 2.419820 
# 
# From -- ./inp_files/306997.got.cif
#   From: 2010.05.17/outbox.ucp.g08.bks.cvg/sg2_154_cif.got.tgz:306997.got - 2010.06.11 11:32:03.
