data_PCOD9075853
_publ_section_title
;
Structure prediction by ZEFSAII (Michael W. Deem and Ramdas Pophale) SiO2 
 PCOD9075853
Probable space group: P -1
;
_chemical_formula_sum "Si O2"
_cell_formula_units_Z 14
_cell_length_a 8.996572
_cell_length_b 14.747312
_cell_length_c 8.759367
_cell_angle_alpha 139.785101
_cell_angle_beta 90.683029
_cell_angle_gamma 108.189873
_cell_volume 650.802961
_symmetry_space_group_name_H-M "P -1"
_symmetry_group_IT_number 2
_symmetry_cell_setting 'triclinic'
loop_
_space_group_symop_operation_xyz
x,y,z
-x,-y,-z
loop_
_atom_site_type_symbol
_atom_site_label
_atom_site_fract_x
_atom_site_fract_y
_atom_site_fract_z
Si Si1 0.227789 0.493377 0.619794
Si Si2 0.506304 0.549799 0.241268
Si Si3 0.166895 0.228914 0.834254
Si Si4 0.960286 0.942643 0.683144
Si Si5 0.989434 0.428686 0.075235
Si Si6 0.668109 0.305290 0.413461
Si Si7 0.891988 0.165228 0.187331
O O1 0.330810 0.429233 0.638034
O O2 0.338405 0.611812 0.638119
O O3 0.172349 0.591147 0.859956
O O4 0.051179 0.339337 0.357325
O O5 0.472064 0.696010 0.474946
O O6 0.500000 0.500000 0.000000
O O7 0.339445 0.385808 0.089654
O O8 0.177401 0.174898 0.592886
O O9 0.017033 0.275588 0.880196
O O10 0.108004 0.083568 0.763767
O O11 0.043434 0.859769 0.679562
O O12 0.886647 0.027720 0.902132
O O13 0.153806 0.567949 0.341669
O O14 0.000000 0.500000 0.000000
O O15 0.713065 0.164708 0.196004
#
# Coordination Sequence:
#
# PCOD9075853 Si02
#       7
#     2   2   2   2   2   2   2
#     4  11  20  34  59  85 111 137 175 234 281 318
#     4  11  22  36  57  82 110 139 175 231 284 324
#     4  10  20  36  54  81 109 142 181 214 270 318
#     4  10  20  33  57  78 109 145 180 220 247 327
#     4  10  18  32  56  83 109 137 179 229 268 312
#     4  10  20  34  54  82 111 138 179 231 274 316
#     4  10  19  35  57  83 104 139 184 217 269 315
#
# _framework density 21.511887999999999
#
# number of rings (size 3 to 8) (size 9 to 14) (size 15 to 20)
#    0.000    1.714    0.000    9.000    0.000    0.000 
#    0.000    0.000    0.000   29.143    0.000    0.000 
#    0.000    0.000    0.000    0.000    0.000    0.000 
#
# Total GULP energy -78164.480186 kJ/mol
# GULP energy per Si atom -5583.177156 kJ/mol
# Density = 2.146293 g / cm^3
# Si number density = 21.511888 Si / 1000 Ang^3
#
#
#
# Elastic Constant Matrix: (Units=GPa)
#
#
# Indices 1 2 3 4 5 6 
#
# 1 102.6871 7.6040 29.2503 -9.8027 -29.0340 -6.5645
# 2 7.6040 77.6264 1.3842 -14.1771 -8.3986 -12.5315
# 3 29.2503 1.3842 67.6198 -13.5286 -20.6162 1.9074
# 4 -9.8027 -14.1771 -13.5286 37.4159 4.8965 0.3537
# 5 -29.0340 -8.3986 -20.6162 4.8965 40.0547 1.1022
# 6 -6.5645 -12.5315 1.9074 0.3537 1.1022 24.8128
#
#
#
# Elastic Compliance Matrix: (Units=1/GPa)
#
#
# Indices 1 2 3 4 5 6 
#
# 1 0.013156 0.000443 -0.003159 0.001427 0.007730 0.003584
# 2 0.000443 0.015507 0.001522 0.006024 0.003410 0.007594
# 3 -0.003159 0.001522 0.019636 0.005890 0.007471 -0.001993
# 4 0.001427 0.006024 0.005890 0.031302 0.001435 0.002457
# 5 0.007730 0.003410 0.007471 0.001435 0.034910 0.001622
# 6 0.003584 0.007594 -0.001993 0.002457 0.001622 0.045131
#
#
# Mechanical properties :
#
#
# Convention : Reuss Voigt Hill
#
# Bulk Modulus (GPa) = 21.78117 36.04558 28.91338
# Shear Modulus (GPa) = 28.19539 34.43633 31.31586
#
# Velocity S-wave (km/s) = 3.62427 4.00535 3.81956
# Velocity P-wave (km/s) = 5.25937 6.17923 5.73776
#
# Compressibility (1/GPa) = 0.04591121
#
# Stress axis : x y z
#
# Youngs Moduli (GPa) = 76.00900 64.48779 50.92637
#
# Poissons Ratio (x) = -0.02857 0.16087
# Poissons Ratio (y) = -0.03368 -0.07749
# Poissons Ratio (z) = 0.24010 -0.09813
#
# Static dielectric constant tensor:
#      x y z
#    x 1.804250 0.028550 -0.067920 
#    y 0.028550 1.811980 0.007270 
#    z -0.067920 0.007270 1.849830 
# 
# From -- ./inp_files/153946.got.cif
#   From: 2010.05.17/outbox.cif.g08.bks.cpg/sg2_77_cif.got.tgz:153946.got - 2010.06.03 11:33:40.
