data_PCOD9075735
_publ_section_title
;
Structure prediction by ZEFSAII (Michael W. Deem and Ramdas Pophale) SiO2 
 PCOD9075735
Probable space group: P -1
;
_chemical_formula_sum "Si O2"
_cell_formula_units_Z 16
_cell_length_a 9.164965
_cell_length_b 8.339665
_cell_length_c 27.482983
_cell_angle_alpha 135.790486
_cell_angle_beta 24.592111
_cell_angle_gamma 130.799072
_cell_volume 609.539628
_symmetry_space_group_name_H-M "P -1"
_symmetry_group_IT_number 2
_symmetry_cell_setting 'triclinic'
loop_
_space_group_symop_operation_xyz
x,y,z
-x,-y,-z
loop_
_atom_site_type_symbol
_atom_site_label
_atom_site_fract_x
_atom_site_fract_y
_atom_site_fract_z
Si Si1 0.350855 0.882771 0.789742
Si Si2 0.150270 0.510791 0.304190
Si Si3 0.868388 0.296904 0.749023
Si Si4 0.233876 0.802526 0.966794
Si Si5 0.793077 0.493565 0.610572
Si Si6 0.238933 0.597282 0.024882
Si Si7 0.590326 0.002558 0.640559
Si Si8 0.207478 0.134624 0.704965
O O1 0.588461 0.100936 0.778613
O O2 0.464374 0.851562 0.692176
O O3 0.488064 0.682411 0.738810
O O4 0.948182 0.954813 0.935439
O O5 0.979939 0.597169 0.324393
O O6 0.373970 0.277636 0.180423
O O7 0.987343 0.485863 0.401891
O O8 0.428950 0.727953 0.276152
O O9 0.113059 0.163881 0.683819
O O10 0.634014 0.500375 0.887578
O O11 0.999861 0.617212 0.967661
O O12 0.212848 0.767251 0.023551
O O13 0.582978 0.258707 0.621270
O O14 0.000000 0.500000 0.500000
O O15 0.087111 0.724260 0.145372
O O16 0.326986 0.931737 0.661074
O O17 0.000000 0.000000 0.500000
#
# Coordination Sequence:
#
# PCOD9075735 Si02
#       8
#     2   2   2   2   2   2   2   2
#     4  10  19  34  54  84 111 137 187 227 271 319
#     4   9  18  36  54  76 111 145 181 217 282 323
#     4   9  20  33  59  84 112 137 178 227 278 331
#     4   9  14  29  56  84 104 139 178 233 265 322
#     4  11  23  38  55  76 110 150 190 225 263 325
#     4   9  14  29  55  85 111 137 175 220 277 327
#     4  10  18  32  55  77 104 145 192 224 252 313
#     4  11  19  36  56  84 110 145 181 222 276 323
#
# _framework density 26.249319
#
# number of rings (size 3 to 8) (size 9 to 14) (size 15 to 20)
#    0.000    2.250    3.750    3.375    0.000    0.500 
#    0.000    7.500    0.000    1.500    0.000    0.000 
#    0.000    0.000    0.000    0.000    0.000    0.000 
#
# Total GULP energy -89227.352236 kJ/mol
# GULP energy per Si atom -5576.709515 kJ/mol
# Density = 2.618957 g / cm^3
# Si number density = 26.249319 Si / 1000 Ang^3
#
#
#
# Elastic Constant Matrix: (Units=GPa)
#
#
# Indices 1 2 3 4 5 6 
#
# 1 183.0084 21.7170 38.1457 -5.3272 -1.0990 -42.1044
# 2 21.7170 28.8403 8.9839 8.2398 -5.8532 -2.1682
# 3 38.1457 8.9839 82.9675 0.8345 -0.3165 -7.3066
# 4 -5.3272 8.2398 0.8345 27.5725 -17.9321 -2.2522
# 5 -1.0990 -5.8532 -0.3165 -17.9321 39.6810 -0.7442
# 6 -42.1044 -2.1682 -7.3066 -2.2522 -0.7442 39.9913
#
#
#
# Elastic Compliance Matrix: (Units=1/GPa)
#
#
# Indices 1 2 3 4 5 6 
#
# 1 0.009085 -0.006575 -0.002717 0.005911 0.002102 0.009085
# 2 -0.006575 0.044076 -0.002109 -0.015328 -0.000733 -0.005794
# 3 -0.002717 -0.002109 0.013486 -0.000761 -0.000633 -0.000565
# 4 0.005911 -0.015328 -0.000761 0.058764 0.024621 0.009021
# 5 0.002102 -0.000733 -0.000633 0.024621 0.036350 0.004121
# 6 0.009085 -0.005794 -0.000565 0.009021 0.004121 0.034738
#
#
# Mechanical properties :
#
#
# Convention : Reuss Voigt Hill
#
# Bulk Modulus (GPa) = 22.80635 48.05659 35.43147
# Shear Modulus (GPa) = 21.37535 36.51360 28.94448
#
# Velocity S-wave (km/s) = 2.85673 3.73370 3.32426
# Velocity P-wave (km/s) = 4.42588 6.07740 5.31617
#
# Compressibility (1/GPa) = 0.04384743
#
# Stress axis : x y z
#
# Youngs Moduli (GPa) = 110.06565 22.68795 74.15234
#
# Poissons Ratio (x) = 0.14916 0.20145
# Poissons Ratio (y) = 0.72363 0.15637
# Poissons Ratio (z) = 0.29901 0.04784
#
# Static dielectric constant tensor:
#      x y z
#    x 2.505780 -0.256320 -0.030750 
#    y -0.256320 2.263850 0.065110 
#    z -0.030750 0.065110 2.132750 
# 
# From -- ./inp_files/186679.got.cif
#   From: 2010.05.17/outbox.cif.g08.bks.cpg/sg2_94_cif.got.tgz:186679.got - 2010.06.03 11:33:40.
