data_PCOD9075801
_publ_section_title
;
Structure prediction by ZEFSAII (Michael W. Deem and Ramdas Pophale) SiO2 
 PCOD9075801
Probable space group: P -1
;
_chemical_formula_sum "Si O2"
_cell_formula_units_Z 16
_cell_length_a 17.945864
_cell_length_b 11.848906
_cell_length_c 9.129207
_cell_angle_alpha 77.763135
_cell_angle_beta 128.853623
_cell_angle_gamma 142.281306
_cell_volume 742.167165
_symmetry_space_group_name_H-M "P -1"
_symmetry_group_IT_number 2
_symmetry_cell_setting 'triclinic'
loop_
_space_group_symop_operation_xyz
x,y,z
-x,-y,-z
loop_
_atom_site_type_symbol
_atom_site_label
_atom_site_fract_x
_atom_site_fract_y
_atom_site_fract_z
Si Si1 0.342266 0.434384 0.678845
Si Si2 0.015251 0.885151 0.860520
Si Si3 0.767808 0.297030 0.647114
Si Si4 0.799073 0.495023 0.196694
Si Si5 0.493216 0.849734 0.835784
Si Si6 0.970463 0.628378 0.068685
Si Si7 0.697353 0.643692 0.019202
Si Si8 0.079866 0.766072 0.725813
O O1 0.430338 0.653619 0.761711
O O2 0.499252 0.505092 0.807498
O O3 0.188372 0.289304 0.403422
O O4 0.251890 0.298638 0.759512
O O5 0.096091 0.884728 0.832290
O O6 0.997154 0.788080 0.007826
O O7 0.154874 0.138267 0.962995
O O8 0.570033 0.130020 0.377919
O O9 0.819348 0.411403 0.831848
O O10 0.929968 0.521061 0.679136
O O11 0.827971 0.226789 0.746197
O O12 0.638515 0.260709 0.155637
O O13 0.975593 0.701135 0.469034
O O14 0.889299 0.532187 0.156514
O O15 0.699067 0.510470 0.023809
O O16 0.714173 0.074331 0.083930
#
# Coordination Sequence:
#
# PCOD9075801 Si02
#       8
#     2   2   2   2   2   2   2   2
#     4  10  18  32  55  87 110 139 190 230 263 321
#     4  11  19  35  58  81 111 151 191 222 263 334
#     4   9  20  41  62  79 105 151 191 229 277 328
#     4  10  22  37  53  86 120 144 178 234 286 323
#     4  10  18  36  60  86 111 142 190 236 268 324
#     4  10  21  40  59  78 117 150 180 230 285 335
#     4  10  20  31  57  82 113 147 185 227 272 320
#     4  10  19  35  60  87 109 143 193 233 268 326
#
# _framework density 21.558485000000001
#
# number of rings (size 3 to 8) (size 9 to 14) (size 15 to 20)
#    0.000    2.000    6.250    0.375    0.000    2.500 
#    0.000   13.750    0.000    0.000    0.000    0.000 
#    0.000    0.000    0.000    0.000    0.000    0.000 
#
# Total GULP energy -89376.068650 kJ/mol
# GULP energy per Si atom -5586.004291 kJ/mol
# Density = 2.150942 g / cm^3
# Si number density = 21.558485 Si / 1000 Ang^3
#
#
#
# Elastic Constant Matrix: (Units=GPa)
#
#
# Indices 1 2 3 4 5 6 
#
# 1 60.1798 -2.0597 29.9264 -3.8546 -0.1296 5.9966
# 2 -2.0597 17.9063 13.6637 1.8121 -2.0237 -5.2570
# 3 29.9264 13.6637 81.9971 -8.8441 33.5568 11.3959
# 4 -3.8546 1.8121 -8.8441 24.6273 3.6295 10.1807
# 5 -0.1296 -2.0237 33.5568 3.6295 24.5378 -9.7529
# 6 5.9966 -5.2570 11.3959 10.1807 -9.7529 22.3006
#
#
#
# Elastic Compliance Matrix: (Units=1/GPa)
#
#
# Indices 1 2 3 4 5 6 
#
# 1 0.018390 -0.004221 0.000294 0.010336 -0.007841 -0.014238
# 2 -0.004221 0.026764 0.018457 0.021003 -0.037236 -0.027861
# 3 0.000294 0.018457 -0.007219 -0.019074 0.025228 0.027702
# 4 0.010336 0.021003 -0.019074 0.023436 0.030127 0.014396
# 5 -0.007841 -0.037236 0.025228 0.030127 -0.017621 -0.041021
# 6 -0.014238 -0.027861 0.027702 0.014396 -0.041021 0.003434
#
#
# Mechanical properties :
#
#
# Convention : Reuss Voigt Hill
#
# Bulk Modulus (GPa) = 14.92669 27.01601 20.97135
# Shear Modulus (GPa) = 123.58770 22.19666 72.89218
#
# Velocity S-wave (km/s) = 7.57965 3.21222 5.82106
# Velocity P-wave (km/s) = 9.14004 5.12996 7.41137
#
# Compressibility (1/GPa) = 0.06699410
#
# Stress axis : x y z
#
# Youngs Moduli (GPa) = 54.37691 37.36407 -138.52173
#
# Poissons Ratio (x) = 0.15771 0.04070
# Poissons Ratio (y) = 0.22952 2.55667
# Poissons Ratio (z) = -0.01598 -0.68962
#
# Static dielectric constant tensor:
#      x y z
#    x 1.810770 -0.015950 0.004490 
#    y -0.015950 1.819900 -0.018470 
#    z 0.004490 -0.018470 1.768770 
# 
# From -- ./inp_files/256043.got.cif
#   From: 2010.05.17/outbox.cif.g08.bks.cpg/sg2_129_cif.got.tgz:256043.got - 2010.06.03 11:33:40.
