data_PCOD9075726
_publ_section_title
;
Structure prediction by ZEFSAII (Michael W. Deem and Ramdas Pophale) SiO2 
 PCOD9075726
Probable space group: P -1
;
_chemical_formula_sum "Si O2"
_cell_formula_units_Z 14
_cell_length_a 7.878883
_cell_length_b 8.019091
_cell_length_c 16.880489
_cell_angle_alpha 32.855550
_cell_angle_beta 70.836063
_cell_angle_gamma 66.748745
_cell_volume 531.613328
_symmetry_space_group_name_H-M "P -1"
_symmetry_group_IT_number 2
_symmetry_cell_setting 'triclinic'
loop_
_space_group_symop_operation_xyz
x,y,z
-x,-y,-z
loop_
_atom_site_type_symbol
_atom_site_label
_atom_site_fract_x
_atom_site_fract_y
_atom_site_fract_z
Si Si1 0.737940 0.648387 0.077301
Si Si2 0.217764 0.158102 0.310869
Si Si3 0.892871 0.403289 0.482543
Si Si4 0.477843 0.414115 0.435771
Si Si5 0.720678 0.441325 0.994748
Si Si6 0.335050 0.623061 0.213129
Si Si7 0.199658 0.254565 0.793949
O O1 0.793202 0.430435 0.078533
O O2 0.530817 0.612059 0.143442
O O3 0.834269 0.622526 0.159556
O O4 0.736264 0.004991 0.907931
O O5 0.209441 0.476122 0.232791
O O6 0.062835 0.957663 0.409718
O O7 0.390664 0.916806 0.424479
O O8 0.240102 0.260679 0.176563
O O9 0.680898 0.476215 0.518326
O O10 0.912630 0.597582 0.324671
O O11 0.000000 0.500000 0.500000
O O12 0.370538 0.410896 0.371000
O O13 0.603554 0.659407 0.294366
O O14 0.791828 0.113679 0.068607
O O15 0.500000 0.500000 0.000000
#
# Coordination Sequence:
#
# PCOD9075726 Si02
#       7
#     2   2   2   2   2   2   2
#     4  10  19  31  55  94 128 147 182 244 301 352
#     4  11  20  35  61  91 118 154 194 242 297 349
#     4  11  24  42  59  80 117 161 203 245 289 346
#     4  10  21  36  59  88 118 152 195 243 297 348
#     4  12  18  31  62  93 123 151 186 241 303 346
#     4  10  18  32  54  92 125 145 188 242 295 351
#     4  10  21  39  60  91 120 149 196 245 297 355
#
# _framework density 26.33493
#
# number of rings (size 3 to 8) (size 9 to 14) (size 15 to 20)
#    0.000    1.429    2.857    6.429    0.000    0.000 
#    0.000    1.429    0.000    1.714    0.000    0.000 
#    0.000    0.000    0.000    0.000    0.000    0.000 
#
# Total GULP energy -78316.824072 kJ/mol
# GULP energy per Si atom -5594.058862 kJ/mol
# Density = 2.627499 g / cm^3
# Si number density = 26.334930 Si / 1000 Ang^3
#
#
#
# Elastic Constant Matrix: (Units=GPa)
#
#
# Indices 1 2 3 4 5 6 
#
# 1 99.7934 49.9078 32.1899 11.0424 3.4134 29.1758
# 2 49.9078 155.6616 64.2694 17.8150 16.6019 46.5354
# 3 32.1899 64.2694 174.4400 13.7240 17.5577 15.8299
# 4 11.0424 17.8150 13.7240 49.0689 15.8765 7.3607
# 5 3.4134 16.6019 17.5577 15.8765 24.5991 15.9543
# 6 29.1758 46.5354 15.8299 7.3607 15.9543 55.7699
#
#
#
# Elastic Compliance Matrix: (Units=1/GPa)
#
#
# Indices 1 2 3 4 5 6 
#
# 1 0.013594 -0.002171 -0.001574 -0.003086 0.006848 -0.006405
# 2 -0.002171 0.010392 -0.002755 -0.001746 0.000751 -0.006738
# 3 -0.001574 -0.002755 0.007282 0.000597 -0.005081 0.002430
# 4 -0.003086 -0.001746 0.000597 0.027114 -0.019498 0.004901
# 5 0.006848 0.000751 -0.005081 -0.019498 0.068182 -0.019698
# 6 -0.006405 -0.006738 0.002430 0.004901 -0.019698 0.031202
#
#
# Mechanical properties :
#
#
# Convention : Reuss Voigt Hill
#
# Bulk Modulus (GPa) = 54.74017 80.29213 67.51615
# Shear Modulus (GPa) = 28.27178 44.78945 36.53061
#
# Velocity S-wave (km/s) = 3.28006 4.12850 3.72849
# Velocity P-wave (km/s) = 5.93096 7.29939 6.65047
#
# Compressibility (1/GPa) = 0.01826812
#
# Stress axis : x y z
#
# Youngs Moduli (GPa) = 73.56221 96.23132 137.32544
#
# Poissons Ratio (x) = 0.20892 0.21614
# Poissons Ratio (y) = 0.15970 0.37830
# Poissons Ratio (z) = 0.11578 0.26510
#
# Static dielectric constant tensor:
#      x y z
#    x 2.193360 -0.043250 0.022020 
#    y -0.043250 2.117290 -0.040370 
#    z 0.022020 -0.040370 2.023910 
# 
# From -- ./inp_files/555794.got.cif
#   From: 2010.05.17/outbox.cif.g08.bks.cpg/sg2_278_cif.got.tgz:555794.got - 2010.06.03 11:33:40.
