data_PCOD9075723
_publ_section_title
;
Structure prediction by ZEFSAII (Michael W. Deem and Ramdas Pophale) SiO2 
 PCOD9075723
Probable space group: P -1
;
_chemical_formula_sum "Si O2"
_cell_formula_units_Z 16
_cell_length_a 13.957340
_cell_length_b 15.675917
_cell_length_c 9.395144
_cell_angle_alpha 141.409606
_cell_angle_beta 59.942610
_cell_angle_gamma 139.022414
_cell_volume 820.554402
_symmetry_space_group_name_H-M "P -1"
_symmetry_group_IT_number 2
_symmetry_cell_setting 'triclinic'
loop_
_space_group_symop_operation_xyz
x,y,z
-x,-y,-z
loop_
_atom_site_type_symbol
_atom_site_label
_atom_site_fract_x
_atom_site_fract_y
_atom_site_fract_z
Si Si1 0.528259 0.391893 0.242035
Si Si2 0.307238 0.756767 0.735476
Si Si3 0.379334 0.101299 0.189758
Si Si4 0.817874 0.461521 0.196767
Si Si5 0.392252 0.549072 0.049381
Si Si6 0.343579 0.813740 0.443956
Si Si7 0.675327 0.795799 0.359491
Si Si8 0.158534 0.794172 0.329845
O O1 0.500000 0.500000 0.500000
O O2 0.411932 0.183858 0.116529
O O3 0.690598 0.462480 0.246787
O O4 0.514620 0.407763 0.106444
O O5 0.464487 0.828472 0.772329
O O6 0.190545 0.566999 0.662529
O O7 0.330419 0.792334 0.596171
O O8 0.274737 0.883779 0.976850
O O9 0.329101 0.176416 0.433138
O O10 0.979989 0.644913 0.265848
O O11 0.787609 0.288057 0.918178
O O12 0.321205 0.636646 0.186270
O O13 0.509276 0.665993 0.243509
O O14 0.284697 0.329199 0.864006
O O15 0.217830 0.801887 0.451192
O O16 0.500000 0.000000 0.500000
O O17 0.771192 0.001196 0.495224
#
# Coordination Sequence:
#
# PCOD9075723 Si02
#       8
#     2   2   2   2   2   2   2   2
#     4  11  21  36  60  87 115 151 204 248 290 357
#     4  10  20  33  57  85 118 149 196 249 294 345
#     4  10  18  32  54  88 115 143 190 250 299 335
#     4  10  23  38  61  84 119 164 198 243 301 354
#     4  11  22  35  57  93 118 151 197 240 308 349
#     4  12  21  36  63  92 117 152 203 254 292 348
#     4  11  21  36  57  87 124 154 187 249 306 346
#     4  11  22  40  59  86 124 158 200 245 297 357
#
# _framework density 19.499010999999999
#
# number of rings (size 3 to 8) (size 9 to 14) (size 15 to 20)
#    0.000    1.250    6.250    0.750    1.750    0.500 
#    0.000    0.625    2.750    1.500    0.000    0.000 
#    0.000    0.000    0.000    0.000    0.000    0.000 
#
# Total GULP energy -89146.501463 kJ/mol
# GULP energy per Si atom -5571.656341 kJ/mol
# Density = 1.945463 g / cm^3
# Si number density = 19.499011 Si / 1000 Ang^3
#
#
#
# Elastic Constant Matrix: (Units=GPa)
#
#
# Indices 1 2 3 4 5 6 
#
# 1 46.0374 30.6723 14.3915 7.2003 -12.0134 -9.9695
# 2 30.6723 70.5079 36.6589 5.4106 -6.9609 -20.5189
# 3 14.3915 36.6589 95.2267 11.4750 -19.4150 -6.2283
# 4 7.2003 5.4106 11.4750 39.9368 -16.2622 1.7476
# 5 -12.0134 -6.9609 -19.4150 -16.2622 28.7937 -6.3506
# 6 -9.9695 -20.5189 -6.2283 1.7476 -6.3506 31.0080
#
#
#
# Elastic Compliance Matrix: (Units=1/GPa)
#
#
# Indices 1 2 3 4 5 6 
#
# 1 0.035033 -0.013878 0.003464 0.000487 0.015163 0.005854
# 2 -0.013878 0.027736 -0.008218 -0.000304 -0.002193 0.011809
# 3 0.003464 -0.008218 0.015205 0.000142 0.009958 0.000761
# 4 0.000487 -0.000304 0.000142 0.032647 0.019118 0.002059
# 5 0.015163 -0.002193 0.009958 0.019118 0.061788 0.017001
# 6 0.005854 0.011809 0.000761 0.002059 0.017001 0.045465
#
#
# Mechanical properties :
#
#
# Convention : Reuss Voigt Hill
#
# Bulk Modulus (GPa) = 24.56452 41.69083 33.12767
# Shear Modulus (GPa) = 18.60757 28.61766 23.61262
#
# Velocity S-wave (km/s) = 3.09250 3.83514 3.48367
# Velocity P-wave (km/s) = 5.03752 6.40613 5.76260
#
# Compressibility (1/GPa) = 0.04070913
#
# Stress axis : x y z
#
# Youngs Moduli (GPa) = 28.54454 36.05388 65.76973
#
# Poissons Ratio (x) = 0.50034 -0.22780
# Poissons Ratio (y) = 0.39613 0.54052
# Poissons Ratio (z) = -0.09887 0.29630
#
# Static dielectric constant tensor:
#      x y z
#    x 1.684660 -0.037650 -0.019230 
#    y -0.037650 1.721440 -0.004160 
#    z -0.019230 -0.004160 1.747810 
# 
# From -- ./inp_files/256890.got.cif
#   From: 2010.05.17/outbox.cif.g08.bks.cpg/sg2_129_cif.got.tgz:256890.got - 2010.06.03 11:33:40.
