data_PCOD9075999
_publ_section_title
;
Structure prediction by ZEFSAII (Michael W. Deem and Ramdas Pophale) SiO2 
 PCOD9075999
Probable space group: P -1
;
_chemical_formula_sum "Si O2"
_cell_formula_units_Z 16
_cell_length_a 17.973696
_cell_length_b 22.990025
_cell_length_c 12.772568
_cell_angle_alpha 27.675524
_cell_angle_beta 27.353098
_cell_angle_gamma 16.594294
_cell_volume 668.357324
_symmetry_space_group_name_H-M "P -1"
_symmetry_group_IT_number 2
_symmetry_cell_setting 'triclinic'
loop_
_space_group_symop_operation_xyz
x,y,z
-x,-y,-z
loop_
_atom_site_type_symbol
_atom_site_label
_atom_site_fract_x
_atom_site_fract_y
_atom_site_fract_z
Si Si1 0.569444 0.682920 0.273849
Si Si2 0.234767 0.093332 0.136353
Si Si3 0.614855 0.379114 0.747934
Si Si4 0.358911 0.693325 0.933753
Si Si5 0.952740 0.507126 0.876446
Si Si6 0.727896 0.042415 0.123048
Si Si7 0.450305 0.033471 0.363452
Si Si8 0.223486 0.030931 0.478868
O O1 0.481862 0.591713 0.538318
O O2 0.776806 0.597036 0.245130
O O3 0.317661 0.935527 0.201744
O O4 0.758329 0.583056 0.094528
O O5 0.142009 0.084845 0.374012
O O6 0.034000 0.335300 0.980073
O O7 0.500000 0.000000 0.000000
O O8 0.543358 0.384583 0.946136
O O9 0.603161 0.252519 0.905916
O O10 0.937395 0.212009 0.608557
O O11 0.500000 0.500000 0.000000
O O12 0.398303 0.801535 0.656012
O O13 0.032666 0.878875 0.040267
O O14 0.786394 0.723902 0.687946
O O15 0.715816 0.946789 0.199169
O O16 0.578727 0.072100 0.361934
O O17 0.391972 0.039926 0.305286
#
# Coordination Sequence:
#
# PCOD9075999 Si02
#       8
#     2   2   2   2   2   2   2   2
#     4  10  18  32  58  85 117 144 198 245 284 334
#     4  10  20  31  54  93 115 145 200 245 286 336
#     4  11  18  37  59  86 111 149 199 239 292 340
#     4  11  21  35  58  87 113 147 197 244 292 339
#     4  10  18  33  54  84 113 157 188 239 292 336
#     4  10  22  36  58  85 111 156 191 239 293 352
#     4  11  19  36  60  80 118 152 197 232 293 357
#     4  11  18  34  59  84 113 150 193 244 282 344
#
# _framework density 23.939291000000001
#
# number of rings (size 3 to 8) (size 9 to 14) (size 15 to 20)
#    0.000    1.500    5.000    3.000    0.000    1.000 
#    0.000    1.250    8.250    0.750    0.000    0.000 
#    0.000    0.000    0.000    0.000    0.000    0.000 
#
# Total GULP energy -89318.538304 kJ/mol
# GULP energy per Si atom -5582.408644 kJ/mol
# Density = 2.388480 g / cm^3
# Si number density = 23.939291 Si / 1000 Ang^3
#
#
#
# Elastic Constant Matrix: (Units=GPa)
#
#
# Indices 1 2 3 4 5 6 
#
# 1 43.6765 -5.8647 10.3653 -1.8581 -12.3843 3.3080
# 2 -5.8647 85.9085 29.8221 -37.3103 -7.8343 23.8349
# 3 10.3653 29.8221 116.8190 -39.0229 -18.0830 16.3102
# 4 -1.8581 -37.3103 -39.0229 34.9076 10.5278 -7.6813
# 5 -12.3843 -7.8343 -18.0830 10.5278 28.1893 -11.6195
# 6 3.3080 23.8349 16.3102 -7.6813 -11.6195 26.4886
#
#
#
# Elastic Compliance Matrix: (Units=1/GPa)
#
#
# Indices 1 2 3 4 5 6 
#
# 1 0.027085 0.003578 -0.001412 0.000019 0.011743 -0.000576
# 2 0.003578 0.035122 0.007350 0.043151 -0.012190 -0.029410
# 3 -0.001412 0.007350 0.015948 0.023827 -0.001342 -0.009936
# 4 0.000019 0.043151 0.023827 0.101216 -0.024988 -0.035113
# 5 0.011743 -0.012190 -0.001342 -0.024988 0.057359 0.028244
# 6 -0.000576 -0.029410 -0.009936 -0.035113 0.028244 0.072614
#
#
# Mechanical properties :
#
#
# Convention : Reuss Voigt Hill
#
# Bulk Modulus (GPa) = 10.28928 35.00549 22.64738
# Shear Modulus (GPa) = 15.49390 32.05586 23.77488
#
# Velocity S-wave (km/s) = 2.54680 3.66327 3.15482
# Velocity P-wave (km/s) = 3.59940 5.70501 4.76984
#
# Compressibility (1/GPa) = 0.09718857
#
# Stress axis : x y z
#
# Youngs Moduli (GPa) = 36.92022 28.47230 62.70268
#
# Poissons Ratio (x) = -0.10188 0.08854
# Poissons Ratio (y) = -0.13211 -0.46088
# Poissons Ratio (z) = 0.05213 -0.20928
#
# Static dielectric constant tensor:
#      x y z
#    x 2.011470 -0.013520 0.018360 
#    y -0.013520 1.951830 0.017630 
#    z 0.018360 0.017630 2.037390 
# 
# From -- ./inp_files/258539.got.cif
#   From: 2010.05.17/outbox.cif.g08.bks.cpg/sg2_130_cif.got.tgz:258539.got - 2010.06.03 11:33:40.
