data_PCOD9075139
_publ_section_title
;
Structure prediction by ZEFSAII (Michael W. Deem and Ramdas Pophale) SiO2 
 PCOD9075139
Probable space group: P -1
;
_chemical_formula_sum "Si O2"
_cell_formula_units_Z 16
_cell_length_a 24.000000
_cell_length_b 6.000000
_cell_length_c 18.000000
_cell_angle_alpha 110.000000
_cell_angle_beta 20.000000
_cell_angle_gamma 100.000000
_cell_volume 739.811505
_symmetry_space_group_name_H-M "P -1"
_symmetry_group_IT_number 2
_symmetry_cell_setting 'triclinic'
loop_
_space_group_symop_operation_xyz
x,y,z
-x,-y,-z
loop_
_atom_site_type_symbol
_atom_site_label
_atom_site_fract_x
_atom_site_fract_y
_atom_site_fract_z
Si Si1 0.458138 0.943216 0.462732
Si Si2 0.340868 0.510436 0.407844
Si Si3 0.705901 0.161121 0.840296
Si Si4 0.077285 0.196829 0.347971
Si Si5 0.859228 0.729510 0.889607
Si Si6 0.976353 0.956452 0.190214
Si Si7 0.178132 0.188656 0.483036
Si Si8 0.285876 0.520686 0.651768
O O1 0.367826 0.740343 0.565614
O O2 0.500000 0.000000 0.500000
O O3 0.368672 0.233215 0.561977
O O4 0.655326 0.767756 0.157975
O O5 0.284003 0.334806 0.404653
O O6 0.305848 0.446304 0.529759
O O7 0.200293 0.821585 0.606227
O O8 0.542756 0.429963 0.110578
O O9 0.900729 0.154549 0.580317
O O10 0.690158 0.039279 0.766083
O O11 0.751631 0.963662 0.830825
O O12 0.000000 0.500000 0.500000
O O13 0.125529 0.156745 0.196426
O O14 0.009614 0.420600 0.674803
O O15 0.902972 0.896359 0.917447
O O16 0.906521 0.893062 0.348944
O O17 0.096838 0.706784 0.956147
#
# Coordination Sequence:
#
# PCOD9075139 Si02
#       8
#     2   2   2   2   2   2   2   2
#     4  12  26  45  77 107 146 185 234 299 359 434
#     4  11  28  45  68 102 135 192 241 293 345 423
#     4  11  24  44  68 102 137 179 236 289 361 425
#     4  11  23  40  68  99 137 175 219 295 356 427
#     4  11  23  42  68 105 138 183 231 287 369 426
#     4  11  25  46  70  96 142 188 235 292 352 422
#     4  11  24  44  70  96 140 188 235 292 352 427
#     4  12  28  48  74 109 144 189 242 299 358 420
#
# _framework density 21.627130999999999
#
# number of rings (size 3 to 8) (size 9 to 14) (size 15 to 20)
#    0.000    0.750    3.750    2.625    7.000    2.000 
#    0.000    0.000    0.000    0.000    0.000    0.000 
#    0.000    0.000    0.000    0.000    0.000    0.000 
#
# Total GULP energy -89174.084292 kJ/mol
# GULP energy per Si atom -5573.380268 kJ/mol
# Density = 2.157791 g / cm^3
# Si number density = 21.627131 Si / 1000 Ang^3
#
#
#
# Elastic Constant Matrix: (Units=GPa)
#
#
# Indices 1 2 3 4 5 6 
#
# 1 122.8697 20.8319 39.2814 10.3661 29.1028 -25.1503
# 2 20.8319 73.7237 2.0798 -0.1361 -5.7813 -16.8086
# 3 39.2814 2.0798 111.5556 0.3883 28.8697 -12.5946
# 4 10.3661 -0.1361 0.3883 32.0858 -1.2901 9.9879
# 5 29.1028 -5.7813 28.8697 -1.2901 31.1099 -0.8663
# 6 -25.1503 -16.8086 -12.5946 9.9879 -0.8663 49.3941
#
#
#
# Elastic Compliance Matrix: (Units=1/GPa)
#
#
# Indices 1 2 3 4 5 6 
#
# 1 0.014185 -0.003428 -0.000621 -0.007356 -0.013437 0.007150
# 2 -0.003428 0.015889 -0.000403 0.000323 0.006647 0.003610
# 3 -0.000621 -0.000403 0.012329 -0.001245 -0.010910 0.002751
# 4 -0.007356 0.000323 -0.001245 0.037473 0.009334 -0.011366
# 5 -0.013437 0.006647 -0.010910 0.009334 0.056230 -0.008263
# 6 0.007150 0.003610 0.002751 -0.011366 -0.008263 0.027969
#
#
# Mechanical properties :
#
#
# Convention : Reuss Voigt Hill
#
# Bulk Modulus (GPa) = 29.85168 48.05947 38.95557
# Shear Modulus (GPa) = 27.15254 38.91503 33.03379
#
# Velocity S-wave (km/s) = 3.54713 4.24649 3.91247
# Velocity P-wave (km/s) = 5.53254 6.80541 6.20172
#
# Compressibility (1/GPa) = 0.03349896
#
# Stress axis : x y z
#
# Youngs Moduli (GPa) = 70.49710 62.93631 81.11241
#
# Poissons Ratio (x) = 0.21574 0.05036
# Poissons Ratio (y) = 0.24166 0.03269
# Poissons Ratio (z) = 0.04377 0.02537
#
# Static dielectric constant tensor:
#      x y z
#    x 1.836660 0.047450 -0.055620 
#    y 0.047450 1.741760 -0.020010 
#    z -0.055620 -0.020010 1.820170 
# 
# From -- ./inp_files/323857.got.cif
#   From: 2010.05.17/outbox.ucp.g08.bks.cvg/sg2_162_cif.got.tgz:323857.got - 2010.06.11 11:32:03.
