data_PCOD9075907
_publ_section_title
;
Structure prediction by ZEFSAII (Michael W. Deem and Ramdas Pophale) SiO2 
 PCOD9075907
Probable space group: P -1
;
_chemical_formula_sum "Si O2"
_cell_formula_units_Z 16
_cell_length_a 8.977588
_cell_length_b 11.858102
_cell_length_c 7.658459
_cell_angle_alpha 65.489387
_cell_angle_beta 98.242310
_cell_angle_gamma 115.989173
_cell_volume 666.074260
_symmetry_space_group_name_H-M "P -1"
_symmetry_group_IT_number 2
_symmetry_cell_setting 'triclinic'
loop_
_space_group_symop_operation_xyz
x,y,z
-x,-y,-z
loop_
_atom_site_type_symbol
_atom_site_label
_atom_site_fract_x
_atom_site_fract_y
_atom_site_fract_z
Si Si1 0.316240 0.166901 0.871168
Si Si2 0.194635 0.596429 0.988404
Si Si3 0.466054 0.533226 0.171060
Si Si4 0.744648 0.459145 0.345525
Si Si5 0.066832 0.688025 0.359945
Si Si6 0.905463 0.903055 0.776978
Si Si7 0.101069 0.201066 0.502258
Si Si8 0.232924 0.880871 0.976937
O O1 0.188338 0.115894 0.044901
O O2 0.360887 0.041329 0.903556
O O3 0.453394 0.305816 0.877471
O O4 0.232475 0.207389 0.667570
O O5 0.275665 0.508448 0.163566
O O6 0.242412 0.748001 0.976559
O O7 0.268025 0.614593 0.793240
O O8 0.000000 0.500000 0.000000
O O9 0.573087 0.471758 0.341436
O O10 0.500000 0.500000 0.000000
O O11 0.814017 0.387706 0.545410
O O12 0.904096 0.606642 0.265152
O O13 0.175996 0.829548 0.196270
O O14 0.986822 0.702639 0.519112
O O15 0.822725 0.794378 0.678393
O O16 0.952166 0.050441 0.605151
O O17 0.076961 0.892524 0.850404
#
# Coordination Sequence:
#
# PCOD9075907 Si02
#       8
#     2   2   2   2   2   2   2   2
#     4  11  20  39  65  91 137 170 213 275 330 376
#     4  11  23  40  65  94 123 169 224 270 324 397
#     4  10  23  43  66  89 130 173 217 269 338 383
#     4  10  21  37  62  89 130 174 210 263 323 379
#     4  11  18  34  61  93 132 171 210 266 318 378
#     4  10  19  31  60  98 132 172 215 261 318 385
#     4  10  18  32  57 100 136 169 215 263 315 383
#     4  11  20  36  62  96 128 169 220 267 320 387
#
# _framework density 24.021345
#
# number of rings (size 3 to 8) (size 9 to 14) (size 15 to 20)
#    0.000    1.500    5.000    1.500    1.750    0.500 
#    0.000    0.625    5.500    3.000    0.000    0.000 
#    0.000    0.000    0.000    0.000    0.000    0.000 
#
# Total GULP energy -89296.296746 kJ/mol
# GULP energy per Si atom -5581.018547 kJ/mol
# Density = 2.396667 g / cm^3
# Si number density = 24.021345 Si / 1000 Ang^3
#
#
#
# Elastic Constant Matrix: (Units=GPa)
#
#
# Indices 1 2 3 4 5 6 
#
# 1 126.4376 45.4557 37.2808 2.2425 36.2966 -27.2676
# 2 45.4557 155.6907 17.3918 8.7481 7.0996 -24.2322
# 3 37.2808 17.3918 49.3653 7.7109 12.4966 -8.9029
# 4 2.2425 8.7481 7.7109 39.3613 -8.6145 -2.4754
# 5 36.2966 7.0996 12.4966 -8.6145 35.9657 -2.0359
# 6 -27.2676 -24.2322 -8.9029 -2.4754 -2.0359 37.2807
#
#
#
# Elastic Compliance Matrix: (Units=1/GPa)
#
#
# Indices 1 2 3 4 5 6 
#
# 1 0.016251 -0.002040 -0.006328 -0.001727 -0.013749 0.008183
# 2 -0.002040 0.007625 -0.000544 -0.001120 0.000661 0.003296
# 3 -0.006328 -0.000544 0.027404 -0.005782 -0.004360 0.000941
# 4 -0.001727 -0.001120 -0.005782 0.029224 0.010926 -0.000835
# 5 -0.013749 0.000661 -0.004360 0.010926 0.045259 -0.007471
# 6 0.008183 0.003296 0.000941 -0.000835 -0.007471 0.034713
#
#
# Mechanical properties :
#
#
# Convention : Reuss Voigt Hill
#
# Bulk Modulus (GPa) = 29.88885 59.08335 44.48610
# Shear Modulus (GPa) = 26.39212 37.94591 32.16901
#
# Velocity S-wave (km/s) = 3.31825 3.97882 3.66346
# Velocity P-wave (km/s) = 5.21063 6.76444 6.03773
#
# Compressibility (1/GPa) = 0.03345730
#
# Stress axis : x y z
#
# Youngs Moduli (GPa) = 61.53590 131.14511 36.49114
#
# Poissons Ratio (x) = 0.26754 0.23090
# Poissons Ratio (y) = 0.12553 0.01984
# Poissons Ratio (z) = 0.38937 0.07130
#
# Static dielectric constant tensor:
#      x y z
#    x 1.941120 0.019370 -0.004330 
#    y 0.019370 2.024830 -0.015270 
#    z -0.004330 -0.015270 1.951350 
# 
# From -- ./inp_files/185981.got.cif
#   From: 2010.05.17/outbox.cif.g08.bks.cpg/sg2_93_cif.got.tgz:185981.got - 2010.06.03 11:33:40.
