data_PCOD9075948
_publ_section_title
;
Structure prediction by ZEFSAII (Michael W. Deem and Ramdas Pophale) SiO2 
 PCOD9075948
Probable space group: P -1
;
_chemical_formula_sum "Si O2"
_cell_formula_units_Z 16
_cell_length_a 7.197746
_cell_length_b 11.315940
_cell_length_c 13.535363
_cell_angle_alpha 135.754482
_cell_angle_beta 66.946621
_cell_angle_gamma 97.304435
_cell_volume 687.290848
_symmetry_space_group_name_H-M "P -1"
_symmetry_group_IT_number 2
_symmetry_cell_setting 'triclinic'
loop_
_space_group_symop_operation_xyz
x,y,z
-x,-y,-z
loop_
_atom_site_type_symbol
_atom_site_label
_atom_site_fract_x
_atom_site_fract_y
_atom_site_fract_z
Si Si1 0.142908 0.871891 0.491365
Si Si2 0.843735 0.301023 0.400328
Si Si3 0.505647 0.423070 0.843830
Si Si4 0.313844 0.026132 0.312650
Si Si5 0.730008 0.848888 0.239747
Si Si6 0.159546 0.038177 0.908830
Si Si7 0.505804 0.214749 0.034661
Si Si8 0.687011 0.694592 0.674091
O O1 0.150705 0.760386 0.524744
O O2 0.288528 0.731759 0.306966
O O3 0.898417 0.940391 0.562633
O O4 0.229299 0.034401 0.608529
O O5 0.699591 0.492558 0.535304
O O6 0.083759 0.302833 0.327286
O O7 0.768794 0.156854 0.266987
O O8 0.311250 0.332766 0.823069
O O9 0.509157 0.584478 0.868824
O O10 0.500000 0.500000 0.000000
O O11 0.326902 0.205115 0.365514
O O12 0.513175 0.945005 0.288480
O O13 0.313680 0.901479 0.141518
O O14 0.892517 0.848562 0.115247
O O15 0.314183 0.138347 0.989684
O O16 0.000000 0.000000 0.000000
O O17 0.488138 0.211349 0.154756
#
# Coordination Sequence:
#
# PCOD9075948 Si02
#       8
#     2   2   2   2   2   2   2   2
#     4  10  22  41  69  91 125 175 214 260 323 380
#     4   9  18  32  57  90 121 162 217 246 311 388
#     4  12  22  42  69  91 128 175 212 267 321 381
#     4  10  22  39  66  98 128 164 216 263 322 380
#     4  10  23  43  64  95 129 168 219 259 317 385
#     4  10  18  32  57  87 127 159 201 261 306 370
#     4  11  21  38  62  94 129 168 212 262 323 379
#     4  10  18  34  60  88 126 167 206 260 318 374
#
# _framework density 23.279810000000001
#
# number of rings (size 3 to 8) (size 9 to 14) (size 15 to 20)
#    0.000    1.750    5.000    0.750    0.000    0.500 
#    0.000    6.250    2.750    0.000    0.000    0.000 
#    0.000    0.000    0.000    0.000    0.000    0.000 
#
# Total GULP energy -89328.102086 kJ/mol
# GULP energy per Si atom -5583.006380 kJ/mol
# Density = 2.322682 g / cm^3
# Si number density = 23.279810 Si / 1000 Ang^3
#
#
#
# Elastic Constant Matrix: (Units=GPa)
#
#
# Indices 1 2 3 4 5 6 
#
# 1 75.1355 33.9589 14.4045 -5.2739 7.3078 16.1153
# 2 33.9589 114.1884 35.9817 8.5353 11.9294 35.2378
# 3 14.4045 35.9817 109.4431 -18.5522 8.9229 18.9712
# 4 -5.2739 8.5353 -18.5522 57.0684 12.8530 3.2385
# 5 7.3078 11.9294 8.9229 12.8530 26.7547 1.2672
# 6 16.1153 35.2378 18.9712 3.2385 1.2672 33.2622
#
#
#
# Elastic Compliance Matrix: (Units=1/GPa)
#
#
# Indices 1 2 3 4 5 6 
#
# 1 0.016484 -0.003376 0.000829 0.003665 -0.004795 -0.005057
# 2 -0.003376 0.014823 -0.002289 -0.001783 -0.003477 -0.012457
# 3 0.000829 -0.002289 0.012201 0.006018 -0.005915 -0.005297
# 4 0.003665 -0.001783 0.006018 0.023343 -0.013186 -0.005090
# 5 -0.004795 -0.003477 -0.005915 -0.013186 0.048126 0.008831
# 6 -0.005057 -0.012457 -0.005297 -0.005090 0.008831 0.048891
#
#
# Mechanical properties :
#
#
# Convention : Reuss Voigt Hill
#
# Bulk Modulus (GPa) = 29.55295 51.93971 40.74633
# Shear Modulus (GPa) = 27.05353 37.71186 32.38269
#
# Velocity S-wave (km/s) = 3.41266 4.02921 3.73368
# Velocity P-wave (km/s) = 5.31513 6.63367 6.01066
#
# Compressibility (1/GPa) = 0.03383757
#
# Stress axis : x y z
#
# Youngs Moduli (GPa) = 60.66324 67.46181 81.96022
#
# Poissons Ratio (x) = 0.22776 -0.06795
# Poissons Ratio (y) = 0.20480 0.18757
# Poissons Ratio (z) = -0.05029 0.15439
#
# Static dielectric constant tensor:
#      x y z
#    x 1.935830 0.041980 -0.066460 
#    y 0.041980 1.974610 -0.043820 
#    z -0.066460 -0.043820 1.879650 
# 
# From -- ./inp_files/215163.got.cif
#   From: 2010.05.17/outbox.cif.g08.bks.cpg/sg2_108_cif.got.tgz:215163.got - 2010.06.03 11:33:40.
