data_PCOD9075429
_publ_section_title
;
Structure prediction by ZEFSAII (Michael W. Deem and Ramdas Pophale) SiO2 
 PCOD9075429
Probable space group: P -1
;
_chemical_formula_sum "Si O2"
_cell_formula_units_Z 12
_cell_length_a 9.000000
_cell_length_b 9.000000
_cell_length_c 12.000000
_cell_angle_alpha 40.000000
_cell_angle_beta 100.000000
_cell_angle_gamma 120.000000
_cell_volume 501.352703
_symmetry_space_group_name_H-M "P -1"
_symmetry_group_IT_number 2
_symmetry_cell_setting 'triclinic'
loop_
_space_group_symop_operation_xyz
x,y,z
-x,-y,-z
loop_
_atom_site_type_symbol
_atom_site_label
_atom_site_fract_x
_atom_site_fract_y
_atom_site_fract_z
Si Si1 0.997547 0.719342 0.795510
Si Si2 0.946478 0.613106 0.174737
Si Si3 0.388175 0.266360 0.529893
Si Si4 0.221963 0.076745 0.101736
Si Si5 0.328915 0.852570 0.430576
Si Si6 0.607285 0.599671 0.786256
O O1 0.027389 0.618319 0.738771
O O2 0.806142 0.681850 0.798162
O O3 0.173897 0.034168 0.659962
O O4 0.000000 0.500000 0.000000
O O5 0.792002 0.440545 0.349288
O O6 0.874066 0.756018 0.003956
O O7 0.136550 0.879086 0.096097
O O8 0.500000 0.500000 0.500000
O O9 0.493613 0.116550 0.614858
O O10 0.407134 0.438801 0.324327
O O11 0.200117 0.870258 0.314461
O O12 0.439548 0.322853 0.982538
O O13 0.400851 0.132446 0.350709
#
# Coordination Sequence:
#
# PCOD9075429 Si02
#       6
#     2   2   2   2   2   2
#     4  12  27  46  71 105 147 190 237 296 363 421
#     4  11  25  46  71 107 149 184 242 296 356 423
#     4  12  28  46  74 107 143 187 243 297 356 427
#     4  11  25  43  74 108 137 192 241 295 347 436
#     4  12  24  48  75 101 144 194 237 290 366 419
#     4  12  25  48  74 103 149 186 242 295 358 427
#
# _framework density 23.935244999999998
#
# number of rings (size 3 to 8) (size 9 to 14) (size 15 to 20)
#    0.000    0.333    3.333    5.000    4.667    2.000 
#    0.000    0.000    0.000    0.000    0.000    0.000 
#    0.000    0.000    0.000    0.000    0.000    0.000 
#
# Total GULP energy -67145.145586 kJ/mol
# GULP energy per Si atom -5595.428799 kJ/mol
# Density = 2.388077 g / cm^3
# Si number density = 23.935245 Si / 1000 Ang^3
#
#
#
# Elastic Constant Matrix: (Units=GPa)
#
#
# Indices 1 2 3 4 5 6 
#
# 1 115.0989 60.9625 6.3345 -16.7010 6.9551 22.0477
# 2 60.9625 152.4287 40.6392 -7.6013 -6.6260 26.9044
# 3 6.3345 40.6392 56.2891 1.6696 15.7502 -3.3125
# 4 -16.7010 -7.6013 1.6696 42.7487 16.7219 0.5796
# 5 6.9551 -6.6260 15.7502 16.7219 32.4723 3.3134
# 6 22.0477 26.9044 -3.3125 0.5796 3.3134 5.6764
#
#
#
# Elastic Compliance Matrix: (Units=1/GPa)
#
#
# Indices 1 2 3 4 5 6 
#
# 1 0.014155 -0.010514 0.010859 0.009490 -0.016327 0.009755
# 2 -0.010514 -0.001654 0.007451 -0.003170 -0.005859 0.056767
# 3 0.010859 0.007451 0.006436 0.006116 0.000544 -0.074680
# 4 0.009490 -0.003170 0.006116 0.035418 -0.023023 -0.008443
# 5 -0.016327 -0.005859 0.000544 -0.023023 0.037336 0.072059
# 6 0.009755 0.056767 -0.074680 -0.008443 0.072059 -0.215557
#
#
# Mechanical properties :
#
#
# Convention : Reuss Voigt Hill
#
# Bulk Modulus (GPa) = 28.96168 59.96546 44.46357
# Shear Modulus (GPa) = -39.07819 30.57152 -4.25334
#
# Velocity S-wave (km/s) = -4.04501 3.57775 -1.33449
# Velocity P-wave (km/s) = 3.11285 6.49420 4.03019
#
# Compressibility (1/GPa) = 0.03452839
#
# Stress axis : x y z
#
# Youngs Moduli (GPa) = 70.64848 -604.77070 155.38635
#
# Poissons Ratio (x) = -6.35874 -1.68734
# Poissons Ratio (y) = 0.74282 -1.15781
# Poissons Ratio (z) = -0.76717 4.50624
#
# Static dielectric constant tensor:
#      x y z
#    x 1.891840 -0.036770 -0.036480 
#    y -0.036770 1.905480 0.118170 
#    z -0.036480 0.118170 1.865750 
# 
# From -- ./inp_files/149017.got.cif
#   From: 2010.05.17/outbox.ucp.g08.bks.cvg/sg2_75_cif.got.tgz:149017.got - 2010.06.11 11:32:03.
