data_PCOD9075064
_publ_section_title
;
Structure prediction by ZEFSAII (Michael W. Deem and Ramdas Pophale) SiO2 
 PCOD9075064
Probable space group: P -1
;
_chemical_formula_sum "Si O2"
_cell_formula_units_Z 16
_cell_length_a 18.000000
_cell_length_b 12.000000
_cell_length_c 21.000000
_cell_angle_alpha 40.000000
_cell_angle_beta 20.000000
_cell_angle_gamma 30.000000
_cell_volume 744.844803
_symmetry_space_group_name_H-M "P -1"
_symmetry_group_IT_number 2
_symmetry_cell_setting 'triclinic'
loop_
_space_group_symop_operation_xyz
x,y,z
-x,-y,-z
loop_
_atom_site_type_symbol
_atom_site_label
_atom_site_fract_x
_atom_site_fract_y
_atom_site_fract_z
Si Si1 0.066650 0.032858 0.674264
Si Si2 0.653792 0.456314 0.615344
Si Si3 0.698244 0.680366 0.366110
Si Si4 0.619370 0.272461 0.039569
Si Si5 0.838704 0.265370 0.003656
Si Si6 0.158369 0.210625 0.414967
Si Si7 0.932556 0.348971 0.201440
Si Si8 0.472840 0.271962 0.743997
O O1 0.398999 0.904944 0.478450
O O2 0.037600 0.873174 0.726107
O O3 0.978600 0.238007 0.609246
O O4 0.898306 0.079414 0.854884
O O5 0.607570 0.628323 0.525214
O O6 0.397086 0.578118 0.819852
O O7 0.651650 0.284422 0.647766
O O8 0.935378 0.362179 0.470596
O O9 0.833114 0.481420 0.290775
O O10 0.927769 0.704898 0.189994
O O11 0.701776 0.302784 0.028651
O O12 0.382168 0.244159 0.238920
O O13 0.500000 0.500000 0.000000
O O14 0.000000 0.000000 0.000000
O O15 0.344085 0.953120 0.349201
O O16 0.700651 0.513105 0.260032
O O17 0.229191 0.286798 0.969594
#
# Coordination Sequence:
#
# PCOD9075064 Si02
#       8
#     2   2   2   2   2   2   2   2
#     4  12  24  44  76 102 131 182 230 278 345 407
#     4  12  26  45  68 102 143 177 219 285 345 402
#     4  12  24  44  72 102 135 176 225 285 344 400
#     4  12  28  49  68  97 139 187 234 277 331 407
#     4  12  28  45  68 101 135 179 238 287 328 391
#     4  12  26  45  72 102 139 183 224 277 347 410
#     4  11  22  42  76 105 137 174 222 286 349 406
#     4  11  22  43  74 104 141 174 219 285 352 405
#
# _framework density 21.480985
#
# number of rings (size 3 to 8) (size 9 to 14) (size 15 to 20)
#    0.000    0.250    5.000    4.500    0.000    6.000 
#    0.000    1.250    0.000    0.000    0.000    0.000 
#    0.000    0.000    0.000    0.000    0.000    0.000 
#
# Total GULP energy -89437.752419 kJ/mol
# GULP energy per Si atom -5589.859526 kJ/mol
# Density = 2.143209 g / cm^3
# Si number density = 21.480985 Si / 1000 Ang^3
#
#
#
# Elastic Constant Matrix: (Units=GPa)
#
#
# Indices 1 2 3 4 5 6 
#
# 1 182.2465 39.7694 57.9686 -22.9120 -16.7951 9.8871
# 2 39.7694 56.7484 37.4930 -17.2635 0.5617 10.3784
# 3 57.9686 37.4930 53.7919 -17.2528 -40.9658 11.6853
# 4 -22.9120 -17.2635 -17.2528 30.1510 5.7058 -4.8632
# 5 -16.7951 0.5617 -40.9658 5.7058 24.6998 -13.8395
# 6 9.8871 10.3784 11.6853 -4.8632 -13.8395 40.3746
#
#
#
# Elastic Compliance Matrix: (Units=1/GPa)
#
#
# Indices 1 2 3 4 5 6 
#
# 1 0.007192 -0.004784 -0.000003 0.001951 0.005418 0.001562
# 2 -0.004784 0.012192 0.016376 0.008747 0.022829 0.002177
# 3 -0.000003 0.016376 -0.019075 0.004044 -0.039530 -0.011751
# 4 0.001951 0.008747 0.004044 0.042378 -0.001582 0.000666
# 5 0.005418 0.022829 -0.039530 -0.001582 -0.023856 -0.004122
# 6 0.001562 0.002177 -0.011751 0.000666 -0.004122 0.025894
#
#
# Mechanical properties :
#
#
# Convention : Reuss Voigt Hill
#
# Bulk Modulus (GPa) = 42.57909 62.58320 52.58115
# Shear Modulus (GPa) = 170.21248 29.54881 99.88064
#
# Velocity S-wave (km/s) = 8.91127 3.71290 6.82629
# Velocity P-wave (km/s) = 11.21364 6.89771 9.30924
#
# Compressibility (1/GPa) = 0.02348570
#
# Stress axis : x y z
#
# Youngs Moduli (GPa) = 139.04688 82.02312 -52.42341
#
# Poissons Ratio (x) = 0.39238 -0.00016
# Poissons Ratio (y) = 0.66518 0.85847
# Poissons Ratio (z) = 0.00042 -1.34318
#
# Static dielectric constant tensor:
#      x y z
#    x 1.721090 -0.006610 0.036540 
#    y -0.006610 1.839320 0.087950 
#    z 0.036540 0.087950 1.888160 
# 
# From -- ./inp_files/187340.got.cif
#   From: 2010.05.17/outbox.ucp.g08.bks.cvg/sg2_94_cif.got.tgz:187340.got - 2010.06.11 11:32:03.
