data_PCOD9075062
_publ_section_title
;
Structure prediction by ZEFSAII (Michael W. Deem and Ramdas Pophale) SiO2 
 PCOD9075062
Probable space group: P -1
;
_chemical_formula_sum "Si O2"
_cell_formula_units_Z 12
_cell_length_a 12.000000
_cell_length_b 18.000000
_cell_length_c 21.000000
_cell_angle_alpha 160.000000
_cell_angle_beta 30.000000
_cell_angle_gamma 160.000000
_cell_volume 524.980204
_symmetry_space_group_name_H-M "P -1"
_symmetry_group_IT_number 2
_symmetry_cell_setting 'triclinic'
loop_
_space_group_symop_operation_xyz
x,y,z
-x,-y,-z
loop_
_atom_site_type_symbol
_atom_site_label
_atom_site_fract_x
_atom_site_fract_y
_atom_site_fract_z
Si Si1 0.809227 0.811942 0.762810
Si Si2 0.871912 0.185932 0.514365
Si Si3 0.728430 0.461022 0.634874
Si Si4 0.794921 0.173372 0.794341
Si Si5 0.182540 0.338223 0.612048
Si Si6 0.970080 0.238021 0.141071
O O1 0.629870 0.526862 0.674191
O O2 0.511885 0.669295 0.749129
O O3 0.044951 0.874823 0.642766
O O4 0.983029 0.093127 0.955206
O O5 0.153381 0.383660 0.589231
O O6 0.834291 0.406509 0.690492
O O7 0.573691 0.876034 0.453781
O O8 0.000000 0.500000 0.500000
O O9 0.885159 0.705673 0.814091
O O10 0.910019 0.245177 0.720768
O O11 0.822542 0.932994 0.604436
O O12 0.414090 0.972623 0.827920
O O13 0.000000 0.500000 0.000000
#
# Coordination Sequence:
#
# PCOD9075062 Si02
#       6
#     2   2   2   2   2   2
#     4  12  26  47  71 103 143 183 232 290 347 416
#     4  12  27  46  72 102 144 182 229 296 342 416
#     4  12  25  51  75  96 141 190 231 288 350 411
#     4  11  22  42  73 103 142 184 233 285 344 415
#     4  11  23  44  69 104 142 182 230 287 349 402
#     4  12  26  45  70 108 139 183 238 283 349 416
#
# _framework density 22.858004999999999
#
# number of rings (size 3 to 8) (size 9 to 14) (size 15 to 20)
#    0.000    0.333    5.000    4.500    0.000    2.667 
#    3.000    0.000    0.000    0.000    0.000    0.000 
#    0.000    0.000    0.000    0.000    0.000    0.000 
#
# Total GULP energy -66978.857221 kJ/mol
# GULP energy per Si atom -5581.571435 kJ/mol
# Density = 2.280598 g / cm^3
# Si number density = 22.858005 Si / 1000 Ang^3
#
#
#
# Elastic Constant Matrix: (Units=GPa)
#
#
# Indices 1 2 3 4 5 6 
#
# 1 137.9878 11.7134 11.5627 -4.5870 54.1766 -18.8618
# 2 11.7134 114.7968 16.4156 16.4162 24.8950 -31.0157
# 3 11.5627 16.4156 107.0193 -7.2853 58.0304 -23.3867
# 4 -4.5870 16.4162 -7.2853 18.7468 -17.1201 14.2605
# 5 54.1766 24.8950 58.0304 -17.1201 43.9637 -4.8251
# 6 -18.8618 -31.0157 -23.3867 14.2605 -4.8251 46.1970
#
#
#
# Elastic Compliance Matrix: (Units=1/GPa)
#
#
# Indices 1 2 3 4 5 6 
#
# 1 0.005454 -0.005144 -0.003119 0.014530 0.005226 -0.006745
# 2 -0.005144 0.007033 -0.007658 0.002061 0.013212 -0.000512
# 3 -0.003119 -0.007658 0.006630 0.021666 0.006875 -0.009029
# 4 0.014530 0.002061 0.021666 0.023831 -0.037623 0.006999
# 5 0.005226 0.013212 0.006875 -0.037623 -0.012175 0.024826
# 6 -0.006745 -0.000512 -0.009029 0.006999 0.024826 0.014411
#
#
# Mechanical properties :
#
#
# Convention : Reuss Voigt Hill
#
# Bulk Modulus (GPa) = -78.58720 48.79860 -14.89430
# Shear Modulus (GPa) = 68.69663 43.12231 55.90947
#
# Velocity S-wave (km/s) = 5.48807 4.34813 4.95102
# Velocity P-wave (km/s) = 2.38815 6.82666 5.11403
#
# Compressibility (1/GPa) = -0.01272472
#
# Stress axis : x y z
#
# Youngs Moduli (GPa) = 183.33843 142.18805 150.83460
#
# Poissons Ratio (x) = 0.73139 0.47039
# Poissons Ratio (y) = 0.94307 1.15516
# Poissons Ratio (z) = 0.57176 1.08894
#
# Static dielectric constant tensor:
#      x y z
#    x 1.916050 0.089290 -0.040380 
#    y 0.089290 1.913240 0.053600 
#    z -0.040380 0.053600 1.913400 
# 
# From -- ./inp_files/593370.got.cif
#   From: 2010.05.17/outbox.ucp.g08.bks.cvg/sg2_297_cif.got.tgz:593370.got - 2010.06.11 11:32:03.
