data_PCOD9076983
_publ_section_title
;
Structure prediction by ZEFSAII (Michael W. Deem and Ramdas Pophale) SiO2 
 PCOD9076983
Probable space group: P -1
;
_chemical_formula_sum "Si O2"
_cell_formula_units_Z 16
_cell_length_a 23.621506
_cell_length_b 20.667200
_cell_length_c 12.350722
_cell_angle_alpha 29.503176
_cell_angle_beta 29.907397
_cell_angle_gamma 18.695898
_cell_volume 916.790754
_symmetry_space_group_name_H-M "P -1"
_symmetry_group_IT_number 2
_symmetry_cell_setting 'triclinic'
loop_
_space_group_symop_operation_xyz
x,y,z
-x,-y,-z
loop_
_atom_site_type_symbol
_atom_site_label
_atom_site_fract_x
_atom_site_fract_y
_atom_site_fract_z
Si Si1 0.719016 0.520867 0.972734
Si Si2 0.040021 0.260409 0.984069
Si Si3 0.076045 0.920719 0.804636
Si Si4 0.682663 0.761871 0.495417
Si Si5 0.643153 0.231611 0.869236
Si Si6 0.754305 0.178566 0.115583
Si Si7 0.571172 0.616613 0.773074
Si Si8 0.073172 0.832947 0.529055
O O1 0.747973 0.606505 0.709790
O O2 0.847942 0.439053 0.978394
O O3 0.792136 0.314353 0.111227
O O4 0.499264 0.696850 0.087283
O O5 0.159923 0.281767 0.739533
O O6 0.985932 0.254544 0.200573
O O7 0.179378 0.023942 0.047807
O O8 0.175871 0.909983 0.750462
O O9 0.009672 0.060676 0.606133
O O10 0.905915 0.008275 0.022362
O O11 0.634208 0.707171 0.557284
O O12 0.500000 0.000000 0.500000
O O13 0.714514 0.314557 0.611754
O O14 0.541464 0.315630 0.029634
O O15 0.565450 0.280699 0.249457
O O16 0.723444 0.364492 0.882770
O O17 0.000000 0.000000 0.500000
#
# Coordination Sequence:
#
# PCOD9076983 Si02
#       8
#     2   2   2   2   2   2   2   2
#     4  11  20  34  57  85 113 150 184 228 291 333
#     4  11  21  37  53  80 119 157 180 223 288 347
#     4  11  19  34  55  89 113 144 188 239 290 329
#     4  11  21  36  57  81 121 152 185 238 279 345
#     4  10  18  34  53  83 114 142 186 231 279 328
#     4  10  20  32  58  85 112 141 193 243 284 322
#     4  10  18  34  56  84 109 147 186 240 292 321
#     4  10  20  35  56  79 121 154 178 240 282 343
#
# _framework density 17.452183000000002
#
# number of rings (size 3 to 8) (size 9 to 14) (size 15 to 20)
#    0.000    1.500    8.750    0.375    0.000    0.500 
#    0.000    0.000    0.000    1.500    0.000    0.000 
#    0.000    0.000    0.000    0.000    0.000    0.000 
#
# Total GULP energy -89070.935891 kJ/mol
# GULP energy per Si atom -5566.933493 kJ/mol
# Density = 1.741246 g / cm^3
# Si number density = 17.452183 Si / 1000 Ang^3
#
#
#
# Elastic Constant Matrix: (Units=GPa)
#
#
# Indices 1 2 3 4 5 6 
#
# 1 114.1985 20.8610 47.8194 -2.0368 6.3429 -31.8411
# 2 20.8610 29.5447 15.1559 0.0156 -2.6862 -21.7347
# 3 47.8194 15.1559 117.4435 9.3549 2.2381 -23.2643
# 4 -2.0368 0.0156 9.3549 19.1298 -1.4373 -1.5917
# 5 6.3429 -2.6862 2.2381 -1.4373 25.5849 -2.2170
# 6 -31.8411 -21.7347 -23.2643 -1.5917 -2.2170 29.9136
#
#
#
# Elastic Compliance Matrix: (Units=1/GPa)
#
#
# Indices 1 2 3 4 5 6 
#
# 1 0.013775 0.001696 -0.003499 0.004165 -0.001546 0.013281
# 2 0.001696 0.077664 0.000424 0.005883 0.013214 0.059856
# 3 -0.003499 0.000424 0.011333 -0.005486 0.000055 0.005109
# 4 0.004165 0.005883 -0.005486 0.056332 0.003899 0.007729
# 5 -0.001546 0.013214 0.000055 0.003899 0.042051 0.011322
# 6 0.013281 0.059856 0.005109 0.007729 0.011322 0.096280
#
#
# Mechanical properties :
#
#
# Convention : Reuss Voigt Hill
#
# Bulk Modulus (GPa) = 9.99879 47.65105 28.82492
# Shear Modulus (GPa) = 14.99102 26.74901 20.87002
#
# Velocity S-wave (km/s) = 2.93401 3.91922 3.46184
# Velocity P-wave (km/s) = 4.14965 6.91690 5.70364
#
# Compressibility (1/GPa) = 0.10001209
#
# Stress axis : x y z
#
# Youngs Moduli (GPa) = 72.59361 12.87595 88.23946
#
# Poissons Ratio (x) = -0.02183 0.30878
# Poissons Ratio (y) = -0.12310 -0.03737
# Poissons Ratio (z) = 0.25403 -0.00545
#
# Static dielectric constant tensor:
#      x y z
#    x 1.652290 -0.026410 -0.019470 
#    y -0.026410 1.645040 0.012700 
#    z -0.019470 0.012700 1.615690 
# 
# From -- ./inp_files/416536.got.cif
#   From: 2010.05.17/outbox.cif.g08.bks.cpg/sg2_209_cif.got.tgz:416536.got - 2010.06.03 11:33:40.
