data_PCOD9076989
_publ_section_title
;
Structure prediction by ZEFSAII (Michael W. Deem and Ramdas Pophale) SiO2 
 PCOD9076989
Probable space group: P -1
;
_chemical_formula_sum "Si O2"
_cell_formula_units_Z 16
_cell_length_a 8.945947
_cell_length_b 11.340092
_cell_length_c 13.532949
_cell_angle_alpha 100.413625
_cell_angle_beta 124.714690
_cell_angle_gamma 40.576677
_cell_volume 647.565407
_symmetry_space_group_name_H-M "P -1"
_symmetry_group_IT_number 2
_symmetry_cell_setting 'triclinic'
loop_
_space_group_symop_operation_xyz
x,y,z
-x,-y,-z
loop_
_atom_site_type_symbol
_atom_site_label
_atom_site_fract_x
_atom_site_fract_y
_atom_site_fract_z
Si Si1 0.164148 0.624622 0.181804
Si Si2 0.072366 0.238341 0.288111
Si Si3 0.289016 0.284646 0.232255
Si Si4 0.706063 0.058583 0.166110
Si Si5 0.234341 0.872825 0.477801
Si Si6 0.692085 0.776314 0.420033
Si Si7 0.323053 0.481517 0.547951
Si Si8 0.470892 0.427654 0.070502
O O1 0.181573 0.477697 0.200491
O O2 0.474114 0.525003 0.325535
O O3 0.198955 0.600691 0.072852
O O4 0.867934 0.859749 0.142790
O O5 0.011560 0.360788 0.191677
O O6 0.183931 0.243719 0.430390
O O7 0.784754 0.312848 0.224209
O O8 0.343311 0.008423 0.312584
O O9 0.467403 0.151694 0.179054
O O10 0.540638 0.143919 0.396840
O O11 0.537394 0.249161 0.063978
O O12 0.994517 0.975161 0.314354
O O13 0.505617 0.636823 0.508498
O O14 0.000000 0.000000 0.500000
O O15 0.665718 0.646573 0.400796
O O16 0.949205 0.691686 0.428403
O O17 0.500000 0.500000 0.000000
#
# Coordination Sequence:
#
# PCOD9076989 Si02
#       8
#     2   2   2   2   2   2   2   2
#     4  10  21  39  61  85 126 159 197 246 294 364
#     4  11  21  38  57  86 123 156 197 251 305 356
#     4  10  21  34  55  91 123 159 195 233 300 367
#     4   9  21  39  58  85 121 159 201 241 294 354
#     4   9  17  30  52  82 125 161 184 224 281 363
#     4  10  21  32  59  85 125 160 191 248 302 358
#     4  10  18  34  53  89 119 161 201 234 292 363
#     4  11  24  43  66  86 110 157 215 258 299 352
#
# _framework density 24.707927999999999
#
# number of rings (size 3 to 8) (size 9 to 14) (size 15 to 20)
#    0.000    2.000    2.500    1.500    1.750    5.500 
#    0.000    2.500    0.000    1.500    0.000    0.000 
#    0.000    0.000    0.000    0.000    0.000    0.000 
#
# Total GULP energy -89190.752464 kJ/mol
# GULP energy per Si atom -5574.422029 kJ/mol
# Density = 2.465169 g / cm^3
# Si number density = 24.707928 Si / 1000 Ang^3
#
#
#
# Elastic Constant Matrix: (Units=GPa)
#
#
# Indices 1 2 3 4 5 6 
#
# 1 104.0141 68.8558 9.4436 -0.1948 7.0161 -7.3568
# 2 68.8558 200.1771 14.5012 -4.6781 -19.0274 -22.2156
# 3 9.4436 14.5012 21.2574 -2.4707 -7.5375 -9.8337
# 4 -0.1948 -4.6781 -2.4707 20.6298 -7.1958 -0.2242
# 5 7.0161 -19.0274 -7.5375 -7.1958 38.1426 -1.2930
# 6 -7.3568 -22.2156 -9.8337 -0.2242 -1.2930 41.9388
#
#
#
# Elastic Compliance Matrix: (Units=1/GPa)
#
#
# Indices 1 2 3 4 5 6 
#
# 1 0.014214 -0.005480 -0.006888 -0.004630 -0.007660 -0.002286
# 2 -0.005480 0.007870 0.001448 0.004081 0.006117 0.003757
# 3 -0.006888 0.001448 0.064177 0.014357 0.017896 0.015235
# 4 -0.004630 0.004081 0.014357 0.056944 0.016655 0.005534
# 5 -0.007660 0.006117 0.017896 0.016655 0.037605 0.007341
# 6 -0.002286 0.003757 0.015235 0.005534 0.007341 0.029262
#
#
# Mechanical properties :
#
#
# Convention : Reuss Voigt Hill
#
# Bulk Modulus (GPa) = 15.52326 56.78332 36.15329
# Shear Modulus (GPa) = 19.73279 35.65213 27.69246
#
# Velocity S-wave (km/s) = 2.82909 3.80273 3.35146
# Velocity P-wave (km/s) = 4.11923 6.50482 5.44430
#
# Compressibility (1/GPa) = 0.06441946
#
# Stress axis : x y z
#
# Youngs Moduli (GPa) = 70.35505 127.07263 15.58189
#
# Poissons Ratio (x) = 0.69638 0.10732
# Poissons Ratio (y) = 0.38556 -0.02255
# Poissons Ratio (z) = 0.48458 -0.18394
#
# Static dielectric constant tensor:
#      x y z
#    x 1.984040 0.016840 0.041680 
#    y 0.016840 2.000140 -0.134460 
#    z 0.041680 -0.134460 2.224350 
# 
# From -- ./inp_files/314828.got.cif
#   From: 2010.05.17/outbox.cif.g08.bks.cpg/sg2_158_cif.got.tgz:314828.got - 2010.06.03 11:33:40.
