data_PCOD9076292
_publ_section_title
;
Structure prediction by ZEFSAII (Michael W. Deem and Ramdas Pophale) SiO2 
 PCOD9076292
Probable space group: P -1
;
_chemical_formula_sum "Si O2"
_cell_formula_units_Z 16
_cell_length_a 11.186745
_cell_length_b 22.128086
_cell_length_c 8.792361
_cell_angle_alpha 59.051281
_cell_angle_beta 37.472713
_cell_angle_gamma 31.782854
_cell_volume 603.798595
_symmetry_space_group_name_H-M "P -1"
_symmetry_group_IT_number 2
_symmetry_cell_setting 'triclinic'
loop_
_space_group_symop_operation_xyz
x,y,z
-x,-y,-z
loop_
_atom_site_type_symbol
_atom_site_label
_atom_site_fract_x
_atom_site_fract_y
_atom_site_fract_z
Si Si1 0.768767 0.326969 0.794502
Si Si2 0.727703 0.426888 0.210136
Si Si3 0.747786 0.626603 0.869800
Si Si4 0.131032 0.911048 0.619077
Si Si5 0.308512 0.065012 0.441316
Si Si6 0.629738 0.650392 0.310319
Si Si7 0.242479 0.897299 0.023587
Si Si8 0.804500 0.806668 0.146341
O O1 0.538103 0.463907 0.795605
O O2 0.068691 0.208458 0.520162
O O3 0.961020 0.272626 0.833514
O O4 0.465407 0.355579 0.061534
O O5 0.500000 0.500000 0.500000
O O6 0.057043 0.383727 0.948871
O O7 0.939163 0.290883 0.129302
O O8 0.176420 0.474903 0.642487
O O9 0.606982 0.647413 0.155642
O O10 0.637773 0.740922 0.803451
O O11 0.279639 0.792165 0.561142
O O12 0.484301 0.843687 0.423875
O O13 0.000000 0.000000 0.500000
O O14 0.789882 0.027195 0.927452
O O15 0.992374 0.100444 0.695734
O O16 0.500000 0.000000 0.500000
O O17 0.601056 0.943892 0.182600
O O18 0.000000 0.000000 0.000000
#
# Coordination Sequence:
#
# PCOD9076292 Si02
#       8
#     2   2   2   2   2   2   2   2
#     4   9  17  33  58  75 104 144 183 214 264 331
#     4  10  20  34  53  82 111 136 175 235 273 307
#     4   9  17  33  58  74 106 145 182 216 267 330
#     4  10  18  33  54  80 108 144 184 220 264 335
#     4   8  16  33  54  74 101 145 180 206 261 336
#     4   9  18  34  57  77 102 151 192 206 264 345
#     4  10  19  32  54  84 112 134 176 237 278 305
#     4   9  18  33  55  81 100 143 188 215 261 336
#
# _framework density 26.498902000000001
#
# number of rings (size 3 to 8) (size 9 to 14) (size 15 to 20)
#    0.000    2.750    1.250    0.375    0.000    0.000 
#    6.750    1.250   24.750    0.000    0.000    0.000 
#    0.000    0.000    0.000    0.000    0.000    0.000 
#
# Total GULP energy -89422.767173 kJ/mol
# GULP energy per Si atom -5588.922948 kJ/mol
# Density = 2.643859 g / cm^3
# Si number density = 26.498902 Si / 1000 Ang^3
#
#
#
# Elastic Constant Matrix: (Units=GPa)
#
#
# Indices 1 2 3 4 5 6 
#
# 1 111.3806 39.1251 4.9168 8.2240 -0.1041 8.3568
# 2 39.1251 165.1157 17.6120 40.5674 13.8960 27.3496
# 3 4.9168 17.6120 98.5314 36.4073 8.9898 15.0534
# 4 8.2240 40.5674 36.4073 38.4206 10.7509 8.2676
# 5 -0.1041 13.8960 8.9898 10.7509 47.3499 11.9215
# 6 8.3568 27.3496 15.0534 8.2676 11.9215 65.8199
#
#
#
# Elastic Compliance Matrix: (Units=1/GPa)
#
#
# Indices 1 2 3 4 5 6 
#
# 1 0.009836 -0.002459 -0.000302 0.000648 0.000748 -0.000375
# 2 -0.002459 0.009829 0.003426 -0.012466 0.000045 -0.002998
# 3 -0.000302 0.003426 0.017076 -0.019336 0.000904 -0.003026
# 4 0.000648 -0.012466 -0.019336 0.058550 -0.006819 0.003400
# 5 0.000748 0.000045 0.000904 -0.006819 0.023417 -0.003705
# 6 -0.000375 -0.002998 -0.003026 0.003400 -0.003705 0.017422
#
#
# Mechanical properties :
#
#
# Convention : Reuss Voigt Hill
#
# Bulk Modulus (GPa) = 26.26574 55.37061 40.81817
# Shear Modulus (GPa) = 33.90045 51.20965 42.55505
#
# Velocity S-wave (km/s) = 3.58063 4.40081 4.01174
# Velocity P-wave (km/s) = 5.19886 6.83840 6.07420
#
# Compressibility (1/GPa) = 0.03807242
#
# Stress axis : x y z
#
# Youngs Moduli (GPa) = 101.66563 101.73990 58.56148
#
# Poissons Ratio (x) = 0.25013 0.01767
# Poissons Ratio (y) = 0.24995 -0.20062
# Poissons Ratio (z) = 0.03067 -0.34854
#
# Static dielectric constant tensor:
#      x y z
#    x 2.062710 0.029500 -0.027430 
#    y 0.029500 2.055320 0.008980 
#    z -0.027430 0.008980 2.182430 
# 
# From -- ./inp_files/284787.got.cif
#   From: 2010.05.17/outbox.cif.g08.bks.cpg/sg2_143_cif.got.tgz:284787.got - 2010.06.03 11:33:40.
