data_PCOD9076679
_publ_section_title
;
Structure prediction by ZEFSAII (Michael W. Deem and Ramdas Pophale) SiO2 
 PCOD9076679
Probable space group: P -1
;
_chemical_formula_sum "Si O2"
_cell_formula_units_Z 14
_cell_length_a 6.976456
_cell_length_b 13.398986
_cell_length_c 10.013277
_cell_angle_alpha 125.076788
_cell_angle_beta 111.232931
_cell_angle_gamma 44.181687
_cell_volume 531.814184
_symmetry_space_group_name_H-M "P -1"
_symmetry_group_IT_number 2
_symmetry_cell_setting 'triclinic'
loop_
_space_group_symop_operation_xyz
x,y,z
-x,-y,-z
loop_
_atom_site_type_symbol
_atom_site_label
_atom_site_fract_x
_atom_site_fract_y
_atom_site_fract_z
Si Si1 0.805965 0.198523 0.619880
Si Si2 0.959009 0.096878 0.851328
Si Si3 0.215544 0.260182 0.740800
Si Si4 0.512895 0.994678 0.799067
Si Si5 0.063296 0.350275 0.472169
Si Si6 0.671184 0.284466 0.367688
Si Si7 0.505567 0.258331 0.051017
O O1 0.955330 0.271646 0.704661
O O2 0.730530 0.207909 0.761290
O O3 0.611134 0.280552 0.504878
O O4 0.000000 0.000000 0.500000
O O5 0.782028 0.206376 0.018027
O O6 0.073886 0.913222 0.746284
O O7 0.222839 0.066505 0.842082
O O8 0.195467 0.312076 0.624384
O O9 0.273479 0.331501 0.934011
O O10 0.460601 0.067419 0.691684
O O11 0.734193 0.804273 0.694042
O O12 0.590331 0.084481 0.968467
O O13 0.000000 0.500000 0.500000
O O14 0.799137 0.366102 0.437902
O O15 0.448047 0.342236 0.241795
#
# Coordination Sequence:
#
# PCOD9076679 Si02
#       7
#     2   2   2   2   2   2   2
#     4   8  16  30  51  81 117 148 184 228 283 345
#     4  10  18  33  58  90 120 148 185 245 297 340
#     4   8  18  35  55  83 112 150 188 234 289 336
#     4   9  20  35  59  88 114 150 194 234 297 341
#     4  11  21  37  58  82 119 162 196 232 285 351
#     4  10  19  35  54  85 122 151 186 246 292 335
#     4  10  20  34  60  88 122 144 188 247 298 337
#
# _framework density 26.324984000000001
#
# number of rings (size 3 to 8) (size 9 to 14) (size 15 to 20)
#    0.857    1.714    1.429    0.857    0.000    4.000 
#    0.000    1.429    0.000    0.000    0.000   10.000 
#    0.000    0.000    0.000    0.000    0.000    0.000 
#
# Total GULP energy -78161.214906 kJ/mol
# GULP energy per Si atom -5582.943922 kJ/mol
# Density = 2.626507 g / cm^3
# Si number density = 26.324984 Si / 1000 Ang^3
#
#
#
# Elastic Constant Matrix: (Units=GPa)
#
#
# Indices 1 2 3 4 5 6 
#
# 1 110.2395 49.0829 49.7103 -6.6891 9.9364 12.0770
# 2 49.0829 143.4455 66.9094 -5.1902 -13.9255 33.3712
# 3 49.7103 66.9094 174.5521 -41.3537 7.8364 15.8790
# 4 -6.6891 -5.1902 -41.3537 33.6832 6.2495 -9.9830
# 5 9.9364 -13.9255 7.8364 6.2495 35.8151 -4.7579
# 6 12.0770 33.3712 15.8790 -9.9830 -4.7579 45.5597
#
#
#
# Elastic Compliance Matrix: (Units=1/GPa)
#
#
# Indices 1 2 3 4 5 6 
#
# 1 0.011908 -0.003680 -0.001620 0.000574 -0.004513 -0.000242
# 2 -0.003680 0.013393 -0.006115 -0.010093 0.008258 -0.008052
# 3 -0.001620 -0.006115 0.012393 0.016268 -0.007024 0.003420
# 4 0.000574 -0.010093 0.016268 0.054644 -0.015595 0.011916
# 5 -0.004513 0.008258 -0.007024 -0.015595 0.036373 -0.002023
# 6 -0.000242 -0.008052 0.003420 0.011916 -0.002023 0.029119
#
#
# Mechanical properties :
#
#
# Convention : Reuss Voigt Hill
#
# Bulk Modulus (GPa) = 67.28103 84.40471 75.84287
# Shear Modulus (GPa) = 26.93752 40.51390 33.72571
#
# Velocity S-wave (km/s) = 3.20233 3.92725 3.58317
# Velocity P-wave (km/s) = 6.26790 7.25924 6.78171
#
# Compressibility (1/GPa) = 0.01486303
#
# Stress axis : x y z
#
# Youngs Moduli (GPa) = 83.97528 74.66840 80.69377
#
# Poissons Ratio (x) = 0.27478 0.13073
# Poissons Ratio (y) = 0.30903 0.49345
# Poissons Ratio (z) = 0.13604 0.45660
#
# Static dielectric constant tensor:
#      x y z
#    x 2.076500 -0.040540 0.082320 
#    y -0.040540 2.077840 -0.057340 
#    z 0.082320 -0.057340 2.132620 
# 
# From -- ./inp_files/430445.got.cif
#   From: 2010.05.17/outbox.cif.g08.bks.cpg/sg2_216_cif.got.tgz:430445.got - 2010.06.03 11:33:40.
