data_PCOD9076648
_publ_section_title
;
Structure prediction by ZEFSAII (Michael W. Deem and Ramdas Pophale) SiO2 
 PCOD9076648
Probable space group: P -1
;
_chemical_formula_sum "Si O2"
_cell_formula_units_Z 14
_cell_length_a 10.297135
_cell_length_b 7.360560
_cell_length_c 16.369597
_cell_angle_alpha 54.837961
_cell_angle_beta 138.838411
_cell_angle_gamma 139.074226
_cell_volume 534.871824
_symmetry_space_group_name_H-M "P -1"
_symmetry_group_IT_number 2
_symmetry_cell_setting 'triclinic'
loop_
_space_group_symop_operation_xyz
x,y,z
-x,-y,-z
loop_
_atom_site_type_symbol
_atom_site_label
_atom_site_fract_x
_atom_site_fract_y
_atom_site_fract_z
Si Si1 0.698703 0.831962 0.290226
Si Si2 0.899997 0.381226 0.866779
Si Si3 0.106307 0.804100 0.441627
Si Si4 0.478280 0.728717 0.393999
Si Si5 0.123680 0.233815 0.828897
Si Si6 0.230825 0.341561 0.131109
Si Si7 0.498445 0.845265 0.916496
O O1 0.615170 0.816237 0.347956
O O2 0.516548 0.527662 0.240498
O O3 0.967826 0.913955 0.393377
O O4 0.644361 0.022878 0.166369
O O5 0.800249 0.391949 0.729825
O O6 0.875408 0.578231 0.864590
O O7 0.702057 0.069758 0.888910
O O8 0.159772 0.439665 0.992822
O O9 0.000000 0.500000 0.500000
O O10 0.028455 0.797592 0.314068
O O11 0.389090 0.017614 0.546057
O O12 0.500000 0.500000 0.500000
O O13 0.298435 0.549697 0.858479
O O14 0.326741 0.171850 0.934631
O O15 0.915413 0.986397 0.853240
#
# Coordination Sequence:
#
# PCOD9076648 Si02
#       7
#     2   2   2   2   2   2   2
#     4  10  21  38  56  81 113 150 187 225 279 328
#     4   8  14  29  53  79 106 140 174 218 281 324
#     4  12  24  37  55  79 116 155 188 225 270 331
#     4  10  20  36  57  81 112 149 185 221 272 340
#     4  10  18  33  58  86 108 141 185 229 280 325
#     4   8  15  31  57  79 101 134 182 233 270 317
#     4   8  17  34  58  81 110 141 180 234 281 327
#
# _framework density 26.174496000000001
#
# number of rings (size 3 to 8) (size 9 to 14) (size 15 to 20)
#    0.000    2.857    0.000    4.714    0.000    0.571 
#    0.000    4.286    0.000   12.000    0.000    0.000 
#    0.000    0.000    0.000    0.000    0.000    0.000 
#
# Total GULP energy -78332.443811 kJ/mol
# GULP energy per Si atom -5595.174558 kJ/mol
# Density = 2.611492 g / cm^3
# Si number density = 26.174496 Si / 1000 Ang^3
#
#
#
# Elastic Constant Matrix: (Units=GPa)
#
#
# Indices 1 2 3 4 5 6 
#
# 1 66.2086 5.4133 18.3692 -0.2676 -2.7742 -4.8598
# 2 5.4133 162.8196 52.0995 12.4939 -5.0843 -13.6544
# 3 18.3692 52.0995 192.5681 13.5817 -9.5708 -14.3695
# 4 -0.2676 12.4939 13.5817 60.9876 -5.4613 8.0285
# 5 -2.7742 -5.0843 -9.5708 -5.4613 35.7526 8.9200
# 6 -4.8598 -13.6544 -14.3695 8.0285 8.9200 15.3224
#
#
#
# Elastic Compliance Matrix: (Units=1/GPa)
#
#
# Indices 1 2 3 4 5 6 
#
# 1 0.015734 0.000251 -0.001235 -0.000295 -0.000198 0.004326
# 2 0.000251 0.007321 -0.001364 -0.002305 -0.001505 0.007408
# 3 -0.001235 -0.001364 0.006191 -0.001821 -0.000230 0.005287
# 4 -0.000295 -0.002305 -0.001821 0.020327 0.006886 -0.018515
# 5 -0.000198 -0.001505 -0.000230 0.006886 0.035139 -0.025684
# 6 0.004326 0.007408 0.005287 -0.018515 -0.025684 0.102850
#
#
# Mechanical properties :
#
#
# Convention : Reuss Voigt Hill
#
# Bulk Modulus (GPa) = 40.73242 63.70670 52.21956
# Shear Modulus (GPa) = 24.94492 45.46014 35.20253
#
# Velocity S-wave (km/s) = 3.09046 4.17203 3.67129
# Velocity P-wave (km/s) = 5.32261 6.89926 6.16158
#
# Compressibility (1/GPa) = 0.02455047
#
# Stress axis : x y z
#
# Youngs Moduli (GPa) = 63.55687 136.59237 161.51395
#
# Poissons Ratio (x) = -0.03432 0.19949
# Poissons Ratio (y) = -0.01597 0.22032
# Poissons Ratio (z) = 0.07850 0.18633
#
# Static dielectric constant tensor:
#      x y z
#    x 2.149470 0.013990 -0.019430 
#    y 0.013990 2.018980 -0.001740 
#    z -0.019430 -0.001740 1.999370 
# 
# From -- ./inp_files/180758.got.cif
#   From: 2010.05.17/outbox.cif.g08.bks.cpg/sg2_91_cif.got.tgz:180758.got - 2010.06.03 11:33:40.
