data_PCOD9076948
_publ_section_title
;
Structure prediction by ZEFSAII (Michael W. Deem and Ramdas Pophale) SiO2 
 PCOD9076948
Probable space group: P -1
;
_chemical_formula_sum "Si O2"
_cell_formula_units_Z 15
_cell_length_a 14.279048
_cell_length_b 6.259705
_cell_length_c 11.137339
_cell_angle_alpha 63.189188
_cell_angle_beta 125.821440
_cell_angle_gamma 126.722199
_cell_volume 639.117841
_symmetry_space_group_name_H-M "P -1"
_symmetry_group_IT_number 2
_symmetry_cell_setting 'triclinic'
loop_
_space_group_symop_operation_xyz
x,y,z
-x,-y,-z
loop_
_atom_site_type_symbol
_atom_site_label
_atom_site_fract_x
_atom_site_fract_y
_atom_site_fract_z
Si Si1 0.602410 0.285690 0.560859
Si Si2 0.588092 0.820615 0.350330
Si Si3 0.307581 0.855852 0.887192
Si Si4 0.000000 0.500000 0.000000
Si Si5 0.774271 0.640598 0.905609
Si Si6 0.221958 0.910918 0.359338
Si Si7 0.840797 0.957614 0.119618
Si Si8 0.058332 0.426408 0.675565
O O1 0.603612 0.545695 0.431763
O O2 0.546168 0.259006 0.659127
O O3 0.736508 0.272504 0.646382
O O4 0.500000 0.000000 0.500000
O O5 0.602322 0.967783 0.197384
O O6 0.704071 0.029613 0.472430
O O7 0.326023 0.623025 0.029155
O O8 0.166877 0.681489 0.761035
O O9 0.286822 0.039184 0.924972
O O10 0.119233 0.433487 0.053570
O O11 0.043290 0.744066 0.874062
O O12 0.829940 0.862319 0.997784
O O13 0.730463 0.795638 0.737651
O O14 0.066817 0.764073 0.290459
O O15 0.873071 0.752264 0.268990
O O16 0.000000 0.500000 0.500000
#
# Coordination Sequence:
#
# PCOD9076948 Si02
#       8
#     2   2   2   1   2   2   2   2
#     4   9  22  40  66  87 116 153 200 259 312 352
#     4  10  21  43  63  91 115 153 208 255 306 357
#     4  10  23  37  60  86 126 166 195 244 304 359
#     4  10  18  34  52  74 112 168 198 236 276 344
#     4  10  22  38  56  87 123 164 206 238 299 357
#     4  11  22  38  63  91 121 160 204 252 292 363
#     4  10  22  34  53  80 124 167 198 235 292 358
#     4  11  22  36  53  92 130 156 201 243 299 361
#
# _framework density 23.469850999999998
#
# number of rings (size 3 to 8) (size 9 to 14) (size 15 to 20)
#    0.000    1.867    2.667    0.400    5.600    4.800 
#    0.000    0.667    0.000    8.000    0.000    0.000 
#    0.000    0.000    0.000    0.000    0.000    0.000 
#
# Total GULP energy -83551.293496 kJ/mol
# GULP energy per Si atom -5570.086233 kJ/mol
# Density = 2.341643 g / cm^3
# Si number density = 23.469851 Si / 1000 Ang^3
#
#
#
# Elastic Constant Matrix: (Units=GPa)
#
#
# Indices 1 2 3 4 5 6 
#
# 1 95.0853 42.1217 12.2514 -20.4309 -16.3398 2.5270
# 2 42.1217 72.5748 8.7049 -2.1532 -6.1521 3.0034
# 3 12.2514 8.7049 70.7439 -17.0288 -30.4088 3.6309
# 4 -20.4309 -2.1532 -17.0288 43.9042 10.9206 8.4760
# 5 -16.3398 -6.1521 -30.4088 10.9206 34.3697 -10.7054
# 6 2.5270 3.0034 3.6309 8.4760 -10.7054 37.3542
#
#
#
# Elastic Compliance Matrix: (Units=1/GPa)
#
#
# Indices 1 2 3 4 5 6 
#
# 1 0.016930 -0.009381 0.002663 0.006934 0.006401 -0.000389
# 2 -0.009381 0.019251 -0.002600 -0.003783 -0.002251 -0.000447
# 3 0.002663 -0.002600 0.024287 0.004577 0.021724 0.002855
# 4 0.006934 -0.003783 0.004577 0.030910 -0.006069 -0.009363
# 5 0.006401 -0.002251 0.021724 -0.006069 0.057731 0.015558
# 6 -0.000389 -0.000447 0.002855 -0.009363 0.015558 0.033139
#
#
# Mechanical properties :
#
#
# Convention : Reuss Voigt Hill
#
# Bulk Modulus (GPa) = 23.90458 40.50668 32.20563
# Shear Modulus (GPa) = 23.27460 34.81402 29.04431
#
# Velocity S-wave (km/s) = 3.15251 3.85561 3.52165
# Velocity P-wave (km/s) = 4.84339 6.09241 5.50345
#
# Compressibility (1/GPa) = 0.04183298
#
# Stress axis : x y z
#
# Youngs Moduli (GPa) = 59.06841 51.94646 41.17359
#
# Poissons Ratio (x) = 0.48729 -0.10964
# Poissons Ratio (y) = 0.55410 0.10703
# Poissons Ratio (z) = -0.15730 0.13504
#
# Static dielectric constant tensor:
#      x y z
#    x 1.936210 0.015260 -0.005460 
#    y 0.015260 1.962250 0.068110 
#    z -0.005460 0.068110 1.926380 
# 
# From -- ./inp_files/67814.got.cif
#   From: 2010.05.17/outbox.cif.g08.bks.cpg/sg2_34_cif.got.tgz:67814.got - 2010.06.03 11:33:40.
