data_PCOD9076518
_publ_section_title
;
Structure prediction by ZEFSAII (Michael W. Deem and Ramdas Pophale) SiO2 
 PCOD9076518
Probable space group: P -1
;
_chemical_formula_sum "Si O2"
_cell_formula_units_Z 14
_cell_length_a 8.557887
_cell_length_b 9.587054
_cell_length_c 13.917982
_cell_angle_alpha 127.947628
_cell_angle_beta 80.927348
_cell_angle_gamma 117.817949
_cell_volume 782.605864
_symmetry_space_group_name_H-M "P -1"
_symmetry_group_IT_number 2
_symmetry_cell_setting 'triclinic'
loop_
_space_group_symop_operation_xyz
x,y,z
-x,-y,-z
loop_
_atom_site_type_symbol
_atom_site_label
_atom_site_fract_x
_atom_site_fract_y
_atom_site_fract_z
Si Si1 0.559301 0.974928 0.090854
Si Si2 0.197693 0.597555 0.283528
Si Si3 0.692037 0.043209 0.720414
Si Si4 0.800236 0.810002 0.929009
Si Si5 0.881408 0.321944 0.318133
Si Si6 0.627795 0.345184 0.509850
Si Si7 0.188103 0.208778 0.294766
O O1 0.404233 0.917803 0.161301
O O2 0.722925 0.180585 0.202302
O O3 0.651983 0.830078 0.015569
O O4 0.500000 0.000000 0.000000
O O5 0.231380 0.767037 0.275915
O O6 0.193666 0.399460 0.152247
O O7 0.344883 0.674829 0.387741
O O8 0.012326 0.516829 0.326767
O O9 0.545184 0.846505 0.594503
O O10 0.833250 0.972752 0.714506
O O11 0.746899 0.818596 0.827538
O O12 0.000000 0.000000 0.000000
O O13 0.791296 0.353259 0.434388
O O14 0.008353 0.225763 0.297882
O O15 0.660413 0.572862 0.591287
#
# Coordination Sequence:
#
# PCOD9076518 Si02
#       7
#     2   2   2   2   2   2   2
#     4  11  20  35  58  81 105 140 186 222 253 325
#     4  10  20  35  58  79 110 142 175 223 274 308
#     4  11  22  32  55  87 112 132 177 234 270 296
#     4  10  18  37  59  74 104 148 184 208 262 331
#     4   9  19  37  60  75 104 150 185 208 261 331
#     4   9  19  37  58  77 106 147 184 212 263 324
#     4  10  18  33  57  80 105 146 180 213 262 326
#
# _framework density 17.888953999999998
#
# number of rings (size 3 to 8) (size 9 to 14) (size 15 to 20)
#    0.000    2.286    4.286    2.571    0.000    0.571 
#    0.000    5.714    6.286    0.000    0.000    0.000 
#    0.000    0.000    0.000    0.000    0.000    0.000 
#
# Total GULP energy -77951.911248 kJ/mol
# GULP energy per Si atom -5567.993661 kJ/mol
# Density = 1.784824 g / cm^3
# Si number density = 17.888954 Si / 1000 Ang^3
#
#
#
# Elastic Constant Matrix: (Units=GPa)
#
#
# Indices 1 2 3 4 5 6 
#
# 1 59.6670 55.1008 30.8790 -2.7658 3.9428 -4.4472
# 2 55.1008 146.1933 43.4942 -8.1374 1.0669 -30.4075
# 3 30.8790 43.4942 105.4133 4.2924 0.6239 -7.0807
# 4 -2.7658 -8.1374 4.2924 20.7378 -0.7092 0.0139
# 5 3.9428 1.0669 0.6239 -0.7092 19.4359 -0.6689
# 6 -4.4472 -30.4075 -7.0807 0.0139 -0.6689 22.7273
#
#
#
# Elastic Compliance Matrix: (Units=1/GPa)
#
#
# Indices 1 2 3 4 5 6 
#
# 1 0.030135 -0.012619 -0.004420 -0.000205 -0.005718 -0.012532
# 2 -0.012619 0.016412 -0.002033 0.005253 0.002567 0.018928
# 3 -0.004420 -0.002033 0.011779 -0.003808 0.000495 0.000102
# 4 -0.000205 0.005253 -0.003808 0.051106 0.001941 0.005827
# 5 -0.005718 0.002567 0.000495 0.001941 0.052663 0.004019
# 6 -0.012532 0.018928 0.000102 0.005827 0.004019 0.067018
#
#
# Mechanical properties :
#
#
# Convention : Reuss Voigt Hill
#
# Bulk Modulus (GPa) = 49.55107 63.35796 56.45451
# Shear Modulus (GPa) = 18.24920 24.70016 21.47468
#
# Velocity S-wave (km/s) = 3.19742 3.71987 3.46850
# Velocity P-wave (km/s) = 6.43356 7.34467 6.90416
#
# Compressibility (1/GPa) = 0.02018120
#
# Stress axis : x y z
#
# Youngs Moduli (GPa) = 33.18395 60.93206 84.89633
#
# Poissons Ratio (x) = 0.76891 0.37528
# Poissons Ratio (y) = 0.41875 0.17257
# Poissons Ratio (z) = 0.14669 0.12386
#
# Static dielectric constant tensor:
#      x y z
#    x 1.648060 -0.006920 -0.003250 
#    y -0.006920 1.573550 0.017050 
#    z -0.003250 0.017050 1.667530 
# 
# From -- ./inp_files/185375.got.cif
#   From: 2010.05.17/outbox.cif.g08.bks.cpg/sg2_93_cif.got.tgz:185375.got - 2010.06.03 11:33:40.
