data_PCOD9076902
_publ_section_title
;
Structure prediction by ZEFSAII (Michael W. Deem and Ramdas Pophale) SiO2 
 PCOD9076902
Probable space group: P -1
;
_chemical_formula_sum "Si O2"
_cell_formula_units_Z 16
_cell_length_a 9.807079
_cell_length_b 19.626660
_cell_length_c 13.208520
_cell_angle_alpha 145.400252
_cell_angle_beta 37.134657
_cell_angle_gamma 152.437596
_cell_volume 645.584665
_symmetry_space_group_name_H-M "P -1"
_symmetry_group_IT_number 2
_symmetry_cell_setting 'triclinic'
loop_
_space_group_symop_operation_xyz
x,y,z
-x,-y,-z
loop_
_atom_site_type_symbol
_atom_site_label
_atom_site_fract_x
_atom_site_fract_y
_atom_site_fract_z
Si Si1 0.521573 0.924996 0.738254
Si Si2 0.628785 0.728640 0.154890
Si Si3 0.699439 0.922307 0.831396
Si Si4 0.314491 0.173310 0.065940
Si Si5 0.486864 0.563851 0.238597
Si Si6 0.237303 0.802526 0.414942
Si Si7 0.895341 0.209399 0.736487
Si Si8 0.084445 0.332328 0.343874
O O1 0.201767 0.796618 0.716189
O O2 0.586905 0.854151 0.701720
O O3 0.769237 0.036916 0.641383
O O4 0.508002 0.046493 0.957027
O O5 0.508779 0.674106 0.275088
O O6 0.417398 0.740940 0.230309
O O7 0.964654 0.903338 0.167419
O O8 0.632360 0.596537 0.945835
O O9 0.706047 0.827967 0.801392
O O10 0.319006 0.304415 0.173626
O O11 0.606263 0.196360 0.897579
O O12 0.000000 0.000000 0.000000
O O13 0.266347 0.503706 0.391530
O O14 0.823909 0.659273 0.197970
O O15 0.031847 0.758807 0.386052
O O16 0.048431 0.719116 0.527691
O O17 0.500000 0.000000 0.500000
#
# Coordination Sequence:
#
# PCOD9076902 Si02
#       8
#     2   2   2   2   2   2   2   2
#     4  10  19  35  62  95 127 159 214 273 315 370
#     4  11  23  41  67  98 130 172 214 264 331 387
#     4  10  18  33  63  95 122 156 214 277 309 360
#     4  11  19  36  65  93 123 162 217 269 316 360
#     4  11  25  43  66  95 135 169 213 268 327 392
#     4  12  25  42  68  94 130 173 223 266 321 388
#     4  11  22  41  65  97 128 167 220 272 320 382
#     4  12  23  41  62  92 131 178 207 266 329 386
#
# _framework density 24.783736000000001
#
# number of rings (size 3 to 8) (size 9 to 14) (size 15 to 20)
#    0.000    1.000    6.250    2.250    0.000    3.000 
#    0.000    3.750    0.000    0.000    0.000    0.000 
#    0.000    0.000    0.000    0.000    0.000    0.000 
#
# Total GULP energy -89520.841475 kJ/mol
# GULP energy per Si atom -5595.052592 kJ/mol
# Density = 2.472733 g / cm^3
# Si number density = 24.783736 Si / 1000 Ang^3
#
#
#
# Elastic Constant Matrix: (Units=GPa)
#
#
# Indices 1 2 3 4 5 6 
#
# 1 185.1246 33.5465 28.5684 -11.9268 44.8095 -25.0456
# 2 33.5465 94.7203 21.2209 -22.2991 19.6151 -19.7442
# 3 28.5684 21.2209 64.7930 -17.4148 7.8471 -14.8515
# 4 -11.9268 -22.2991 -17.4148 36.2445 -13.7551 11.5671
# 5 44.8095 19.6151 7.8471 -13.7551 41.0716 -11.6211
# 6 -25.0456 -19.7442 -14.8515 11.5671 -11.6211 44.8836
#
#
#
# Elastic Compliance Matrix: (Units=1/GPa)
#
#
# Indices 1 2 3 4 5 6 
#
# 1 0.008029 -0.000829 -0.002610 -0.002860 -0.008302 0.001839
# 2 -0.000829 0.013652 -0.001668 0.005382 -0.002670 0.002912
# 3 -0.002610 -0.001668 0.019533 0.007790 0.003412 0.003149
# 4 -0.002860 0.005382 0.007790 0.039142 0.011075 -0.003870
# 5 -0.008302 -0.002670 0.003412 0.011075 0.038421 0.002416
# 6 0.001839 0.002912 0.003149 -0.003870 0.002416 0.027252
#
#
# Mechanical properties :
#
#
# Convention : Reuss Voigt Hill
#
# Bulk Modulus (GPa) = 32.25922 56.81217 44.53569
# Shear Modulus (GPa) = 30.01594 41.86008 35.93801
#
# Velocity S-wave (km/s) = 3.48388 4.11422 3.81210
# Velocity P-wave (km/s) = 5.40627 6.74848 6.11432
#
# Compressibility (1/GPa) = 0.03099889
#
# Stress axis : x y z
#
# Youngs Moduli (GPa) = 124.54797 73.25006 51.19464
#
# Poissons Ratio (x) = 0.06076 0.13363
# Poissons Ratio (y) = 0.10331 0.08539
# Poissons Ratio (z) = 0.32509 0.12218
#
# Static dielectric constant tensor:
#      x y z
#    x 1.958230 -0.028880 0.006200 
#    y -0.028880 1.939320 -0.054400 
#    z 0.006200 -0.054400 2.129810 
# 
# From -- ./inp_files/403192.got.cif
#   From: 2010.05.17/outbox.cif.g08.bks.cpg/sg2_202_cif.got.tgz:403192.got - 2010.06.03 11:33:40.
