data_PCOD9076886
_publ_section_title
;
Structure prediction by ZEFSAII (Michael W. Deem and Ramdas Pophale) SiO2 
 PCOD9076886
Probable space group: P -1
;
_chemical_formula_sum "Si O2"
_cell_formula_units_Z 16
_cell_length_a 20.040409
_cell_length_b 8.745754
_cell_length_c 17.931230
_cell_angle_alpha 151.941252
_cell_angle_beta 30.815931
_cell_angle_gamma 136.295249
_cell_volume 749.284980
_symmetry_space_group_name_H-M "P -1"
_symmetry_group_IT_number 2
_symmetry_cell_setting 'triclinic'
loop_
_space_group_symop_operation_xyz
x,y,z
-x,-y,-z
loop_
_atom_site_type_symbol
_atom_site_label
_atom_site_fract_x
_atom_site_fract_y
_atom_site_fract_z
Si Si1 0.476813 0.395670 0.768825
Si Si2 0.881928 0.150895 0.024514
Si Si3 0.664750 0.228557 0.378548
Si Si4 0.172322 0.245362 0.779009
Si Si5 0.624092 0.314584 0.727766
Si Si6 0.270403 0.735026 0.000316
Si Si7 0.852103 0.689752 0.720511
Si Si8 0.506586 0.761011 0.672355
O O1 0.600230 0.295902 0.550987
O O2 0.534996 0.532648 0.846552
O O3 0.415665 0.058872 0.697864
O O4 0.358171 0.637098 0.946900
O O5 0.811963 0.136213 0.165430
O O6 0.848652 0.494776 0.158022
O O7 0.039393 0.091832 0.851553
O O8 0.834204 0.892608 0.901894
O O9 0.624784 0.580853 0.530226
O O10 0.293862 0.979413 0.525925
O O11 0.201348 0.431909 0.907174
O O12 0.737200 0.468356 0.727175
O O13 0.530277 0.122412 0.783987
O O14 0.167993 0.064107 0.226306
O O15 0.377742 0.767316 0.847492
O O16 0.000000 0.500000 0.500000
O O17 0.500000 0.500000 0.500000
#
# Coordination Sequence:
#
# PCOD9076886 Si02
#       8
#     2   2   2   2   2   2   2   2
#     4  10  22  36  60  92 129 158 190 250 310 368
#     4  10  20  36  61  94 119 155 205 256 292 348
#     4  10  18  36  62  93 123 152 199 258 299 347
#     4  10  18  33  62  90 117 154 204 254 296 343
#     4  12  21  36  62  93 124 158 199 245 315 360
#     4  10  22  39  59  89 122 161 199 248 305 355
#     4  11  24  40  61  86 124 161 204 253 298 351
#     4  11  17  32  60  92 119 148 200 264 292 344
#
# _framework density 21.353691000000001
#
# number of rings (size 3 to 8) (size 9 to 14) (size 15 to 20)
#    0.000    1.500    5.000    2.250    0.000    1.000 
#    0.000    2.500    0.000    0.750    0.000    0.000 
#    0.000    0.000    0.000    0.000    0.000    0.000 
#
# Total GULP energy -89261.237541 kJ/mol
# GULP energy per Si atom -5578.827346 kJ/mol
# Density = 2.130509 g / cm^3
# Si number density = 21.353691 Si / 1000 Ang^3
#
#
#
# Elastic Constant Matrix: (Units=GPa)
#
#
# Indices 1 2 3 4 5 6 
#
# 1 109.6444 45.1541 19.7706 -1.0445 -15.5835 9.4717
# 2 45.1541 88.7816 8.0634 -7.3904 8.4347 12.5977
# 3 19.7706 8.0634 46.5213 -3.9005 -13.6519 -9.3870
# 4 -1.0445 -7.3904 -3.9005 33.4986 -2.7643 -1.2518
# 5 -15.5835 8.4347 -13.6519 -2.7643 25.0419 4.7105
# 6 9.4717 12.5977 -9.3870 -1.2518 4.7105 27.9066
#
#
#
# Elastic Compliance Matrix: (Units=1/GPa)
#
#
# Indices 1 2 3 4 5 6 
#
# 1 0.014721 -0.007766 -0.002586 -0.000801 0.011081 -0.004267
# 2 -0.007766 0.017499 -0.003936 0.002018 -0.011803 -0.004505
# 3 -0.002586 -0.003936 0.030012 0.004139 0.014564 0.010477
# 4 -0.000801 0.002018 0.004139 0.031158 0.004248 0.001434
# 5 0.011081 -0.011803 0.014564 0.004248 0.059861 -0.003448
# 6 -0.004267 -0.004505 0.010477 0.001434 -0.003448 0.043486
#
#
# Mechanical properties :
#
#
# Convention : Reuss Voigt Hill
#
# Bulk Modulus (GPa) = 29.71319 43.43595 36.57457
# Shear Modulus (GPa) = 21.13870 28.75336 24.94603
#
# Velocity S-wave (km/s) = 3.14973 3.67349 3.42165
# Velocity P-wave (km/s) = 5.21275 6.19500 5.72498
#
# Compressibility (1/GPa) = 0.03365509
#
# Stress axis : x y z
#
# Youngs Moduli (GPa) = 67.93084 57.14492 33.32024
#
# Poissons Ratio (x) = 0.44379 0.08618
# Poissons Ratio (y) = 0.52755 0.13115
# Poissons Ratio (z) = 0.17570 0.22493
#
# Static dielectric constant tensor:
#      x y z
#    x 1.840660 -0.052380 0.000510 
#    y -0.052380 1.812240 0.002390 
#    z 0.000510 0.002390 1.848720 
# 
# From -- ./inp_files/577511.got.cif
#   From: 2010.05.17/outbox.cif.g08.bks.cpg/sg2_289_cif.got.tgz:577511.got - 2010.06.03 11:33:40.
