data_PCOD9076553
_publ_section_title
;
Structure prediction by ZEFSAII (Michael W. Deem and Ramdas Pophale) SiO2 
 PCOD9076553
Probable space group: P -1
;
_chemical_formula_sum "Si O2"
_cell_formula_units_Z 16
_cell_length_a 7.901514
_cell_length_b 11.050869
_cell_length_c 14.211586
_cell_angle_alpha 125.995853
_cell_angle_beta 108.245837
_cell_angle_gamma 42.641396
_cell_volume 663.818972
_symmetry_space_group_name_H-M "P -1"
_symmetry_group_IT_number 2
_symmetry_cell_setting 'triclinic'
loop_
_space_group_symop_operation_xyz
x,y,z
-x,-y,-z
loop_
_atom_site_type_symbol
_atom_site_label
_atom_site_fract_x
_atom_site_fract_y
_atom_site_fract_z
Si Si1 0.884569 0.744969 0.740805
Si Si2 0.701945 0.558681 0.720159
Si Si3 0.954296 0.567429 0.129289
Si Si4 0.087490 0.089773 0.492985
Si Si5 0.450564 0.949666 0.639783
Si Si6 0.773604 0.158186 0.891950
Si Si7 0.811422 0.121395 0.296178
Si Si8 0.297875 0.532139 0.852181
O O1 0.735433 0.710720 0.762340
O O2 0.183258 0.564692 0.743148
O O3 0.752868 0.782178 0.634567
O O4 0.803845 0.966901 0.838450
O O5 0.797699 0.497808 0.815807
O O6 0.426069 0.658211 0.696009
O O7 0.906412 0.337970 0.598806
O O8 0.712976 0.812526 0.235901
O O9 0.907346 0.436160 0.108126
O O10 0.000000 0.500000 0.000000
O O11 0.363219 0.968759 0.526957
O O12 0.023518 0.086853 0.373815
O O13 0.000000 0.000000 0.500000
O O14 0.331184 0.888696 0.654130
O O15 0.562546 0.315294 0.845130
O O16 0.716472 0.288672 0.034317
O O17 0.035790 0.052759 0.839023
#
# Coordination Sequence:
#
# PCOD9076553 Si02
#       8
#     2   2   2   2   2   2   2   2
#     4  10  20  39  61  78 115 157 192 228 286 353
#     4   9  20  36  61  86 114 152 192 238 289 342
#     4  10  18  33  57  85 112 147 196 238 278 337
#     4   9  18  36  62  87 116 149 184 246 299 332
#     4   9  18  35  59  81 111 149 188 235 293 330
#     4  11  22  39  56  85 119 155 193 236 286 344
#     4  10  20  36  57  88 115 144 200 242 279 346
#     4  10  22  38  59  81 119 161 189 230 296 342
#
# _framework density 24.102958000000001
#
# number of rings (size 3 to 8) (size 9 to 14) (size 15 to 20)
#    0.000    2.250    1.250    1.500    0.000    1.000 
#   11.250    5.000    0.000    0.000    0.000    0.000 
#    0.000    0.000    0.000    0.000    0.000    0.000 
#
# Total GULP energy -89076.166107 kJ/mol
# GULP energy per Si atom -5567.260382 kJ/mol
# Density = 2.404810 g / cm^3
# Si number density = 24.102958 Si / 1000 Ang^3
#
#
#
# Elastic Constant Matrix: (Units=GPa)
#
#
# Indices 1 2 3 4 5 6 
#
# 1 58.5994 22.2997 -2.4849 -15.4643 -7.8794 6.1176
# 2 22.2997 111.5879 35.9512 -14.2756 22.1770 -25.6609
# 3 -2.4849 35.9512 57.8658 -15.6729 7.5326 -21.3347
# 4 -15.4643 -14.2756 -15.6729 14.8297 -11.5061 14.0207
# 5 -7.8794 22.1770 7.5326 -11.5061 10.4501 -12.2361
# 6 6.1176 -25.6609 -21.3347 14.0207 -12.2361 26.6267
#
#
#
# Elastic Compliance Matrix: (Units=1/GPa)
#
#
# Indices 1 2 3 4 5 6 
#
# 1 0.002044 0.005597 -0.007695 -0.028139 -0.043030 -0.006198
# 2 0.005597 0.008077 0.000209 0.025255 0.015087 0.000301
# 3 -0.007695 0.000209 0.022293 -0.016260 -0.015093 0.021458
# 4 -0.028139 0.025255 -0.016260 -0.019695 -0.112185 -0.023407
# 5 -0.043030 0.015087 -0.015093 -0.112185 0.004759 0.073593
# 6 -0.006198 0.000301 0.021458 -0.023407 0.073593 0.102608
#
#
# Mechanical properties :
#
#
# Convention : Reuss Voigt Hill
#
# Bulk Modulus (GPa) = 34.91874 37.73166 36.32520
# Shear Modulus (GPa) = 37.47871 21.86710 29.67290
#
# Velocity S-wave (km/s) = 3.94755 3.01531 3.51250
# Velocity P-wave (km/s) = 5.94107 5.27362 5.61727
#
# Compressibility (1/GPa) = 0.02863792
#
# Stress axis : x y z
#
# Youngs Moduli (GPa) = 489.19819 123.80610 44.85704
#
# Poissons Ratio (x) = -0.69297 0.34517
# Poissons Ratio (y) = -2.73816 -0.00939
# Poissons Ratio (z) = 3.76428 -0.02592
#
# Static dielectric constant tensor:
#      x y z
#    x 1.921520 -0.021190 0.059560 
#    y -0.021190 2.051950 -0.062920 
#    z 0.059560 -0.062920 1.873580 
# 
# From -- ./inp_files/500856.got.cif
#   From: 2010.05.17/outbox.cif.g08.bks.cpg/sg2_251_cif.got.tgz:500856.got - 2010.06.03 11:33:40.
