data_PCOD9076026
_publ_section_title
;
Structure prediction by ZEFSAII (Michael W. Deem and Ramdas Pophale) SiO2 
 PCOD9076026
Probable space group: P -1
;
_chemical_formula_sum "Si O2"
_cell_formula_units_Z 15
_cell_length_a 8.918008
_cell_length_b 7.415947
_cell_length_c 11.253963
_cell_angle_alpha 113.750898
_cell_angle_beta 113.703855
_cell_angle_gamma 102.609796
_cell_volume 555.886574
_symmetry_space_group_name_H-M "P -1"
_symmetry_group_IT_number 2
_symmetry_cell_setting 'triclinic'
loop_
_space_group_symop_operation_xyz
x,y,z
-x,-y,-z
loop_
_atom_site_type_symbol
_atom_site_label
_atom_site_fract_x
_atom_site_fract_y
_atom_site_fract_z
Si Si1 0.613101 0.928027 0.766931
Si Si2 0.042468 0.309076 0.328897
Si Si3 0.340718 0.793685 0.831476
Si Si4 0.699199 0.376119 0.809126
Si Si5 0.088579 0.749308 0.353835
Si Si6 0.000000 0.000000 0.000000
Si Si7 0.343505 0.228396 0.519636
Si Si8 0.720147 0.575651 0.097844
O O1 0.444784 0.759287 0.744710
O O2 0.608937 0.826123 0.610422
O O3 0.604883 0.158053 0.803033
O O4 0.803395 0.998093 0.914140
O O5 0.074893 0.561338 0.390631
O O6 0.055756 0.196276 0.178329
O O7 0.185694 0.300799 0.465925
O O8 0.829105 0.171082 0.256742
O O9 0.275323 0.608944 0.862344
O O10 0.500000 0.000000 0.000000
O O11 0.844167 0.334950 0.765770
O O12 0.536354 0.380416 0.682060
O O13 0.778965 0.579294 0.979452
O O14 0.903495 0.771332 0.267024
O O15 0.247667 0.992667 0.493763
O O16 0.500000 0.500000 0.000000
#
# Coordination Sequence:
#
# PCOD9076026 Si02
#       8
#     2   2   2   2   2   1   2   2
#     4  10  19  35  62  90 119 163 217 251 312 379
#     4  10  22  38  60  94 128 170 219 260 322 378
#     4  11  20  38  63  88 128 168 208 267 318 375
#     4  11  22  43  65  93 130 172 208 263 328 383
#     4  10  22  42  65  95 128 164 220 275 306 373
#     4  10  18  32  58  92 120 164 214 262 310 364
#     4  10  24  42  70  92 127 176 213 258 328 384
#     4  11  25  39  64 100 128 163 214 267 326 373
#
# _framework density 26.983920999999999
#
# number of rings (size 3 to 8) (size 9 to 14) (size 15 to 20)
#    0.000    1.600    2.667    2.800    1.867    5.867 
#    0.000    5.333    0.000    8.000    0.000    0.000 
#    0.000    0.000    0.000    0.000    0.000    0.000 
#
# Total GULP energy -83723.654532 kJ/mol
# GULP energy per Si atom -5581.576969 kJ/mol
# Density = 2.692250 g / cm^3
# Si number density = 26.983921 Si / 1000 Ang^3
#
#
#
# Elastic Constant Matrix: (Units=GPa)
#
#
# Indices 1 2 3 4 5 6 
#
# 1 106.1681 27.0936 33.7598 -16.3752 36.0068 -20.5170
# 2 27.0936 60.6805 29.8783 -11.3801 8.3844 -20.1991
# 3 33.7598 29.8783 125.3273 -11.4109 41.3937 -12.7357
# 4 -16.3752 -11.3801 -11.4109 30.8610 -8.0666 11.0891
# 5 36.0068 8.3844 41.3937 -8.0666 47.3354 -11.5961
# 6 -20.5170 -20.1991 -12.7357 11.0891 -11.5961 34.6413
#
#
#
# Elastic Compliance Matrix: (Units=1/GPa)
#
#
# Indices 1 2 3 4 5 6 
#
# 1 0.014500 -0.004266 0.000921 0.003086 -0.010042 0.002090
# 2 -0.004266 0.024358 -0.005608 0.002459 0.006989 0.011167
# 3 0.000921 -0.005608 0.012599 0.000939 -0.011080 -0.002102
# 4 0.003086 0.002459 0.000939 0.038561 0.000901 -0.008436
# 5 -0.010042 0.006989 -0.011080 0.000901 0.039044 0.006836
# 6 0.002090 0.011167 -0.002102 -0.008436 0.006836 0.040832
#
#
# Mechanical properties :
#
#
# Convention : Reuss Voigt Hill
#
# Bulk Modulus (GPa) = 29.80340 52.62660 41.21500
# Shear Modulus (GPa) = 25.12748 35.99715 30.56231
#
# Velocity S-wave (km/s) = 3.05487 3.65639 3.36908
# Velocity P-wave (km/s) = 4.84890 6.11317 5.51737
#
# Compressibility (1/GPa) = 0.03355322
#
# Stress axis : x y z
#
# Youngs Moduli (GPa) = 68.96388 41.05346 79.36928
#
# Poissons Ratio (x) = 0.17513 -0.07310
# Poissons Ratio (y) = 0.29419 0.44507
# Poissons Ratio (z) = -0.06352 0.23021
#
# Static dielectric constant tensor:
#      x y z
#    x 2.262540 0.150580 -0.088990 
#    y 0.150580 2.265490 0.038480 
#    z -0.088990 0.038480 2.114960 
# 
# From -- ./inp_files/239499.got.cif
#   From: 2010.05.17/outbox.cif.g08.bks.cpg/sg2_120_cif.got.tgz:239499.got - 2010.06.03 11:33:40.
