data_PCOD9076733
_publ_section_title
;
Structure prediction by ZEFSAII (Michael W. Deem and Ramdas Pophale) SiO2 
 PCOD9076733
Probable space group: P -1
;
_chemical_formula_sum "Si O2"
_cell_formula_units_Z 16
_cell_length_a 14.593391
_cell_length_b 14.463935
_cell_length_c 20.028244
_cell_angle_alpha 39.514009
_cell_angle_beta 19.049254
_cell_angle_gamma 49.695296
_cell_volume 805.895407
_symmetry_space_group_name_H-M "P -1"
_symmetry_group_IT_number 2
_symmetry_cell_setting 'triclinic'
loop_
_space_group_symop_operation_xyz
x,y,z
-x,-y,-z
loop_
_atom_site_type_symbol
_atom_site_label
_atom_site_fract_x
_atom_site_fract_y
_atom_site_fract_z
Si Si1 0.810611 0.577866 0.201383
Si Si2 0.949855 0.716974 0.314407
Si Si3 0.231996 0.025644 0.887528
Si Si4 0.661203 0.864360 0.624568
Si Si5 0.384698 0.564314 0.888370
Si Si6 0.559848 0.649707 0.922878
Si Si7 0.234653 0.895849 0.688792
Si Si8 0.510013 0.318029 0.459056
O O1 0.500000 0.500000 0.500000
O O2 0.731844 0.491342 0.232241
O O3 0.086181 0.544573 0.063645
O O4 0.944535 0.767663 0.996709
O O5 0.690898 0.626406 0.597341
O O6 0.778494 0.670871 0.386615
O O7 0.243693 0.672874 0.140513
O O8 0.058838 0.909636 0.132117
O O9 0.419219 0.212247 0.648028
O O10 0.458310 0.946018 0.752515
O O11 0.000000 0.000000 0.000000
O O12 0.452684 0.708866 0.813136
O O13 0.843757 0.992830 0.371724
O O14 0.781126 0.797290 0.643052
O O15 0.337671 0.403447 0.049371
O O16 0.500000 0.500000 0.000000
O O17 0.363930 0.781757 0.621738
O O18 0.500000 0.000000 0.500000
#
# Coordination Sequence:
#
# PCOD9076733 Si02
#       8
#     2   2   2   2   2   2   2   2
#     4  12  27  36  56  90 133 159 190 245 314 362
#     4  10  18  33  59  86 115 151 203 246 295 348
#     4   8  17  29  54  81 111 149 188 238 287 349
#     4   9  18  34  57  82 109 148 200 247 287 335
#     4  11  21  36  54  86 120 154 200 249 291 355
#     4   9  20  34  57  85 114 152 202 255 286 334
#     4  11  20  39  64  87 121 157 203 250 292 360
#     4  10  21  36  56  89 127 156 191 239 320 355
#
# _framework density 19.853694000000001
#
# number of rings (size 3 to 8) (size 9 to 14) (size 15 to 20)
#    0.000    2.000    2.500    0.750    7.000    2.000 
#    0.000    0.000    0.000    7.500    0.000    0.000 
#    0.000    0.000    0.000    0.000    0.000    0.000 
#
# Total GULP energy -89080.387131 kJ/mol
# GULP energy per Si atom -5567.524196 kJ/mol
# Density = 1.980851 g / cm^3
# Si number density = 19.853694 Si / 1000 Ang^3
#
#
#
# Elastic Constant Matrix: (Units=GPa)
#
#
# Indices 1 2 3 4 5 6 
#
# 1 85.7417 31.1887 39.7181 -14.9273 22.3782 -23.6790
# 2 31.1887 61.3494 26.9983 -19.2336 7.4164 -11.2247
# 3 39.7181 26.9983 105.0067 -14.4767 26.4545 -4.4633
# 4 -14.9273 -19.2336 -14.4767 31.3921 2.6815 8.9117
# 5 22.3782 7.4164 26.4545 2.6815 39.6875 -10.5944
# 6 -23.6790 -11.2247 -4.4633 8.9117 -10.5944 46.5386
#
#
#
# Elastic Compliance Matrix: (Units=1/GPa)
#
#
# Indices 1 2 3 4 5 6 
#
# 1 0.019034 -0.005326 -0.003719 0.002812 -0.005797 0.006185
# 2 -0.005326 0.023581 -0.002484 0.010613 -0.000294 0.000640
# 3 -0.003719 -0.002484 0.014197 0.005102 -0.008314 -0.004000
# 4 0.002812 0.010613 0.005102 0.044998 -0.011833 -0.006831
# 5 -0.005797 -0.000294 -0.008314 -0.011833 0.036676 0.006797
# 6 0.006185 0.000640 -0.004000 -0.006831 0.006797 0.027261
#
#
# Mechanical properties :
#
#
# Convention : Reuss Voigt Hill
#
# Bulk Modulus (GPa) = 29.62656 49.76757 39.69707
# Shear Modulus (GPa) = 24.99324 33.80315 29.39820
#
# Velocity S-wave (km/s) = 3.55191 4.13075 3.85222
# Velocity P-wave (km/s) = 5.63704 6.91899 6.31065
#
# Compressibility (1/GPa) = 0.03375349
#
# Stress axis : x y z
#
# Youngs Moduli (GPa) = 52.53873 42.40774 70.43952
#
# Poissons Ratio (x) = 0.22585 0.26197
# Poissons Ratio (y) = 0.27980 0.17497
# Poissons Ratio (z) = 0.19539 0.10534
#
# Static dielectric constant tensor:
#      x y z
#    x 2.034260 0.024120 0.120020 
#    y 0.024120 1.739830 -0.010140 
#    z 0.120020 -0.010140 1.800170 
# 
# From -- ./inp_files/598211.got.cif
#   From: 2010.05.17/outbox.cif.g08.bks.cpg/sg2_300_cif.got.tgz:598211.got - 2010.06.03 11:33:40.
