data_PCOD9076748
_publ_section_title
;
Structure prediction by ZEFSAII (Michael W. Deem and Ramdas Pophale) SiO2 
 PCOD9076748
Probable space group: P -1
;
_chemical_formula_sum "Si O2"
_cell_formula_units_Z 14
_cell_length_a 7.877953
_cell_length_b 9.064189
_cell_length_c 11.195371
_cell_angle_alpha 75.836564
_cell_angle_beta 103.451810
_cell_angle_gamma 48.541220
_cell_volume 487.775624
_symmetry_space_group_name_H-M "P -1"
_symmetry_group_IT_number 2
_symmetry_cell_setting 'triclinic'
loop_
_space_group_symop_operation_xyz
x,y,z
-x,-y,-z
loop_
_atom_site_type_symbol
_atom_site_label
_atom_site_fract_x
_atom_site_fract_y
_atom_site_fract_z
Si Si1 0.808932 0.614886 0.280465
Si Si2 0.188386 0.593573 0.464988
Si Si3 0.359463 0.757758 0.577787
Si Si4 0.241525 0.862614 0.932808
Si Si5 0.432073 0.198356 0.210450
Si Si6 0.885078 0.759110 0.033369
Si Si7 0.199644 0.652686 0.789303
O O1 0.674809 0.592754 0.365220
O O2 0.750689 0.749996 0.122553
O O3 0.979745 0.362940 0.292892
O O4 0.931532 0.664069 0.374970
O O5 0.164518 0.789295 0.450213
O O6 0.366030 0.462725 0.401527
O O7 0.420741 0.882945 0.620493
O O8 0.275700 0.720274 0.687191
O O9 0.362666 0.877454 0.840059
O O10 0.105137 0.806940 0.859103
O O11 0.093779 0.081972 0.948898
O O12 0.513316 0.618232 0.085858
O O13 0.176696 0.486778 0.115122
O O14 0.299651 0.140343 0.135074
#
# Coordination Sequence:
#
# PCOD9076748 Si02
#       7
#     2   2   2   2   2   2   2
#     4  10  18  33  59  89 112 151 201 242 284 350
#     4   9  18  32  58  85 108 158 206 229 291 341
#     4   9  17  34  56  85 112 154 196 238 286 348
#     4  10  20  37  57  86 125 158 184 234 301 361
#     4  10  20  34  58  87 121 149 190 238 295 350
#     4  11  21  34  60  94 120 149 193 239 301 351
#     4   9  19  34  57  84 120 156 189 235 297 348
#
# _framework density 28.701719000000001
#
# number of rings (size 3 to 8) (size 9 to 14) (size 15 to 20)
#    0.000    2.286    2.857    0.429    0.000    0.000 
#    0.000    6.429    0.000   17.143    3.714    0.000 
#    0.000    0.000    0.000    0.000    0.000    0.000 
#
# Total GULP energy -78004.807352 kJ/mol
# GULP energy per Si atom -5571.771954 kJ/mol
# Density = 2.863639 g / cm^3
# Si number density = 28.701719 Si / 1000 Ang^3
#
#
#
# Elastic Constant Matrix: (Units=GPa)
#
#
# Indices 1 2 3 4 5 6 
#
# 1 60.2912 60.1102 -42.8575 39.7989 19.2576 3.0009
# 2 60.1102 148.7527 89.8056 26.9395 -5.1518 37.4880
# 3 -42.8575 89.8056 39.6884 63.1604 19.0670 -13.7145
# 4 39.7989 26.9395 63.1604 53.0714 12.9708 26.4999
# 5 19.2576 -5.1518 19.0670 12.9708 45.8716 23.6259
# 6 3.0009 37.4880 -13.7145 26.4999 23.6259 27.5420
#
#
#
# Elastic Compliance Matrix: (Units=1/GPa)
#
#
# Indices 1 2 3 4 5 6 
#
# 1 0.008958 0.001755 -0.004736 0.002963 0.003553 -0.011622
# 2 0.001755 0.005480 0.002805 -0.008181 0.000345 0.001322
# 3 -0.004736 0.002805 0.002185 0.003268 0.005789 -0.010324
# 4 0.002963 -0.008181 0.003268 0.016468 -0.011508 0.006467
# 5 0.003553 0.000345 0.005789 -0.011508 0.025885 -0.009106
# 6 -0.011622 0.001322 -0.010324 0.006467 -0.009106 0.032222
#
#
# Mechanical properties :
#
#
# Convention : Reuss Voigt Hill
#
# Bulk Modulus (GPa) = 61.46004 51.42766 56.44385
# Shear Modulus (GPa) = 51.56093 34.74192 43.15142
#
# Velocity S-wave (km/s) = 4.24304 3.48292 3.88163
# Velocity P-wave (km/s) = 6.74273 5.84219 6.30855
#
# Compressibility (1/GPa) = 0.01627073
#
# Stress axis : x y z
#
# Youngs Moduli (GPa) = 111.63719 182.47968 457.69904
#
# Poissons Ratio (x) = -0.32024 2.16773
# Poissons Ratio (y) = -0.19591 -1.28401
# Poissons Ratio (z) = 0.52873 -0.51192
#
# Static dielectric constant tensor:
#      x y z
#    x 2.336400 0.023040 0.166260 
#    y 0.023040 2.272600 -0.026100 
#    z 0.166260 -0.026100 2.389960 
# 
# From -- ./inp_files/379210.got.cif
#   From: 2010.05.17/outbox.cif.g08.bks.cpg/sg2_190_cif.got.tgz:379210.got - 2010.06.03 11:33:40.
