data_PCOD9076505
_publ_section_title
;
Structure prediction by ZEFSAII (Michael W. Deem and Ramdas Pophale) SiO2 
 PCOD9076505
Probable space group: P -1
;
_chemical_formula_sum "Si O2"
_cell_formula_units_Z 16
_cell_length_a 9.337428
_cell_length_b 14.483216
_cell_length_c 11.866160
_cell_angle_alpha 119.748754
_cell_angle_beta 93.681875
_cell_angle_gamma 39.794338
_cell_volume 732.350090
_symmetry_space_group_name_H-M "P -1"
_symmetry_group_IT_number 2
_symmetry_cell_setting 'triclinic'
loop_
_space_group_symop_operation_xyz
x,y,z
-x,-y,-z
loop_
_atom_site_type_symbol
_atom_site_label
_atom_site_fract_x
_atom_site_fract_y
_atom_site_fract_z
Si Si1 0.864448 0.386511 0.120540
Si Si2 0.983337 0.964567 0.349155
Si Si3 0.637477 0.448614 0.793886
Si Si4 0.026222 0.606543 0.102008
Si Si5 0.952904 0.847149 0.567488
Si Si6 0.913989 0.715883 0.693970
Si Si7 0.399544 0.244627 0.418330
Si Si8 0.380791 0.217405 0.643470
O O1 0.660565 0.415345 0.141709
O O2 0.698508 0.605620 0.243342
O O3 0.057971 0.265716 0.165148
O O4 0.012207 0.300353 0.955722
O O5 0.696480 0.099040 0.376126
O O6 0.029530 0.040774 0.326403
O O7 0.000000 0.000000 0.500000
O O8 0.203377 0.733579 0.225611
O O9 0.701684 0.522031 0.899315
O O10 0.788455 0.346438 0.617135
O O11 0.792546 0.754069 0.272555
O O12 0.000000 0.500000 0.000000
O O13 0.913528 0.805248 0.652797
O O14 0.688078 0.011409 0.573818
O O15 0.660336 0.796380 0.711455
O O16 0.189051 0.474428 0.537269
O O17 0.315631 0.234826 0.521628
#
# Coordination Sequence:
#
# PCOD9076505 Si02
#       8
#     2   2   2   2   2   2   2   2
#     4  10  21  41  55  80 120 157 189 226 282 344
#     4  10  18  33  56  90 117 142 179 237 293 338
#     4  11  20  35  64  87 112 147 191 244 288 328
#     4  10  23  37  58  86 109 153 201 243 266 323
#     4  11  20  34  59  96 114 143 185 240 296 336
#     4  10  22  33  54  83 124 156 177 229 291 352
#     4  10  19  35  54  85 123 150 182 228 299 345
#     4  10  18  36  60  84 119 140 194 243 274 336
#
# _framework density 21.847473999999998
#
# number of rings (size 3 to 8) (size 9 to 14) (size 15 to 20)
#    0.000    1.750    3.750    3.375    1.750    4.000 
#    0.000    0.625    0.000    0.750    0.000    0.000 
#    0.000    0.000    0.000    0.000    0.000    0.000 
#
# Total GULP energy -89270.192476 kJ/mol
# GULP energy per Si atom -5579.387030 kJ/mol
# Density = 2.179775 g / cm^3
# Si number density = 21.847474 Si / 1000 Ang^3
#
#
#
# Elastic Constant Matrix: (Units=GPa)
#
#
# Indices 1 2 3 4 5 6 
#
# 1 122.9228 34.6541 30.5727 -19.0307 7.6674 -27.4151
# 2 34.6541 89.9507 12.2825 -18.7067 2.1672 -12.3623
# 3 30.5727 12.2825 25.6831 -20.8147 6.0419 -4.9527
# 4 -19.0307 -18.7067 -20.8147 28.4082 1.5355 2.2884
# 5 7.6674 2.1672 6.0419 1.5355 30.6189 -3.8416
# 6 -27.4151 -12.3623 -4.9527 2.2884 -3.8416 48.0343
#
#
#
# Elastic Compliance Matrix: (Units=1/GPa)
#
#
# Indices 1 2 3 4 5 6 
#
# 1 0.014550 -0.003907 -0.023734 -0.010802 0.002557 0.005571
# 2 -0.003907 0.014533 0.010571 0.014706 -0.002662 0.001687
# 3 -0.023734 0.010571 0.155844 0.107126 -0.031225 -0.002357
# 4 -0.010802 0.014706 0.107126 0.117419 -0.025231 0.001053
# 5 0.002557 -0.002662 -0.031225 -0.025231 0.039879 0.001946
# 6 0.005571 0.001687 -0.002357 0.001053 0.001946 0.024294
#
#
# Mechanical properties :
#
#
# Convention : Reuss Voigt Hill
#
# Bulk Modulus (GPa) = 6.63187 43.73056 25.18122
# Shear Modulus (GPa) = 11.08837 32.14878 21.61857
#
# Velocity S-wave (km/s) = 2.25530 3.84019 3.14908
# Velocity P-wave (km/s) = 3.13432 6.30258 4.97727
#
# Compressibility (1/GPa) = 0.15078697
#
# Stress axis : x y z
#
# Youngs Moduli (GPa) = 68.72778 68.80707 6.41666
#
# Poissons Ratio (x) = 0.26885 0.15229
# Poissons Ratio (y) = 0.26854 -0.06783
# Poissons Ratio (z) = 1.63116 -0.72733
#
# Static dielectric constant tensor:
#      x y z
#    x 1.908210 0.009480 0.046020 
#    y 0.009480 1.756730 0.033720 
#    z 0.046020 0.033720 1.927390 
# 
# From -- ./inp_files/312018.got.cif
#   From: 2010.05.17/outbox.cif.g08.bks.cpg/sg2_157_cif.got.tgz:312018.got - 2010.06.03 11:33:40.
