data_PCOD9076298
_publ_section_title
;
Structure prediction by ZEFSAII (Michael W. Deem and Ramdas Pophale) SiO2 
 PCOD9076298
Probable space group: P -1
;
_chemical_formula_sum "Si O2"
_cell_formula_units_Z 16
_cell_length_a 14.043704
_cell_length_b 13.688995
_cell_length_c 11.652020
_cell_angle_alpha 125.485691
_cell_angle_beta 137.139885
_cell_angle_gamma 31.832427
_cell_volume 798.055838
_symmetry_space_group_name_H-M "P -1"
_symmetry_group_IT_number 2
_symmetry_cell_setting 'triclinic'
loop_
_space_group_symop_operation_xyz
x,y,z
-x,-y,-z
loop_
_atom_site_type_symbol
_atom_site_label
_atom_site_fract_x
_atom_site_fract_y
_atom_site_fract_z
Si Si1 0.402522 0.000208 0.301816
Si Si2 0.642239 0.237168 0.963090
Si Si3 0.011833 0.400559 0.273829
Si Si4 0.181814 0.643440 0.750615
Si Si5 0.573900 0.959661 0.194249
Si Si6 0.559029 0.712318 0.952501
Si Si7 0.240724 0.397363 0.176375
Si Si8 0.924840 0.379438 0.590035
O O1 0.572875 0.908302 0.288181
O O2 0.500000 0.000000 0.500000
O O3 0.339014 0.902346 0.179056
O O4 0.184180 0.214666 0.224973
O O5 0.825564 0.219136 0.106503
O O6 0.606617 0.237383 0.069077
O O7 0.421475 0.436943 0.851400
O O8 0.981239 0.341746 0.320629
O O9 0.090175 0.485611 0.403957
O O10 0.783238 0.558462 0.116477
O O11 0.153053 0.664347 0.602746
O O12 0.826256 0.815225 0.290219
O O13 0.408760 0.178299 0.199073
O O14 0.495846 0.894721 0.008753
O O15 0.637056 0.616881 0.831735
O O16 0.202448 0.506148 0.327553
O O17 0.000000 0.500000 0.000000
#
# Coordination Sequence:
#
# PCOD9076298 Si02
#       8
#     2   2   2   2   2   2   2   2
#     4  11  19  31  53  86 114 139 180 234 280 331
#     4   9  21  36  57  76 111 155 185 227 278 336
#     4  10  18  33  54  81 113 141 182 232 279 325
#     4  10  20  38  54  77 111 154 189 222 281 338
#     4  10  20  33  52  85 114 143 175 233 287 327
#     4   9  19  35  54  78 110 144 183 225 281 325
#     4  12  20  34  56  88 113 142 185 234 282 330
#     4  11  21  34  57  85 115 145 183 236 279 329
#
# _framework density 20.048722000000001
#
# number of rings (size 3 to 8) (size 9 to 14) (size 15 to 20)
#    0.000    1.750    3.750    3.000    0.000    0.500 
#    0.000    0.625    0.000    0.750    0.000    0.000 
#    0.000    0.000    0.000    0.000    0.000    0.000 
#
# Total GULP energy -89084.392396 kJ/mol
# GULP energy per Si atom -5567.774525 kJ/mol
# Density = 2.000309 g / cm^3
# Si number density = 20.048722 Si / 1000 Ang^3
#
#
#
# Elastic Constant Matrix: (Units=GPa)
#
#
# Indices 1 2 3 4 5 6 
#
# 1 49.7911 5.9999 26.5766 7.0533 -24.1446 -15.1776
# 2 5.9999 116.2732 22.9421 5.6475 2.2516 -2.1948
# 3 26.5766 22.9421 79.3874 24.7567 -12.8329 0.7340
# 4 7.0533 5.6475 24.7567 22.4143 -5.6683 -6.0164
# 5 -24.1446 2.2516 -12.8329 -5.6683 25.8108 13.6021
# 6 -15.1776 -2.1948 0.7340 -6.0164 13.6021 27.0137
#
#
#
# Elastic Compliance Matrix: (Units=1/GPa)
#
#
# Indices 1 2 3 4 5 6 
#
# 1 0.044631 -0.000558 -0.013784 0.012550 0.031090 0.012545
# 2 -0.000558 0.009460 -0.003883 0.001796 -0.004614 0.003284
# 3 -0.013784 -0.003883 0.028497 -0.029795 0.004387 -0.017679
# 4 0.012550 0.001796 -0.029795 0.080184 0.001018 0.025353
# 5 0.031090 -0.004614 0.004387 0.001018 0.083808 -0.024999
# 6 0.012545 0.003284 -0.017679 0.025353 -0.024999 0.063048
#
#
# Mechanical properties :
#
#
# Convention : Reuss Voigt Hill
#
# Bulk Modulus (GPa) = 21.67430 39.60988 30.64209
# Shear Modulus (GPa) = 13.83287 27.70996 20.77141
#
# Velocity S-wave (km/s) = 2.62956 3.72174 3.22226
# Velocity P-wave (km/s) = 4.47814 6.18612 5.40009
#
# Compressibility (1/GPa) = 0.04613759
#
# Stress axis : x y z
#
# Youngs Moduli (GPa) = 22.40594 105.71361 35.09115
#
# Poissons Ratio (x) = 0.05900 0.48369
# Poissons Ratio (y) = 0.01251 0.13626
# Poissons Ratio (z) = 0.30884 0.41049
#
# Static dielectric constant tensor:
#      x y z
#    x 1.818070 0.012830 -0.032200 
#    y 0.012830 1.730370 0.023140 
#    z -0.032200 0.023140 1.723840 
# 
# From -- ./inp_files/455005.got.cif
#   From: 2010.05.17/outbox.cif.g08.bks.cpg/sg2_228_cif.got.tgz:455005.got - 2010.06.03 11:33:40.
