data_PCOD9076034
_publ_section_title
;
Structure prediction by ZEFSAII (Michael W. Deem and Ramdas Pophale) SiO2 
 PCOD9076034
Probable space group: P -1
;
_chemical_formula_sum "Si O2"
_cell_formula_units_Z 16
_cell_length_a 14.968239
_cell_length_b 11.328613
_cell_length_c 12.602844
_cell_angle_alpha 41.904136
_cell_angle_beta 150.739335
_cell_angle_gamma 136.810516
_cell_volume 676.484108
_symmetry_space_group_name_H-M "P -1"
_symmetry_group_IT_number 2
_symmetry_cell_setting 'triclinic'
loop_
_space_group_symop_operation_xyz
x,y,z
-x,-y,-z
loop_
_atom_site_type_symbol
_atom_site_label
_atom_site_fract_x
_atom_site_fract_y
_atom_site_fract_z
Si Si1 0.789546 0.762160 0.365108
Si Si2 0.186189 0.422999 0.956588
Si Si3 0.825356 0.249086 0.825862
Si Si4 0.892054 0.894320 0.058816
Si Si5 0.491312 0.806045 0.171482
Si Si6 0.453664 0.337812 0.472871
Si Si7 0.024934 0.661233 0.503011
Si Si8 0.093817 0.797798 0.831802
O O1 0.586267 0.708497 0.244802
O O2 0.839968 0.662919 0.380688
O O3 0.926204 0.733605 0.620365
O O4 0.846560 0.980652 0.255580
O O5 0.224258 0.295949 0.983637
O O6 0.185570 0.622211 0.774306
O O7 0.965753 0.350720 0.812878
O O8 0.304032 0.371698 0.210664
O O9 0.636247 0.311153 0.615264
O O10 0.944483 0.272994 0.042284
O O11 0.780322 0.032251 0.900137
O O12 0.041392 0.844866 0.329383
O O13 0.000000 0.000000 0.000000
O O14 0.599247 0.824330 0.384850
O O15 0.273501 0.729824 0.024263
O O16 0.500000 0.000000 0.000000
O O17 0.500000 0.500000 0.500000
O O18 0.000000 0.500000 0.500000
#
# Coordination Sequence:
#
# PCOD9076034 Si02
#       8
#     2   2   2   2   2   2   2   2
#     4  10  18  32  59  82 114 148 191 238 297 338
#     4  10  23  39  61  87 123 161 196 244 303 353
#     4  10  20  39  63  85 120 157 203 244 295 343
#     4   9  19  41  67  89 112 153 208 254 291 352
#     4   9  20  37  55  84 118 150 198 244 284 339
#     4  11  25  39  56  91 130 159 196 242 297 366
#     4  10  21  37  61  89 117 156 198 241 300 358
#     4   9  18  32  56  88 111 148 191 242 286 346
#
# _framework density 23.651700000000002
#
# number of rings (size 3 to 8) (size 9 to 14) (size 15 to 20)
#    0.000    2.250    1.250    0.750    5.250    1.000 
#    0.000    0.000    0.000   12.750    0.000    0.000 
#    0.000    0.000    0.000    0.000    0.000    0.000 
#
# Total GULP energy -89272.796855 kJ/mol
# GULP energy per Si atom -5579.549803 kJ/mol
# Density = 2.359787 g / cm^3
# Si number density = 23.651700 Si / 1000 Ang^3
#
#
#
# Elastic Constant Matrix: (Units=GPa)
#
#
# Indices 1 2 3 4 5 6 
#
# 1 135.5779 31.5784 57.0702 -7.0085 13.3931 -29.8136
# 2 31.5784 56.6370 36.0753 -23.5229 8.0975 -22.7136
# 3 57.0702 36.0753 182.1074 -26.6583 -14.8276 -11.2979
# 4 -7.0085 -23.5229 -26.6583 33.7920 -4.8886 0.5801
# 5 13.3931 8.0975 -14.8276 -4.8886 51.2199 -13.5531
# 6 -29.8136 -22.7136 -11.2979 0.5801 -13.5531 40.7715
#
#
#
# Elastic Compliance Matrix: (Units=1/GPa)
#
#
# Indices 1 2 3 4 5 6 
#
# 1 0.010348 -0.002842 -0.002952 -0.002552 -0.002169 0.004481
# 2 -0.002842 0.037575 -0.001758 0.024079 0.001493 0.018522
# 3 -0.002952 -0.001758 0.007804 0.004872 0.003835 0.000230
# 4 -0.002552 0.024079 0.004872 0.050420 0.006915 0.014479
# 5 -0.002169 0.001493 0.003835 0.006915 0.023771 0.008112
# 6 0.004481 0.018522 0.000230 0.014479 0.008112 0.040676
#
#
# Mechanical properties :
#
#
# Convention : Reuss Voigt Hill
#
# Bulk Modulus (GPa) = 24.61576 69.30779 46.96178
# Shear Modulus (GPa) = 25.09536 41.79658 33.44597
#
# Velocity S-wave (km/s) = 3.26089 4.20833 3.76454
# Velocity P-wave (km/s) = 4.96065 7.27877 6.22851
#
# Compressibility (1/GPa) = 0.04062438
#
# Stress axis : x y z
#
# Youngs Moduli (GPa) = 96.63532 26.61330 128.13406
#
# Poissons Ratio (x) = 0.07563 0.37827
# Poissons Ratio (y) = 0.27464 0.22520
# Poissons Ratio (z) = 0.28528 0.04677
#
# Static dielectric constant tensor:
#      x y z
#    x 1.915220 0.022710 -0.047310 
#    y 0.022710 2.031330 -0.074780 
#    z -0.047310 -0.074780 1.991840 
# 
# From -- ./inp_files/451159.got.cif
#   From: 2010.05.17/outbox.cif.g08.bks.cpg/sg2_226_cif.got.tgz:451159.got - 2010.06.03 11:33:40.
