data_PCOD9076892
_publ_section_title
;
Structure prediction by ZEFSAII (Michael W. Deem and Ramdas Pophale) SiO2 
 PCOD9076892
Probable space group: P -1
;
_chemical_formula_sum "Si O2"
_cell_formula_units_Z 15
_cell_length_a 17.503944
_cell_length_b 7.071086
_cell_length_c 7.734052
_cell_angle_alpha 61.973092
_cell_angle_beta 120.924817
_cell_angle_gamma 134.145878
_cell_volume 579.423607
_symmetry_space_group_name_H-M "P -1"
_symmetry_group_IT_number 2
_symmetry_cell_setting 'triclinic'
loop_
_space_group_symop_operation_xyz
x,y,z
-x,-y,-z
loop_
_atom_site_type_symbol
_atom_site_label
_atom_site_fract_x
_atom_site_fract_y
_atom_site_fract_z
Si Si1 0.193080 0.932363 0.654533
Si Si2 0.112844 0.443240 0.006312
Si Si3 0.000000 0.500000 0.500000
Si Si4 0.666408 0.603805 0.138345
Si Si5 0.339612 0.587116 0.157308
Si Si6 0.114935 0.759142 0.194009
Si Si7 0.354381 0.156439 0.445860
Si Si8 0.454543 0.140791 0.247986
O O1 0.135969 0.618153 0.780300
O O2 0.084825 0.840397 0.460071
O O3 0.225508 0.146535 0.747356
O O4 0.306784 0.049176 0.629476
O O5 0.982456 0.206577 0.959989
O O6 0.213937 0.429147 0.149488
O O7 0.126611 0.640645 0.084651
O O8 0.930357 0.464791 0.613425
O O9 0.584943 0.372505 0.278697
O O10 0.672809 0.457164 0.044245
O O11 0.604109 0.726526 0.945284
O O12 0.401519 0.464445 0.349993
O O13 0.405318 0.887299 0.175086
O O14 0.236659 0.012122 0.270476
O O15 0.418412 0.079463 0.433461
#
# Coordination Sequence:
#
# PCOD9076892 Si02
#       8
#     2   2   1   2   2   2   2   2
#     4  10  19  39  56  88 114 159 185 240 285 353
#     4  10  18  33  63  81 111 150 201 225 291 334
#     4   8  18  32  62  82 114 152 194 220 296 338
#     4  10  21  36  63  85 118 144 204 237 287 338
#     4  11  20  37  58  89 112 153 193 248 276 346
#     4   9  17  34  56  85 110 156 184 238 279 352
#     4  10  21  36  57  80 125 145 194 234 296 337
#     4  10  20  39  59  86 112 161 186 245 288 341
#
# _framework density 25.887796000000002
#
# number of rings (size 3 to 8) (size 9 to 14) (size 15 to 20)
#    0.000    2.133    2.667    1.200    0.000    1.067 
#    2.400    0.667    0.000   10.400    0.000    0.000 
#    0.000    0.000    0.000    0.000    0.000    0.000 
#
# Total GULP energy -83549.726499 kJ/mol
# GULP energy per Si atom -5569.981767 kJ/mol
# Density = 2.582887 g / cm^3
# Si number density = 25.887796 Si / 1000 Ang^3
#
#
#
# Elastic Constant Matrix: (Units=GPa)
#
#
# Indices 1 2 3 4 5 6 
#
# 1 102.6019 49.5633 34.1774 7.4081 -26.5005 -7.9248
# 2 49.5633 132.5827 25.5668 30.6222 -11.0839 1.3720
# 3 34.1774 25.5668 46.4845 11.4552 -13.8777 -9.9501
# 4 7.4081 30.6222 11.4552 50.7875 7.8616 -0.7769
# 5 -26.5005 -11.0839 -13.8777 7.8616 50.6006 -2.9786
# 6 -7.9248 1.3720 -9.9501 -0.7769 -2.9786 33.1906
#
#
#
# Elastic Compliance Matrix: (Units=1/GPa)
#
#
# Indices 1 2 3 4 5 6 
#
# 1 0.015745 -0.004313 -0.007489 0.001224 0.005185 0.002186
# 2 -0.004313 0.010840 -0.001743 -0.005605 0.000385 -0.002097
# 3 -0.007489 -0.001743 0.033235 -0.006193 0.006283 0.008666
# 4 0.001224 -0.005605 -0.006193 0.025240 -0.006283 -0.001306
# 5 0.005185 0.000385 0.006283 -0.006283 0.025571 0.005254
# 6 0.002186 -0.002097 0.008666 -0.001306 0.005254 0.033777
#
#
# Mechanical properties :
#
#
# Convention : Reuss Voigt Hill
#
# Bulk Modulus (GPa) = 30.55612 55.58715 43.07164
# Shear Modulus (GPa) = 27.41114 38.40650 32.90882
#
# Velocity S-wave (km/s) = 3.25752 3.85590 3.56927
# Velocity P-wave (km/s) = 5.09681 6.42984 5.80174
#
# Compressibility (1/GPa) = 0.03272666
#
# Stress axis : x y z
#
# Youngs Moduli (GPa) = 63.51379 92.25488 30.08918
#
# Poissons Ratio (x) = 0.39794 0.22535
# Poissons Ratio (y) = 0.27397 0.05245
# Poissons Ratio (z) = 0.47567 0.16082
#
# Static dielectric constant tensor:
#      x y z
#    x 1.827800 -0.136630 -0.519520 
#    y -0.136630 1.965880 -0.283030 
#    z -0.519520 -0.283030 1.451750 
# 
# From -- ./inp_files/96833.got.cif
#   From: 2010.05.17/outbox.cif.g08.bks.cpg/sg2_49_cif.got.tgz:96833.got - 2010.06.03 11:33:40.
