data_PCOD9076111
_publ_section_title
;
Structure prediction by ZEFSAII (Michael W. Deem and Ramdas Pophale) SiO2 
 PCOD9076111
Probable space group: P -1
;
_chemical_formula_sum "Si O2"
_cell_formula_units_Z 16
_cell_length_a 8.460612
_cell_length_b 15.115868
_cell_length_c 11.001045
_cell_angle_alpha 87.153415
_cell_angle_beta 105.292015
_cell_angle_gamma 37.438371
_cell_volume 740.108474
_symmetry_space_group_name_H-M "P -1"
_symmetry_group_IT_number 2
_symmetry_cell_setting 'triclinic'
loop_
_space_group_symop_operation_xyz
x,y,z
-x,-y,-z
loop_
_atom_site_type_symbol
_atom_site_label
_atom_site_fract_x
_atom_site_fract_y
_atom_site_fract_z
Si Si1 0.714613 0.613762 0.851105
Si Si2 0.844745 0.955895 0.573448
Si Si3 0.370315 0.481668 0.636244
Si Si4 0.135966 0.935436 0.834381
Si Si5 0.822717 0.762301 0.659346
Si Si6 0.807082 0.400034 0.018185
Si Si7 0.540262 0.351434 0.417628
Si Si8 0.126082 0.804408 0.067393
O O1 0.447895 0.794120 0.835636
O O2 0.691253 0.608170 0.703393
O O3 0.667298 0.534224 0.890217
O O4 0.000000 0.500000 0.000000
O O5 0.848543 0.858024 0.647833
O O6 0.898383 0.005744 0.683626
O O7 0.126543 0.829717 0.546018
O O8 0.523596 0.106501 0.433410
O O9 0.459880 0.388465 0.540064
O O10 0.465416 0.541165 0.627509
O O11 0.555172 0.358535 0.794411
O O12 0.024033 0.637616 0.595803
O O13 0.152286 0.856239 0.952683
O O14 0.063435 0.059978 0.877076
O O15 0.980761 0.662637 0.824688
O O16 0.500000 0.500000 0.000000
O O17 0.983243 0.242073 0.995561
#
# Coordination Sequence:
#
# PCOD9076111 Si02
#       8
#     2   2   2   2   2   2   2   2
#     4  11  22  41  61  87 121 156 200 247 297 357
#     4   9  18  36  56  83 120 150 192 244 300 351
#     4  10  18  35  59  88 111 153 202 242 290 359
#     4  10  21  39  59  87 120 155 191 252 306 342
#     4  10  18  32  61  90 108 149 206 249 281 345
#     4  12  18  38  67  86 111 160 211 241 288 363
#     4   9  19  37  60  80 118 161 191 235 305 361
#     4  11  20  36  64  88 112 154 202 246 292 356
#
# _framework density 21.618452000000001
#
# number of rings (size 3 to 8) (size 9 to 14) (size 15 to 20)
#    0.000    1.750    5.000    0.750    0.000    0.000 
#    9.000    3.750    0.000    0.000    0.000    0.000 
#    0.000    0.000    0.000    0.000    0.000    0.000 
#
# Total GULP energy -89296.040500 kJ/mol
# GULP energy per Si atom -5581.002531 kJ/mol
# Density = 2.156925 g / cm^3
# Si number density = 21.618452 Si / 1000 Ang^3
#
#
#
# Elastic Constant Matrix: (Units=GPa)
#
#
# Indices 1 2 3 4 5 6 
#
# 1 14.2608 10.9568 11.4424 7.2609 3.0726 -2.3358
# 2 10.9568 124.5420 53.4224 30.3978 7.8450 -3.5046
# 3 11.4424 53.4224 138.3532 20.3978 22.0778 -25.5852
# 4 7.2609 30.3978 20.3978 45.8141 2.8260 -3.5875
# 5 3.0726 7.8450 22.0778 2.8260 35.1881 -12.4712
# 6 -2.3358 -3.5046 -25.5852 -3.5875 -12.4712 21.4979
#
#
#
# Elastic Compliance Matrix: (Units=1/GPa)
#
#
# Indices 1 2 3 4 5 6 
#
# 1 0.080704 -0.003232 -0.003471 -0.008844 -0.003153 0.000806
# 2 -0.003232 0.011309 -0.004013 -0.005518 -0.000967 -0.004765
# 3 -0.003471 -0.004013 0.011650 -0.000950 -0.001943 0.011548
# 4 -0.008844 -0.005518 -0.000950 0.027418 0.001206 0.002284
# 5 -0.003153 -0.000967 -0.001943 0.001206 0.036639 0.018644
# 6 0.000806 -0.004765 0.011548 0.002284 0.018644 0.070767
#
#
# Mechanical properties :
#
#
# Convention : Reuss Voigt Hill
#
# Bulk Modulus (GPa) = 12.16057 47.64436 29.90247
# Shear Modulus (GPa) = 17.40173 33.92233 25.66203
#
# Velocity S-wave (km/s) = 2.84024 3.96553 3.44909
# Velocity P-wave (km/s) = 4.04886 6.56154 5.45193
#
# Compressibility (1/GPa) = 0.08223297
#
# Stress axis : x y z
#
# Youngs Moduli (GPa) = 12.39093 88.42834 85.83700
#
# Poissons Ratio (x) = 0.28576 0.29792
# Poissons Ratio (y) = 0.04004 0.34443
# Poissons Ratio (z) = 0.04301 0.35483
#
# Static dielectric constant tensor:
#      x y z
#    x 1.856600 0.028350 0.053130 
#    y 0.028350 1.783330 0.025120 
#    z 0.053130 0.025120 1.775530 
# 
# From -- ./inp_files/354304.got.cif
#   From: 2010.05.17/outbox.cif.g08.bks.cpg/sg2_178_cif.got.tgz:354304.got - 2010.06.03 11:33:40.
