data_PCOD9076140
_publ_section_title
;
Structure prediction by ZEFSAII (Michael W. Deem and Ramdas Pophale) SiO2 
 PCOD9076140
Probable space group: P -1
;
_chemical_formula_sum "Si O2"
_cell_formula_units_Z 15
_cell_length_a 18.686548
_cell_length_b 13.193513
_cell_length_c 9.014792
_cell_angle_alpha 141.926947
_cell_angle_beta 39.911077
_cell_angle_gamma 151.861417
_cell_volume 625.747188
_symmetry_space_group_name_H-M "P -1"
_symmetry_group_IT_number 2
_symmetry_cell_setting 'triclinic'
loop_
_space_group_symop_operation_xyz
x,y,z
-x,-y,-z
loop_
_atom_site_type_symbol
_atom_site_label
_atom_site_fract_x
_atom_site_fract_y
_atom_site_fract_z
Si Si1 0.820268 0.963043 0.110188
Si Si2 0.440878 0.086596 0.406713
Si Si3 0.500000 0.000000 0.500000
Si Si4 0.884063 0.297044 0.835354
Si Si5 0.345772 0.669929 0.903957
Si Si6 0.333954 0.492828 0.999542
Si Si7 0.061890 0.405417 0.382966
Si Si8 0.694004 0.929780 0.962680
O O1 0.725511 0.005142 0.402855
O O2 0.792999 0.948288 0.959832
O O3 0.746790 0.723622 0.018383
O O4 0.995420 0.183909 0.137522
O O5 0.540668 0.278006 0.343731
O O6 0.513186 0.159569 0.537067
O O7 0.432667 0.891746 0.130788
O O8 0.647389 0.056872 0.251372
O O9 0.986858 0.328502 0.575405
O O10 0.782072 0.341838 0.979618
O O11 0.000000 0.500000 0.000000
O O12 0.781316 0.058623 0.817084
O O13 0.299186 0.472356 0.855983
O O14 0.251517 0.580415 0.286714
O O15 0.521274 0.672695 0.921374
O O16 0.000000 0.500000 0.500000
#
# Coordination Sequence:
#
# PCOD9076140 Si02
#       8
#     2   2   1   2   2   2   2   2
#     4  11  25  43  69 101 140 180 221 272 346 409
#     4  10  19  37  64  97 124 169 220 278 315 389
#     4  10  18  32  64  94 124 160 222 274 322 362
#     4  12  25  41  69 102 133 167 232 293 333 381
#     4  11  20  39  64  95 130 165 227 272 329 377
#     4  12  25  43  70  98 143 180 223 272 341 414
#     4  12  25  46  71  99 131 180 233 281 334 396
#     4  11  24  42  68 100 137 176 227 281 330 399
#
# _framework density 23.971340999999999
#
# number of rings (size 3 to 8) (size 9 to 14) (size 15 to 20)
#    0.000    0.800    5.333    2.400    3.733    0.533 
#    0.000    0.667    0.000    0.000    0.000    0.000 
#    0.000    0.000    0.000    0.000    0.000    0.000 
#
# Total GULP energy -83526.609342 kJ/mol
# GULP energy per Si atom -5568.440623 kJ/mol
# Density = 2.391678 g / cm^3
# Si number density = 23.971341 Si / 1000 Ang^3
#
#
#
# Elastic Constant Matrix: (Units=GPa)
#
#
# Indices 1 2 3 4 5 6 
#
# 1 124.9679 48.9438 22.3184 -15.3649 36.9007 -7.8639
# 2 48.9438 110.0100 31.7371 -30.9744 24.2683 -19.2144
# 3 22.3184 31.7371 46.7764 -29.4154 18.0697 -11.7699
# 4 -15.3649 -30.9744 -29.4154 48.3247 -15.2692 9.3219
# 5 36.9007 24.2683 18.0697 -15.2692 30.0665 -6.0727
# 6 -7.8639 -19.2144 -11.7699 9.3219 -6.0727 42.9983
#
#
#
# Elastic Compliance Matrix: (Units=1/GPa)
#
#
# Indices 1 2 3 4 5 6 
#
# 1 0.013503 -0.003510 -0.000019 -0.002642 -0.015206 -0.000679
# 2 -0.003510 0.013901 -0.003316 0.004504 -0.001944 0.003411
# 3 -0.000019 -0.003316 0.040522 0.018071 -0.011660 0.004043
# 4 -0.002642 0.004504 0.018071 0.036007 0.006963 -0.000347
# 5 -0.015206 -0.001944 -0.011660 0.006963 0.064179 0.000713
# 6 -0.000679 0.003411 0.004043 -0.000347 0.000713 0.025939
#
#
# Mechanical properties :
#
#
# Convention : Reuss Voigt Hill
#
# Bulk Modulus (GPa) = 18.43767 54.19475 36.31621
# Shear Modulus (GPa) = 22.14165 36.19491 29.16828
#
# Velocity S-wave (km/s) = 3.04249 3.88999 3.49205
# Velocity P-wave (km/s) = 4.47779 6.54471 5.60731
#
# Compressibility (1/GPa) = 0.05423680
#
# Stress axis : x y z
#
# Youngs Moduli (GPa) = 74.05947 71.93862 24.67767
#
# Poissons Ratio (x) = 0.25249 0.00047
# Poissons Ratio (y) = 0.25993 0.08182
# Poissons Ratio (z) = 0.00142 0.23851
#
# Static dielectric constant tensor:
#      x y z
#    x 2.064250 0.063270 0.069240 
#    y 0.063270 2.061790 0.081100 
#    z 0.069240 0.081100 1.729380 
# 
# From -- ./inp_files/332440.got.cif
#   From: 2010.05.17/outbox.cif.g08.bks.cpg/sg2_167_cif.got.tgz:332440.got - 2010.06.03 11:33:40.
