data_PCOD9076224
_publ_section_title
;
Structure prediction by ZEFSAII (Michael W. Deem and Ramdas Pophale) SiO2 
 PCOD9076224
Probable space group: P -1
;
_chemical_formula_sum "Si O2"
_cell_formula_units_Z 14
_cell_length_a 8.513004
_cell_length_b 15.546109
_cell_length_c 16.506452
_cell_angle_alpha 153.158454
_cell_angle_beta 140.679079
_cell_angle_gamma 34.775245
_cell_volume 555.510498
_symmetry_space_group_name_H-M "P -1"
_symmetry_group_IT_number 2
_symmetry_cell_setting 'triclinic'
loop_
_space_group_symop_operation_xyz
x,y,z
-x,-y,-z
loop_
_atom_site_type_symbol
_atom_site_label
_atom_site_fract_x
_atom_site_fract_y
_atom_site_fract_z
Si Si1 0.225600 0.181888 0.220091
Si Si2 0.994126 0.705819 0.368570
Si Si3 0.110951 0.818123 0.779888
Si Si4 0.032192 0.270102 0.958224
Si Si5 0.404318 0.774790 0.710997
Si Si6 0.246006 0.169195 0.781591
Si Si7 0.591174 0.169210 0.781594
O O1 0.971692 0.296023 0.277156
O O2 0.303244 0.304774 0.285663
O O3 0.509419 0.056948 0.280385
O O4 0.170051 0.000025 0.999991
O O5 0.962094 0.817798 0.362063
O O6 0.670714 0.817747 0.362039
O O7 0.198527 0.737761 0.536772
O O8 0.063029 0.464029 0.172702
O O9 0.360555 0.695240 0.714333
O O10 0.839066 0.943038 0.719569
O O11 0.748728 0.276907 0.885350
O O12 0.076592 0.276902 0.885333
O O13 0.270754 0.034753 0.881915
O O14 0.432445 0.262965 0.884591
#
# Coordination Sequence:
#
# PCOD9076224 Si02
#       7
#     2   2   2   2   2   2   2
#     4   9  17  33  54  76 101 134 175 210 247 298
#     4  10  20  35  48  81 110 124 173 210 244 322
#     4   9  17  33  54  76 101 134 175 210 247 298
#     4  10  18  33  53  70 107 143 158 204 266 288
#     4  10  21  34  52  81 103 131 171 208 256 304
#     4   8  18  32  49  77 101 131 172 206 246 308
#     4   8  18  32  49  77 101 131 172 206 246 308
#
# _framework density 25.202044000000001
#
# number of rings (size 3 to 8) (size 9 to 14) (size 15 to 20)
#    0.857    2.000    0.000    1.286    0.000    4.571 
#    2.571    0.000    0.000   13.714    0.000   18.000 
#    0.000    0.000    0.000    0.000    0.000    0.000 
#
# Total GULP energy -78080.401284 kJ/mol
# GULP energy per Si atom -5577.171520 kJ/mol
# Density = 2.514468 g / cm^3
# Si number density = 25.202044 Si / 1000 Ang^3
#
#
#
# Elastic Constant Matrix: (Units=GPa)
#
#
# Indices 1 2 3 4 5 6 
#
# 1 308.8293 36.4676 52.4158 -12.4247 22.8318 22.1639
# 2 36.4676 46.9611 15.1665 -1.8009 0.6905 5.1106
# 3 52.4158 15.1665 78.3241 -2.5188 4.2702 1.7070
# 4 -12.4247 -1.8009 -2.5188 41.1229 -2.8096 -2.7318
# 5 22.8318 0.6905 4.2702 -2.8096 34.6316 -7.1359
# 6 22.1639 5.1106 1.7070 -2.7318 -7.1359 34.3575
#
#
#
# Elastic Compliance Matrix: (Units=1/GPa)
#
#
# Indices 1 2 3 4 5 6 
#
# 1 0.004350 -0.002270 -0.002217 0.000671 -0.003103 -0.002950
# 2 -0.002270 0.024270 -0.003195 0.000137 0.001056 -0.001757
# 3 -0.002217 -0.003195 0.014853 0.000174 -0.000051 0.001171
# 4 0.000671 0.000137 0.000174 0.024796 0.001939 0.001912
# 5 -0.003103 0.001056 -0.000051 0.001939 0.032883 0.008831
# 6 -0.002950 -0.001757 0.001171 0.001912 0.008831 0.033198
#
#
# Mechanical properties :
#
#
# Convention : Reuss Voigt Hill
#
# Bulk Modulus (GPa) = 35.57624 71.35715 53.46670
# Shear Modulus (GPa) = 31.42992 44.02670 37.72831
#
# Velocity S-wave (km/s) = 3.53529 4.18419 3.87335
# Velocity P-wave (km/s) = 5.55080 7.19157 6.42379
#
# Compressibility (1/GPa) = 0.02810864
#
# Stress axis : x y z
#
# Youngs Moduli (GPa) = 229.86272 41.20337 67.32847
#
# Poissons Ratio (x) = 0.09353 0.14925
# Poissons Ratio (y) = 0.52179 0.21514
# Poissons Ratio (z) = 0.50955 0.13166
#
# Static dielectric constant tensor:
#      x y z
#    x 2.038370 0.001790 0.008260 
#    y 0.001790 2.044710 -0.022210 
#    z 0.008260 -0.022210 1.978120 
# 
# From -- ./inp_files/297010.got.cif
#   From: 2010.05.17/outbox.cif.g08.bks.cpg/sg2_149_cif.got.tgz:297010.got - 2010.06.03 11:33:40.
