data_PCOD9076444
_publ_section_title
;
Structure prediction by ZEFSAII (Michael W. Deem and Ramdas Pophale) SiO2 
 PCOD9076444
Probable space group: P -1
;
_chemical_formula_sum "Si O2"
_cell_formula_units_Z 16
_cell_length_a 6.631417
_cell_length_b 7.595268
_cell_length_c 11.425988
_cell_angle_alpha 79.347043
_cell_angle_beta 103.167552
_cell_angle_gamma 87.034687
_cell_volume 548.053804
_symmetry_space_group_name_H-M "P -1"
_symmetry_group_IT_number 2
_symmetry_cell_setting 'triclinic'
loop_
_space_group_symop_operation_xyz
x,y,z
-x,-y,-z
loop_
_atom_site_type_symbol
_atom_site_label
_atom_site_fract_x
_atom_site_fract_y
_atom_site_fract_z
Si Si1 0.323279 0.360602 0.714064
Si Si2 0.721467 0.049895 0.471041
Si Si3 0.942000 0.297053 0.026442
Si Si4 0.101179 0.134447 0.277526
Si Si5 0.771668 0.245475 0.767463
Si Si6 0.749665 0.444545 0.529414
Si Si7 0.648465 0.820481 0.018709
Si Si8 0.534746 0.261961 0.227625
O O1 0.527111 0.236481 0.714088
O O2 0.184056 0.410833 0.574781
O O3 0.268415 0.272207 0.839243
O O4 0.397148 0.552496 0.737996
O O5 0.763070 0.243773 0.504481
O O6 0.684815 0.093560 0.323022
O O7 0.500000 0.000000 0.500000
O O8 0.882515 0.902686 0.576465
O O9 0.138503 0.162661 0.024225
O O10 0.781425 0.276033 0.903793
O O11 0.921465 0.250757 0.166004
O O12 0.000000 0.500000 0.000000
O O13 0.311173 0.225389 0.259742
O O14 0.112423 0.936182 0.245207
O O15 0.831693 0.414672 0.676792
O O16 0.500000 0.500000 0.500000
O O17 0.516874 0.718808 0.919212
O O18 0.500000 0.000000 0.000000
#
# Coordination Sequence:
#
# PCOD9076444 Si02
#       8
#     2   2   2   2   2   2   2   2
#     4  10  18  33  56  81 110 146 184 229 276 326
#     4   8  14  26  46  72 103 133 170 220 269 314
#     4  11  23  38  54  80 113 147 187 230 274 328
#     4   9  17  30  50  78 106 136 176 224 272 321
#     4  10  18  33  56  81 110 146 184 229 276 326
#     4   8  16  28  49  80 108 137 181 226 271 324
#     4  11  23  38  54  80 113 147 187 230 274 328
#     4   9  17  30  50  78 106 136 176 224 272 321
#
# _framework density 29.194213999999999
#
# number of rings (size 3 to 8) (size 9 to 14) (size 15 to 20)
#    0.000    2.500    0.000    3.750    0.000    2.000 
#    0.000    0.625    0.000    0.000    0.000    6.125 
#    0.000    0.000    0.000    0.000    0.000    0.000 
#
# Total GULP energy -89558.206884 kJ/mol
# GULP energy per Si atom -5597.387930 kJ/mol
# Density = 2.912777 g / cm^3
# Si number density = 29.194214 Si / 1000 Ang^3
#
#
#
# Elastic Constant Matrix: (Units=GPa)
#
#
# Indices 1 2 3 4 5 6 
#
# 1 70.0246 21.9731 39.8126 -9.2489 1.0989 -4.7794
# 2 21.9731 131.3878 64.1161 4.9390 3.9254 5.9290
# 3 39.8126 64.1161 299.8160 -49.5312 -14.8526 12.2618
# 4 -9.2489 4.9390 -49.5312 54.6919 1.9043 -0.7173
# 5 1.0989 3.9254 -14.8526 1.9043 65.7122 -6.8994
# 6 -4.7794 5.9290 12.2618 -0.7173 -6.8994 38.7468
#
#
#
# Elastic Compliance Matrix: (Units=1/GPa)
#
#
# Indices 1 2 3 4 5 6 
#
# 1 0.016244 -0.002128 -0.001571 0.001562 -0.000250 0.002811
# 2 -0.002128 0.009261 -0.002228 -0.003193 -0.001057 -0.001222
# 3 -0.001571 -0.002228 0.004818 0.004249 0.001008 -0.001120
# 4 0.001562 -0.003193 0.004249 0.022667 0.000451 -0.000164
# 5 -0.000250 -0.001057 0.001008 0.000451 0.015776 0.002629
# 6 0.002811 -0.001222 -0.001120 -0.000164 0.002629 0.027162
#
#
# Mechanical properties :
#
#
# Convention : Reuss Voigt Hill
#
# Bulk Modulus (GPa) = 54.14524 83.67024 68.90774
# Shear Modulus (GPa) = 43.88364 56.85195 50.36780
#
# Velocity S-wave (km/s) = 3.88127 4.41769 4.15814
# Velocity P-wave (km/s) = 6.21872 7.39888 6.83432
#
# Compressibility (1/GPa) = 0.01846884
#
# Stress axis : x y z
#
# Youngs Moduli (GPa) = 61.56191 107.98236 207.54926
#
# Poissons Ratio (x) = 0.22977 0.32612
# Poissons Ratio (y) = 0.13100 0.46237
# Poissons Ratio (z) = 0.09673 0.24056
#
# Static dielectric constant tensor:
#      x y z
#    x 2.467300 -0.017980 -0.018630 
#    y -0.017980 2.150280 -0.019770 
#    z -0.018630 -0.019770 2.403530 
# 
# From -- ./inp_files/382055.got.cif
#   From: 2010.05.17/outbox.cif.g08.bks.cpg/sg2_192_cif.got.tgz:382055.got - 2010.06.03 11:33:40.
