data_PCOD9076309
_publ_section_title
;
Structure prediction by ZEFSAII (Michael W. Deem and Ramdas Pophale) SiO2 
 PCOD9076309
Probable space group: P -1
;
_chemical_formula_sum "Si O2"
_cell_formula_units_Z 16
_cell_length_a 14.849998
_cell_length_b 7.107194
_cell_length_c 13.546289
_cell_angle_alpha 87.789573
_cell_angle_beta 30.634467
_cell_angle_gamma 96.418387
_cell_volume 697.843868
_symmetry_space_group_name_H-M "P -1"
_symmetry_group_IT_number 2
_symmetry_cell_setting 'triclinic'
loop_
_space_group_symop_operation_xyz
x,y,z
-x,-y,-z
loop_
_atom_site_type_symbol
_atom_site_label
_atom_site_fract_x
_atom_site_fract_y
_atom_site_fract_z
Si Si1 0.057417 0.340655 0.257973
Si Si2 0.624580 0.148110 0.645173
Si Si3 0.401315 0.756435 0.122412
Si Si4 0.313368 0.090765 0.571837
Si Si5 0.116311 0.058906 0.056075
Si Si6 0.893538 0.208174 0.746845
Si Si7 0.239431 0.292530 0.291360
Si Si8 0.476984 0.208719 0.594191
O O1 0.126494 0.268104 0.092901
O O2 0.093390 0.571739 0.233669
O O3 0.144881 0.266498 0.272846
O O4 0.839702 0.240327 0.461539
O O5 0.533881 0.145983 0.835960
O O6 0.557233 0.285434 0.625947
O O7 0.607347 0.939075 0.611031
O O8 0.247310 0.829631 0.210626
O O9 0.306040 0.527154 0.239753
O O10 0.574667 0.769459 0.888705
O O11 0.425036 0.270677 0.532453
O O12 0.365565 0.901699 0.573504
O O13 0.094518 0.048354 0.774738
O O14 0.158586 0.930661 0.107924
O O15 0.270136 0.088325 0.827134
O O16 0.089330 0.201549 0.517265
#
# Coordination Sequence:
#
# PCOD9076309 Si02
#       8
#     2   2   2   2   2   2   2   2
#     4  10  19  38  54  81 115 152 189 222 268 333
#     4   9  15  32  59  77 106 146 183 227 274 322
#     4  10  18  33  54  82 111 153 188 223 271 328
#     4   8  19  35  58  84 107 142 188 235 284 325
#     4  11  22  35  62  85 109 152 186 220 289 337
#     4  11  22  37  54  83 124 147 178 238 267 322
#     4  10  19  33  55  75 118 156 186 223 271 321
#     4   9  18  36  59  84 109 141 187 239 278 330
#
# _framework density 22.927765999999998
#
# number of rings (size 3 to 8) (size 9 to 14) (size 15 to 20)
#    0.750    1.500    2.500    1.875    0.000    1.500 
#    0.000    1.250    0.000    7.500    0.000    0.000 
#    0.000    0.000    0.000    0.000    0.000    0.000 
#
# Total GULP energy -89120.764372 kJ/mol
# GULP energy per Si atom -5570.047773 kJ/mol
# Density = 2.287558 g / cm^3
# Si number density = 22.927766 Si / 1000 Ang^3
#
#
#
# Elastic Constant Matrix: (Units=GPa)
#
#
# Indices 1 2 3 4 5 6 
#
# 1 137.8468 19.8293 19.1975 9.9422 -5.1098 7.4766
# 2 19.8293 34.8321 9.7602 -6.1093 6.9633 8.1713
# 3 19.1975 9.7602 102.9633 22.3022 7.2890 -0.8000
# 4 9.9422 -6.1093 22.3022 14.5033 0.8334 -3.1696
# 5 -5.1098 6.9633 7.2890 0.8334 44.7570 8.6179
# 6 7.4766 8.1713 -0.8000 -3.1696 8.6179 23.2167
#
#
#
# Elastic Compliance Matrix: (Units=1/GPa)
#
#
# Indices 1 2 3 4 5 6 
#
# 1 0.009390 -0.007961 0.001614 -0.013097 0.002873 -0.003021
# 2 -0.007961 0.046491 -0.011632 0.041879 -0.005809 -0.006326
# 3 0.001614 -0.011632 0.017752 -0.033353 -0.000221 -0.000286
# 4 -0.013097 0.041879 -0.033353 0.149832 -0.007604 0.011607
# 5 0.002873 -0.005809 -0.000221 -0.007604 0.025565 -0.009416
# 6 -0.003021 -0.006326 -0.000286 0.011607 -0.009416 0.051342
#
#
# Mechanical properties :
#
#
# Convention : Reuss Voigt Hill
#
# Bulk Modulus (GPa) = 26.54222 41.46846 34.00534
# Shear Modulus (GPa) = 14.33129 31.61907 22.97518
#
# Velocity S-wave (km/s) = 2.50284 3.71762 3.16898
# Velocity P-wave (km/s) = 4.46697 6.04594 5.31541
#
# Compressibility (1/GPa) = 0.03767583
#
# Stress axis : x y z
#
# Youngs Moduli (GPa) = 106.49860 21.50955 56.33238
#
# Poissons Ratio (x) = 0.17123 -0.09092
# Poissons Ratio (y) = 0.84779 0.65524
# Poissons Ratio (z) = -0.17188 0.25019
#
# Static dielectric constant tensor:
#      x y z
#    x 1.936870 0.054320 0.018400 
#    y 0.054320 1.915500 0.029530 
#    z 0.018400 0.029530 1.832670 
# 
# From -- ./inp_files/513248.got.cif
#   From: 2010.05.17/outbox.cif.g08.bks.cpg/sg2_257_cif.got.tgz:513248.got - 2010.06.03 11:33:40.
