data_PCOD9076720
_publ_section_title
;
Structure prediction by ZEFSAII (Michael W. Deem and Ramdas Pophale) SiO2 
 PCOD9076720
Probable space group: P -1
;
_chemical_formula_sum "Si O2"
_cell_formula_units_Z 12
_cell_length_a 15.320734
_cell_length_b 13.224132
_cell_length_c 6.991758
_cell_angle_alpha 50.178412
_cell_angle_beta 41.190116
_cell_angle_gamma 27.345137
_cell_volume 426.675716
_symmetry_space_group_name_H-M "P -1"
_symmetry_group_IT_number 2
_symmetry_cell_setting 'triclinic'
loop_
_space_group_symop_operation_xyz
x,y,z
-x,-y,-z
loop_
_atom_site_type_symbol
_atom_site_label
_atom_site_fract_x
_atom_site_fract_y
_atom_site_fract_z
Si Si1 0.069825 0.671182 0.564294
Si Si2 0.869822 0.618448 0.372339
Si Si3 0.364645 0.929906 0.730879
Si Si4 0.467196 0.326934 0.589260
Si Si5 0.335701 0.547278 0.895348
Si Si6 0.024411 0.993767 0.198671
O O1 0.975973 0.603999 0.739901
O O2 0.228496 0.502243 0.677920
O O3 0.967538 0.897060 0.496638
O O4 0.211197 0.598234 0.227199
O O5 0.809033 0.821862 0.212483
O O6 0.000000 0.500000 0.500000
O O7 0.610830 0.773201 0.586043
O O8 0.384631 0.896282 0.504594
O O9 0.258790 0.870586 0.023199
O O10 0.457472 0.338983 0.819698
O O11 0.533558 0.423842 0.306294
O O12 0.160991 0.747191 0.786505
O O13 0.000000 0.000000 0.000000
#
# Coordination Sequence:
#
# PCOD9076720 Si02
#       6
#     2   2   2   2   2   2
#     4  10  20  35  60  82 113 148 191 233 287 343
#     4  10  21  34  59  85 112 155 199 234 286 347
#     4  10  20  37  57  86 117 153 193 238 290 345
#     4  10  20  34  56  85 119 146 185 240 288 342
#     4  10  20  33  56  88 116 146 186 237 293 341
#     4  10  18  33  59  84 115 147 189 238 289 341
#
# _framework density 28.124403999999998
#
# number of rings (size 3 to 8) (size 9 to 14) (size 15 to 20)
#    0.000    2.000    3.333    2.500    2.333    0.667 
#    0.000    0.833    0.000   25.000    0.000    0.000 
#    0.000    0.000    0.000    0.000    0.000    0.000 
#
# Total GULP energy -66851.644701 kJ/mol
# GULP energy per Si atom -5570.970392 kJ/mol
# Density = 2.806039 g / cm^3
# Si number density = 28.124404 Si / 1000 Ang^3
#
#
#
# Elastic Constant Matrix: (Units=GPa)
#
#
# Indices 1 2 3 4 5 6 
#
# 1 172.6350 17.3250 34.7817 1.5680 -27.7548 17.2486
# 2 17.3250 109.3090 29.4750 -3.4856 -25.4626 23.0117
# 3 34.7817 29.4750 91.3559 -4.4663 0.4875 15.4809
# 4 1.5680 -3.4856 -4.4663 41.4509 13.1436 -1.4478
# 5 -27.7548 -25.4626 0.4875 13.1436 40.7128 6.5006
# 6 17.2486 23.0117 15.4809 -1.4478 6.5006 47.1580
#
#
#
# Elastic Compliance Matrix: (Units=1/GPa)
#
#
# Indices 1 2 3 4 5 6 
#
# 1 0.008148 0.002555 -0.003388 -0.003477 0.009029 -0.004466
# 2 0.002555 0.014903 -0.004571 -0.004020 0.013809 -0.008733
# 3 -0.003388 -0.004571 0.013925 0.003259 -0.006368 -0.000124
# 4 -0.003477 -0.004020 0.003259 0.029268 -0.015196 0.005157
# 5 0.009029 0.013809 -0.006368 -0.015196 0.046708 -0.014855
# 6 -0.004466 -0.008733 -0.000124 0.005157 -0.014855 0.029347
#
#
# Mechanical properties :
#
#
# Convention : Reuss Voigt Hill
#
# Bulk Modulus (GPa) = 38.21558 59.60703 48.91130
# Shear Modulus (GPa) = 30.89653 45.31223 38.10438
#
# Velocity S-wave (km/s) = 3.31806 4.01825 3.68482
# Velocity P-wave (km/s) = 5.31948 6.53976 5.96093
#
# Compressibility (1/GPa) = 0.02616734
#
# Stress axis : x y z
#
# Youngs Moduli (GPa) = 122.72793 67.10031 71.81253
#
# Poissons Ratio (x) = -0.17141 0.24328
# Poissons Ratio (y) = -0.31351 0.32827
# Poissons Ratio (z) = 0.41577 0.30673
#
# Static dielectric constant tensor:
#      x y z
#    x 2.193070 0.032030 -0.043940 
#    y 0.032030 2.476000 0.094730 
#    z -0.043940 0.094730 2.297390 
# 
# From -- ./inp_files/219515.got.cif
#   From: 2010.05.17/outbox.cif.g08.bks.cpg/sg2_110_cif.got.tgz:219515.got - 2010.06.03 11:33:40.
