data_PCOD9076415
_publ_section_title
;
Structure prediction by ZEFSAII (Michael W. Deem and Ramdas Pophale) SiO2 
 PCOD9076415
Probable space group: P -1
;
_chemical_formula_sum "Si O2"
_cell_formula_units_Z 14
_cell_length_a 9.216428
_cell_length_b 11.662480
_cell_length_c 13.632202
_cell_angle_alpha 44.926500
_cell_angle_beta 101.345978
_cell_angle_gamma 137.324823
_cell_volume 516.591983
_symmetry_space_group_name_H-M "P -1"
_symmetry_group_IT_number 2
_symmetry_cell_setting 'triclinic'
loop_
_space_group_symop_operation_xyz
x,y,z
-x,-y,-z
loop_
_atom_site_type_symbol
_atom_site_label
_atom_site_fract_x
_atom_site_fract_y
_atom_site_fract_z
Si Si1 0.903087 0.445345 0.378901
Si Si2 0.525190 0.952316 0.188833
Si Si3 0.475119 0.186298 0.259328
Si Si4 0.083105 0.950706 0.168963
Si Si5 0.344681 0.352701 0.259032
Si Si6 0.033824 0.873409 0.833813
Si Si7 0.245301 0.573607 0.196181
O O1 0.187863 0.647855 0.354589
O O2 0.925725 0.657583 0.268676
O O3 0.996298 0.452092 0.283060
O O4 0.603972 0.076116 0.587101
O O5 0.662842 0.257964 0.997528
O O6 0.509256 0.854945 0.137008
O O7 0.712769 0.004475 0.242719
O O8 0.386836 0.201714 0.336557
O O9 0.268920 0.056369 0.222114
O O10 0.800502 0.542400 0.060928
O O11 0.328828 0.267593 0.943101
O O12 0.210252 0.345870 0.327323
O O13 0.145134 0.218728 0.222383
O O14 0.119630 0.103198 0.777207
#
# Coordination Sequence:
#
# PCOD9076415 Si02
#       7
#     2   2   2   2   2   2   2
#     4  10  18  33  56  74 103 142 171 199 260 314
#     4   9  18  34  54  80  95 139 180 205 243 311
#     4   9  19  31  53  80 106 133 166 215 262 299
#     4   9  16  33  53  74 105 139 168 204 257 313
#     4   9  16  34  52  78 102 139 165 210 253 313
#     4   9  19  33  57  80  99 127 181 218 247 288
#     4   9  18  33  55  71 106 139 173 196 261 312
#
# _framework density 27.100688999999999
#
# number of rings (size 3 to 8) (size 9 to 14) (size 15 to 20)
#    0.857    2.000    1.429    2.143    0.000    1.143 
#    0.000   10.000    3.143    0.000    3.714    0.000 
#    0.000    0.000    0.000    0.000    0.000    0.000 
#
# Total GULP energy -78179.722179 kJ/mol
# GULP energy per Si atom -5584.265870 kJ/mol
# Density = 2.703901 g / cm^3
# Si number density = 27.100689 Si / 1000 Ang^3
#
#
#
# Elastic Constant Matrix: (Units=GPa)
#
#
# Indices 1 2 3 4 5 6 
#
# 1 134.4311 51.3337 47.5561 -22.2582 16.0502 -29.0006
# 2 51.3337 64.4041 20.5295 -20.8061 18.0082 -14.2449
# 3 47.5561 20.5295 97.8492 -23.4107 19.5286 -19.9540
# 4 -22.2582 -20.8061 -23.4107 19.1132 -16.4320 10.6444
# 5 16.0502 18.0082 19.5286 -16.4320 41.2956 -10.5206
# 6 -29.0006 -14.2449 -19.9540 10.6444 -10.5206 60.4464
#
#
#
# Elastic Compliance Matrix: (Units=1/GPa)
#
#
# Indices 1 2 3 4 5 6 
#
# 1 0.012565 -0.008445 -0.003983 0.000230 0.001525 0.002948
# 2 -0.008445 0.029939 0.004557 0.027773 -0.001020 -0.000560
# 3 -0.003983 0.004557 0.016055 0.019349 -0.000067 0.001044
# 4 0.000230 0.027773 0.019349 0.136853 0.031693 -0.005541
# 5 0.001525 -0.001020 -0.000067 0.031693 0.037051 0.001337
# 6 0.002948 -0.000560 0.001044 -0.005541 0.001337 0.019379
#
#
# Mechanical properties :
#
#
# Convention : Reuss Voigt Hill
#
# Bulk Modulus (GPa) = 23.35540 59.50255 41.42897
# Shear Modulus (GPa) = 17.73957 35.98872 26.86414
#
# Velocity S-wave (km/s) = 2.56125 3.64808 3.15186
# Velocity P-wave (km/s) = 4.16934 6.30463 5.34471
#
# Compressibility (1/GPa) = 0.04281665
#
# Stress axis : x y z
#
# Youngs Moduli (GPa) = 79.58871 33.40091 62.28643
#
# Poissons Ratio (x) = 0.28208 0.24808
# Poissons Ratio (y) = 0.67215 -0.28385
# Poissons Ratio (z) = 0.31700 -0.15222
#
# Static dielectric constant tensor:
#      x y z
#    x 2.122000 -0.057220 0.022740 
#    y -0.057220 2.204780 0.077040 
#    z 0.022740 0.077040 2.131620 
# 
# From -- ./inp_files/559677.got.cif
#   From: 2010.05.17/outbox.cif.g08.bks.cpg/sg2_280_cif.got.tgz:559677.got - 2010.06.03 11:33:40.
