data_PCOD9076022
_publ_section_title
;
Structure prediction by ZEFSAII (Michael W. Deem and Ramdas Pophale) SiO2 
 PCOD9076022
Probable space group: P -1
;
_chemical_formula_sum "Si O2"
_cell_formula_units_Z 16
_cell_length_a 7.352961
_cell_length_b 14.015543
_cell_length_c 14.331528
_cell_angle_alpha 136.461395
_cell_angle_beta 87.841373
_cell_angle_gamma 59.197419
_cell_volume 631.632817
_symmetry_space_group_name_H-M "P -1"
_symmetry_group_IT_number 2
_symmetry_cell_setting 'triclinic'
loop_
_space_group_symop_operation_xyz
x,y,z
-x,-y,-z
loop_
_atom_site_type_symbol
_atom_site_label
_atom_site_fract_x
_atom_site_fract_y
_atom_site_fract_z
Si Si1 0.755779 0.153444 0.531110
Si Si2 0.518944 0.003428 0.876380
Si Si3 0.403724 0.359358 0.851330
Si Si4 0.824094 0.064027 0.142978
Si Si5 0.113477 0.634390 0.343162
Si Si6 0.251840 0.360078 0.293526
Si Si7 0.188576 0.187540 0.724003
Si Si8 0.331021 0.825251 0.098734
O O1 0.475764 0.359449 0.745644
O O2 0.843491 0.235200 0.529037
O O3 0.713761 0.025096 0.401521
O O4 0.000000 0.000000 0.500000
O O5 0.251386 0.053364 0.915922
O O6 0.802706 0.735431 0.702408
O O7 0.566937 0.074846 0.839216
O O8 0.446559 0.154952 0.068106
O O9 0.390796 0.200482 0.738143
O O10 0.634844 0.255760 0.855397
O O11 0.097932 0.601952 0.062454
O O12 0.490595 0.314309 0.308390
O O13 0.022331 0.996829 0.175713
O O14 0.000000 0.000000 0.000000
O O15 0.037104 0.573473 0.383737
O O16 0.906961 0.754683 0.342294
O O17 0.425455 0.400126 0.127681
#
# Coordination Sequence:
#
# PCOD9076022 Si02
#       8
#     2   2   2   2   2   2   2   2
#     4  10  21  38  58  83 118 152 195 246 290 345
#     4   8  15  26  43  71 111 146 180 238 287 333
#     4  10  21  39  58  85 119 152 198 242 287 354
#     4  10  14  26  47  75 115 149 184 242 287 338
#     4   9  17  31  49  79 111 148 190 232 290 342
#     4   8  14  27  44  71 112 143 186 236 282 342
#     4   9  20  38  59  81 114 156 193 241 292 339
#     4  10  18  32  49  82 119 148 193 239 290 347
#
# _framework density 25.331173
#
# number of rings (size 3 to 8) (size 9 to 14) (size 15 to 20)
#    0.750    2.000    2.500    0.375    0.000    4.500 
#   13.500    0.000    0.000    0.000    0.000   12.250 
#    0.000    2.000    0.000    0.000    0.000    0.625 
#
# Total GULP energy -89233.325659 kJ/mol
# GULP energy per Si atom -5577.082854 kJ/mol
# Density = 2.527352 g / cm^3
# Si number density = 25.331173 Si / 1000 Ang^3
#
#
#
# Elastic Constant Matrix: (Units=GPa)
#
#
# Indices 1 2 3 4 5 6 
#
# 1 112.1240 27.1129 10.9004 -1.4660 21.3349 8.4570
# 2 27.1129 82.8841 19.3493 -0.7235 12.3888 9.3065
# 3 10.9004 19.3493 91.9757 -2.5305 8.2583 10.5869
# 4 -1.4660 -0.7235 -2.5305 31.0273 11.0826 8.9119
# 5 21.3349 12.3888 8.2583 11.0826 37.1658 11.2469
# 6 8.4570 9.3065 10.5869 8.9119 11.2469 40.9004
#
#
#
# Elastic Compliance Matrix: (Units=1/GPa)
#
#
# Indices 1 2 3 4 5 6 
#
# 1 0.010748 -0.002520 -0.000066 0.002740 -0.005953 -0.000592
# 2 -0.002520 0.013997 -0.002172 0.001466 -0.002662 -0.001689
# 3 -0.000066 -0.002172 0.011855 0.002286 -0.001776 -0.002571
# 4 0.002740 0.001466 0.002286 0.038816 -0.012144 -0.006610
# 5 -0.005953 -0.002662 -0.001776 -0.012144 0.036793 -0.005175
# 6 -0.000592 -0.001689 -0.002571 -0.006610 -0.005175 0.028485
#
#
# Mechanical properties :
#
#
# Convention : Reuss Voigt Hill
#
# Bulk Modulus (GPa) = 36.92186 44.63436 40.77811
# Shear Modulus (GPa) = 31.39947 37.12678 34.26313
#
# Velocity S-wave (km/s) = 3.52456 3.83254 3.68177
# Velocity P-wave (km/s) = 5.58307 6.10271 5.84866
#
# Compressibility (1/GPa) = 0.02708422
#
# Stress axis : x y z
#
# Youngs Moduli (GPa) = 93.04311 71.44413 84.34948
#
# Poissons Ratio (x) = 0.18006 0.00553
# Poissons Ratio (y) = 0.23450 0.18322
# Poissons Ratio (z) = 0.00610 0.15518
#
# Static dielectric constant tensor:
#      x y z
#    x 2.041280 0.055120 -0.052000 
#    y 0.055120 2.047070 -0.035490 
#    z -0.052000 -0.035490 2.088430 
# 
# From -- ./inp_files/560923.got.cif
#   From: 2010.05.17/outbox.cif.g08.bks.cpg/sg2_281_cif.got.tgz:560923.got - 2010.06.03 11:33:40.
