data_PCOD9076714
_publ_section_title
;
Structure prediction by ZEFSAII (Michael W. Deem and Ramdas Pophale) SiO2 
 PCOD9076714
Probable space group: P -1
;
_chemical_formula_sum "Si O2"
_cell_formula_units_Z 14
_cell_length_a 9.107546
_cell_length_b 19.826218
_cell_length_c 11.450595
_cell_angle_alpha 134.864575
_cell_angle_beta 39.248357
_cell_angle_gamma 156.048588
_cell_volume 531.035322
_symmetry_space_group_name_H-M "P -1"
_symmetry_group_IT_number 2
_symmetry_cell_setting 'triclinic'
loop_
_space_group_symop_operation_xyz
x,y,z
-x,-y,-z
loop_
_atom_site_type_symbol
_atom_site_label
_atom_site_fract_x
_atom_site_fract_y
_atom_site_fract_z
Si Si1 0.780431 0.019258 0.779125
Si Si2 0.988167 0.494023 0.315685
Si Si3 0.679307 0.838581 0.786897
Si Si4 0.147772 0.801750 0.200457
Si Si5 0.974275 0.652861 0.366405
Si Si6 0.982053 0.337775 0.296573
Si Si7 0.921675 0.160735 0.279025
O O1 0.961459 0.005717 0.744127
O O2 0.468854 0.849015 0.689755
O O3 0.052941 0.178805 0.725158
O O4 0.500000 0.000000 0.000000
O O5 0.518752 0.308582 0.351455
O O6 0.124801 0.597799 0.242871
O O7 0.161577 0.454947 0.217991
O O8 0.016983 0.583796 0.506672
O O9 0.854465 0.849787 0.807421
O O10 0.301617 0.775620 0.982353
O O11 0.990891 0.688697 0.266483
O O12 0.535461 0.985814 0.241530
O O13 0.500000 0.500000 0.500000
O O14 0.178680 0.800289 0.505480
O O15 0.154431 0.300784 0.207532
#
# Coordination Sequence:
#
# PCOD9076714 Si02
#       7
#     2   2   2   2   2   2   2
#     4   8  16  32  53  81 109 144 181 225 272 323
#     4   9  17  32  52  80 105 144 182 218 273 326
#     4  10  18  33  59  83 111 138 182 231 273 327
#     4  10  21  35  56  82 110 148 181 221 283 325
#     4  11  21  36  56  79 112 145 187 228 264 329
#     4   8  16  29  54  78 105 147 180 215 275 327
#     4  10  19  35  57  82 108 139 185 233 271 321
#
# _framework density 26.363596999999999
#
# number of rings (size 3 to 8) (size 9 to 14) (size 15 to 20)
#    0.000    2.571    1.429    0.857    0.000    0.571 
#    0.000    0.714   12.571    0.857    0.000    0.000 
#    0.000    0.000    0.000    0.000    0.000    1.429 
#
# Total GULP energy -78136.356902 kJ/mol
# GULP energy per Si atom -5581.168350 kJ/mol
# Density = 2.630359 g / cm^3
# Si number density = 26.363597 Si / 1000 Ang^3
#
#
#
# Elastic Constant Matrix: (Units=GPa)
#
#
# Indices 1 2 3 4 5 6 
#
# 1 444.6924 0.1540 -466.0611 -385.1409 -68.5863 -244.3532
# 2 0.1540 135.6853 191.5907 142.3022 19.9197 8.2178
# 3 -466.0611 191.5907 1056.8576 781.5211 119.4636 306.6228
# 4 -385.1409 142.3022 781.5211 635.7591 83.7328 258.8044
# 5 -68.5863 19.9197 119.4636 83.7328 46.2918 48.3495
# 6 -244.3532 8.2178 306.6228 258.8044 48.3495 192.8553
#
#
#
# Elastic Compliance Matrix: (Units=1/GPa)
#
#
# Indices 1 2 3 4 5 6 
#
# 1 0.009644 -0.005008 0.000538 0.003362 0.002161 0.006525
# 2 -0.005008 0.016358 -0.001083 -0.006751 -0.004549 0.004880
# 3 0.000538 -0.001083 0.011933 -0.014296 -0.006306 0.002521
# 4 0.003362 -0.006751 -0.014296 0.025005 0.008275 -0.008354
# 5 0.002161 -0.004549 -0.006306 0.008275 0.035401 -0.007023
# 6 0.006525 0.004880 0.002521 -0.008354 -0.007023 0.022208
#
#
# Mechanical properties :
#
#
# Convention : Reuss Voigt Hill
#
# Bulk Modulus (GPa) = 37.27638 120.95584 79.11611
# Shear Modulus (GPa) = 35.56236 302.41804 168.99020
#
# Velocity S-wave (km/s) = 3.67675 10.72192 8.01492
# Velocity P-wave (km/s) = 5.67403 14.11591 10.75764
#
# Compressibility (1/GPa) = 0.02682664
#
# Stress axis : x y z
#
# Youngs Moduli (GPa) = 103.69018 61.13301 83.80434
#
# Poissons Ratio (x) = 0.30616 -0.04505
# Poissons Ratio (y) = 0.51928 0.09080
# Poissons Ratio (z) = -0.05574 0.06623
#
# Static dielectric constant tensor:
#      x y z
#    x 2.171980 -0.051530 -0.014050 
#    y -0.051530 2.119230 -0.043380 
#    z -0.014050 -0.043380 2.042560 
# 
# From -- ./inp_files/178877.got.cif
#   From: 2010.05.17/outbox.cif.g08.bks.cpg/sg2_90_cif.got.tgz:178877.got - 2010.06.03 11:33:40.
