data_PCOD9076187
_publ_section_title
;
Structure prediction by ZEFSAII (Michael W. Deem and Ramdas Pophale) SiO2 
 PCOD9076187
Probable space group: P -1
;
_chemical_formula_sum "Si O2"
_cell_formula_units_Z 16
_cell_length_a 14.733791
_cell_length_b 13.048194
_cell_length_c 14.299739
_cell_angle_alpha 146.814180
_cell_angle_beta 34.861756
_cell_angle_gamma 128.281659
_cell_volume 840.049795
_symmetry_space_group_name_H-M "P -1"
_symmetry_group_IT_number 2
_symmetry_cell_setting 'triclinic'
loop_
_space_group_symop_operation_xyz
x,y,z
-x,-y,-z
loop_
_atom_site_type_symbol
_atom_site_label
_atom_site_fract_x
_atom_site_fract_y
_atom_site_fract_z
Si Si1 0.180071 0.553523 0.884708
Si Si2 0.108900 0.245731 0.484028
Si Si3 0.710321 0.851657 0.563261
Si Si4 0.380545 0.135313 0.032745
Si Si5 0.572624 0.323094 0.869175
Si Si6 0.890731 0.073019 0.895599
Si Si7 0.219555 0.497633 0.020725
Si Si8 0.228169 0.078519 0.652786
O O1 0.300211 0.370631 0.598431
O O2 0.237694 0.571473 0.955925
O O3 0.000000 0.500000 0.000000
O O4 0.166321 0.737540 0.972841
O O5 0.159547 0.145507 0.463717
O O6 0.273101 0.256943 0.297995
O O7 0.037674 0.098884 0.368404
O O8 0.975324 0.439438 0.752016
O O9 0.766882 0.887065 0.437756
O O10 0.542592 0.000654 0.834584
O O11 0.435100 0.259093 0.999761
O O12 0.264663 0.997695 0.986907
O O13 0.500000 0.500000 0.000000
O O14 0.692631 0.395107 0.896249
O O15 0.661794 0.133396 0.591581
O O16 0.040971 0.088071 0.845038
O O17 0.277461 0.266949 0.797718
#
# Coordination Sequence:
#
# PCOD9076187 Si02
#       8
#     2   2   2   2   2   2   2   2
#     4  11  19  31  55  91 119 160 194 221 264 348
#     4  10  19  32  55  85 118 160 184 228 285 346
#     4  10  18  33  51  83 129 158 192 218 272 354
#     4   9  23  35  53  85 118 155 190 243 298 339
#     4  11  24  44  65  80 108 152 202 256 301 341
#     4  10  19  33  54  88 121 155 185 229 282 348
#     4  11  21  37  62  87 117 155 202 235 273 349
#     4  10  20  38  61  88 112 154 201 235 280 344
#
# _framework density 19.046489000000001
#
# number of rings (size 3 to 8) (size 9 to 14) (size 15 to 20)
#    0.750    1.000    5.000    0.375    3.500    2.000 
#    0.000    8.750    0.000    1.500    0.000    0.000 
#    0.000    0.000    0.000    0.000    0.000    0.000 
#
# Total GULP energy -89120.446732 kJ/mol
# GULP energy per Si atom -5570.027921 kJ/mol
# Density = 1.900314 g / cm^3
# Si number density = 19.046489 Si / 1000 Ang^3
#
#
#
# Elastic Constant Matrix: (Units=GPa)
#
#
# Indices 1 2 3 4 5 6 
#
# 1 24.2750 32.8848 12.2832 1.7687 -7.9453 1.1211
# 2 32.8848 90.7377 52.3079 14.7514 -15.9513 3.9423
# 3 12.2832 52.3079 108.1860 20.2147 -11.1980 -8.6929
# 4 1.7687 14.7514 20.2147 26.6120 -4.1619 -6.0791
# 5 -7.9453 -15.9513 -11.1980 -4.1619 22.4840 7.3456
# 6 1.1211 3.9423 -8.6929 -6.0791 7.3456 20.0738
#
#
#
# Elastic Compliance Matrix: (Units=1/GPa)
#
#
# Indices 1 2 3 4 5 6 
#
# 1 0.089911 -0.037125 0.006889 0.012083 0.009302 0.005509
# 2 -0.037125 0.034950 -0.010990 -0.010792 0.009532 -0.016306
# 3 0.006889 -0.010990 0.015058 -0.004284 -0.001070 0.007389
# 4 0.012083 -0.010792 -0.004284 0.049227 -0.001299 0.014973
# 5 0.009302 0.009532 -0.001070 -0.001299 0.062256 -0.026029
# 6 0.005509 -0.016306 0.007389 0.014973 -0.026029 0.069970
#
#
# Mechanical properties :
#
#
# Convention : Reuss Voigt Hill
#
# Bulk Modulus (GPa) = 17.40128 46.46117 31.93123
# Shear Modulus (GPa) = 11.82091 22.21548 17.01819
#
# Velocity S-wave (km/s) = 2.49396 3.41894 2.99240
# Velocity P-wave (km/s) = 4.17722 6.32709 5.36102
#
# Compressibility (1/GPa) = 0.05746704
#
# Stress axis : x y z
#
# Youngs Moduli (GPa) = 11.12210 28.61268 66.40863
#
# Poissons Ratio (x) = 1.06225 -0.45752
# Poissons Ratio (y) = 0.41291 0.72984
# Poissons Ratio (z) = -0.07662 0.31446
#
# Static dielectric constant tensor:
#      x y z
#    x 1.667760 0.030590 0.011870 
#    y 0.030590 1.672250 -0.008090 
#    z 0.011870 -0.008090 1.710500 
# 
# From -- ./inp_files/532129.got.cif
#   From: 2010.05.17/outbox.cif.g08.bks.cpg/sg2_267_cif.got.tgz:532129.got - 2010.06.03 11:33:40.
