data_PCOD9076708
_publ_section_title
;
Structure prediction by ZEFSAII (Michael W. Deem and Ramdas Pophale) SiO2 
 PCOD9076708
Probable space group: P -1
;
_chemical_formula_sum "Si O2"
_cell_formula_units_Z 14
_cell_length_a 13.838484
_cell_length_b 14.719427
_cell_length_c 9.373670
_cell_angle_alpha 38.338457
_cell_angle_beta 130.626267
_cell_angle_gamma 150.756314
_cell_volume 575.106356
_symmetry_space_group_name_H-M "P -1"
_symmetry_group_IT_number 2
_symmetry_cell_setting 'triclinic'
loop_
_space_group_symop_operation_xyz
x,y,z
-x,-y,-z
loop_
_atom_site_type_symbol
_atom_site_label
_atom_site_fract_x
_atom_site_fract_y
_atom_site_fract_z
Si Si1 0.962939 0.285018 0.297364
Si Si2 0.138171 0.997413 0.702053
Si Si3 0.696547 0.239205 0.828171
Si Si4 0.494896 0.630347 0.605075
Si Si5 0.220726 0.764099 0.385355
Si Si6 0.881821 0.870694 0.191845
Si Si7 0.611658 0.921446 0.593760
O O1 0.129404 0.552819 0.157119
O O2 0.034904 0.202104 0.556781
O O3 0.931719 0.207153 0.200723
O O4 0.749525 0.131869 0.352707
O O5 0.353439 0.226354 0.558419
O O6 0.111146 0.996677 0.845044
O O7 0.000000 0.000000 0.500000
O O8 0.636278 0.339538 0.573624
O O9 0.746318 0.177685 0.820814
O O10 0.500000 0.000000 0.000000
O O11 0.348316 0.365725 0.776371
O O12 0.594026 0.748590 0.709711
O O13 0.392796 0.799017 0.555344
O O14 0.000000 0.500000 0.500000
O O15 0.265390 0.941131 0.312584
O O16 0.000000 0.000000 0.000000
#
# Coordination Sequence:
#
# PCOD9076708 Si02
#       7
#     2   2   2   2   2   2   2
#     4   9  18  37  60  80 117 154 190 235 290 349
#     4   9  18  36  60  80 109 155 190 235 295 347
#     4  10  20  36  55  83 115 152 191 231 278 343
#     4   9  19  37  58  79 111 151 188 228 290 348
#     4  10  18  33  59  80 112 153 190 231 287 332
#     4  10  20  36  59  87 113 144 190 247 292 339
#     4   9  18  34  57  83 108 151 192 231 282 338
#
# _framework density 24.343323999999999
#
# number of rings (size 3 to 8) (size 9 to 14) (size 15 to 20)
#    0.000    2.571    1.429    0.429    0.000    0.000 
#    5.143   12.857    0.000    0.000    0.000    0.000 
#    0.000    0.000    0.000    0.000    0.000    0.000 
#
# Total GULP energy -78160.187503 kJ/mol
# GULP energy per Si atom -5582.870536 kJ/mol
# Density = 2.428792 g / cm^3
# Si number density = 24.343324 Si / 1000 Ang^3
#
#
#
# Elastic Constant Matrix: (Units=GPa)
#
#
# Indices 1 2 3 4 5 6 
#
# 1 137.4055 67.8134 56.5580 -3.4179 -30.2930 -39.6812
# 2 67.8134 209.1373 69.3695 -10.0900 -31.9255 -46.3969
# 3 56.5580 69.3695 81.2093 1.9723 -18.2315 -39.9539
# 4 -3.4179 -10.0900 1.9723 48.8397 -4.9517 -6.5978
# 5 -30.2930 -31.9255 -18.2315 -4.9517 42.8086 15.3562
# 6 -39.6812 -46.3969 -39.9539 -6.5978 15.3562 55.2213
#
#
#
# Elastic Compliance Matrix: (Units=1/GPa)
#
#
# Indices 1 2 3 4 5 6 
#
# 1 0.011635 -0.000603 -0.005042 0.001792 0.004730 0.003105
# 2 -0.000603 0.007407 -0.004255 0.002238 0.002750 0.002215
# 3 -0.005042 -0.004255 0.024656 -0.000812 -0.000130 0.010580
# 4 0.001792 0.002238 -0.000812 0.022032 0.003632 0.004203
# 5 0.004730 0.002750 -0.000130 0.003632 0.029939 -0.002276
# 6 0.003105 0.002215 0.010580 0.004203 -0.002276 0.030991
#
#
# Mechanical properties :
#
#
# Convention : Reuss Voigt Hill
#
# Bulk Modulus (GPa) = 41.84497 90.58154 66.21325
# Shear Modulus (GPa) = 32.37805 44.97466 38.67635
#
# Velocity S-wave (km/s) = 3.65095 4.30294 3.99028
# Velocity P-wave (km/s) = 5.91603 7.87260 6.96338
#
# Compressibility (1/GPa) = 0.02389774
#
# Stress axis : x y z
#
# Youngs Moduli (GPa) = 85.95058 134.99852 40.55823
#
# Poissons Ratio (x) = 0.08138 0.20450
# Poissons Ratio (y) = 0.05182 0.17258
# Poissons Ratio (z) = 0.43338 0.57444
#
# Static dielectric constant tensor:
#      x y z
#    x 1.900470 0.019260 0.084710 
#    y 0.019260 2.041380 0.097770 
#    z 0.084710 0.097770 1.909340 
# 
# From -- ./inp_files/314718.got.cif
#   From: 2010.05.17/outbox.cif.g08.bks.cpg/sg2_158_cif.got.tgz:314718.got - 2010.06.03 11:33:40.
