data_PCOD9076006
_publ_section_title
;
Structure prediction by ZEFSAII (Michael W. Deem and Ramdas Pophale) SiO2 
 PCOD9076006
Probable space group: P -1
;
_chemical_formula_sum "Si O2"
_cell_formula_units_Z 16
_cell_length_a 13.992976
_cell_length_b 23.769666
_cell_length_c 7.652152
_cell_angle_alpha 108.950258
_cell_angle_beta 95.727016
_cell_angle_gamma 19.689930
_cell_volume 618.878726
_symmetry_space_group_name_H-M "P -1"
_symmetry_group_IT_number 2
_symmetry_cell_setting 'triclinic'
loop_
_space_group_symop_operation_xyz
x,y,z
-x,-y,-z
loop_
_atom_site_type_symbol
_atom_site_label
_atom_site_fract_x
_atom_site_fract_y
_atom_site_fract_z
Si Si1 0.358370 0.683537 0.514916
Si Si2 0.425244 0.884264 0.017972
Si Si3 0.836012 0.779937 0.472792
Si Si4 0.902130 0.805352 0.869129
Si Si5 0.861538 0.321720 0.837134
Si Si6 0.586722 0.812259 0.348304
Si Si7 0.339734 0.823165 0.774644
Si Si8 0.092609 0.012480 0.570804
O O1 0.978141 0.894315 0.755488
O O2 0.664950 0.450606 0.365526
O O3 0.509497 0.659623 0.568453
O O4 0.239512 0.759975 0.368637
O O5 0.335487 0.992388 0.982621
O O6 0.647240 0.776433 0.115711
O O7 0.585316 0.726729 0.815371
O O8 0.862526 0.692981 0.372129
O O9 0.769587 0.842049 0.721893
O O10 0.174559 0.610999 0.264363
O O11 0.500000 0.000000 0.500000
O O12 0.971404 0.747995 0.026640
O O13 0.500000 0.500000 0.000000
O O14 0.187612 0.081173 0.593990
O O15 0.487922 0.803258 0.368212
O O16 0.134393 0.987151 0.758331
O O17 0.000000 0.000000 0.000000
O O18 0.000000 0.000000 0.500000
#
# Coordination Sequence:
#
# PCOD9076006 Si02
#       8
#     2   2   2   2   2   2   2   2
#     4   9  20  33  54  87 127 153 201 263 325 359
#     4  10  18  32  58  86 119 163 204 254 309 371
#     4  10  23  42  57  87 135 169 212 257 317 386
#     4  12  22  36  62  91 126 168 203 267 323 369
#     4  11  23  36  59  94 126 161 208 259 327 374
#     4  10  20  40  58  87 127 164 207 265 308 376
#     4   9  18  34  54  89 118 161 206 253 313 386
#     4   9  17  34  58  83 115 158 210 257 303 370
#
# _framework density 25.853207000000001
#
# number of rings (size 3 to 8) (size 9 to 14) (size 15 to 20)
#    0.000    2.000    2.500    3.375    1.750    2.000 
#    4.500    0.000    0.000    3.750    0.000    0.000 
#    0.000    0.000    0.000    0.000    0.000    0.000 
#
# Total GULP energy -89144.906660 kJ/mol
# GULP energy per Si atom -5571.556666 kJ/mol
# Density = 2.579436 g / cm^3
# Si number density = 25.853207 Si / 1000 Ang^3
#
#
#
# Elastic Constant Matrix: (Units=GPa)
#
#
# Indices 1 2 3 4 5 6 
#
# 1 118.3824 22.7763 30.0317 -8.7555 13.3218 -26.7127
# 2 22.7763 68.0517 29.7764 -16.5528 3.0211 -7.0915
# 3 30.0317 29.7764 67.7047 -31.5534 22.1666 -8.3416
# 4 -8.7555 -16.5528 -31.5534 49.8204 -8.4448 10.0802
# 5 13.3218 3.0211 22.1666 -8.4448 40.9450 -11.2331
# 6 -26.7127 -7.0915 -8.3416 10.0802 -11.2331 33.9961
#
#
#
# Elastic Compliance Matrix: (Units=1/GPa)
#
#
# Indices 1 2 3 4 5 6 
#
# 1 0.011763 -0.001548 -0.005369 -0.003501 0.000926 0.008946
# 2 -0.001548 0.019172 -0.008428 0.001134 0.004387 0.001828
# 3 -0.005369 -0.008428 0.031594 0.015443 -0.013548 -0.007280
# 4 -0.003501 0.001134 0.015443 0.030857 -0.003410 -0.009001
# 5 0.000926 0.004387 -0.013548 -0.003410 0.033260 0.010320
# 6 0.008946 0.001828 -0.007280 -0.009001 0.010320 0.041119
#
#
# Mechanical properties :
#
#
# Convention : Reuss Voigt Hill
#
# Bulk Modulus (GPa) = 31.40898 46.58974 38.99936
# Shear Modulus (GPa) = 23.91569 36.38926 30.15248
#
# Velocity S-wave (km/s) = 3.04477 3.75578 3.41881
# Velocity P-wave (km/s) = 4.95340 6.07189 5.54094
#
# Compressibility (1/GPa) = 0.03183803
#
# Stress axis : x y z
#
# Youngs Moduli (GPa) = 85.01454 52.15940 31.65181
#
# Poissons Ratio (x) = 0.08073 0.16995
# Poissons Ratio (y) = 0.13159 0.26676
# Poissons Ratio (z) = 0.45648 0.43960
#
# Static dielectric constant tensor:
#      x y z
#    x 2.174690 0.029800 -0.043350 
#    y 0.029800 1.922890 0.089780 
#    z -0.043350 0.089780 2.053260 
# 
# From -- ./inp_files/320528.got.cif
#   From: 2010.05.17/outbox.cif.g08.bks.cpg/sg2_161_cif.got.tgz:320528.got - 2010.06.03 11:33:40.
