data_PCOD9077130
_publ_section_title
;
Structure prediction by ZEFSAII (Michael W. Deem and Ramdas Pophale) SiO2 
 PCOD9077130
Probable space group: P -1
;
_chemical_formula_sum "Si O2"
_cell_formula_units_Z 12
_cell_length_a 13.218532
_cell_length_b 21.080065
_cell_length_c 13.846417
_cell_angle_alpha 24.050616
_cell_angle_beta 144.702785
_cell_angle_gamma 160.544671
_cell_volume 494.274438
_symmetry_space_group_name_H-M "P -1"
_symmetry_group_IT_number 2
_symmetry_cell_setting 'triclinic'
loop_
_space_group_symop_operation_xyz
x,y,z
-x,-y,-z
loop_
_atom_site_type_symbol
_atom_site_label
_atom_site_fract_x
_atom_site_fract_y
_atom_site_fract_z
Si Si1 0.168457 0.274309 0.846036
Si Si2 0.303356 0.166861 0.388500
Si Si3 0.891163 0.119828 0.170303
Si Si4 0.208506 0.305424 0.616477
Si Si5 0.701954 0.187509 0.650624
Si Si6 0.737801 0.316418 0.831907
O O1 0.415371 0.537041 0.745233
O O2 0.311073 0.352827 0.741808
O O3 0.870790 0.174691 0.740506
O O4 0.051979 0.022531 0.146326
O O5 0.466754 0.148943 0.481490
O O6 0.089006 0.153624 0.207983
O O7 0.092411 0.925202 0.643870
O O8 0.523938 0.837137 0.240781
O O9 0.968531 0.360253 0.902661
O O10 0.500000 0.500000 0.500000
O O11 0.110402 0.413243 0.385524
O O12 0.000000 0.500000 0.500000
O O13 0.480171 0.931264 0.912549
#
# Coordination Sequence:
#
# PCOD9077130 Si02
#       6
#     2   2   2   2   2   2
#     4  10  20  35  57  82 111 146 187 223 270 330
#     4   9  17  34  55  85 115 139 176 229 287 323
#     4   9  18  31  58  84 111 143 177 232 280 325
#     4  11  21  35  57  80 108 151 192 223 261 329
#     4   9  18  32  55  81 112 140 177 227 276 327
#     4  10  18  34  56  83 109 144 190 220 271 333
#
# _framework density 24.278009999999998
#
# number of rings (size 3 to 8) (size 9 to 14) (size 15 to 20)
#    0.000    2.333    3.333    0.000    2.333    0.000 
#    0.000    4.167    0.000    6.000    0.000    0.000 
#    0.000    0.000    0.000    0.000    0.000    0.000 
#
# Total GULP energy -66973.180708 kJ/mol
# GULP energy per Si atom -5581.098392 kJ/mol
# Density = 2.422275 g / cm^3
# Si number density = 24.278010 Si / 1000 Ang^3
#
#
#
# Elastic Constant Matrix: (Units=GPa)
#
#
# Indices 1 2 3 4 5 6 
#
# 1 120.9803 21.1185 67.8779 6.6664 8.5630 23.6385
# 2 21.1185 28.4177 33.7180 9.6236 16.2089 16.7770
# 3 67.8779 33.7180 148.2270 -16.3201 37.5581 19.0865
# 4 6.6664 9.6236 -16.3201 31.2013 10.9770 15.7953
# 5 8.5630 16.2089 37.5581 10.9770 67.7187 4.1343
# 6 23.6385 16.7770 19.0865 15.7953 4.1343 31.9380
#
#
#
# Elastic Compliance Matrix: (Units=1/GPa)
#
#
# Indices 1 2 3 4 5 6 
#
# 1 0.012929 0.001277 -0.007496 -0.006890 0.003505 -0.002806
# 2 0.001277 0.074301 -0.015827 -0.019550 -0.004764 -0.020232
# 3 -0.007496 -0.015827 0.020435 0.025675 -0.010165 -0.009732
# 4 -0.006890 -0.019550 0.025675 0.077963 -0.019125 -0.036056
# 5 0.003505 -0.004764 -0.010165 -0.019125 0.023445 0.012407
# 6 -0.002806 -0.020232 -0.009732 -0.036056 0.012407 0.066058
#
#
# Mechanical properties :
#
#
# Convention : Reuss Voigt Hill
#
# Bulk Modulus (GPa) = 15.72989 60.33930 38.03460
# Shear Modulus (GPa) = 14.68804 37.83232 26.26018
#
# Velocity S-wave (km/s) = 2.46233 3.95181 3.29240
# Velocity P-wave (km/s) = 3.81801 6.76238 5.49122
#
# Compressibility (1/GPa) = 0.06357323
#
# Stress axis : x y z
#
# Youngs Moduli (GPa) = 77.34727 13.45875 48.93516
#
# Poissons Ratio (x) = -0.01719 0.36684
# Poissons Ratio (y) = -0.09881 0.77449
# Poissons Ratio (z) = 0.57983 0.21301
#
# Static dielectric constant tensor:
#      x y z
#    x 1.998970 0.027030 0.009840 
#    y 0.027030 1.955220 0.047420 
#    z 0.009840 0.047420 2.036980 
# 
# From -- ./inp_files/167442.got.cif
#   From: 2010.05.17/outbox.cif.g08.bks.cpg/sg2_84_cif.got.tgz:167442.got - 2010.06.03 11:33:40.
