data_PCOD9077897
_publ_section_title
;
Structure prediction by ZEFSAII (Michael W. Deem and Ramdas Pophale) SiO2 
 PCOD9077897
Probable space group: P -1
;
_chemical_formula_sum "Si O2"
_cell_formula_units_Z 16
_cell_length_a 25.472563
_cell_length_b 8.102475
_cell_length_c 12.855662
_cell_angle_alpha 116.838056
_cell_angle_beta 29.387615
_cell_angle_gamma 138.782044
_cell_volume 665.752446
_symmetry_space_group_name_H-M "P -1"
_symmetry_group_IT_number 2
_symmetry_cell_setting 'triclinic'
loop_
_space_group_symop_operation_xyz
x,y,z
-x,-y,-z
loop_
_atom_site_type_symbol
_atom_site_label
_atom_site_fract_x
_atom_site_fract_y
_atom_site_fract_z
Si Si1 0.518938 0.909731 0.812705
Si Si2 0.203717 0.425373 0.381085
Si Si3 0.125380 0.605190 0.965488
Si Si4 0.225084 0.342028 0.709364
Si Si5 0.251643 0.036710 0.694413
Si Si6 0.309046 0.286832 0.328420
Si Si7 0.741705 0.132498 0.802946
Si Si8 0.920101 0.237374 0.707288
O O1 0.706012 0.252107 0.643410
O O2 0.579636 0.846294 0.607358
O O3 0.364349 0.604617 0.070212
O O4 0.433391 0.980420 0.936482
O O5 0.202980 0.279618 0.434179
O O6 0.999503 0.175473 0.616483
O O7 0.252987 0.601611 0.737904
O O8 0.205762 0.894865 0.846518
O O9 0.103290 0.638558 0.130687
O O10 0.931666 0.276578 0.148095
O O11 0.304825 0.363232 0.472295
O O12 0.289134 0.305532 0.684919
O O13 0.000000 0.000000 0.000000
O O14 0.225055 0.963585 0.375872
O O15 0.500000 0.500000 0.000000
O O16 0.746070 0.021584 0.869937
O O17 0.915961 0.514581 0.592363
#
# Coordination Sequence:
#
# PCOD9077897 Si02
#       8
#     2   2   2   2   2   2   2   2
#     4  10  18  35  55  85 111 153 192 236 294 342
#     4  10  20  31  60  82 115 151 192 243 289 341
#     4  10  20  34  58  83 112 156 193 241 286 348
#     4  10  22  34  54  91 120 150 192 247 298 343
#     4  10  19  33  56  83 116 147 195 245 288 340
#     4  12  22  35  58  94 119 146 193 258 294 340
#     4  10  22  37  60  83 121 154 190 238 297 352
#     4  10  21  40  57  84 116 161 194 229 291 365
#
# _framework density 24.032957
#
# number of rings (size 3 to 8) (size 9 to 14) (size 15 to 20)
#    0.000    1.750    2.500    3.000    5.250    0.500 
#    0.000    0.625    0.000    0.750    0.000    0.000 
#    0.000    0.000    0.000    0.000    0.000    0.000 
#
# Total GULP energy -89242.631320 kJ/mol
# GULP energy per Si atom -5577.664458 kJ/mol
# Density = 2.397826 g / cm^3
# Si number density = 24.032957 Si / 1000 Ang^3
#
#
#
# Elastic Constant Matrix: (Units=GPa)
#
#
# Indices 1 2 3 4 5 6 
#
# 1 136.4568 46.7712 39.6062 12.2792 -14.5819 -35.3412
# 2 46.7712 42.0399 25.2191 18.8860 -9.6207 -12.7438
# 3 39.6062 25.2191 92.7593 22.0240 2.3065 -5.4226
# 4 12.2792 18.8860 22.0240 25.1998 -8.9054 -3.2892
# 5 -14.5819 -9.6207 2.3065 -8.9054 26.9577 8.8599
# 6 -35.3412 -12.7438 -5.4226 -3.2892 8.8599 37.2150
#
#
#
# Elastic Compliance Matrix: (Units=1/GPa)
#
#
# Indices 1 2 3 4 5 6 
#
# 1 0.016048 -0.016467 -0.004576 0.011071 0.003900 0.008984
# 2 -0.016467 0.058640 -0.000432 -0.035400 -0.000052 0.001264
# 3 -0.004576 -0.000432 0.016586 -0.015163 -0.008608 -0.001367
# 4 0.011071 -0.035400 -0.015163 0.081691 0.022262 -0.001898
# 5 0.003900 -0.000052 -0.008608 0.022262 0.049722 -0.007438
# 6 0.008984 0.001264 -0.001367 -0.001898 -0.007438 0.037240
#
#
# Mechanical properties :
#
#
# Convention : Reuss Voigt Hill
#
# Bulk Modulus (GPa) = 20.69273 54.93876 37.81574
# Shear Modulus (GPa) = 15.67490 28.51847 22.09668
#
# Velocity S-wave (km/s) = 2.55664 3.44850 3.03550
# Velocity P-wave (km/s) = 4.16462 6.22620 5.29668
#
# Compressibility (1/GPa) = 0.04832615
#
# Stress axis : x y z
#
# Youngs Moduli (GPa) = 62.31414 17.05321 60.29218
#
# Poissons Ratio (x) = 0.28081 0.27587
# Poissons Ratio (y) = 1.02610 0.02602
# Poissons Ratio (z) = 0.28512 0.00736
#
# Static dielectric constant tensor:
#      x y z
#    x 1.986900 0.023160 -0.061430 
#    y 0.023160 2.221700 -0.109060 
#    z -0.061430 -0.109060 1.938670 
# 
# From -- ./inp_files/257052.got.cif
#   From: 2010.05.17/outbox.cif.g08.bks.cpg/sg2_129_cif.got.tgz:257052.got - 2010.06.03 11:33:40.
