data_PCOD9077898
_publ_section_title
;
Structure prediction by ZEFSAII (Michael W. Deem and Ramdas Pophale) SiO2 
 PCOD9077898
Probable space group: P -1
;
_chemical_formula_sum "Si O2"
_cell_formula_units_Z 16
_cell_length_a 7.789738
_cell_length_b 11.662615
_cell_length_c 12.404612
_cell_angle_alpha 131.201901
_cell_angle_beta 76.674622
_cell_angle_gamma 122.126247
_cell_volume 705.262630
_symmetry_space_group_name_H-M "P -1"
_symmetry_group_IT_number 2
_symmetry_cell_setting 'triclinic'
loop_
_space_group_symop_operation_xyz
x,y,z
-x,-y,-z
loop_
_atom_site_type_symbol
_atom_site_label
_atom_site_fract_x
_atom_site_fract_y
_atom_site_fract_z
Si Si1 0.369541 0.216593 0.880483
Si Si2 0.178317 0.564320 0.605702
Si Si3 0.105300 0.869388 0.826947
Si Si4 0.345407 0.052086 0.108794
Si Si5 0.632250 0.592481 0.665432
Si Si6 0.971521 0.446303 0.788778
Si Si7 0.552346 0.432383 0.790920
Si Si8 0.794247 0.227371 0.875848
O O1 0.377958 0.277609 0.794203
O O2 0.580268 0.219279 0.877784
O O3 0.185454 0.023972 0.821967
O O4 0.385995 0.377505 0.047932
O O5 0.233723 0.768229 0.733852
O O6 0.327551 0.500409 0.498492
O O7 0.093016 0.473371 0.677920
O O8 0.000000 0.500000 0.500000
O O9 0.867422 0.719215 0.756706
O O10 0.160916 0.963387 0.993117
O O11 0.434494 0.261060 0.235299
O O12 0.261529 0.956733 0.175985
O O13 0.500000 0.000000 0.000000
O O14 0.504141 0.443549 0.681366
O O15 0.752766 0.416244 0.763701
O O16 0.924435 0.292293 0.786893
O O17 0.087022 0.624195 0.956184
#
# Coordination Sequence:
#
# PCOD9077898 Si02
#       8
#     2   2   2   2   2   2   2   2
#     4  10  21  32  55  86 122 141 186 249 291 324
#     4  10  20  37  58  85 114 149 196 238 279 338
#     4  11  20  35  58  87 111 148 195 241 276 331
#     4  12  21  35  58  87 114 143 191 241 282 336
#     4  11  22  36  62  83 111 152 196 236 284 336
#     4  10  19  34  60  80 113 152 194 230 283 346
#     4  10  18  35  55  85 114 147 190 238 287 328
#     4  10  20  34  54  86 113 152 186 235 291 331
#
# _framework density 22.686582999999999
#
# number of rings (size 3 to 8) (size 9 to 14) (size 15 to 20)
#    0.000    1.500    6.250    0.375    1.750    0.000 
#    0.000    1.875    0.000    0.000    0.000    0.000 
#    0.000    0.000    0.000    0.000    0.000    0.000 
#
# Total GULP energy -89427.146669 kJ/mol
# GULP energy per Si atom -5589.196667 kJ/mol
# Density = 2.263495 g / cm^3
# Si number density = 22.686583 Si / 1000 Ang^3
#
#
#
# Elastic Constant Matrix: (Units=GPa)
#
#
# Indices 1 2 3 4 5 6 
#
# 1 65.1581 16.8354 18.1894 2.3846 -21.1651 -11.6536
# 2 16.8354 200.1338 59.1419 -44.1093 -11.9747 -21.5642
# 3 18.1894 59.1419 128.5575 -21.8170 -12.2239 -13.2790
# 4 2.3846 -44.1093 -21.8170 41.3556 5.4931 0.5973
# 5 -21.1651 -11.9747 -12.2239 5.4931 32.5405 6.4998
# 6 -11.6536 -21.5642 -13.2790 0.5973 6.4998 27.0696
#
#
#
# Elastic Compliance Matrix: (Units=1/GPa)
#
#
# Indices 1 2 3 4 5 6 
#
# 1 0.021232 -0.001183 -0.001659 -0.005116 0.012728 0.004441
# 2 -0.001183 0.007707 -0.001694 0.007430 -0.000788 0.004824
# 3 -0.001659 -0.001694 0.009676 0.003238 0.000908 0.002393
# 4 -0.005116 0.007430 0.003238 0.034881 -0.006482 0.006091
# 5 0.012728 -0.000788 0.000908 -0.006482 0.041036 -0.004413
# 6 0.004441 0.004824 0.002393 0.006091 -0.004413 0.044796
#
#
# Mechanical properties :
#
#
# Convention : Reuss Voigt Hill
#
# Bulk Modulus (GPa) = 33.85004 64.68699 49.26852
# Shear Modulus (GPa) = 28.05080 40.17199 34.11139
#
# Velocity S-wave (km/s) = 3.52013 4.21258 3.88183
# Velocity P-wave (km/s) = 5.61025 7.22747 6.46959
#
# Compressibility (1/GPa) = 0.02954206
#
# Stress axis : x y z
#
# Youngs Moduli (GPa) = 47.09882 129.75326 103.35208
#
# Poissons Ratio (x) = 0.15355 0.17147
# Poissons Ratio (y) = 0.05574 0.17506
# Poissons Ratio (z) = 0.07814 0.21977
#
# Static dielectric constant tensor:
#      x y z
#    x 2.066420 -0.047230 0.078480 
#    y -0.047230 1.860650 -0.045600 
#    z 0.078480 -0.045600 1.862690 
# 
# From -- ./inp_files/263101.got.cif
#   From: 2010.05.17/outbox.cif.g08.bks.cpg/sg2_132_cif.got.tgz:263101.got - 2010.06.03 11:33:40.
