data_PCOD9077008
_publ_section_title
;
Structure prediction by ZEFSAII (Michael W. Deem and Ramdas Pophale) SiO2 
 PCOD9077008
Probable space group: P -1
;
_chemical_formula_sum "Si O2"
_cell_formula_units_Z 16
_cell_length_a 10.055942
_cell_length_b 11.509277
_cell_length_c 9.436828
_cell_angle_alpha 114.806396
_cell_angle_beta 94.084728
_cell_angle_gamma 133.896999
_cell_volume 594.920203
_symmetry_space_group_name_H-M "P -1"
_symmetry_group_IT_number 2
_symmetry_cell_setting 'triclinic'
loop_
_space_group_symop_operation_xyz
x,y,z
-x,-y,-z
loop_
_atom_site_type_symbol
_atom_site_label
_atom_site_fract_x
_atom_site_fract_y
_atom_site_fract_z
Si Si1 0.686903 0.625456 0.784284
Si Si2 0.173047 0.543271 0.722404
Si Si3 0.752980 0.791372 0.597289
Si Si4 0.181186 0.740595 0.053308
Si Si5 0.381896 0.699104 0.264325
Si Si6 0.467881 0.306690 0.987788
Si Si7 0.548309 0.199580 0.367796
Si Si8 0.052547 0.236608 0.746775
O O1 0.819589 0.757795 0.719376
O O2 0.423149 0.422766 0.618858
O O3 0.719730 0.508542 0.783470
O O4 0.713809 0.754561 0.970772
O O5 0.413416 0.698884 0.895124
O O6 0.221759 0.599440 0.590943
O O7 0.032766 0.310715 0.641808
O O8 0.097581 0.611370 0.836326
O O9 0.595534 0.781742 0.645518
O O10 0.933483 0.009227 0.635150
O O11 0.227278 0.662848 0.131085
O O12 0.422065 0.988167 0.174131
O O13 0.942114 0.240368 0.862018
O O14 0.447860 0.824116 0.475319
O O15 0.570466 0.792813 0.216070
O O16 0.683305 0.563387 0.105477
#
# Coordination Sequence:
#
# PCOD9077008 Si02
#       8
#     2   2   2   2   2   2   2   2
#     4  10  18  34  55  79 106 133 177 218 254 305
#     4   9  18  32  55  80 100 133 176 215 258 298
#     4   9  18  32  56  82 100 135 176 223 256 294
#     4  10  19  34  57  76 107 135 176 213 264 308
#     4  10  21  32  54  77 112 140 163 215 270 304
#     4   9  19  34  55  75 105 138 175 208 260 305
#     4  10  18  34  54  82 103 133 180 219 254 302
#     4   9  19  34  57  76 104 138 175 213 260 311
#
# _framework density 26.894362000000001
#
# number of rings (size 3 to 8) (size 9 to 14) (size 15 to 20)
#    0.750    1.750    1.250    1.500    0.000    0.500 
#    0.000    1.250    0.000    4.500    0.000    0.000 
#    0.000    0.000    0.000    0.000    0.000    0.000 
#
# Total GULP energy -89368.267403 kJ/mol
# GULP energy per Si atom -5585.516713 kJ/mol
# Density = 2.683315 g / cm^3
# Si number density = 26.894362 Si / 1000 Ang^3
#
#
#
# Elastic Constant Matrix: (Units=GPa)
#
#
# Indices 1 2 3 4 5 6 
#
# 1 74.5067 23.0365 13.3020 -7.3941 -12.8627 -9.6395
# 2 23.0365 139.2344 70.1324 -3.1151 -13.8468 4.2113
# 3 13.3020 70.1324 101.8875 -13.8651 -17.7689 6.2170
# 4 -7.3941 -3.1151 -13.8651 42.3768 8.3849 0.8071
# 5 -12.8627 -13.8468 -17.7689 8.3849 35.9212 -5.3537
# 6 -9.6395 4.2113 6.2170 0.8071 -5.3537 30.9733
#
#
#
# Elastic Compliance Matrix: (Units=1/GPa)
#
#
# Indices 1 2 3 4 5 6 
#
# 1 0.016014 -0.002449 0.000394 0.001529 0.005546 0.006156
# 2 -0.002449 0.011520 -0.007847 -0.002151 0.000083 -0.000683
# 3 0.000394 -0.007847 0.016534 0.004118 0.004106 -0.001527
# 4 0.001529 -0.002151 0.004118 0.025980 -0.004536 -0.001519
# 5 0.005546 0.000083 0.004106 -0.004536 0.033972 0.006881
# 6 0.006156 -0.000683 -0.001527 -0.001519 0.006881 0.035830
#
#
# Mechanical properties :
#
#
# Convention : Reuss Voigt Hill
#
# Bulk Modulus (GPa) = 41.20908 58.73003 49.96955
# Shear Modulus (GPa) = 29.80761 35.79809 32.80285
#
# Velocity S-wave (km/s) = 3.33276 3.65233 3.49620
# Velocity P-wave (km/s) = 5.49232 6.29847 5.90916
#
# Compressibility (1/GPa) = 0.02426650
#
# Stress axis : x y z
#
# Youngs Moduli (GPa) = 62.44542 86.80186 60.48053
#
# Poissons Ratio (x) = 0.21254 -0.02385
# Poissons Ratio (y) = 0.15290 0.47458
# Poissons Ratio (z) = -0.02462 0.68112
#
# Static dielectric constant tensor:
#      x y z
#    x 2.182230 0.060360 0.073810 
#    y 0.060360 2.166260 0.018700 
#    z 0.073810 0.018700 2.180320 
# 
# From -- ./inp_files/308044.got.cif
#   From: 2010.05.17/outbox.cif.g08.bks.cpg/sg2_155_cif.got.tgz:308044.got - 2010.06.03 11:33:40.
