data_PCOD9077767
_publ_section_title
;
Structure prediction by ZEFSAII (Michael W. Deem and Ramdas Pophale) SiO2 
 PCOD9077767
Probable space group: P -1
;
_chemical_formula_sum "Si O2"
_cell_formula_units_Z 13
_cell_length_a 9.604183
_cell_length_b 9.016617
_cell_length_c 14.499700
_cell_angle_alpha 76.657002
_cell_angle_beta 155.180398
_cell_angle_gamma 108.389002
_cell_volume 495.267086
_symmetry_space_group_name_H-M "P -1"
_symmetry_group_IT_number 2
_symmetry_cell_setting 'triclinic'
loop_
_space_group_symop_operation_xyz
x,y,z
-x,-y,-z
loop_
_atom_site_type_symbol
_atom_site_label
_atom_site_fract_x
_atom_site_fract_y
_atom_site_fract_z
Si Si1 0.667255 0.091440 0.228576
Si Si2 0.704777 0.686641 0.706543
Si Si3 0.500000 0.000000 0.500000
Si Si4 0.215527 0.666932 0.567424
Si Si5 0.712957 0.682311 0.100431
Si Si6 0.148298 0.587797 0.235382
Si Si7 0.440234 0.115504 0.649281
O O1 0.753022 0.214820 0.347002
O O2 0.027551 0.077441 0.408677
O O3 0.461534 0.937265 0.182868
O O4 0.477184 0.179536 0.030924
O O5 0.366859 0.585623 0.461026
O O6 0.975089 0.589645 0.851963
O O7 0.577129 0.665023 0.737883
O O8 0.715591 0.861728 0.654287
O O9 0.543436 0.027376 0.635491
O O10 0.991904 0.715126 0.343914
O O11 0.000000 0.500000 0.500000
O O12 0.891642 0.683897 0.108137
O O13 0.500000 0.500000 0.000000
O O14 0.389198 0.700245 0.290741
#
# Coordination Sequence:
#
# PCOD9077767 Si02
#       7
#     2   2   1   2   2   2   2
#     4  11  23  42  68  97 132 173 225 273 333 396
#     4   9  18  33  61  92 120 171 215 259 325 397
#     4  10  18  34  64  94 124 170 218 262 326 392
#     4  11  20  38  65  92 134 170 215 270 334 390
#     4  11  24  39  64 102 133 172 225 279 325 394
#     4   9  20  37  62  90 131 171 216 270 329 387
#     4  10  22  41  69  94 130 183 217 273 336 394
#
# _framework density 26.248463000000001
#
# number of rings (size 3 to 8) (size 9 to 14) (size 15 to 20)
#    0.000    1.846    3.077    0.923    6.462    0.615 
#    0.000    3.846    6.769    0.000    0.000    0.000 
#    0.000    0.000    0.000    0.000    0.000    0.000 
#
# Total GULP energy -72427.611607 kJ/mol
# GULP energy per Si atom -5571.354739 kJ/mol
# Density = 2.618872 g / cm^3
# Si number density = 26.248463 Si / 1000 Ang^3
#
#
#
# Elastic Constant Matrix: (Units=GPa)
#
#
# Indices 1 2 3 4 5 6 
#
# 1 100.5949 19.2967 10.2615 -3.1322 -4.9833 3.0782
# 2 19.2967 112.1123 6.5351 -23.8780 4.3654 8.8777
# 3 10.2615 6.5351 68.1327 -18.0803 -20.9384 -0.1512
# 4 -3.1322 -23.8780 -18.0803 37.4863 -5.3782 0.2081
# 5 -4.9833 4.3654 -20.9384 -5.3782 32.9210 -3.5839
# 6 3.0782 8.8777 -0.1512 0.2081 -3.5839 57.5115
#
#
#
# Elastic Compliance Matrix: (Units=1/GPa)
#
#
# Indices 1 2 3 4 5 6 
#
# 1 0.010470 -0.001929 -0.001395 -0.000913 0.000781 -0.000214
# 2 -0.001929 0.010874 0.001225 0.007376 0.000077 -0.001594
# 3 -0.001395 0.001225 0.024048 0.014759 0.017440 0.000982
# 4 -0.000913 0.007376 0.014759 0.040552 0.014866 -0.000271
# 5 0.000781 0.000077 0.017440 0.014866 0.044298 0.002699
# 6 -0.000214 -0.001594 0.000982 -0.000271 0.002699 0.017817
#
#
# Mechanical properties :
#
#
# Convention : Reuss Voigt Hill
#
# Bulk Modulus (GPa) = 24.27446 39.22517 31.74981
# Shear Modulus (GPa) = 30.12265 41.90022 36.01143
#
# Velocity S-wave (km/s) = 3.39129 3.99970 3.70800
# Velocity P-wave (km/s) = 4.96009 6.02547 5.51855
#
# Compressibility (1/GPa) = 0.04119556
#
# Stress axis : x y z
#
# Youngs Moduli (GPa) = 95.51175 91.95855 41.58332
#
# Poissons Ratio (x) = 0.17736 0.05799
# Poissons Ratio (y) = 0.18421 -0.05093
# Poissons Ratio (z) = 0.13320 -0.11264
#
# Static dielectric constant tensor:
#      x y z
#    x 1.577750 -1.075390 -0.600210 
#    y -1.075390 -0.374770 -1.453590 
#    z -0.600210 -1.453590 1.421950 
# 
# From -- ./inp_files/241095.got.cif
#   From: 2010.05.17/outbox.cif.g08.bks.cpg/sg2_121_cif.got.tgz:241095.got - 2010.06.03 11:33:40.
