data_PCOD9077035
_publ_section_title
;
Structure prediction by ZEFSAII (Michael W. Deem and Ramdas Pophale) SiO2 
 PCOD9077035
Probable space group: P -1
;
_chemical_formula_sum "Si O2"
_cell_formula_units_Z 14
_cell_length_a 8.946299
_cell_length_b 16.671667
_cell_length_c 14.081825
_cell_angle_alpha 48.038767
_cell_angle_beta 146.344342
_cell_angle_gamma 112.727964
_cell_volume 788.272108
_symmetry_space_group_name_H-M "P -1"
_symmetry_group_IT_number 2
_symmetry_cell_setting 'triclinic'
loop_
_space_group_symop_operation_xyz
x,y,z
-x,-y,-z
loop_
_atom_site_type_symbol
_atom_site_label
_atom_site_fract_x
_atom_site_fract_y
_atom_site_fract_z
Si Si1 0.605066 0.744400 0.933382
Si Si2 0.658227 0.608969 0.876390
Si Si3 0.436006 0.016753 0.341008
Si Si4 0.649112 0.758916 0.574477
Si Si5 0.688796 0.417284 0.749452
Si Si6 0.153676 0.779529 0.151015
Si Si7 0.645728 0.385896 0.961912
O O1 0.560988 0.677776 0.869423
O O2 0.459133 0.885024 0.723190
O O3 0.492872 0.698235 0.000544
O O4 0.952717 0.719748 0.142294
O O5 0.561646 0.698488 0.665654
O O6 0.571432 0.500711 0.897494
O O7 0.015856 0.560170 0.101870
O O8 0.500000 0.000000 0.500000
O O9 0.575533 0.892973 0.459630
O O10 0.078378 0.083811 0.086505
O O11 0.446990 0.758433 0.379426
O O12 0.997549 0.686628 0.796969
O O13 0.500000 0.500000 0.500000
O O14 0.783244 0.282993 0.868675
O O15 0.546242 0.429515 0.767527
#
# Coordination Sequence:
#
# PCOD9077035 Si02
#       7
#     2   2   2   2   2   2   2
#     4   9  21  36  54  81 112 141 176 222 280 310
#     4  10  19  35  55  79 109 148 182 212 271 332
#     4  10  18  37  61  77 106 144 188 214 261 331
#     4  11  19  35  60  82 102 146 185 224 257 323
#     4  10  18  34  55  78 110 147 182 216 261 327
#     4   9  20  35  54  81 107 143 187 209 268 326
#     4  11  21  34  56  84 112 137 179 231 272 308
#
# _framework density 17.760365
#
# number of rings (size 3 to 8) (size 9 to 14) (size 15 to 20)
#    0.857    1.143    1.429    5.143    0.000    0.571 
#    0.000    9.286    0.000    1.714    0.000    0.000 
#    0.000    0.000    0.000    0.000    0.000    0.000 
#
# Total GULP energy -77997.276542 kJ/mol
# GULP energy per Si atom -5571.234039 kJ/mol
# Density = 1.771994 g / cm^3
# Si number density = 17.760365 Si / 1000 Ang^3
#
#
#
# Elastic Constant Matrix: (Units=GPa)
#
#
# Indices 1 2 3 4 5 6 
#
# 1 43.3644 18.1309 16.3425 5.0585 -17.2015 8.6172
# 2 18.1309 103.7266 17.4077 -12.2277 -5.5540 2.3707
# 3 16.3425 17.4077 65.3323 -0.0295 -12.0010 6.7811
# 4 5.0585 -12.2277 -0.0295 33.5647 -2.5135 -2.0933
# 5 -17.2015 -5.5540 -12.0010 -2.5135 20.9609 -8.7164
# 6 8.6172 2.3707 6.7811 -2.0933 -8.7164 18.7717
#
#
#
# Elastic Compliance Matrix: (Units=1/GPa)
#
#
# Indices 1 2 3 4 5 6 
#
# 1 0.038219 -0.005432 -0.002936 -0.006111 0.025602 -0.004591
# 2 -0.005432 0.011422 -0.002105 0.004990 -0.001306 0.001762
# 3 -0.002936 -0.002105 0.018001 0.000072 0.006591 -0.001821
# 4 -0.006111 0.004990 0.000072 0.033254 0.003435 0.007452
# 5 0.025602 -0.001306 0.006591 0.003435 0.082918 0.024917
# 6 -0.004591 0.001762 -0.001821 0.007452 0.024917 0.068215
#
#
# Mechanical properties :
#
#
# Convention : Reuss Voigt Hill
#
# Bulk Modulus (GPa) = 21.41553 35.13173 28.27363
# Shear Modulus (GPa) = 17.32854 25.36227 21.34540
#
# Velocity S-wave (km/s) = 3.12699 3.78302 3.47054
# Velocity P-wave (km/s) = 5.01215 6.23744 5.65806
#
# Compressibility (1/GPa) = 0.04669508
#
# Stress axis : x y z
#
# Youngs Moduli (GPa) = 26.16504 87.55381 55.55143
#
# Poissons Ratio (x) = 0.47562 0.16311
# Poissons Ratio (y) = 0.14214 0.11693
# Poissons Ratio (z) = 0.07683 0.18429
#
# Static dielectric constant tensor:
#      x y z
#    x 1.592720 -0.016950 0.006920 
#    y -0.016950 1.621710 -0.018690 
#    z 0.006920 -0.018690 1.620720 
# 
# From -- ./inp_files/171819.got.cif
#   From: 2010.05.17/outbox.cif.g08.bks.cpg/sg2_86_cif.got.tgz:171819.got - 2010.06.03 11:33:40.
