data_PCOD9077063
_publ_section_title
;
Structure prediction by ZEFSAII (Michael W. Deem and Ramdas Pophale) SiO2 
 PCOD9077063
Probable space group: P -1
;
_chemical_formula_sum "Si O2"
_cell_formula_units_Z 16
_cell_length_a 24.660932
_cell_length_b 10.995270
_cell_length_c 17.567355
_cell_angle_alpha 42.477677
_cell_angle_beta 16.326125
_cell_angle_gamma 35.629494
_cell_volume 753.327560
_symmetry_space_group_name_H-M "P -1"
_symmetry_group_IT_number 2
_symmetry_cell_setting 'triclinic'
loop_
_space_group_symop_operation_xyz
x,y,z
-x,-y,-z
loop_
_atom_site_type_symbol
_atom_site_label
_atom_site_fract_x
_atom_site_fract_y
_atom_site_fract_z
Si Si1 0.707111 0.116075 0.635549
Si Si2 0.498066 0.785357 0.867953
Si Si3 0.357957 0.671222 0.517269
Si Si4 0.895612 0.741848 0.254498
Si Si5 0.725829 0.687218 0.771143
Si Si6 0.274974 0.790938 0.750791
Si Si7 0.219027 0.284981 0.050463
Si Si8 0.954792 0.152048 0.562369
O O1 0.786023 0.204649 0.419976
O O2 0.697186 0.917332 0.709812
O O3 0.898351 0.004498 0.494902
O O4 0.458421 0.293591 0.927091
O O5 0.616991 0.697078 0.830828
O O6 0.696434 0.730982 0.567075
O O7 0.681351 0.277729 0.884561
O O8 0.341919 0.049022 0.957790
O O9 0.263921 0.759306 0.687871
O O10 0.475401 0.415478 0.470230
O O11 0.572768 0.699046 0.208798
O O12 0.068831 0.764059 0.068110
O O13 0.063443 0.497506 0.109548
O O14 0.773545 0.977416 0.270748
O O15 0.000000 0.500000 0.500000
O O16 0.063838 0.285902 0.328087
O O17 0.000000 0.000000 0.500000
#
# Coordination Sequence:
#
# PCOD9077063 Si02
#       8
#     2   2   2   2   2   2   2   2
#     4  11  20  39  56  81 121 154 187 236 292 335
#     4  11  21  38  55  85 121 152 194 225 282 352
#     4  10  18  34  60  80 114 149 188 248 291 324
#     4  10  20  32  58  82 110 148 189 243 287 328
#     4  11  23  33  56  86 118 153 190 235 284 348
#     4   9  19  34  53  90 109 138 201 251 285 332
#     4  10  18  34  55  83 116 150 182 232 282 340
#     4  10  21  38  57  85 121 159 191 222 274 368
#
# _framework density 21.239101000000002
#
# number of rings (size 3 to 8) (size 9 to 14) (size 15 to 20)
#    0.000    1.750    5.000    0.750    5.250    0.500 
#    0.000    0.000    0.000    1.500    0.000    0.000 
#    0.000    0.000    0.000    0.000    0.000    0.000 
#
# Total GULP energy -89097.778061 kJ/mol
# GULP energy per Si atom -5568.611129 kJ/mol
# Density = 2.119076 g / cm^3
# Si number density = 21.239101 Si / 1000 Ang^3
#
#
#
# Elastic Constant Matrix: (Units=GPa)
#
#
# Indices 1 2 3 4 5 6 
#
# 1 70.3471 19.0653 14.5370 -0.8356 -10.9212 -13.7644
# 2 19.0653 102.3699 16.0224 33.1508 1.0392 -13.4045
# 3 14.5370 16.0224 113.1051 0.1240 -20.6479 -4.9627
# 4 -0.8356 33.1508 0.1240 32.2162 -3.3133 -0.7091
# 5 -10.9212 1.0392 -20.6479 -3.3133 14.5743 -0.9333
# 6 -13.7644 -13.4045 -4.9627 -0.7091 -0.9333 23.8565
#
#
#
# Elastic Compliance Matrix: (Units=1/GPa)
#
#
# Indices 1 2 3 4 5 6 
#
# 1 0.021116 -0.006426 0.002886 0.009769 0.023255 0.010374
# 2 -0.006426 0.019811 -0.005045 -0.022286 -0.018120 0.005003
# 3 0.002886 -0.005045 0.013643 0.007722 0.023788 0.002829
# 4 0.009769 -0.022286 0.007722 0.057517 0.032778 -0.002288
# 5 0.023255 -0.018120 0.023788 0.032778 0.129396 0.014221
# 6 0.010374 0.005003 0.002829 -0.002288 0.014221 0.051791
#
#
# Mechanical properties :
#
#
# Convention : Reuss Voigt Hill
#
# Bulk Modulus (GPa) = 26.73617 42.78574 34.76096
# Shear Modulus (GPa) = 15.48420 29.87588 22.68004
#
# Velocity S-wave (km/s) = 2.70301 3.75460 3.27133
# Velocity P-wave (km/s) = 4.72834 6.24376 5.53813
#
# Compressibility (1/GPa) = 0.03740251
#
# Stress axis : x y z
#
# Youngs Moduli (GPa) = 47.35655 50.47735 73.29635
#
# Poissons Ratio (x) = 0.32434 -0.21154
# Poissons Ratio (y) = 0.30429 0.36975
# Poissons Ratio (z) = -0.13667 0.25463
#
# Static dielectric constant tensor:
#      x y z
#    x 1.796410 -0.030510 -0.029550 
#    y -0.030510 1.841710 0.020190 
#    z -0.029550 0.020190 1.994540 
# 
# From -- ./inp_files/579764.got.cif
#   From: 2010.05.17/outbox.cif.g08.bks.cpg/sg2_290_cif.got.tgz:579764.got - 2010.06.03 11:33:40.
