data_PCOD9077750
_publ_section_title
;
Structure prediction by ZEFSAII (Michael W. Deem and Ramdas Pophale) SiO2 
 PCOD9077750
Probable space group: P -1
;
_chemical_formula_sum "Si O2"
_cell_formula_units_Z 11
_cell_length_a 6.966338
_cell_length_b 9.530122
_cell_length_c 12.433685
_cell_angle_alpha 46.608781
_cell_angle_beta 53.584173
_cell_angle_gamma 75.985864
_cell_volume 462.947554
_symmetry_space_group_name_H-M "P -1"
_symmetry_group_IT_number 2
_symmetry_cell_setting 'triclinic'
loop_
_space_group_symop_operation_xyz
x,y,z
-x,-y,-z
loop_
_atom_site_type_symbol
_atom_site_label
_atom_site_fract_x
_atom_site_fract_y
_atom_site_fract_z
Si Si1 0.444942 0.682870 0.983638
Si Si2 0.500000 0.000000 0.500000
Si Si3 0.022407 0.502160 0.364503
Si Si4 0.322046 0.896224 0.367310
Si Si5 0.216123 0.207092 0.840115
Si Si6 0.049523 0.719908 0.920505
O O1 0.303767 0.609231 0.179304
O O2 0.500000 0.500000 0.000000
O O3 0.232674 0.727618 0.956320
O O4 0.669186 0.884595 0.797588
O O5 0.410614 0.922244 0.447232
O O6 0.214819 0.887308 0.699266
O O7 0.936654 0.274321 0.469227
O O8 0.846269 0.621594 0.303653
O O9 0.000000 0.500000 0.500000
O O10 0.523543 0.823463 0.267472
O O11 0.190424 0.255280 0.949453
O O12 0.000000 0.000000 0.000000
O O13 0.000000 0.500000 0.000000
#
# Coordination Sequence:
#
# PCOD9077750 Si02
#       6
#     2   1   2   2   2   2
#     4  10  23  43  58  88 137 166 212 269 327 381
#     4  10  18  34  64  90 116 156 218 256 312 372
#     4  11  25  42  64  97 131 172 222 264 330 395
#     4  11  23  42  68  95 129 176 220 274 324 391
#     4  11  20  45  67  93 133 168 219 278 321 385
#     4  10  21  38  62  92 123 159 211 268 321 377
#
# _framework density 23.760791000000001
#
# number of rings (size 3 to 8) (size 9 to 14) (size 15 to 20)
#    0.000    1.455    5.455    2.727    0.000    5.818 
#    3.273    0.000    0.000    0.000    0.000    0.000 
#    0.000    0.000    0.000    0.000    0.000    0.000 
#
# Total GULP energy -61244.589716 kJ/mol
# GULP energy per Si atom -5567.689974 kJ/mol
# Density = 2.370671 g / cm^3
# Si number density = 23.760791 Si / 1000 Ang^3
#
#
#
# Elastic Constant Matrix: (Units=GPa)
#
#
# Indices 1 2 3 4 5 6 
#
# 1 57.8085 21.0662 40.6959 2.7105 -12.9818 15.8808
# 2 21.0662 142.6472 73.0460 16.1243 14.8527 11.6822
# 3 40.6959 73.0460 154.8988 16.9363 8.3354 10.4986
# 4 2.7105 16.1243 16.9363 73.7745 10.4559 -5.7100
# 5 -12.9818 14.8527 8.3354 10.4559 19.1034 -1.2774
# 6 15.8808 11.6822 10.4986 -5.7100 -1.2774 45.1045
#
#
#
# Elastic Compliance Matrix: (Units=1/GPa)
#
#
# Indices 1 2 3 4 5 6 
#
# 1 0.033147 -0.002743 -0.008017 -0.003643 0.029567 -0.008718
# 2 -0.002743 0.010204 -0.003549 -0.000240 -0.008192 -0.001114
# 3 -0.008017 -0.003549 0.010576 -0.000273 -0.007084 0.001045
# 4 -0.003643 -0.000240 -0.000273 0.015525 -0.010462 0.003077
# 5 0.029567 -0.008192 -0.007084 -0.010462 0.087258 -0.005493
# 6 -0.008718 -0.001114 0.001045 0.003077 -0.005493 0.025519
#
#
# Mechanical properties :
#
#
# Convention : Reuss Voigt Hill
#
# Bulk Modulus (GPa) = 39.51008 69.44117 54.47563
# Shear Modulus (GPa) = 22.80163 42.29958 32.55061
#
# Velocity S-wave (km/s) = 3.10115 4.22385 3.70527
# Velocity P-wave (km/s) = 5.43022 7.28536 6.42509
#
# Compressibility (1/GPa) = 0.02531000
#
# Stress axis : x y z
#
# Youngs Moduli (GPa) = 30.16835 98.00244 94.55503
#
# Poissons Ratio (x) = 0.26878 0.75806
# Poissons Ratio (y) = 0.08274 0.33555
# Poissons Ratio (z) = 0.24186 0.34779
#
# Static dielectric constant tensor:
#      x y z
#    x 1.967440 -0.120960 -0.009420 
#    y -0.120960 2.029750 -0.031360 
#    z -0.009420 -0.031360 1.930010 
# 
# From -- ./inp_files/150134.got.cif
#   From: 2010.05.17/outbox.cif.g08.bks.cpg/sg2_76_cif.got.tgz:150134.got - 2010.06.03 11:33:40.
