data_PCOD9077717
_publ_section_title
;
Structure prediction by ZEFSAII (Michael W. Deem and Ramdas Pophale) SiO2 
 PCOD9077717
Probable space group: P -1
;
_chemical_formula_sum "Si O2"
_cell_formula_units_Z 14
_cell_length_a 7.733093
_cell_length_b 9.069935
_cell_length_c 11.049776
_cell_angle_alpha 88.086962
_cell_angle_beta 40.411534
_cell_angle_gamma 85.953434
_cell_volume 500.921647
_symmetry_space_group_name_H-M "P -1"
_symmetry_group_IT_number 2
_symmetry_cell_setting 'triclinic'
loop_
_space_group_symop_operation_xyz
x,y,z
-x,-y,-z
loop_
_atom_site_type_symbol
_atom_site_label
_atom_site_fract_x
_atom_site_fract_y
_atom_site_fract_z
Si Si1 0.316843 0.399384 0.817812
Si Si2 0.599525 0.851461 0.791473
Si Si3 0.098141 0.656846 0.487598
Si Si4 0.821735 0.794680 0.319972
Si Si5 0.836509 0.930839 0.921118
Si Si6 0.733373 0.311033 0.319885
Si Si7 0.729899 0.409979 0.950127
O O1 0.601451 0.332472 0.719453
O O2 0.212259 0.273396 0.793611
O O3 0.364866 0.537397 0.698457
O O4 0.166637 0.476981 0.009982
O O5 0.687059 0.876820 0.882965
O O6 0.415128 0.714328 0.895870
O O7 0.874691 0.793438 0.580449
O O8 0.393067 0.992676 0.871176
O O9 0.154052 0.659573 0.604944
O O10 0.000000 0.500000 0.500000
O O11 0.529957 0.784449 0.530812
O O12 0.965790 0.945355 0.232106
O O13 0.045640 0.670790 0.250824
O O14 0.035970 0.796269 0.861116
O O15 0.500000 0.500000 0.000000
#
# Coordination Sequence:
#
# PCOD9077717 Si02
#       7
#     2   2   2   2   2   2   2
#     4  11  23  38  62  99 126 161 208 268 322 370
#     4   9  19  37  61  94 119 168 211 255 308 369
#     4  10  18  34  63  90 124 158 209 253 304 367
#     4  10  21  39  60  96 129 159 209 260 315 370
#     4   9  19  38  65  87 128 172 207 250 309 385
#     4  10  22  37  66  93 129 168 207 257 320 371
#     4  11  24  38  64  91 127 161 210 268 314 369
#
# _framework density 27.948485000000002
#
# number of rings (size 3 to 8) (size 9 to 14) (size 15 to 20)
#    0.000    2.000    1.429    2.571    6.000    0.000 
#    0.000    2.857    6.286    0.857    0.000    0.000 
#    0.000    0.000    0.000    0.000    0.000    0.000 
#
# Total GULP energy -78427.163860 kJ/mol
# GULP energy per Si atom -5601.940276 kJ/mol
# Density = 2.788487 g / cm^3
# Si number density = 27.948485 Si / 1000 Ang^3
#
#
#
# Elastic Constant Matrix: (Units=GPa)
#
#
# Indices 1 2 3 4 5 6 
#
# 1 124.2510 41.8428 13.7583 9.2623 -22.2956 13.1146
# 2 41.8428 135.0868 28.8393 11.0714 -18.9859 -3.3645
# 3 13.7583 28.8393 146.1614 50.8993 -27.4105 -19.7224
# 4 9.2623 11.0714 50.8993 53.7176 -7.4133 -14.8757
# 5 -22.2956 -18.9859 -27.4105 -7.4133 50.4591 3.7627
# 6 13.1146 -3.3645 -19.7224 -14.8757 3.7627 46.9404
#
#
#
# Elastic Compliance Matrix: (Units=1/GPa)
#
#
# Indices 1 2 3 4 5 6 
#
# 1 0.010112 -0.002634 0.000535 -0.002247 0.003721 -0.003799
# 2 -0.002634 0.008671 -0.001143 0.000176 0.001443 0.000817
# 3 0.000535 -0.001143 0.011396 -0.009727 0.004485 0.001114
# 4 -0.002247 0.000176 -0.009727 0.029554 -0.002324 0.006105
# 5 0.003721 0.001443 0.004485 -0.002324 0.024229 -0.001731
# 6 -0.003799 0.000817 0.001114 0.006105 -0.001731 0.024965
#
#
# Mechanical properties :
#
#
# Convention : Reuss Voigt Hill
#
# Bulk Modulus (GPa) = 42.20291 63.81999 53.01145
# Shear Modulus (GPa) = 40.54834 51.62736 46.08785
#
# Velocity S-wave (km/s) = 3.81310 4.30261 4.06523
# Velocity P-wave (km/s) = 5.87532 6.89693 6.40652
#
# Compressibility (1/GPa) = 0.02369505
#
# Stress axis : x y z
#
# Youngs Moduli (GPa) = 98.89061 115.32244 87.75258
#
# Poissons Ratio (x) = 0.30376 -0.04698
# Poissons Ratio (y) = 0.26048 0.10034
# Poissons Ratio (z) = -0.05294 0.13186
#
# Static dielectric constant tensor:
#      x y z
#    x 2.254150 -0.052370 0.009040 
#    y -0.052370 2.104610 -0.012970 
#    z 0.009040 -0.012970 2.222880 
# 
# From -- ./inp_files/489624.got.cif
#   From: 2010.05.17/outbox.cif.g08.bks.cpg/sg2_245_cif.got.tgz:489624.got - 2010.06.03 11:33:40.
