data_PCOD9077969
_publ_section_title
;
Structure prediction by ZEFSAII (Michael W. Deem and Ramdas Pophale) SiO2 
 PCOD9077969
Probable space group: P -1
;
_chemical_formula_sum "Si O2"
_cell_formula_units_Z 14
_cell_length_a 6.504833
_cell_length_b 18.559811
_cell_length_c 9.104386
_cell_angle_alpha 125.616914
_cell_angle_beta 124.085507
_cell_angle_gamma 40.518070
_cell_volume 565.917518
_symmetry_space_group_name_H-M "P -1"
_symmetry_group_IT_number 2
_symmetry_cell_setting 'triclinic'
loop_
_space_group_symop_operation_xyz
x,y,z
-x,-y,-z
loop_
_atom_site_type_symbol
_atom_site_label
_atom_site_fract_x
_atom_site_fract_y
_atom_site_fract_z
Si Si1 0.601655 0.249585 0.470775
Si Si2 0.301996 0.632863 0.926432
Si Si3 0.552058 0.384167 0.352962
Si Si4 0.353997 0.944382 0.728531
Si Si5 0.406265 0.917600 0.382338
Si Si6 0.193404 0.461950 0.753503
Si Si7 0.188833 0.164233 0.815527
O O1 0.706446 0.294862 0.441695
O O2 0.525911 0.171478 0.277530
O O3 0.290773 0.361731 0.562127
O O4 0.903299 0.180510 0.624821
O O5 0.267858 0.672177 0.794267
O O6 0.338583 0.518344 0.809306
O O7 0.624558 0.596693 0.090415
O O8 0.013825 0.727821 0.030171
O O9 0.500000 0.500000 0.500000
O O10 0.182488 0.436622 0.255490
O O11 0.475170 0.885984 0.543947
O O12 0.388257 0.043321 0.845274
O O13 0.970196 0.022654 0.705181
O O14 0.594974 0.835703 0.219948
O O15 0.500000 0.000000 0.500000
#
# Coordination Sequence:
#
# PCOD9077969 Si02
#       7
#     2   2   2   2   2   2   2
#     4  11  20  37  63  92 123 161 207 264 312 363
#     4  10  23  44  62  90 128 167 210 256 313 379
#     4  12  25  42  63  94 128 166 211 263 319 367
#     4  10  18  35  56  96 124 154 211 255 300 370
#     4   9  15  31  55  85 123 151 202 253 292 354
#     4  10  23  44  63  88 125 166 216 258 309 375
#     4  10  20  37  62  93 124 161 209 253 305 375
#
# _framework density 24.738589000000001
#
# number of rings (size 3 to 8) (size 9 to 14) (size 15 to 20)
#    0.000    1.714    5.714    0.857    0.000    2.286 
#    0.000    0.714    0.000    1.714    0.000    0.000 
#    0.000    0.000    0.000    0.000    0.000    0.000 
#
# Total GULP energy -78132.632889 kJ/mol
# GULP energy per Si atom -5580.902349 kJ/mol
# Density = 2.468228 g / cm^3
# Si number density = 24.738589 Si / 1000 Ang^3
#
#
#
# Elastic Constant Matrix: (Units=GPa)
#
#
# Indices 1 2 3 4 5 6 
#
# 1 95.4262 9.3185 21.7994 -0.4205 -23.7741 -1.2823
# 2 9.3185 74.5345 26.4405 12.3816 -3.2167 16.2822
# 3 21.7994 26.4405 56.6569 13.0590 -11.4589 -0.1959
# 4 -0.4205 12.3816 13.0590 38.9054 -7.3547 -1.2387
# 5 -23.7741 -3.2167 -11.4589 -7.3547 39.1483 9.0626
# 6 -1.2823 16.2822 -0.1959 -1.2387 9.0626 46.7217
#
#
#
# Elastic Compliance Matrix: (Units=1/GPa)
#
#
# Indices 1 2 3 4 5 6 
#
# 1 0.013370 -0.000117 -0.004238 0.003022 0.007673 -0.001018
# 2 -0.000117 0.018116 -0.007641 -0.003401 0.000034 -0.006445
# 3 -0.004238 -0.007641 0.024593 -0.005327 0.002529 0.002018
# 4 0.003022 -0.003401 -0.005327 0.029647 0.005336 0.000997
# 5 0.007673 0.000034 0.002529 0.005336 0.033366 -0.006121
# 6 -0.001018 -0.006445 0.002018 0.000997 -0.006121 0.024844
#
#
# Mechanical properties :
#
#
# Convention : Reuss Voigt Hill
#
# Bulk Modulus (GPa) = 31.16473 37.97050 34.56761
# Shear Modulus (GPa) = 27.99189 36.22570 32.10879
#
# Velocity S-wave (km/s) = 3.36744 3.83082 3.60658
# Velocity P-wave (km/s) = 5.26730 5.91176 5.59881
#
# Compressibility (1/GPa) = 0.03208756
#
# Stress axis : x y z
#
# Youngs Moduli (GPa) = 74.79386 55.19921 40.66206
#
# Poissons Ratio (x) = 0.00643 0.17233
# Poissons Ratio (y) = 0.00872 0.31070
# Poissons Ratio (z) = 0.31699 0.42178
#
# Static dielectric constant tensor:
#      x y z
#    x 1.997850 0.037850 0.020160 
#    y 0.037850 2.036190 -0.041480 
#    z 0.020160 -0.041480 2.040260 
# 
# From -- ./inp_files/139398.got.cif
#   From: 2010.05.17/outbox.cif.g08.bks.cpg/sg2_70_cif.got.tgz:139398.got - 2010.06.03 11:33:40.
