data_PCOD9077640
_publ_section_title
;
Structure prediction by ZEFSAII (Michael W. Deem and Ramdas Pophale) SiO2 
 PCOD9077640
Probable space group: P -1
;
_chemical_formula_sum "Si O2"
_cell_formula_units_Z 15
_cell_length_a 10.024724
_cell_length_b 11.497381
_cell_length_c 17.626463
_cell_angle_alpha 141.742351
_cell_angle_beta 150.957589
_cell_angle_gamma 45.817637
_cell_volume 610.316262
_symmetry_space_group_name_H-M "P -1"
_symmetry_group_IT_number 2
_symmetry_cell_setting 'triclinic'
loop_
_space_group_symop_operation_xyz
x,y,z
-x,-y,-z
loop_
_atom_site_type_symbol
_atom_site_label
_atom_site_fract_x
_atom_site_fract_y
_atom_site_fract_z
Si Si1 0.843997 0.646844 0.594345
Si Si2 0.500000 0.500000 0.500000
Si Si3 0.240613 0.044569 0.542727
Si Si4 0.794086 0.053482 0.115631
Si Si5 0.669249 0.681693 0.926332
Si Si6 0.625808 0.593630 0.286731
Si Si7 0.390897 0.913497 0.715243
Si Si8 0.267038 0.615815 0.323456
O O1 0.711312 0.612755 0.428073
O O2 0.600994 0.600037 0.507576
O O3 0.942727 0.857814 0.745819
O O4 0.111349 0.517175 0.674681
O O5 0.527159 0.710874 0.664611
O O6 0.173947 0.572988 0.338574
O O7 0.399009 0.201176 0.655588
O O8 0.918584 0.100483 0.415033
O O9 0.360486 0.021805 0.675497
O O10 0.244157 0.832618 0.401932
O O11 0.637887 0.213029 0.172457
O O12 0.844296 0.864477 0.091877
O O13 0.577160 0.014998 0.921629
O O14 0.629997 0.546922 0.910819
O O15 0.764498 0.533932 0.833733
#
# Coordination Sequence:
#
# PCOD9077640 Si02
#       8
#     2   1   2   2   2   2   2   2
#     4   9  19  32  59  85 108 141 192 235 276 311
#     4  10  18  34  62  80 102 142 200 232 252 326
#     4  10  22  35  57  80 118 149 188 220 281 335
#     4  10  19  35  59  89 110 139 186 246 278 317
#     4   9  19  32  58  84 111 140 185 235 279 310
#     4   9  18  34  56  84 107 151 190 229 266 336
#     4  10  21  37  58  84 110 150 185 233 275 332
#     4  10  19  36  56  86 110 150 190 225 267 342
#
# _framework density 24.577421999999999
#
# number of rings (size 3 to 8) (size 9 to 14) (size 15 to 20)
#    0.000    2.400    1.333    1.600    7.467    2.133 
#    0.000    6.000    5.867    0.000    0.000    0.000 
#    0.000    0.000    0.000    0.000    0.000    0.000 
#
# Total GULP energy -83539.077448 kJ/mol
# GULP energy per Si atom -5569.271830 kJ/mol
# Density = 2.452148 g / cm^3
# Si number density = 24.577422 Si / 1000 Ang^3
#
#
#
# Elastic Constant Matrix: (Units=GPa)
#
#
# Indices 1 2 3 4 5 6 
#
# 1 99.3505 46.4939 42.1926 14.8773 3.9432 13.5807
# 2 46.4939 123.9194 62.3826 38.5393 7.4001 21.9700
# 3 42.1926 62.3826 95.2212 25.6489 2.1608 15.6783
# 4 14.8773 38.5393 25.6489 57.2564 6.5280 2.8411
# 5 3.9432 7.4001 2.1608 6.5280 35.8441 11.2018
# 6 13.5807 21.9700 15.6783 2.8411 11.2018 47.5491
#
#
#
# Elastic Compliance Matrix: (Units=1/GPa)
#
#
# Indices 1 2 3 4 5 6 
#
# 1 0.013164 -0.002899 -0.003838 0.000343 -0.000338 -0.001095
# 2 -0.002899 0.014864 -0.006159 -0.006302 -0.000103 -0.003608
# 3 -0.003838 -0.006159 0.017251 -0.002687 0.001769 -0.002002
# 4 0.000343 -0.006302 -0.002687 0.023094 -0.003784 0.003211
# 5 -0.000338 -0.000103 0.001769 -0.003784 0.030880 -0.007488
# 6 -0.001095 -0.003608 -0.002002 0.003211 -0.007488 0.025243
#
#
# Mechanical properties :
#
#
# Convention : Reuss Voigt Hill
#
# Bulk Modulus (GPa) = 51.31988 68.95883 60.13935
# Shear Modulus (GPa) = 31.89113 39.29137 35.59125
#
# Velocity S-wave (km/s) = 3.60610 4.00268 3.80956
# Velocity P-wave (km/s) = 6.18586 7.03425 6.62365
#
# Compressibility (1/GPa) = 0.01948563
#
# Stress axis : x y z
#
# Youngs Moduli (GPa) = 75.96563 67.27702 57.96770
#
# Poissons Ratio (x) = 0.19505 0.22247
# Poissons Ratio (y) = 0.22025 0.35705
# Poissons Ratio (z) = 0.29155 0.41438
#
# Static dielectric constant tensor:
#      x y z
#    x 2.059160 0.024700 0.005980 
#    y 0.024700 2.081750 -0.038560 
#    z 0.005980 -0.038560 2.035390 
# 
# From -- ./inp_files/252468.got.cif
#   From: 2010.05.17/outbox.cif.g08.bks.cpg/sg2_127_cif.got.tgz:252468.got - 2010.06.03 11:33:40.
