data_PCOD9077407
_publ_section_title
;
Structure prediction by ZEFSAII (Michael W. Deem and Ramdas Pophale) SiO2 
 PCOD9077407
Probable space group: P -1
;
_chemical_formula_sum "Si O2"
_cell_formula_units_Z 16
_cell_length_a 10.480633
_cell_length_b 10.216529
_cell_length_c 13.111708
_cell_angle_alpha 148.844158
_cell_angle_beta 124.329007
_cell_angle_gamma 53.455834
_cell_volume 578.535858
_symmetry_space_group_name_H-M "P -1"
_symmetry_group_IT_number 2
_symmetry_cell_setting 'triclinic'
loop_
_space_group_symop_operation_xyz
x,y,z
-x,-y,-z
loop_
_atom_site_type_symbol
_atom_site_label
_atom_site_fract_x
_atom_site_fract_y
_atom_site_fract_z
Si Si1 0.874780 0.228630 0.413201
Si Si2 0.774260 0.331168 0.649482
Si Si3 0.743743 0.490578 0.129948
Si Si4 0.760129 0.553872 0.400438
Si Si5 0.527965 0.020959 0.349617
Si Si6 0.183474 0.969988 0.024709
Si Si7 0.034966 0.319217 0.012100
Si Si8 0.488963 0.813186 0.777677
O O1 0.900145 0.242982 0.554605
O O2 0.867315 0.477708 0.500253
O O3 0.690375 0.211636 0.323739
O O4 0.970701 0.953113 0.224810
O O5 0.695342 0.105348 0.499554
O O6 0.866049 0.495043 0.871451
O O7 0.611366 0.538393 0.675358
O O8 0.815721 0.586077 0.331355
O O9 0.863559 0.471343 0.078422
O O10 0.582780 0.713630 0.191133
O O11 0.735170 0.188877 0.943556
O O12 0.607419 0.785537 0.514319
O O13 0.734798 0.267001 0.174323
O O14 0.475315 0.080596 0.246541
O O15 0.148197 0.215404 0.095998
O O16 0.000000 0.000000 0.000000
O O17 0.500000 0.000000 0.000000
#
# Coordination Sequence:
#
# PCOD9077407 Si02
#       8
#     2   2   2   2   2   2   2   2
#     4  10  18  34  59  87 109 147 199 243 282 328
#     4  11  21  34  58  89 112 145 199 242 287 339
#     4   9  20  34  59  84 118 160 181 227 299 343
#     4   9  16  31  58  83 112 149 189 232 284 341
#     4  11  20  35  57  90 118 145 192 238 291 354
#     4   7  15  31  54  81 110 152 190 219 275 333
#     4  10  19  36  60  84 116 154 193 238 279 341
#     4  11  20  35  58  84 111 150 196 247 286 329
#
# _framework density 27.656019000000001
#
# number of rings (size 3 to 8) (size 9 to 14) (size 15 to 20)
#    0.750    1.500    3.750    1.125    0.000    0.500 
#    0.000    3.125    2.750    3.000    0.000    0.000 
#    0.000    0.000    0.000    0.000    0.000    0.000 
#
# Total GULP energy -89246.942095 kJ/mol
# GULP energy per Si atom -5577.933881 kJ/mol
# Density = 2.759307 g / cm^3
# Si number density = 27.656019 Si / 1000 Ang^3
#
#
#
# Elastic Constant Matrix: (Units=GPa)
#
#
# Indices 1 2 3 4 5 6 
#
# 1 86.7202 27.0469 53.5387 13.8325 -33.1975 9.1971
# 2 27.0469 108.9064 26.9856 30.8840 -12.0652 -7.0200
# 3 53.5387 26.9856 128.6734 12.7169 -35.4311 -8.2183
# 4 13.8325 30.8840 12.7169 52.3402 1.5163 -4.8308
# 5 -33.1975 -12.0652 -35.4311 1.5163 55.3246 4.5006
# 6 9.1971 -7.0200 -8.2183 -4.8308 4.5006 45.9050
#
#
#
# Elastic Compliance Matrix: (Units=1/GPa)
#
#
# Indices 1 2 3 4 5 6 
#
# 1 0.020310 -0.002066 -0.005675 -0.003636 0.008742 -0.006641
# 2 -0.002066 0.011799 -0.000651 -0.006161 0.000975 0.001358
# 3 -0.005675 -0.000651 0.011516 -0.000774 0.003633 0.002662
# 4 -0.003636 -0.006161 -0.000774 0.024280 -0.004904 0.002684
# 5 0.008742 0.000975 0.003633 -0.004904 0.026324 -0.004049
# 6 -0.006641 0.001358 0.002662 0.002684 -0.004049 0.024478
#
#
# Mechanical properties :
#
#
# Convention : Reuss Voigt Hill
#
# Bulk Modulus (GPa) = 37.25596 59.93805 48.59701
# Shear Modulus (GPa) = 34.61684 45.16256 39.88970
#
# Velocity S-wave (km/s) = 3.54177 4.04544 3.80195
# Velocity P-wave (km/s) = 5.49781 6.59852 6.07315
#
# Compressibility (1/GPa) = 0.02684134
#
# Stress axis : x y z
#
# Youngs Moduli (GPa) = 49.23655 84.75061 86.83487
#
# Poissons Ratio (x) = 0.17513 0.49279
# Poissons Ratio (y) = 0.10174 0.05650
# Poissons Ratio (z) = 0.27942 0.05515
#
# Static dielectric constant tensor:
#      x y z
#    x 2.262100 0.066410 0.121230 
#    y 0.066410 2.318530 -0.151910 
#    z 0.121230 -0.151910 2.265130 
# 
# From -- ./inp_files/519403.got.cif
#   From: 2010.05.17/outbox.cif.g08.bks.cpg/sg2_260_cif.got.tgz:519403.got - 2010.06.03 11:33:40.
