data_PCOD9077981
_publ_section_title
;
Structure prediction by ZEFSAII (Michael W. Deem and Ramdas Pophale) SiO2 
 PCOD9077981
Probable space group: P -1
;
_chemical_formula_sum "Si O2"
_cell_formula_units_Z 14
_cell_length_a 12.304511
_cell_length_b 11.638253
_cell_length_c 12.909547
_cell_angle_alpha 90.955835
_cell_angle_beta 23.505684
_cell_angle_gamma 79.197445
_cell_volume 634.863303
_symmetry_space_group_name_H-M "P -1"
_symmetry_group_IT_number 2
_symmetry_cell_setting 'triclinic'
loop_
_space_group_symop_operation_xyz
x,y,z
-x,-y,-z
loop_
_atom_site_type_symbol
_atom_site_label
_atom_site_fract_x
_atom_site_fract_y
_atom_site_fract_z
Si Si1 0.311304 0.866560 0.807176
Si Si2 0.485130 0.784369 0.211956
Si Si3 0.552857 0.589486 0.536435
Si Si4 0.132409 0.238165 0.532574
Si Si5 0.291834 0.006513 0.537285
Si Si6 0.199296 0.145566 0.245702
Si Si7 0.239770 0.524015 0.992205
O O1 0.326247 0.749205 0.723978
O O2 0.536199 0.788636 0.708920
O O3 0.489446 0.938910 0.608660
O O4 0.976335 0.970737 0.147992
O O5 0.597197 0.630528 0.126238
O O6 0.119281 0.856713 0.497848
O O7 0.484147 0.860654 0.318302
O O8 0.706006 0.797583 0.934315
O O9 0.500000 0.500000 0.500000
O O10 0.461902 0.550534 0.724177
O O11 0.908929 0.562410 0.224708
O O12 0.124075 0.111870 0.588905
O O13 0.139916 0.229843 0.403433
O O14 0.864346 0.376235 0.817661
O O15 0.500000 0.000000 0.000000
#
# Coordination Sequence:
#
# PCOD9077981 Si02
#       7
#     2   2   2   2   2   2   2
#     4   9  18  34  58  86 106 147 198 234 281 340
#     4  12  25  37  57  89 124 159 191 256 295 324
#     4  11  21  40  69  91 111 148 197 243 288 373
#     4   9  21  34  59  78 117 159 201 235 273 342
#     4  10  18  35  57  80 110 163 193 230 279 343
#     4  12  23  36  59  86 118 161 220 237 267 339
#     4  11  24  41  59  91 124 149 188 244 317 346
#
# _framework density 22.051991000000001
#
# number of rings (size 3 to 8) (size 9 to 14) (size 15 to 20)
#    0.857    0.571    2.857    3.429    2.000    1.143 
#    0.000    0.000    0.000    5.143    0.000    0.000 
#    0.000    0.000    0.000    0.000    0.000    0.000 
#
# Total GULP energy -78226.845503 kJ/mol
# GULP energy per Si atom -5587.631822 kJ/mol
# Density = 2.200180 g / cm^3
# Si number density = 22.051991 Si / 1000 Ang^3
#
#
#
# Elastic Constant Matrix: (Units=GPa)
#
#
# Indices 1 2 3 4 5 6 
#
# 1 29.4768 13.3832 1.8886 14.1108 6.4806 19.3164
# 2 13.3832 110.1006 20.8792 23.0216 21.0418 13.3996
# 3 1.8886 20.8792 65.5721 4.8926 18.7900 4.5914
# 4 14.1108 23.0216 4.8926 49.8296 8.3204 3.1261
# 5 6.4806 21.0418 18.7900 8.3204 23.3706 5.9876
# 6 19.3164 13.3996 4.5914 3.1261 5.9876 31.0995
#
#
#
# Elastic Compliance Matrix: (Units=1/GPa)
#
#
# Indices 1 2 3 4 5 6 
#
# 1 0.069946 0.000531 0.003783 -0.016770 -0.006358 -0.041322
# 2 0.000531 0.011967 -0.001064 -0.004067 -0.007739 -0.003430
# 3 0.003783 -0.001064 0.020148 0.000211 -0.015897 -0.001826
# 4 -0.016770 -0.004067 0.000211 0.026699 -0.003981 0.010220
# 5 -0.006358 -0.007739 -0.015897 -0.003981 0.066425 -0.002758
# 6 -0.041322 -0.003430 -0.001826 0.010220 -0.002758 0.059071
#
#
# Mechanical properties :
#
#
# Convention : Reuss Voigt Hill
#
# Bulk Modulus (GPa) = 9.21151 30.82796 20.01973
# Shear Modulus (GPa) = 17.60913 32.12651 24.86782
#
# Velocity S-wave (km/s) = 2.82889 3.82102 3.36175
# Velocity P-wave (km/s) = 3.85440 5.78592 4.91596
#
# Compressibility (1/GPa) = 0.10855982
#
# Stress axis : x y z
#
# Youngs Moduli (GPa) = 14.29676 83.56440 49.63326
#
# Poissons Ratio (x) = -0.04438 -0.18776
# Poissons Ratio (y) = -0.00759 0.05283
# Poissons Ratio (z) = -0.05408 0.08895
#
# Static dielectric constant tensor:
#      x y z
#    x 1.858080 -0.015810 -0.016970 
#    y -0.015810 1.810570 0.019850 
#    z -0.016970 0.019850 1.780430 
# 
# From -- ./inp_files/530606.got.cif
#   From: 2010.05.17/outbox.cif.g08.bks.cpg/sg2_266_cif.got.tgz:530606.got - 2010.06.03 11:33:40.
