data_PCOD9077538
_publ_section_title
;
Structure prediction by ZEFSAII (Michael W. Deem and Ramdas Pophale) SiO2 
 PCOD9077538
Probable space group: P -1
;
_chemical_formula_sum "Si O2"
_cell_formula_units_Z 16
_cell_length_a 14.870044
_cell_length_b 18.125312
_cell_length_c 25.010031
_cell_angle_alpha 160.820080
_cell_angle_beta 17.840576
_cell_angle_gamma 156.052216
_cell_volume 671.067548
_symmetry_space_group_name_H-M "P -1"
_symmetry_group_IT_number 2
_symmetry_cell_setting 'triclinic'
loop_
_space_group_symop_operation_xyz
x,y,z
-x,-y,-z
loop_
_atom_site_type_symbol
_atom_site_label
_atom_site_fract_x
_atom_site_fract_y
_atom_site_fract_z
Si Si1 0.442968 0.210739 0.398608
Si Si2 0.071262 0.770261 0.481534
Si Si3 0.380447 0.500980 0.196543
Si Si4 0.792980 0.960715 0.957077
Si Si5 0.580933 0.163498 0.496946
Si Si6 0.646051 0.599604 0.312668
Si Si7 0.267311 0.863310 0.103754
Si Si8 0.854889 0.277297 0.718319
O O1 0.494258 0.372971 0.531494
O O2 0.188014 0.292189 0.562245
O O3 0.310796 0.964404 0.330202
O O4 0.721318 0.169940 0.177011
O O5 0.118333 0.560415 0.347717
O O6 0.142997 0.724882 0.348295
O O7 0.318716 0.961250 0.497662
O O8 0.792324 0.905136 0.731538
O O9 0.274065 0.263118 0.122008
O O10 0.447966 0.682802 0.330113
O O11 0.672144 0.466768 0.974498
O O12 0.123128 0.950691 0.744415
O O13 0.551030 0.922289 0.020917
O O14 0.551178 0.320355 0.568937
O O15 0.969106 0.763910 0.239079
O O16 0.705792 0.347115 0.093793
#
# Coordination Sequence:
#
# PCOD9077538 Si02
#       8
#     2   2   2   2   2   2   2   2
#     4  10  18  34  60  90 113 155 204 245 287 338
#     4  11  22  41  60  91 120 155 201 243 294 351
#     4  11  23  37  62  90 121 159 191 245 304 348
#     4  11  22  39  63  87 123 155 199 243 296 350
#     4  11  23  39  59  90 126 154 194 248 295 352
#     4  10  19  33  59  89 116 148 209 245 277 338
#     4  10  19  35  61  84 117 156 198 248 276 351
#     4  10  19  35  62  90 114 153 205 248 279 351
#
# _framework density 23.842607000000001
#
# number of rings (size 3 to 8) (size 9 to 14) (size 15 to 20)
#    0.000    1.500    5.000    2.625    3.500    0.500 
#    0.000    0.625    0.000    0.750    0.000    0.000 
#    0.000    0.000    0.000    0.000    0.000    0.000 
#
# Total GULP energy -89598.053745 kJ/mol
# GULP energy per Si atom -5599.878359 kJ/mol
# Density = 2.378834 g / cm^3
# Si number density = 23.842607 Si / 1000 Ang^3
#
#
#
# Elastic Constant Matrix: (Units=GPa)
#
#
# Indices 1 2 3 4 5 6 
#
# 1 176.5858 33.8159 87.1161 -5.2790 -1.3508 41.1864
# 2 33.8159 41.7802 39.0551 -13.4813 -0.8156 3.0083
# 3 87.1161 39.0551 190.7374 -1.2186 5.7593 33.4675
# 4 -5.2790 -13.4813 -1.2186 28.9533 5.6975 -9.5388
# 5 -1.3508 -0.8156 5.7593 5.6975 64.5808 12.0024
# 6 41.1864 3.0083 33.4675 -9.5388 12.0024 28.6936
#
#
#
# Elastic Compliance Matrix: (Units=1/GPa)
#
#
# Indices 1 2 3 4 5 6 
#
# 1 0.013971 -0.015157 0.001267 -0.014793 0.006412 -0.027542
# 2 -0.015157 0.058480 -0.013205 0.042634 -0.011453 0.049991
# 3 0.001267 -0.013205 0.010325 -0.012021 0.003319 -0.017861
# 4 -0.014793 0.042634 -0.012021 0.075273 -0.017036 0.062933
# 5 0.006412 -0.011453 0.003319 -0.017036 0.021621 -0.026581
# 6 -0.027542 0.049991 -0.017861 0.062933 -0.026581 0.122016
#
#
# Mechanical properties :
#
#
# Convention : Reuss Voigt Hill
#
# Bulk Modulus (GPa) = 34.98215 81.00861 57.99538
# Shear Modulus (GPa) = 13.68346 41.05328 27.36837
#
# Velocity S-wave (km/s) = 2.39824 4.15401 3.39171
# Velocity P-wave (km/s) = 4.72998 7.55367 6.30201
#
# Compressibility (1/GPa) = 0.02858601
#
# Stress axis : x y z
#
# Youngs Moduli (GPa) = 71.57583 17.09991 96.85303
#
# Poissons Ratio (x) = 0.25919 -0.12271
# Poissons Ratio (y) = 1.08489 1.27892
# Poissons Ratio (z) = -0.09069 0.22580
#
# Static dielectric constant tensor:
#      x y z
#    x 1.861430 -0.046310 -0.000480 
#    y -0.046310 1.966520 -0.006240 
#    z -0.000480 -0.006240 1.920940 
# 
# From -- ./inp_files/619856.got.cif
#   From: 2010.05.17/outbox.cif.g08.bks.cpg/sg2_310_cif.got.tgz:619856.got - 2010.06.03 11:33:40.
