data_PCOD9077039
_publ_section_title
;
Structure prediction by ZEFSAII (Michael W. Deem and Ramdas Pophale) SiO2 
 PCOD9077039
Probable space group: P -1
;
_chemical_formula_sum "Si O2"
_cell_formula_units_Z 14
_cell_length_a 9.048427
_cell_length_b 25.354227
_cell_length_c 5.265157
_cell_angle_alpha 99.974678
_cell_angle_beta 90.077264
_cell_angle_gamma 31.026952
_cell_volume 586.894713
_symmetry_space_group_name_H-M "P -1"
_symmetry_group_IT_number 2
_symmetry_cell_setting 'triclinic'
loop_
_space_group_symop_operation_xyz
x,y,z
-x,-y,-z
loop_
_atom_site_type_symbol
_atom_site_label
_atom_site_fract_x
_atom_site_fract_y
_atom_site_fract_z
Si Si1 0.981932 0.376852 0.469830
Si Si2 0.397444 0.578135 0.869628
Si Si3 0.278925 0.940922 0.118238
Si Si4 0.550190 0.027150 0.240449
Si Si5 0.590997 0.222984 0.125017
Si Si6 0.862495 0.770285 0.313035
Si Si7 0.912978 0.138264 0.551184
O O1 0.705728 0.499498 0.676589
O O2 0.816143 0.385333 0.298832
O O3 0.242481 0.326813 0.287831
O O4 0.120772 0.294643 0.619794
O O5 0.500000 0.500000 0.000000
O O6 0.178392 0.685236 0.115554
O O7 0.596290 0.852803 0.179645
O O8 0.272655 0.980851 0.906251
O O9 0.301423 0.873034 0.975791
O O10 0.029522 0.041509 0.396554
O O11 0.244071 0.152850 0.421286
O O12 0.774869 0.937637 0.392156
O O13 0.500000 0.000000 0.000000
O O14 0.761569 0.200946 0.333936
O O15 0.672821 0.218558 0.842600
#
# Coordination Sequence:
#
# PCOD9077039 Si02
#       7
#     2   2   2   2   2   2   2
#     4  10  19  31  52  81 119 147 181 232 284 358
#     4   9  18  31  49  80 115 147 186 223 288 349
#     4  11  21  36  55  83 116 153 192 231 289 342
#     4  11  24  40  56  80 114 157 204 240 274 330
#     4  12  21  35  57  84 119 152 183 232 294 350
#     4  10  18  34  55  78 113 153 190 234 284 333
#     4  11  25  35  56  82 115 156 191 232 286 345
#
# _framework density 23.854361999999998
#
# number of rings (size 3 to 8) (size 9 to 14) (size 15 to 20)
#    0.000    1.429    4.286    1.714    4.000    2.286 
#    0.000    0.000    0.000    0.000    0.000    2.000 
#    0.000    0.143    0.000    0.000    0.000    0.000 
#
# Total GULP energy -78194.198381 kJ/mol
# GULP energy per Si atom -5585.299884 kJ/mol
# Density = 2.380007 g / cm^3
# Si number density = 23.854362 Si / 1000 Ang^3
#
#
#
# Elastic Constant Matrix: (Units=GPa)
#
#
# Indices 1 2 3 4 5 6 
#
# 1 21.4638 7.4553 12.2511 8.8696 6.8466 -14.3962
# 2 7.4553 101.4110 65.7180 24.7188 -5.1309 -31.6208
# 3 12.2511 65.7180 177.0550 38.1998 0.2103 -25.8883
# 4 8.8696 24.7188 38.1998 64.6819 -12.8852 -15.7650
# 5 6.8466 -5.1309 0.2103 -12.8852 34.0705 -3.5746
# 6 -14.3962 -31.6208 -25.8883 -15.7650 -3.5746 26.8024
#
#
#
# Elastic Compliance Matrix: (Units=1/GPa)
#
#
# Indices 1 2 3 4 5 6 
#
# 1 0.085317 0.012286 -0.001490 -0.004386 -0.011194 0.054809
# 2 0.012286 0.020434 -0.004599 0.000559 0.003690 0.027085
# 3 -0.001490 -0.004599 0.008087 -0.003309 -0.001757 -0.000596
# 4 -0.004386 0.000559 -0.003309 0.022198 0.010383 0.009549
# 5 -0.011194 0.003690 -0.001757 0.010383 0.036898 0.007672
# 6 0.054809 0.027085 -0.000596 0.009549 0.007672 0.104767
#
#
# Mechanical properties :
#
#
# Convention : Reuss Voigt Hill
#
# Bulk Modulus (GPa) = 7.92198 52.30874 30.11536
# Shear Modulus (GPa) = 16.26617 39.41132 27.83875
#
# Velocity S-wave (km/s) = 2.61414 4.06909 3.41989
# Velocity P-wave (km/s) = 3.52702 6.63722 5.31472
#
# Compressibility (1/GPa) = 0.12623111
#
# Stress axis : x y z
#
# Youngs Moduli (GPa) = 11.72097 48.93811 123.65283
#
# Poissons Ratio (x) = -0.60126 0.18427
# Poissons Ratio (y) = -0.14400 0.56873
# Poissons Ratio (z) = 0.01747 0.22508
#
# Static dielectric constant tensor:
#      x y z
#    x 1.938860 -0.049100 -0.042280 
#    y -0.049100 2.009550 -0.049640 
#    z -0.042280 -0.049640 2.022270 
# 
# From -- ./inp_files/56971.got.cif
#   From: 2010.05.17/outbox.cif.g08.bks.cpg/sg2_29_cif.got.tgz:56971.got - 2010.06.03 11:33:40.
