data_PCOD9077091
_publ_section_title
;
Structure prediction by ZEFSAII (Michael W. Deem and Ramdas Pophale) SiO2 
 PCOD9077091
Probable space group: P -1
;
_chemical_formula_sum "Si O2"
_cell_formula_units_Z 16
_cell_length_a 8.839260
_cell_length_b 17.572021
_cell_length_c 6.504116
_cell_angle_alpha 124.602832
_cell_angle_beta 109.789712
_cell_angle_gamma 92.138103
_cell_volume 747.265873
_symmetry_space_group_name_H-M "P -1"
_symmetry_group_IT_number 2
_symmetry_cell_setting 'triclinic'
loop_
_space_group_symop_operation_xyz
x,y,z
-x,-y,-z
loop_
_atom_site_type_symbol
_atom_site_label
_atom_site_fract_x
_atom_site_fract_y
_atom_site_fract_z
Si Si1 0.619337 0.933211 0.404836
Si Si2 0.809664 0.541513 0.328591
Si Si3 0.136713 0.028377 0.786494
Si Si4 0.696708 0.233598 0.988867
Si Si5 0.280040 0.408231 0.040065
Si Si6 0.951023 0.372072 0.062578
Si Si7 0.398393 0.597557 0.634156
Si Si8 0.887307 0.085566 0.008624
O O1 0.689364 0.938059 0.210400
O O2 0.500000 0.000000 0.500000
O O3 0.775107 0.982954 0.700547
O O4 0.495994 0.827978 0.234420
O O5 0.901054 0.470181 0.150985
O O6 0.676696 0.470195 0.307833
O O7 0.946773 0.610170 0.646189
O O8 0.721788 0.594552 0.210072
O O9 0.070133 0.101281 0.012145
O O10 0.000000 0.000000 0.500000
O O11 0.123773 0.937192 0.789719
O O12 0.788188 0.283736 0.900575
O O13 0.686612 0.317587 0.270491
O O14 0.801251 0.165984 0.025238
O O15 0.344573 0.522501 0.308533
O O16 0.403798 0.365782 0.166633
O O17 0.087168 0.361992 0.947342
#
# Coordination Sequence:
#
# PCOD9077091 Si02
#       8
#     2   2   2   2   2   2   2   2
#     4   9  19  35  56  80 111 142 174 217 270 324
#     4   9  17  34  53  72 102 138 175 218 268 315
#     4   9  18  37  61  81 102 140 184 217 265 331
#     4  10  20  36  51  78 113 136 176 229 266 310
#     4  10  18  34  56  74 103 146 179 212 273 322
#     4   9  19  32  50  76 104 134 177 221 256 316
#     4   9  20  34  52  78 105 135 179 227 263 318
#     4   9  19  37  60  80 106 145 180 220 273 321
#
# _framework density 21.411387000000001
#
# number of rings (size 3 to 8) (size 9 to 14) (size 15 to 20)
#    0.000    2.750    0.000    1.500    0.000    3.000 
#    0.000   18.750    0.000    0.000    0.000    0.000 
#    0.000    0.000    0.000    0.000    0.000    0.000 
#
# Total GULP energy -89121.076961 kJ/mol
# GULP energy per Si atom -5570.067310 kJ/mol
# Density = 2.136265 g / cm^3
# Si number density = 21.411387 Si / 1000 Ang^3
#
#
#
# Elastic Constant Matrix: (Units=GPa)
#
#
# Indices 1 2 3 4 5 6 
#
# 1 97.7928 18.9896 9.1068 6.1557 -10.6935 16.1175
# 2 18.9896 62.3659 25.8588 3.1299 -3.3772 5.1011
# 3 9.1068 25.8588 37.1248 -16.6068 -2.8759 -1.2392
# 4 6.1557 3.1299 -16.6068 26.9071 -3.9821 -0.4211
# 5 -10.6935 -3.3772 -2.8759 -3.9821 14.8458 -0.3084
# 6 16.1175 5.1011 -1.2392 -0.4211 -0.3084 41.2502
#
#
#
# Elastic Compliance Matrix: (Units=1/GPa)
#
#
# Indices 1 2 3 4 5 6 
#
# 1 0.012634 -0.001438 -0.003471 -0.003913 0.006950 -0.004851
# 2 -0.001438 0.031792 -0.033893 -0.025440 -0.007291 -0.004702
# 3 -0.003471 -0.033893 0.078425 0.056272 0.020255 0.008630
# 4 -0.003913 -0.025440 0.056272 0.079378 0.023740 0.007353
# 5 0.006950 -0.007291 0.020255 0.023740 0.080991 -0.000358
# 6 -0.004851 -0.004702 0.008630 0.007353 -0.000358 0.027051
#
#
# Mechanical properties :
#
#
# Convention : Reuss Voigt Hill
#
# Bulk Modulus (GPa) = 22.10168 33.91041 28.00605
# Shear Modulus (GPa) = 12.40823 26.15584 19.28203
#
# Velocity S-wave (km/s) = 2.40992 3.49891 3.00417
# Velocity P-wave (km/s) = 4.25305 5.67407 5.01416
#
# Compressibility (1/GPa) = 0.04524542
#
# Stress axis : x y z
#
# Youngs Moduli (GPa) = 79.15155 31.45444 12.75107
#
# Poissons Ratio (x) = 0.04524 0.04426
# Poissons Ratio (y) = 0.11383 0.43218
# Poissons Ratio (z) = 0.27475 1.06610
#
# Static dielectric constant tensor:
#      x y z
#    x 1.893660 0.018160 0.009810 
#    y 0.018160 1.785630 0.026310 
#    z 0.009810 0.026310 1.826850 
# 
# From -- ./inp_files/48644.got.cif
#   From: 2010.05.17/outbox.cif.g08.bks.cpg/sg2_25_cif.got.tgz:48644.got - 2010.06.03 11:33:40.
