data_PCOD9077365
_publ_section_title
;
Structure prediction by ZEFSAII (Michael W. Deem and Ramdas Pophale) SiO2 
 PCOD9077365
Probable space group: P -1
;
_chemical_formula_sum "Si O2"
_cell_formula_units_Z 16
_cell_length_a 11.657502
_cell_length_b 16.276786
_cell_length_c 8.208834
_cell_angle_alpha 50.057289
_cell_angle_beta 69.068767
_cell_angle_gamma 33.326147
_cell_volume 593.760130
_symmetry_space_group_name_H-M "P -1"
_symmetry_group_IT_number 2
_symmetry_cell_setting 'triclinic'
loop_
_space_group_symop_operation_xyz
x,y,z
-x,-y,-z
loop_
_atom_site_type_symbol
_atom_site_label
_atom_site_fract_x
_atom_site_fract_y
_atom_site_fract_z
Si Si1 0.602845 0.723840 0.193832
Si Si2 0.455800 0.239421 0.464749
Si Si3 0.390396 0.501752 0.687494
Si Si4 0.133406 0.839894 0.995994
Si Si5 0.167220 0.228255 0.098189
Si Si6 0.099005 0.196056 0.824236
Si Si7 0.245196 0.226574 0.397807
Si Si8 0.707695 0.280421 0.259591
O O1 0.676383 0.666427 0.417360
O O2 0.674105 0.560850 0.283827
O O3 0.712102 0.748071 0.031214
O O4 0.326941 0.950174 0.037373
O O5 0.290406 0.318277 0.303114
O O6 0.590143 0.252082 0.379598
O O7 0.649496 0.003919 0.680249
O O8 0.500000 0.500000 0.500000
O O9 0.610606 0.304070 0.934559
O O10 0.235718 0.689362 0.647359
O O11 0.105764 0.736091 0.189043
O O12 0.087627 0.879196 0.774959
O O13 0.000000 0.000000 0.000000
O O14 0.085017 0.310741 0.219873
O O15 0.051995 0.281162 0.917389
O O16 0.163997 0.227758 0.603535
O O17 0.500000 0.000000 0.500000
O O18 0.500000 0.500000 0.000000
#
# Coordination Sequence:
#
# PCOD9077365 Si02
#       8
#     2   2   2   2   2   2   2   2
#     4  11  18  36  64  95 130 165 220 279 323 393
#     4  10  18  34  58  93 127 159 230 269 321 381
#     4  11  23  43  64  94 131 183 223 257 332 426
#     4  11  25  41  66  94 135 176 217 288 339 374
#     4  10  21  33  60  98 127 167 215 285 330 376
#     4  11  20  40  57  98 137 154 215 290 338 372
#     4  10  19  30  58  92 130 165 209 273 341 380
#     4  10  24  40  61  91 131 183 217 255 332 418
#
# _framework density 26.946906999999999
#
# number of rings (size 3 to 8) (size 9 to 14) (size 15 to 20)
#    0.000    1.500    6.250    0.750    7.000    0.000 
#    2.250    3.125    0.000    7.500    0.000    0.000 
#    0.000    0.000    0.000    0.000    0.000    0.000 
#
# Total GULP energy -89460.049223 kJ/mol
# GULP energy per Si atom -5591.253076 kJ/mol
# Density = 2.688557 g / cm^3
# Si number density = 26.946907 Si / 1000 Ang^3
#
#
#
# Elastic Constant Matrix: (Units=GPa)
#
#
# Indices 1 2 3 4 5 6 
#
# 1 149.8759 59.4712 47.3392 -4.1313 -17.1439 57.8397
# 2 59.4712 183.7582 42.2174 5.9458 -3.5318 50.9471
# 3 47.3392 42.2174 104.6544 7.3711 -14.6330 28.0540
# 4 -4.1313 5.9458 7.3711 40.3332 10.0555 0.9257
# 5 -17.1439 -3.5318 -14.6330 10.0555 56.4746 -4.4338
# 6 57.8397 50.9471 28.0540 0.9257 -4.4338 59.6418
#
#
#
# Elastic Compliance Matrix: (Units=1/GPa)
#
#
# Indices 1 2 3 4 5 6 
#
# 1 0.011549 -0.000589 -0.002276 0.001436 0.001877 -0.009509
# 2 -0.000589 0.007373 -0.001335 -0.000701 -0.000340 -0.005114
# 3 -0.002276 -0.001335 0.012302 -0.002923 0.002762 -0.002188
# 4 0.001436 -0.000701 -0.002923 0.026871 -0.005167 -0.000220
# 5 0.001877 -0.000340 0.002762 -0.005167 0.019791 -0.001277
# 6 -0.009509 -0.005114 -0.002188 -0.000220 -0.001277 0.031294
#
#
# Mechanical properties :
#
#
# Convention : Reuss Voigt Hill
#
# Bulk Modulus (GPa) = 43.81469 81.81598 62.81533
# Shear Modulus (GPa) = 39.93973 50.57397 45.25685
#
# Velocity S-wave (km/s) = 3.85406 4.33691 4.10259
# Velocity P-wave (km/s) = 6.00833 7.45025 6.76780
#
# Compressibility (1/GPa) = 0.02282340
#
# Stress axis : x y z
#
# Youngs Moduli (GPa) = 86.58999 135.62677 81.28732
#
# Poissons Ratio (x) = 0.07984 0.18502
# Poissons Ratio (y) = 0.05097 0.10856
# Poissons Ratio (z) = 0.19709 0.18113
#
# Static dielectric constant tensor:
#      x y z
#    x 2.165020 0.042910 0.147430 
#    y 0.042910 2.197930 -0.038980 
#    z 0.147430 -0.038980 2.241080 
# 
# From -- ./inp_files/271401.got.cif
#   From: 2010.05.17/outbox.cif.g08.bks.cpg/sg2_136_cif.got.tgz:271401.got - 2010.06.03 11:33:40.
