data_PCOD9078946
_publ_section_title
;
Structure prediction by ZEFSAII (Michael W. Deem and Ramdas Pophale) SiO2 
 PCOD9078946
Probable space group: P -1
;
_chemical_formula_sum "Si O2"
_cell_formula_units_Z 15
_cell_length_a 9.460907
_cell_length_b 10.466643
_cell_length_c 8.664124
_cell_angle_alpha 105.704022
_cell_angle_beta 121.045013
_cell_angle_gamma 53.579575
_cell_volume 590.707797
_symmetry_space_group_name_H-M "P -1"
_symmetry_group_IT_number 2
_symmetry_cell_setting 'triclinic'
loop_
_space_group_symop_operation_xyz
x,y,z
-x,-y,-z
loop_
_atom_site_type_symbol
_atom_site_label
_atom_site_fract_x
_atom_site_fract_y
_atom_site_fract_z
Si Si1 0.937460 0.711449 0.727264
Si Si2 0.724666 0.413878 0.903591
Si Si3 0.500000 0.000000 0.500000
Si Si4 0.330223 0.112900 0.820703
Si Si5 0.846693 0.184207 0.301900
Si Si6 0.738893 0.105590 0.505480
Si Si7 0.492623 0.707794 0.097599
Si Si8 0.943967 0.440309 0.796499
O O1 0.722893 0.868730 0.643346
O O2 0.069412 0.707270 0.657857
O O3 0.920896 0.560696 0.690889
O O4 0.060361 0.714978 0.944612
O O5 0.573812 0.361128 0.827910
O O6 0.753996 0.447114 0.756737
O O7 0.000000 0.500000 0.000000
O O8 0.574717 0.124629 0.534522
O O9 0.277974 0.008519 0.662351
O O10 0.425666 0.182578 0.785167
O O11 0.128716 0.263212 0.816791
O O12 0.500000 0.000000 0.000000
O O13 0.039256 0.004604 0.340864
O O14 0.744412 0.223866 0.425158
O O15 0.694657 0.203001 0.093173
O O16 0.648992 0.562893 0.026388
#
# Coordination Sequence:
#
# PCOD9078946 Si02
#       8
#     2   2   1   2   2   2   2   2
#     4   9  18  34  58  87 115 155 212 239 287 370
#     4   9  19  33  62  86 119 159 203 246 298 375
#     4  10  22  36  58  86 116 172 202 238 298 376
#     4  12  23  36  61  99 122 155 206 267 304 349
#     4   9  19  37  57  85 118 170 195 244 305 379
#     4  10  22  38  58  86 126 163 205 249 304 363
#     4  10  18  36  60  93 117 157 208 246 309 360
#     4  10  20  37  60  91 125 159 197 257 312 364
#
# _framework density 25.393267999999999
#
# number of rings (size 3 to 8) (size 9 to 14) (size 15 to 20)
#    0.000    2.133    4.000    0.000    5.600    0.000 
#    0.000    7.333    0.000    0.800    0.000    0.000 
#    0.000    0.000    0.000    0.000    0.000    0.000 
#
# Total GULP energy -83570.756538 kJ/mol
# GULP energy per Si atom -5571.383769 kJ/mol
# Density = 2.533547 g / cm^3
# Si number density = 25.393268 Si / 1000 Ang^3
#
#
#
# Elastic Constant Matrix: (Units=GPa)
#
#
# Indices 1 2 3 4 5 6 
#
# 1 238.3544 50.4773 17.3934 -16.2396 -15.3205 47.3302
# 2 50.4773 77.2264 21.3642 -7.8565 -6.6549 10.0555
# 3 17.3934 21.3642 38.0486 -9.4608 16.0629 -5.8841
# 4 -16.2396 -7.8565 -9.4608 28.1378 0.8308 -4.4004
# 5 -15.3205 -6.6549 16.0629 0.8308 43.3874 -18.1402
# 6 47.3302 10.0555 -5.8841 -4.4004 -18.1402 43.1773
#
#
#
# Elastic Compliance Matrix: (Units=1/GPa)
#
#
# Indices 1 2 3 4 5 6 
#
# 1 0.006244 -0.002563 -0.002055 0.001190 -0.000156 -0.006473
# 2 -0.002563 0.018512 -0.012082 -0.000652 0.006158 -0.000628
# 3 -0.002055 -0.012082 0.045088 0.011916 -0.017353 0.005134
# 4 0.001190 -0.000652 0.011916 0.040643 -0.003567 0.003115
# 5 -0.000156 0.006158 -0.017353 -0.003567 0.034890 0.010668
# 6 -0.006473 -0.000628 0.005134 0.003115 0.010668 0.035901
#
#
# Mechanical properties :
#
#
# Convention : Reuss Voigt Hill
#
# Bulk Modulus (GPa) = 27.43769 59.12213 43.27991
# Shear Modulus (GPa) = 22.04327 40.56679 31.30503
#
# Velocity S-wave (km/s) = 2.94951 4.00126 3.51495
# Velocity P-wave (km/s) = 4.73582 6.68431 5.79258
#
# Compressibility (1/GPa) = 0.03644622
#
# Stress axis : x y z
#
# Youngs Moduli (GPa) = 160.14415 54.01757 22.17874
#
# Poissons Ratio (x) = 0.13843 0.04557
# Poissons Ratio (y) = 0.41041 0.26797
# Poissons Ratio (z) = 0.32903 0.65264
#
# Static dielectric constant tensor:
#      x y z
#    x 2.165400 0.118240 -0.088420 
#    y 0.118240 1.695690 -0.081370 
#    z -0.088420 -0.081370 2.018920 
# 
# From -- ./inp_files/387399.got.cif
#   From: 2010.05.17/outbox.cif.g08.bks.cpg/sg2_194_cif.got.tgz:387399.got - 2010.06.03 11:33:40.
