data_PCOD9078091
_publ_section_title
;
Structure prediction by ZEFSAII (Michael W. Deem and Ramdas Pophale) SiO2 
 PCOD9078091
Probable space group: P -1
;
_chemical_formula_sum "Si O2"
_cell_formula_units_Z 14
_cell_length_a 7.727869
_cell_length_b 15.677318
_cell_length_c 6.848220
_cell_angle_alpha 132.977095
_cell_angle_beta 109.463661
_cell_angle_gamma 89.420091
_cell_volume 543.260928
_symmetry_space_group_name_H-M "P -1"
_symmetry_group_IT_number 2
_symmetry_cell_setting 'triclinic'
loop_
_space_group_symop_operation_xyz
x,y,z
-x,-y,-z
loop_
_atom_site_type_symbol
_atom_site_label
_atom_site_fract_x
_atom_site_fract_y
_atom_site_fract_z
Si Si1 0.780856 0.289912 0.956184
Si Si2 0.815983 0.880538 0.286400
Si Si3 0.558288 0.021608 0.328187
Si Si4 0.901842 0.687248 0.583116
Si Si5 0.214531 0.089936 0.225821
Si Si6 0.130267 0.367742 0.977559
Si Si7 0.550562 0.469100 0.189466
O O1 0.703087 0.162020 0.607448
O O2 0.943010 0.388766 0.038863
O O3 0.605904 0.343602 0.017959
O O4 0.890528 0.274871 0.173356
O O5 0.757109 0.875395 0.482495
O O6 0.864644 0.755073 0.096888
O O7 0.651085 0.914339 0.157538
O O8 0.000000 0.000000 0.500000
O O9 0.370245 0.021157 0.137085
O O10 0.500000 0.000000 0.500000
O O11 0.797511 0.792385 0.711001
O O12 0.914960 0.659848 0.313612
O O13 0.754396 0.572773 0.461343
O O14 0.000000 0.000000 0.000000
O O15 0.351320 0.458128 0.210318
O O16 0.500000 0.500000 0.000000
#
# Coordination Sequence:
#
# PCOD9078091 Si02
#       7
#     2   2   2   2   2   2   2
#     4  12  22  40  69  87 121 173 203 252 323 363
#     4  10  18  35  58  85 120 154 202 251 300 363
#     4  10  19  34  61  85 117 163 202 248 315 364
#     4  10  22  40  62  92 126 157 211 261 302 372
#     4  10  21  37  61  86 119 158 199 254 311 365
#     4  10  23  40  64  91 125 166 206 257 309 368
#     4  10  22  42  62  91 128 160 207 262 307 367
#
# _framework density 25.770303999999999
#
# number of rings (size 3 to 8) (size 9 to 14) (size 15 to 20)
#    0.000    1.714    1.429    5.571    0.000    2.857 
#    0.000    5.000    6.286    0.000    0.000    0.000 
#    0.000    0.000    0.000    0.000    0.000    0.000 
#
# Total GULP energy -78276.152409 kJ/mol
# GULP energy per Si atom -5591.153743 kJ/mol
# Density = 2.571165 g / cm^3
# Si number density = 25.770304 Si / 1000 Ang^3
#
#
#
# Elastic Constant Matrix: (Units=GPa)
#
#
# Indices 1 2 3 4 5 6 
#
# 1 119.4977 34.5151 16.6984 -6.0973 16.4004 -9.5716
# 2 34.5151 143.1923 27.3199 -14.1315 5.3956 -12.4557
# 3 16.6984 27.3199 76.8857 0.0920 22.0481 -12.2812
# 4 -6.0973 -14.1315 0.0920 52.3270 3.4347 9.3142
# 5 16.4004 5.3956 22.0481 3.4347 46.0494 -0.7918
# 6 -9.5716 -12.4557 -12.2812 9.3142 -0.7918 57.7251
#
#
#
# Elastic Compliance Matrix: (Units=1/GPa)
#
#
# Indices 1 2 3 4 5 6 
#
# 1 0.009506 -0.001969 -0.000351 0.000608 -0.003016 0.000937
# 2 -0.001969 0.008158 -0.002631 0.001815 0.000880 0.000593
# 3 -0.000351 -0.002631 0.016612 -0.000817 -0.007409 0.002939
# 4 0.000608 0.001815 -0.000817 0.020309 -0.001604 -0.002980
# 5 -0.003016 0.000880 -0.007409 -0.001604 0.026332 -0.001267
# 6 0.000937 0.000593 0.002939 -0.002980 -0.001267 0.018696
#
#
# Mechanical properties :
#
#
# Convention : Reuss Voigt Hill
#
# Bulk Modulus (GPa) = 41.02672 55.18251 48.10461
# Shear Modulus (GPa) = 42.50263 48.62312 45.56287
#
# Velocity S-wave (km/s) = 4.06555 4.34843 4.20937
# Velocity P-wave (km/s) = 6.16384 6.83165 6.50632
#
# Compressibility (1/GPa) = 0.02437436
#
# Stress axis : x y z
#
# Youngs Moduli (GPa) = 105.19435 122.58242 60.19597
#
# Poissons Ratio (x) = 0.24140 0.02113
# Poissons Ratio (y) = 0.20716 0.15836
# Poissons Ratio (z) = 0.03692 0.32249
#
# Static dielectric constant tensor:
#      x y z
#    x 2.696530 -0.949760 0.191790 
#    y -0.949760 3.487740 -0.438230 
#    z 0.191790 -0.438230 2.344160 
# 
# From -- ./inp_files/198544.got.cif
#   From: 2010.05.17/outbox.cif.g08.bks.cpg/sg2_100_cif.got.tgz:198544.got - 2010.06.03 11:33:40.
