data_PCOD9078087
_publ_section_title
;
Structure prediction by ZEFSAII (Michael W. Deem and Ramdas Pophale) SiO2 
 PCOD9078087
Probable space group: P -1
;
_chemical_formula_sum "Si O2"
_cell_formula_units_Z 16
_cell_length_a 11.742857
_cell_length_b 22.225288
_cell_length_c 20.228865
_cell_angle_alpha 18.580388
_cell_angle_beta 39.330646
_cell_angle_gamma 27.839847
_cell_volume 707.545824
_symmetry_space_group_name_H-M "P -1"
_symmetry_group_IT_number 2
_symmetry_cell_setting 'triclinic'
loop_
_space_group_symop_operation_xyz
x,y,z
-x,-y,-z
loop_
_atom_site_type_symbol
_atom_site_label
_atom_site_fract_x
_atom_site_fract_y
_atom_site_fract_z
Si Si1 0.041968 0.597259 0.009809
Si Si2 0.812162 0.392550 0.290343
Si Si3 0.309464 0.755141 0.690299
Si Si4 0.156989 0.054291 0.005737
Si Si5 0.811395 0.434763 0.882662
Si Si6 0.759795 0.198926 0.642458
Si Si7 0.466426 0.171033 0.709290
Si Si8 0.332981 0.576690 0.248416
O O1 0.134998 0.481911 0.163927
O O2 0.962146 0.473319 0.136429
O O3 0.258166 0.570408 0.910357
O O4 0.760340 0.930830 0.793954
O O5 0.763647 0.368970 0.413282
O O6 0.519251 0.593162 0.179554
O O7 0.026217 0.083897 0.480999
O O8 0.507019 0.662121 0.758130
O O9 0.478203 0.658986 0.648609
O O10 0.995656 0.318569 0.855581
O O11 0.944383 0.149455 0.948094
O O12 0.368985 0.034109 0.902259
O O13 0.259473 0.800384 0.270065
O O14 0.940497 0.130128 0.161711
O O15 0.540701 0.217512 0.695731
O O16 0.284847 0.452522 0.453939
#
# Coordination Sequence:
#
# PCOD9078087 Si02
#       8
#     2   2   2   2   2   2   2   2
#     4  11  22  34  58  86 113 146 185 224 277 333
#     4  11  22  36  56  84 115 148 184 222 277 333
#     4  11  19  39  56  79 116 146 185 227 278 319
#     4   9  17  34  65  81 106 149 182 230 281 321
#     4   8  18  34  58  83 107 143 177 233 273 322
#     4   8  17  34  56  80 111 138 180 229 272 320
#     4  10  18  35  58  85 109 144 189 224 276 331
#     4  10  21  36  58  81 112 149 186 227 275 327
#
# _framework density 22.613377
#
# number of rings (size 3 to 8) (size 9 to 14) (size 15 to 20)
#    0.750    1.500    3.750    1.500    0.000    1.000 
#    0.000    1.250    2.750    0.000    0.000    0.000 
#    0.000    0.000    0.000    0.000    0.000    0.000 
#
# Total GULP energy -89186.651309 kJ/mol
# GULP energy per Si atom -5574.165707 kJ/mol
# Density = 2.256191 g / cm^3
# Si number density = 22.613377 Si / 1000 Ang^3
#
#
#
# Elastic Constant Matrix: (Units=GPa)
#
#
# Indices 1 2 3 4 5 6 
#
# 1 104.3931 -0.7745 56.3349 -0.5776 19.7171 -20.4811
# 2 -0.7745 45.5840 -5.1968 -1.6518 5.5285 -2.4224
# 3 56.3349 -5.1968 46.8204 1.9992 15.8204 -7.6026
# 4 -0.5776 -1.6518 1.9992 9.9564 1.6260 -1.3878
# 5 19.7171 5.5285 15.8204 1.6260 44.2588 0.0853
# 6 -20.4811 -2.4224 -7.6026 -1.3878 0.0853 23.9223
#
#
#
# Elastic Compliance Matrix: (Units=1/GPa)
#
#
# Indices 1 2 3 4 5 6 
#
# 1 0.034060 -0.002229 -0.038346 0.012010 -0.001663 0.017451
# 2 -0.002229 0.023573 0.007209 0.003513 -0.004664 0.002991
# 3 -0.038346 0.007209 0.069999 -0.015228 -0.008259 -0.010708
# 4 0.012010 0.003513 -0.015228 0.107155 -0.004306 0.012030
# 5 -0.001663 -0.004664 -0.008259 -0.004306 0.027038 -0.004867
# 6 0.017451 0.002991 -0.010708 0.012030 -0.004867 0.054358
#
#
# Mechanical properties :
#
#
# Convention : Reuss Voigt Hill
#
# Bulk Modulus (GPa) = 16.41981 33.05830 24.73906
# Shear Modulus (GPa) = 12.40033 25.38977 18.89505
#
# Velocity S-wave (km/s) = 2.34425 3.35442 2.89376
# Velocity P-wave (km/s) = 3.82155 5.44550 4.70413
#
# Compressibility (1/GPa) = 0.06090203
#
# Stress axis : x y z
#
# Youngs Moduli (GPa) = 29.35972 42.42073 14.28585
#
# Poissons Ratio (x) = 0.09454 0.54781
# Poissons Ratio (y) = 0.06543 -0.10299
# Poissons Ratio (z) = 1.12584 -0.30583
#
# Static dielectric constant tensor:
#      x y z
#    x 1.879970 0.066460 0.021670 
#    y 0.066460 1.854360 -0.015370 
#    z 0.021670 -0.015370 1.867460 
# 
# From -- ./inp_files/596364.got.cif
#   From: 2010.05.17/outbox.cif.g08.bks.cpg/sg2_299_cif.got.tgz:596364.got - 2010.06.03 11:33:40.
