data_PCOD9078233
_publ_section_title
;
Structure prediction by ZEFSAII (Michael W. Deem and Ramdas Pophale) SiO2 
 PCOD9078233
Probable space group: P -1
;
_chemical_formula_sum "Si O2"
_cell_formula_units_Z 16
_cell_length_a 7.437500
_cell_length_b 16.672045
_cell_length_c 12.085830
_cell_angle_alpha 141.952578
_cell_angle_beta 116.594423
_cell_angle_gamma 51.871762
_cell_volume 724.248602
_symmetry_space_group_name_H-M "P -1"
_symmetry_group_IT_number 2
_symmetry_cell_setting 'triclinic'
loop_
_space_group_symop_operation_xyz
x,y,z
-x,-y,-z
loop_
_atom_site_type_symbol
_atom_site_label
_atom_site_fract_x
_atom_site_fract_y
_atom_site_fract_z
Si Si1 0.434050 0.482378 0.735763
Si Si2 0.749957 0.059650 0.218259
Si Si3 0.155454 0.773319 0.131117
Si Si4 0.409709 0.285675 0.694184
Si Si5 0.267616 0.076703 0.152613
Si Si6 0.103041 0.601851 0.595537
Si Si7 0.969147 0.783741 0.548425
Si Si8 0.842549 0.434946 0.924100
O O1 0.404873 0.346797 0.634464
O O2 0.695485 0.433865 0.779478
O O3 0.351921 0.524842 0.634619
O O4 0.281260 0.637002 0.930186
O O5 0.508808 0.077976 0.215958
O O6 0.833892 0.179567 0.396292
O O7 0.952549 0.911238 0.165647
O O8 0.728563 0.044458 0.062572
O O9 0.340526 0.810002 0.285267
O O10 0.058040 0.713437 0.138752
O O11 0.222592 0.229666 0.592491
O O12 0.328827 0.438241 0.903071
O O13 0.066336 0.234659 0.225733
O O14 0.186741 0.080978 0.260926
O O15 0.082745 0.636859 0.498070
O O16 0.000000 0.500000 0.500000
O O17 0.000000 0.500000 0.000000
#
# Coordination Sequence:
#
# PCOD9078233 Si02
#       8
#     2   2   2   2   2   2   2   2
#     4   9  15  34  58  78 107 147 179 226 281 324
#     4  11  20  40  56  83 114 149 192 224 267 336
#     4   9  18  34  59  73 108 150 181 223 281 324
#     4   9  18  35  56  80 111 142 185 233 279 330
#     4   9  22  37  59  81 115 146 189 233 265 327
#     4  10  18  35  60  83 108 147 178 229 291 324
#     4  10  21  36  57  81 116 146 183 224 283 328
#     4   9  19  35  54  88 107 139 192 237 272 328
#
# _framework density 22.091863
#
# number of rings (size 3 to 8) (size 9 to 14) (size 15 to 20)
#    0.750    1.750    2.500    1.875    0.000    0.500 
#   15.750    1.250    0.000    0.000    0.000    0.000 
#    0.000    0.000    0.000    0.000    0.000    0.000 
#
# Total GULP energy -89099.911812 kJ/mol
# GULP energy per Si atom -5568.744488 kJ/mol
# Density = 2.204158 g / cm^3
# Si number density = 22.091863 Si / 1000 Ang^3
#
#
#
# Elastic Constant Matrix: (Units=GPa)
#
#
# Indices 1 2 3 4 5 6 
#
# 1 59.5852 8.3032 27.7713 -6.8542 27.9913 -2.7517
# 2 8.3032 65.4668 19.3188 -19.2082 8.1449 -3.3673
# 3 27.7713 19.3188 98.2127 -12.4704 23.4903 -6.1101
# 4 -6.8542 -19.2082 -12.4704 25.2773 -2.6427 4.6339
# 5 27.9913 8.1449 23.4903 -2.6427 41.9842 0.7109
# 6 -2.7517 -3.3673 -6.1101 4.6339 0.7109 15.4835
#
#
#
# Elastic Compliance Matrix: (Units=1/GPa)
#
#
# Indices 1 2 3 4 5 6 
#
# 1 0.026036 0.000889 -0.003105 0.004002 -0.015594 0.003113
# 2 0.000889 0.020265 -0.001791 0.014554 -0.002599 -0.000378
# 3 -0.003105 -0.001791 0.013186 0.003149 -0.004821 0.003541
# 4 0.004002 0.014554 0.003149 0.054927 -0.003607 -0.011154
# 5 -0.015594 -0.002599 -0.004821 -0.003607 0.037290 -0.005872
# 6 0.003113 -0.000378 0.003541 -0.011154 -0.005872 0.070061
#
#
# Mechanical properties :
#
#
# Convention : Reuss Voigt Hill
#
# Bulk Modulus (GPa) = 19.42853 37.11682 28.27267
# Shear Modulus (GPa) = 20.24807 27.74042 23.99425
#
# Velocity S-wave (km/s) = 3.03073 3.54741 3.29920
# Velocity P-wave (km/s) = 4.58918 5.79797 5.22862
#
# Compressibility (1/GPa) = 0.05147070
#
# Stress axis : x y z
#
# Youngs Moduli (GPa) = 38.40839 49.34630 75.83999
#
# Poissons Ratio (x) = -0.04385 0.23550
# Poissons Ratio (y) = -0.03413 0.13586
# Poissons Ratio (z) = 0.11927 0.08840
#
# Static dielectric constant tensor:
#      x y z
#    x 1.967890 -0.009830 -0.069260 
#    y -0.009830 1.781570 -0.025520 
#    z -0.069260 -0.025520 1.890680 
# 
# From -- ./inp_files/506773.got.cif
#   From: 2010.05.17/outbox.cif.g08.bks.cpg/sg2_254_cif.got.tgz:506773.got - 2010.06.03 11:33:40.
