data_PCOD9078110
_publ_section_title
;
Structure prediction by ZEFSAII (Michael W. Deem and Ramdas Pophale) SiO2 
 PCOD9078110
Probable space group: P -1
;
_chemical_formula_sum "Si O2"
_cell_formula_units_Z 14
_cell_length_a 8.983835
_cell_length_b 16.519862
_cell_length_c 7.805736
_cell_angle_alpha 137.818795
_cell_angle_beta 50.572753
_cell_angle_gamma 118.595873
_cell_volume 600.788838
_symmetry_space_group_name_H-M "P -1"
_symmetry_group_IT_number 2
_symmetry_cell_setting 'triclinic'
loop_
_space_group_symop_operation_xyz
x,y,z
-x,-y,-z
loop_
_atom_site_type_symbol
_atom_site_label
_atom_site_fract_x
_atom_site_fract_y
_atom_site_fract_z
Si Si1 0.068749 0.525457 0.688527
Si Si2 0.197114 0.261589 0.679840
Si Si3 0.142029 0.708394 0.470514
Si Si4 0.699205 0.067981 0.423692
Si Si5 0.717519 0.992476 0.900112
Si Si6 0.426926 0.591195 0.342875
Si Si7 0.933546 0.874737 0.131805
O O1 0.297016 0.535477 0.503361
O O2 0.000000 0.500000 0.500000
O O3 0.969651 0.414845 0.690768
O O4 0.980021 0.648224 0.020391
O O5 0.204236 0.143292 0.372991
O O6 0.384196 0.340583 0.623120
O O7 0.213058 0.197922 0.754871
O O8 0.289719 0.678409 0.469881
O O9 0.259155 0.788510 0.372506
O O10 0.980808 0.790206 0.804739
O O11 0.847749 0.997302 0.319374
O O12 0.500000 0.000000 0.500000
O O13 0.725247 0.038922 0.159836
O O14 0.871656 0.085189 0.845464
O O15 0.500000 0.000000 0.000000
O O16 0.500000 0.500000 0.000000
#
# Coordination Sequence:
#
# PCOD9078110 Si02
#       7
#     2   2   2   2   2   2   2
#     4  10  19  34  55  93 123 162 209 267 317 361
#     4  12  21  36  64  94 130 157 209 277 321 362
#     4  10  18  35  58  88 123 156 221 258 303 371
#     4  11  24  42  65  92 126 179 217 252 321 399
#     4  11  24  39  62  97 133 163 213 273 326 370
#     4  11  18  32  56  91 126 160 206 263 314 370
#     4  11  21  41  64  90 129 175 209 255 322 396
#
# _framework density 23.302699
#
# number of rings (size 3 to 8) (size 9 to 14) (size 15 to 20)
#    0.000    1.143    5.714    5.571    0.000    0.000 
#    0.000    0.000    0.000    4.286    0.000    0.000 
#    0.000    0.000    0.000    0.000    0.000    0.000 
#
# Total GULP energy -78129.099036 kJ/mol
# GULP energy per Si atom -5580.649931 kJ/mol
# Density = 2.324966 g / cm^3
# Si number density = 23.302699 Si / 1000 Ang^3
#
#
#
# Elastic Constant Matrix: (Units=GPa)
#
#
# Indices 1 2 3 4 5 6 
#
# 1 50.7823 17.1011 16.0737 -2.5800 -8.3725 13.9124
# 2 17.1011 154.6369 47.9183 10.1020 -12.7143 24.9701
# 3 16.0737 47.9183 100.5439 17.9041 -5.4979 18.0630
# 4 -2.5800 10.1020 17.9041 39.6664 6.0101 -3.2697
# 5 -8.3725 -12.7143 -5.4979 6.0101 22.4848 -2.8854
# 6 13.9124 24.9701 18.0630 -3.2697 -2.8854 39.6102
#
#
#
# Elastic Compliance Matrix: (Units=1/GPa)
#
#
# Indices 1 2 3 4 5 6 
#
# 1 0.023466 -0.000373 -0.002238 0.001062 0.006875 -0.006398
# 2 -0.000373 0.008410 -0.002721 -0.001851 0.003959 -0.003794
# 3 -0.002238 -0.002721 0.013547 -0.006216 0.002084 -0.004038
# 4 0.001062 -0.001851 -0.006216 0.030462 -0.009615 0.005442
# 5 0.006875 0.003959 0.002084 -0.009615 0.051985 -0.002868
# 6 -0.006398 -0.003794 -0.004038 0.005442 -0.002868 0.031967
#
#
# Mechanical properties :
#
#
# Convention : Reuss Voigt Hill
#
# Bulk Modulus (GPa) = 28.76828 52.01660 40.39244
# Shear Modulus (GPa) = 27.45964 35.34360 31.40162
#
# Velocity S-wave (km/s) = 3.43649 3.89873 3.67489
# Velocity P-wave (km/s) = 5.30266 6.52973 5.94792
#
# Compressibility (1/GPa) = 0.03476051
#
# Stress axis : x y z
#
# Youngs Moduli (GPa) = 42.61488 118.90217 73.81960
#
# Poissons Ratio (x) = 0.04431 0.16518
# Poissons Ratio (y) = 0.01588 0.20086
# Poissons Ratio (z) = 0.09535 0.32353
#
# Static dielectric constant tensor:
#      x y z
#    x 1.962560 0.080170 -0.004500 
#    y 0.080170 2.158900 -0.024060 
#    z -0.004500 -0.024060 1.950600 
# 
# From -- ./inp_files/216090.got.cif
#   From: 2010.05.17/outbox.cif.g08.bks.cpg/sg2_109_cif.got.tgz:216090.got - 2010.06.03 11:33:40.
