data_PCOD9078792
_publ_section_title
;
Structure prediction by ZEFSAII (Michael W. Deem and Ramdas Pophale) SiO2 
 PCOD9078792
Probable space group: P -1
;
_chemical_formula_sum "Si O2"
_cell_formula_units_Z 16
_cell_length_a 13.528055
_cell_length_b 10.367520
_cell_length_c 6.608678
_cell_angle_alpha 58.319473
_cell_angle_beta 89.802851
_cell_angle_gamma 119.809485
_cell_volume 638.977282
_symmetry_space_group_name_H-M "P -1"
_symmetry_group_IT_number 2
_symmetry_cell_setting 'triclinic'
loop_
_space_group_symop_operation_xyz
x,y,z
-x,-y,-z
loop_
_atom_site_type_symbol
_atom_site_label
_atom_site_fract_x
_atom_site_fract_y
_atom_site_fract_z
Si Si1 0.042202 0.638300 0.591645
Si Si2 0.395060 0.248397 0.892862
Si Si3 0.198449 0.208353 0.676556
Si Si4 0.998002 0.785239 0.134537
Si Si5 0.581461 0.299336 0.126842
Si Si6 0.593898 0.960068 0.306162
Si Si7 0.786584 0.969101 0.555994
Si Si8 0.143435 0.475144 0.980678
O O1 0.138017 0.602017 0.705213
O O2 0.043369 0.668986 0.325694
O O3 0.095758 0.849028 0.498099
O O4 0.919885 0.515177 0.827741
O O5 0.330075 0.316428 0.695872
O O6 0.403349 0.112698 0.853372
O O7 0.522418 0.366367 0.916527
O O8 0.303014 0.141513 0.166756
O O9 0.118958 0.282269 0.668978
O O10 0.200187 0.164015 0.479158
O O11 0.109670 0.000938 0.949836
O O12 0.943119 0.725590 0.960842
O O13 0.506558 0.213643 0.407620
O O14 0.721299 0.457672 0.039183
O O15 0.574496 0.122512 0.178616
O O16 0.721169 0.031442 0.355206
#
# Coordination Sequence:
#
# PCOD9078792 Si02
#       8
#     2   2   2   2   2   2   2   2
#     4  11  22  38  60  89 123 161 188 240 308 362
#     4  10  20  35  62  88 113 155 197 249 297 337
#     4  10  22  38  62  87 120 151 213 251 281 348
#     4  11  23  39  59  89 118 165 199 245 295 351
#     4  10  20  36  58  87 120 158 195 244 297 355
#     4   9  19  34  57  88 118 152 201 248 289 347
#     4  10  18  36  58  88 120 148 194 249 298 342
#     4  11  24  40  58  89 131 156 192 239 304 372
#
# _framework density 25.040012999999998
#
# number of rings (size 3 to 8) (size 9 to 14) (size 15 to 20)
#    0.000    1.750    3.750    0.750    0.000    2.500 
#    2.250    0.625    0.000    7.500    0.000    0.000 
#    0.000    0.000    0.000    0.000    0.000    0.000 
#
# Total GULP energy -89436.041982 kJ/mol
# GULP energy per Si atom -5589.752624 kJ/mol
# Density = 2.498302 g / cm^3
# Si number density = 25.040013 Si / 1000 Ang^3
#
#
#
# Elastic Constant Matrix: (Units=GPa)
#
#
# Indices 1 2 3 4 5 6 
#
# 1 78.8366 20.8483 33.4432 11.9559 -6.3694 17.9627
# 2 20.8483 20.6586 5.8073 8.8965 6.0102 31.3082
# 3 33.4432 5.8073 86.9599 16.8537 -0.8599 1.0535
# 4 11.9559 8.8965 16.8537 34.5326 -11.8508 0.6082
# 5 -6.3694 6.0102 -0.8599 -11.8508 38.9550 16.9935
# 6 17.9627 31.3082 1.0535 0.6082 16.9935 48.8333
#
#
#
# Elastic Compliance Matrix: (Units=1/GPa)
#
#
# Indices 1 2 3 4 5 6 
#
# 1 0.013747 0.044775 -0.005804 -0.010087 0.007972 -0.036286
# 2 0.044775 -0.457275 -0.008912 0.096326 -0.015665 0.281144
# 3 -0.005804 -0.008912 0.015110 -0.004861 -0.004748 0.009235
# 4 -0.010087 0.096326 -0.004861 0.016730 0.016315 -0.063827
# 5 0.007972 -0.015665 -0.004748 0.016315 0.036774 -0.005787
# 6 -0.036286 0.281144 0.009235 -0.063827 -0.005787 -0.143813
#
#
# Mechanical properties :
#
#
# Convention : Reuss Voigt Hill
#
# Bulk Modulus (GPa) = -2.71519 34.07252 15.67867
# Shear Modulus (GPa) = -7.12644 32.88793 12.88074
#
# Velocity S-wave (km/s) = -1.68885 3.62804 2.27051
# Velocity P-wave (km/s) = 2.21125 5.58453 3.62611
#
# Compressibility (1/GPa) = -0.36829869
#
# Stress axis : x y z
#
# Youngs Moduli (GPa) = 72.74119 -2.18687 66.18132
#
# Poissons Ratio (x) = 0.09792 0.38409
# Poissons Ratio (y) = -3.25699 0.58979
# Poissons Ratio (z) = 0.42217 -0.01949
#
# Static dielectric constant tensor:
#      x y z
#    x 2.015140 -0.066710 0.009160 
#    y -0.066710 2.082510 0.039800 
#    z 0.009160 0.039800 1.949250 
# 
# From -- ./inp_files/94643.got.cif
#   From: 2010.05.17/outbox.cif.g08.bks.cpg/sg2_48_cif.got.tgz:94643.got - 2010.06.03 11:33:40.
