data_PCOD9078872
_publ_section_title
;
Structure prediction by ZEFSAII (Michael W. Deem and Ramdas Pophale) SiO2 
 PCOD9078872
Probable space group: P -1
;
_chemical_formula_sum "Si O2"
_cell_formula_units_Z 11
_cell_length_a 8.617911
_cell_length_b 15.648055
_cell_length_c 13.368303
_cell_angle_alpha 35.045426
_cell_angle_beta 25.821768
_cell_angle_gamma 44.204828
_cell_volume 449.443704
_symmetry_space_group_name_H-M "P -1"
_symmetry_group_IT_number 2
_symmetry_cell_setting 'triclinic'
loop_
_space_group_symop_operation_xyz
x,y,z
-x,-y,-z
loop_
_atom_site_type_symbol
_atom_site_label
_atom_site_fract_x
_atom_site_fract_y
_atom_site_fract_z
Si Si1 0.523981 0.169126 0.291518
Si Si2 0.662215 0.184691 0.571538
Si Si3 0.149725 0.546423 0.099669
Si Si4 0.538180 0.885026 0.837999
Si Si5 0.268900 0.720514 0.343661
Si Si6 0.000000 0.500000 0.000000
O O1 0.642421 0.177186 0.099051
O O2 0.124926 0.220662 0.488529
O O3 0.500000 0.000000 0.500000
O O4 0.797190 0.276629 0.093248
O O5 0.550752 0.217084 0.718933
O O6 0.746100 0.338474 0.316471
O O7 0.044789 0.114693 0.430868
O O8 0.443051 0.049400 0.770019
O O9 0.808496 0.458504 0.435074
O O10 0.123421 0.490546 0.055325
O O11 0.500000 0.500000 0.000000
O O12 0.475722 0.772994 0.074575
#
# Coordination Sequence:
#
# PCOD9078872 Si02
#       6
#     2   2   2   2   2   1
#     4  10  20  34  52  79 110 141 185 231 273 327
#     4   9  19  34  54  79 108 141 183 229 273 329
#     4   9  19  36  56  80 111 145 183 225 274 332
#     4  10  19  34  55  77 108 148 182 225 281 327
#     4   9  19  35  54  76 107 148 185 222 276 334
#     4  10  18  36  60  78 108 150 180 226 284 318
#
# _framework density 24.474699999999999
#
# number of rings (size 3 to 8) (size 9 to 14) (size 15 to 20)
#    0.000    2.545    0.000    2.727    0.000    1.455 
#    0.000    5.455    0.000    0.000    0.000    0.000 
#    0.000    0.000    0.000    0.000    0.000    0.000 
#
# Total GULP energy -61242.516397 kJ/mol
# GULP energy per Si atom -5567.501491 kJ/mol
# Density = 2.441899 g / cm^3
# Si number density = 24.474700 Si / 1000 Ang^3
#
#
#
# Elastic Constant Matrix: (Units=GPa)
#
#
# Indices 1 2 3 4 5 6 
#
# 1 93.4450 31.0769 31.1048 17.3132 11.6059 23.1994
# 2 31.0769 71.7242 30.9828 -8.5903 -17.3287 10.2732
# 3 31.1048 30.9828 66.6000 -6.2604 19.2905 17.6403
# 4 17.3132 -8.5903 -6.2604 40.1608 -1.6770 -3.1465
# 5 11.6059 -17.3287 19.2905 -1.6770 40.1270 6.1635
# 6 23.1994 10.2732 17.6403 -3.1465 6.1635 49.3933
#
#
#
# Elastic Compliance Matrix: (Units=1/GPa)
#
#
# Indices 1 2 3 4 5 6 
#
# 1 0.019480 -0.010991 -0.000673 -0.011738 -0.009599 -0.006173
# 2 -0.010991 0.033721 -0.017710 0.010437 0.026408 0.001843
# 3 -0.000673 -0.017710 0.031015 0.000089 -0.021689 -0.004365
# 4 -0.011738 0.010437 0.000089 0.032904 0.008568 0.004338
# 5 -0.009599 0.026408 -0.021689 0.008568 0.049717 0.001104
# 6 -0.006173 0.001843 -0.004365 0.004338 0.001104 0.024459
#
#
# Mechanical properties :
#
#
# Convention : Reuss Voigt Hill
#
# Bulk Modulus (GPa) = 39.26429 46.45535 42.85982
# Shear Modulus (GPa) = 19.33977 35.17654 27.25815
#
# Velocity S-wave (km/s) = 2.81409 3.79524 3.34088
# Velocity P-wave (km/s) = 5.16105 6.18282 5.69490
#
# Compressibility (1/GPa) = 0.02546844
#
# Stress axis : x y z
#
# Youngs Moduli (GPa) = 51.33378 29.65506 32.24226
#
# Poissons Ratio (x) = 0.32593 0.02170
# Poissons Ratio (y) = 0.56419 0.57102
# Poissons Ratio (z) = 0.03455 0.52520
#
# Static dielectric constant tensor:
#      x y z
#    x 1.921000 -0.043130 -0.024560 
#    y -0.043130 2.122780 -0.039180 
#    z -0.024560 -0.039180 1.941120 
# 
# From -- ./inp_files/21165.got.cif
#   From: 2010.05.17/outbox.cif.g08.bks.cpg/sg2_11_cif.got.tgz:21165.got - 2010.06.03 11:33:40.
