data_PCOD9078697
_publ_section_title
;
Structure prediction by ZEFSAII (Michael W. Deem and Ramdas Pophale) SiO2 
 PCOD9078697
Probable space group: P -1
;
_chemical_formula_sum "Si O2"
_cell_formula_units_Z 16
_cell_length_a 11.713437
_cell_length_b 13.800224
_cell_length_c 13.457826
_cell_angle_alpha 33.306357
_cell_angle_beta 53.837754
_cell_angle_gamma 76.468982
_cell_volume 782.445888
_symmetry_space_group_name_H-M "P -1"
_symmetry_group_IT_number 2
_symmetry_cell_setting 'triclinic'
loop_
_space_group_symop_operation_xyz
x,y,z
-x,-y,-z
loop_
_atom_site_type_symbol
_atom_site_label
_atom_site_fract_x
_atom_site_fract_y
_atom_site_fract_z
Si Si1 0.318598 0.472125 0.095860
Si Si2 0.213347 0.238657 0.892740
Si Si3 0.920677 0.161538 0.835947
Si Si4 0.843660 0.999047 0.380209
Si Si5 0.617598 0.159038 0.392194
Si Si6 0.556229 0.443551 0.668566
Si Si7 0.676212 0.862169 0.369321
Si Si8 0.261546 0.600641 0.229571
O O1 0.180941 0.210880 0.376615
O O2 0.291927 0.573647 0.121807
O O3 0.500000 0.500000 0.000000
O O4 0.316128 0.605211 0.889509
O O5 0.371625 0.314790 0.820376
O O6 0.295339 0.429226 0.603145
O O7 0.159824 0.017195 0.055739
O O8 0.041059 0.178060 0.090317
O O9 0.827522 0.280328 0.801064
O O10 0.118961 0.349628 0.551434
O O11 0.863162 0.024151 0.083626
O O12 0.727597 0.887205 0.435824
O O13 0.759551 0.110230 0.381010
O O14 0.469993 0.091303 0.608202
O O15 0.500000 0.000000 0.500000
O O16 0.581364 0.631515 0.564298
O O17 0.582167 0.307392 0.851385
#
# Coordination Sequence:
#
# PCOD9078697 Si02
#       8
#     2   2   2   2   2   2   2   2
#     4  12  20  33  57  87 114 143 183 227 280 332
#     4  10  21  38  52  80 108 151 186 223 280 331
#     4  10  21  33  56  83 114 133 186 233 278 328
#     4  11  20  35  58  82 112 148 179 239 271 325
#     4  10  20  33  55  89 110 145 182 229 282 328
#     4  10  20  35  59  74 111 150 184 223 279 338
#     4  10  18  36  56  82 107 142 182 228 274 333
#     4  11  20  34  54  87 107 144 177 236 278 325
#
# _framework density 20.448699000000001
#
# number of rings (size 3 to 8) (size 9 to 14) (size 15 to 20)
#    0.000    1.500    5.000    2.250    0.000    3.500 
#    0.000    0.625    0.000    3.000    0.000    0.000 
#    0.000    0.000    0.000    0.000    0.000    0.000 
#
# Total GULP energy -89138.853366 kJ/mol
# GULP energy per Si atom -5571.178335 kJ/mol
# Density = 2.040216 g / cm^3
# Si number density = 20.448699 Si / 1000 Ang^3
#
#
#
# Elastic Constant Matrix: (Units=GPa)
#
#
# Indices 1 2 3 4 5 6 
#
# 1 43.9898 12.7537 20.1709 -1.9376 -7.2899 -1.5895
# 2 12.7537 69.2088 13.7830 12.1156 -9.1121 -28.7744
# 3 20.1709 13.7830 82.3561 10.3191 -5.9928 -9.3167
# 4 -1.9376 12.1156 10.3191 31.2990 -8.0869 -2.5483
# 5 -7.2899 -9.1121 -5.9928 -8.0869 28.6877 1.4889
# 6 -1.5895 -28.7744 -9.3167 -2.5483 1.4889 29.4181
#
#
#
# Elastic Compliance Matrix: (Units=1/GPa)
#
#
# Indices 1 2 3 4 5 6 
#
# 1 0.029548 -0.008009 -0.007413 0.008305 0.006182 -0.008178
# 2 -0.008009 0.029159 0.001611 -0.009148 0.003551 0.027626
# 3 -0.007413 0.001611 0.015000 -0.005611 -0.000103 0.005445
# 4 0.008305 -0.009148 -0.005611 0.039744 0.009616 -0.007320
# 5 0.006182 0.003551 -0.000103 0.009616 0.040112 0.002577
# 6 -0.008178 0.027626 0.005445 -0.007320 0.002577 0.061533
#
#
# Mechanical properties :
#
#
# Convention : Reuss Voigt Hill
#
# Bulk Modulus (GPa) = 21.69829 32.10778 26.90303
# Shear Modulus (GPa) = 19.37396 27.80409 23.58903
#
# Velocity S-wave (km/s) = 3.08139 3.69141 3.40011
# Velocity P-wave (km/s) = 4.82640 5.82275 5.34783
#
# Compressibility (1/GPa) = 0.04608658
#
# Stress axis : x y z
#
# Youngs Moduli (GPa) = 33.84299 34.29482 66.66749
#
# Poissons Ratio (x) = 0.27467 0.49418
# Poissons Ratio (y) = 0.27105 -0.10743
# Poissons Ratio (z) = 0.25086 -0.05527
#
# Static dielectric constant tensor:
#      x y z
#    x 1.782390 -0.074840 0.084170 
#    y -0.074840 1.773520 0.008640 
#    z 0.084170 0.008640 1.841360 
# 
# From -- ./inp_files/223848.got.cif
#   From: 2010.05.17/outbox.cif.g08.bks.cpg/sg2_112_cif.got.tgz:223848.got - 2010.06.03 11:33:40.
