data_PCOD9078820
_publ_section_title
;
Structure prediction by ZEFSAII (Michael W. Deem and Ramdas Pophale) SiO2 
 PCOD9078820
Probable space group: P -1
;
_chemical_formula_sum "Si O2"
_cell_formula_units_Z 16
_cell_length_a 13.023513
_cell_length_b 12.779310
_cell_length_c 11.580589
_cell_angle_alpha 145.244437
_cell_angle_beta 88.716919
_cell_angle_gamma 73.199711
_cell_volume 924.956768
_symmetry_space_group_name_H-M "P -1"
_symmetry_group_IT_number 2
_symmetry_cell_setting 'triclinic'
loop_
_space_group_symop_operation_xyz
x,y,z
-x,-y,-z
loop_
_atom_site_type_symbol
_atom_site_label
_atom_site_fract_x
_atom_site_fract_y
_atom_site_fract_z
Si Si1 0.642463 0.357706 0.848361
Si Si2 0.254884 0.758533 0.511980
Si Si3 0.779288 0.890971 0.540498
Si Si4 0.408239 0.068028 0.230972
Si Si5 0.631405 0.674899 0.760413
Si Si6 0.339930 0.083983 0.824445
Si Si7 0.969224 0.175334 0.558105
Si Si8 0.220345 0.416340 0.924515
O O1 0.668116 0.355269 0.709626
O O2 0.700978 0.112989 0.669515
O O3 0.500000 0.500000 0.000000
O O4 0.709896 0.464314 0.002884
O O5 0.310203 0.577599 0.446227
O O6 0.119684 0.831796 0.540378
O O7 0.274462 0.952497 0.713383
O O8 0.698037 0.911560 0.670225
O O9 0.907786 0.865586 0.537163
O O10 0.806007 0.687417 0.276636
O O11 0.362154 0.252351 0.301872
O O12 0.512968 0.067408 0.304356
O O13 0.489724 0.833972 0.949938
O O14 0.696890 0.751319 0.917674
O O15 0.305357 0.219453 0.830953
O O16 0.000000 0.000000 0.500000
O O17 0.895331 0.406855 0.836784
#
# Coordination Sequence:
#
# PCOD9078820 Si02
#       8
#     2   2   2   2   2   2   2   2
#     4  11  21  32  52  85 117 142 177 235 284 333
#     4  11  20  34  58  80 107 153 186 228 277 334
#     4  12  22  36  56  86 118 148 188 227 284 337
#     4   9  21  38  57  83 113 150 182 239 277 333
#     4   9  19  41  55  81 115 145 193 228 284 325
#     4  10  18  36  59  83 107 144 191 225 283 339
#     4  11  20  39  55  83 117 151 186 227 282 336
#     4  11  21  35  56  85 112 152 182 229 284 337
#
# _framework density 17.298106000000001
#
# number of rings (size 3 to 8) (size 9 to 14) (size 15 to 20)
#    0.750    0.750    6.250    1.875    1.750    1.500 
#    0.000    0.625    0.000    0.750    0.000    0.000 
#    0.000    0.000    0.000    0.000    0.000    0.000 
#
# Total GULP energy -89172.229510 kJ/mol
# GULP energy per Si atom -5573.264344 kJ/mol
# Density = 1.725873 g / cm^3
# Si number density = 17.298106 Si / 1000 Ang^3
#
#
#
# Elastic Constant Matrix: (Units=GPa)
#
#
# Indices 1 2 3 4 5 6 
#
# 1 89.9399 22.6470 35.6948 -7.8779 -16.5650 17.7019
# 2 22.6470 89.2791 7.3202 -1.1228 -11.3110 15.9716
# 3 35.6948 7.3202 37.6295 7.5205 3.1978 13.9751
# 4 -7.8779 -1.1228 7.5205 13.6389 4.1807 2.5744
# 5 -16.5650 -11.3110 3.1978 4.1807 28.4515 5.5486
# 6 17.7019 15.9716 13.9751 2.5744 5.5486 15.4740
#
#
#
# Elastic Compliance Matrix: (Units=1/GPa)
#
#
# Indices 1 2 3 4 5 6 
#
# 1 0.041589 0.002975 -0.038626 0.042711 0.030021 -0.033633
# 2 0.002975 0.017141 0.002902 0.002882 0.013457 -0.029021
# 3 -0.038626 0.002902 0.082034 -0.058451 -0.018759 -0.016445
# 4 0.042711 0.002882 -0.058451 0.129853 0.018847 -0.027408
# 5 0.030021 0.013457 -0.018759 0.018847 0.068843 -0.059112
# 6 -0.033633 -0.029021 -0.016445 -0.027408 -0.059112 0.173663
#
#
# Mechanical properties :
#
#
# Convention : Reuss Voigt Hill
#
# Bulk Modulus (GPa) = 13.28617 38.68585 25.98601
# Shear Modulus (GPa) = 8.28213 21.59198 14.93705
#
# Velocity S-wave (km/s) = 2.19050 3.53686 2.94174
# Velocity P-wave (km/s) = 3.75434 6.25235 5.15689
#
# Compressibility (1/GPa) = 0.07526625
#
# Stress axis : x y z
#
# Youngs Moduli (GPa) = 24.04478 58.33927 12.19010
#
# Poissons Ratio (x) = -0.17355 0.47085
# Poissons Ratio (y) = -0.07153 -0.03538
# Poissons Ratio (z) = 0.92875 -0.16931
#
# Static dielectric constant tensor:
#      x y z
#    x 1.600800 -0.011200 0.013010 
#    y -0.011200 1.570120 0.015030 
#    z 0.013010 0.015030 1.604980 
# 
# From -- ./inp_files/424487.got.cif
#   From: 2010.05.17/outbox.cif.g08.bks.cpg/sg2_213_cif.got.tgz:424487.got - 2010.06.03 11:33:40.
