data_PCOD9078943
_publ_section_title
;
Structure prediction by ZEFSAII (Michael W. Deem and Ramdas Pophale) SiO2 
 PCOD9078943
Probable space group: P -1
;
_chemical_formula_sum "Si O2"
_cell_formula_units_Z 16
_cell_length_a 6.909818
_cell_length_b 16.072847
_cell_length_c 7.025502
_cell_angle_alpha 81.294675
_cell_angle_beta 72.026268
_cell_angle_gamma 51.303906
_cell_volume 578.340705
_symmetry_space_group_name_H-M "P -1"
_symmetry_group_IT_number 2
_symmetry_cell_setting 'triclinic'
loop_
_space_group_symop_operation_xyz
x,y,z
-x,-y,-z
loop_
_atom_site_type_symbol
_atom_site_label
_atom_site_fract_x
_atom_site_fract_y
_atom_site_fract_z
Si Si1 0.842973 0.386423 0.334271
Si Si2 0.493751 0.996052 0.774211
Si Si3 0.934560 0.150264 0.893720
Si Si4 0.470450 0.822801 0.436655
Si Si5 0.578670 0.739991 0.867244
Si Si6 0.727576 0.525893 0.022523
Si Si7 0.053705 0.818454 0.666702
Si Si8 0.971252 0.338067 0.733973
O O1 0.124105 0.312068 0.166798
O O2 0.913526 0.389664 0.526077
O O3 0.768491 0.308597 0.370387
O O4 0.655501 0.500820 0.253310
O O5 0.205900 0.038593 0.792761
O O6 0.526081 0.080497 0.648018
O O7 0.755584 0.882214 0.675873
O O8 0.500000 0.000000 0.000000
O O9 0.936925 0.245363 0.777619
O O10 0.660198 0.171718 0.955568
O O11 0.954310 0.157947 0.115411
O O12 0.521640 0.785735 0.655606
O O13 0.189777 0.853942 0.483584
O O14 0.727173 0.720960 0.292604
O O15 0.572318 0.640072 0.931735
O O16 0.784661 0.433171 0.900550
O O17 0.000000 0.500000 0.000000
#
# Coordination Sequence:
#
# PCOD9078943 Si02
#       8
#     2   2   2   2   2   2   2   2
#     4  10  21  38  59  92 123 160 203 254 298 357
#     4   9  18  33  62  92 119 158 204 249 306 362
#     4   9  18  37  59  85 119 163 196 252 302 357
#     4   9  19  35  59  87 120 165 199 246 304 363
#     4   9  20  37  60  81 122 162 203 246 308 351
#     4  10  21  39  64  87 120 167 206 247 302 357
#     4  10  18  36  60  90 124 159 203 250 302 364
#     4  10  20  39  60  84 129 157 202 253 300 349
#
# _framework density 27.665355000000002
#
# number of rings (size 3 to 8) (size 9 to 14) (size 15 to 20)
#    0.000    2.500    1.250    0.375    0.000    5.000 
#    4.500    6.875    0.000    0.000    0.000    0.000 
#    0.000    0.000    0.000    0.000    0.000    0.000 
#
# Total GULP energy -89537.470590 kJ/mol
# GULP energy per Si atom -5596.091912 kJ/mol
# Density = 2.760239 g / cm^3
# Si number density = 27.665355 Si / 1000 Ang^3
#
#
#
# Elastic Constant Matrix: (Units=GPa)
#
#
# Indices 1 2 3 4 5 6 
#
# 1 71.7803 24.1505 12.1596 7.3003 -16.9690 -28.3633
# 2 24.1505 146.7641 53.2475 -23.0863 -15.2668 0.7569
# 3 12.1596 53.2475 141.5902 -17.3512 -5.2245 -13.9101
# 4 7.3003 -23.0863 -17.3512 51.9169 -7.8846 -12.3724
# 5 -16.9690 -15.2668 -5.2245 -7.8846 41.6407 3.4657
# 6 -28.3633 0.7569 -13.9101 -12.3724 3.4657 47.1808
#
#
#
# Elastic Compliance Matrix: (Units=1/GPa)
#
#
# Indices 1 2 3 4 5 6 
#
# 1 0.021460 -0.003244 0.000846 -0.000157 0.006577 0.012678
# 2 -0.003244 0.009212 -0.002890 0.003438 0.002530 -0.002235
# 3 0.000846 -0.002890 0.008774 0.002507 0.000548 0.003759
# 4 -0.000157 0.003438 0.002507 0.024035 0.005522 0.006486
# 5 0.006577 0.002530 0.000548 0.005522 0.028451 0.003433
# 6 0.012678 -0.002235 0.003759 0.006486 0.003433 0.031409
#
#
# Mechanical properties :
#
#
# Convention : Reuss Voigt Hill
#
# Bulk Modulus (GPa) = 34.64050 59.91665 47.27857
# Shear Modulus (GPa) = 34.83330 46.18613 40.50972
#
# Velocity S-wave (km/s) = 3.55222 4.09033 3.83074
# Velocity P-wave (km/s) = 5.41967 6.63419 6.05744
#
# Compressibility (1/GPa) = 0.02886795
#
# Stress axis : x y z
#
# Youngs Moduli (GPa) = 46.59830 108.55816 113.97718
#
# Poissons Ratio (x) = 0.35219 -0.09642
# Poissons Ratio (y) = 0.15118 0.32945
# Poissons Ratio (z) = -0.03942 0.31378
#
# Static dielectric constant tensor:
#      x y z
#    x 2.194250 -0.065670 -0.037300 
#    y -0.065670 2.133990 -0.007760 
#    z -0.037300 -0.007760 2.148400 
# 
# From -- ./inp_files/222047.got.cif
#   From: 2010.05.17/outbox.cif.g08.bks.cpg/sg2_112_cif.got.tgz:222047.got - 2010.06.03 11:33:40.
