data_PCOD9078624
_publ_section_title
;
Structure prediction by ZEFSAII (Michael W. Deem and Ramdas Pophale) SiO2 
 PCOD9078624
Probable space group: P -1
;
_chemical_formula_sum "Si O2"
_cell_formula_units_Z 14
_cell_length_a 11.169469
_cell_length_b 13.327562
_cell_length_c 9.973682
_cell_angle_alpha 55.023426
_cell_angle_beta 135.337057
_cell_angle_gamma 149.148772
_cell_volume 532.309569
_symmetry_space_group_name_H-M "P -1"
_symmetry_group_IT_number 2
_symmetry_cell_setting 'triclinic'
loop_
_space_group_symop_operation_xyz
x,y,z
-x,-y,-z
loop_
_atom_site_type_symbol
_atom_site_label
_atom_site_fract_x
_atom_site_fract_y
_atom_site_fract_z
Si Si1 0.205209 0.855905 0.102764
Si Si2 0.136569 0.746391 0.435844
Si Si3 0.281354 0.023977 0.551667
Si Si4 0.798166 0.466814 0.951768
Si Si5 0.670028 0.671153 0.396465
Si Si6 0.456890 0.610643 0.682143
Si Si7 0.516803 0.773322 0.856485
O O1 0.121973 0.760382 0.256674
O O2 0.485012 0.936145 0.233265
O O3 0.247820 0.024626 0.028218
O O4 0.971668 0.689069 0.940237
O O5 0.179106 0.896229 0.434133
O O6 0.391634 0.807654 0.634777
O O7 0.859923 0.530929 0.437007
O O8 0.992760 0.866397 0.521815
O O9 0.404702 0.221859 0.445097
O O10 0.504946 0.304358 0.769979
O O11 0.716998 0.379922 0.102231
O O12 0.000000 0.500000 0.000000
O O13 0.500000 0.500000 0.500000
O O14 0.586553 0.550846 0.284840
O O15 0.587062 0.703807 0.862708
#
# Coordination Sequence:
#
# PCOD9078624 Si02
#       7
#     2   2   2   2   2   2   2
#     4  11  21  41  74 109 139 171 240 281 333 420
#     4  10  18  35  71 113 138 174 224 277 341 419
#     4  10  21  40  72 107 132 181 229 278 341 411
#     4  12  30  48  68  99 141 188 230 292 350 401
#     4  11  30  50  66  99 144 187 235 279 349 425
#     4  11  20  39  75 100 138 182 223 282 345 405
#     4  11  21  39  71 107 138 175 230 285 344 402
#
# _framework density 26.300484999999998
#
# number of rings (size 3 to 8) (size 9 to 14) (size 15 to 20)
#    0.000    1.143    4.286    2.143    8.000    2.857 
#    0.000    1.429    0.000    0.000    0.000    0.000 
#    0.000    0.000    0.000    0.000    0.000    0.000 
#
# Total GULP energy -78248.210137 kJ/mol
# GULP energy per Si atom -5589.157867 kJ/mol
# Density = 2.624062 g / cm^3
# Si number density = 26.300485 Si / 1000 Ang^3
#
#
#
# Elastic Constant Matrix: (Units=GPa)
#
#
# Indices 1 2 3 4 5 6 
#
# 1 93.5645 26.8933 11.0837 9.4321 -5.0708 21.4305
# 2 26.8933 149.9852 8.2699 15.4078 -4.2240 27.9427
# 3 11.0837 8.2699 47.9106 5.3296 -0.7058 29.2145
# 4 9.4321 15.4078 5.3296 38.5866 11.0731 -5.0574
# 5 -5.0708 -4.2240 -0.7058 11.0731 34.8031 15.1755
# 6 21.4305 27.9427 29.2145 -5.0574 15.1755 68.4962
#
#
#
# Elastic Compliance Matrix: (Units=1/GPa)
#
#
# Indices 1 2 3 4 5 6 
#
# 1 0.013095 -0.000381 0.001912 -0.006138 0.006780 -0.006712
# 2 -0.000381 0.008623 0.003490 -0.006441 0.006032 -0.006699
# 3 0.001912 0.003490 0.034353 -0.013625 0.014881 -0.020977
# 4 -0.006138 -0.006441 -0.013625 0.040899 -0.023023 0.018480
# 5 0.006780 0.006032 0.014881 -0.023023 0.048247 -0.023318
# 6 -0.006712 -0.006699 -0.020977 0.018480 -0.023318 0.034910
#
#
# Mechanical properties :
#
#
# Convention : Reuss Voigt Hill
#
# Bulk Modulus (GPa) = 15.12588 42.66157 28.89372
# Shear Modulus (GPa) = 26.02504 44.72474 35.37489
#
# Velocity S-wave (km/s) = 3.14909 4.12822 3.67144
# Velocity P-wave (km/s) = 4.35729 6.24332 5.38354
#
# Compressibility (1/GPa) = 0.06611188
#
# Stress axis : x y z
#
# Youngs Moduli (GPa) = 76.36789 115.97155 29.10912
#
# Poissons Ratio (x) = 0.04423 -0.05566
# Poissons Ratio (y) = 0.02912 -0.10159
# Poissons Ratio (z) = -0.14602 -0.40472
#
# Static dielectric constant tensor:
#      x y z
#    x 2.216330 -0.069930 -0.014750 
#    y -0.069930 2.124030 -0.002500 
#    z -0.014750 -0.002500 2.076320 
# 
# From -- ./inp_files/272237.got.cif
#   From: 2010.05.17/outbox.cif.g08.bks.cpg/sg2_137_cif.got.tgz:272237.got - 2010.06.03 11:33:40.
