data_PCOD9078652
_publ_section_title
;
Structure prediction by ZEFSAII (Michael W. Deem and Ramdas Pophale) SiO2 
 PCOD9078652
Probable space group: P -1
;
_chemical_formula_sum "Si O2"
_cell_formula_units_Z 16
_cell_length_a 8.774649
_cell_length_b 7.926169
_cell_length_c 17.941461
_cell_angle_alpha 71.723360
_cell_angle_beta 51.816157
_cell_angle_gamma 51.694093
_cell_volume 764.750807
_symmetry_space_group_name_H-M "P -1"
_symmetry_group_IT_number 2
_symmetry_cell_setting 'triclinic'
loop_
_space_group_symop_operation_xyz
x,y,z
-x,-y,-z
loop_
_atom_site_type_symbol
_atom_site_label
_atom_site_fract_x
_atom_site_fract_y
_atom_site_fract_z
Si Si1 0.904346 0.239596 0.562278
Si Si2 0.748890 0.454357 0.169961
Si Si3 0.385881 0.057572 0.711295
Si Si4 0.518418 0.319337 0.371745
Si Si5 0.335331 0.934521 0.245614
Si Si6 0.763013 0.891571 0.907455
Si Si7 0.632821 0.175121 0.526202
Si Si8 0.071847 0.969109 0.897354
O O1 0.755729 0.492903 0.587529
O O2 0.832458 0.129893 0.661078
O O3 0.786146 0.231359 0.521744
O O4 0.185329 0.087326 0.497121
O O5 0.665177 0.406118 0.279418
O O6 0.572197 0.708307 0.177213
O O7 0.738857 0.290960 0.138907
O O8 0.026889 0.355680 0.100859
O O9 0.405626 0.892734 0.667380
O O10 0.169392 0.106292 0.820903
O O11 0.593979 0.974242 0.720553
O O12 0.406462 0.228107 0.634196
O O13 0.569219 0.271857 0.450191
O O14 0.232986 0.087027 0.184987
O O15 0.860085 0.018451 0.900736
O O16 0.500000 0.000000 0.000000
O O17 0.000000 0.000000 0.000000
#
# Coordination Sequence:
#
# PCOD9078652 Si02
#       8
#     2   2   2   2   2   2   2   2
#     4   9  20  33  56  83 108 150 188 224 262 329
#     4   8  20  35  59  81 108 149 181 223 276 324
#     4  10  21  34  56  83 114 147 179 235 281 312
#     4  10  18  36  54  80 115 148 180 224 279 321
#     4  10  19  38  57  80 113 145 191 222 265 337
#     4  10  20  35  61  81 103 145 185 224 275 327
#     4  10  19  34  55  81 113 147 186 224 271 326
#     4   9  19  39  59  80 112 142 176 233 282 320
#
# _framework density 20.921849000000002
#
# number of rings (size 3 to 8) (size 9 to 14) (size 15 to 20)
#    0.750    1.750    0.000    2.250    0.000    1.000 
#    0.000    1.875    2.750    0.000    0.000    0.000 
#    0.000    0.000    0.000    0.000    0.000    0.000 
#
# Total GULP energy -89110.883985 kJ/mol
# GULP energy per Si atom -5569.430249 kJ/mol
# Density = 2.087423 g / cm^3
# Si number density = 20.921849 Si / 1000 Ang^3
#
#
#
# Elastic Constant Matrix: (Units=GPa)
#
#
# Indices 1 2 3 4 5 6 
#
# 1 23.5622 -15.9452 16.4322 -5.3785 -1.1549 0.2553
# 2 -15.9452 47.4767 -2.7231 15.4083 -4.9077 -6.6475
# 3 16.4322 -2.7231 97.4703 10.0153 8.1124 -5.1818
# 4 -5.3785 15.4083 10.0153 19.7313 -5.4178 -0.3360
# 5 -1.1549 -4.9077 8.1124 -5.4178 42.7315 7.9488
# 6 0.2553 -6.6475 -5.1818 -0.3360 7.9488 20.9217
#
#
#
# Elastic Compliance Matrix: (Units=1/GPa)
#
#
# Indices 1 2 3 4 5 6 
#
# 1 0.067160 0.018398 -0.012848 0.012687 0.008173 -0.001057
# 2 0.018398 0.036708 0.001087 -0.024201 -0.000718 0.011592
# 3 -0.012848 0.001087 0.014630 -0.013271 -0.005822 0.006124
# 4 0.012687 -0.024201 -0.013271 0.083200 0.013401 -0.014886
# 5 0.008173 -0.000718 -0.005822 0.013401 0.028659 -0.012443
# 6 -0.001057 0.011592 0.006124 -0.014886 -0.012443 0.057499
#
#
# Mechanical properties :
#
#
# Convention : Reuss Voigt Hill
#
# Bulk Modulus (GPa) = 7.58900 18.22634 12.90767
# Shear Modulus (GPa) = 15.69832 28.05993 21.87912
#
# Velocity S-wave (km/s) = 2.74219 3.66618 3.23732
# Velocity P-wave (km/s) = 3.69612 5.16253 4.48960
#
# Compressibility (1/GPa) = 0.13176961
#
# Stress axis : x y z
#
# Youngs Moduli (GPa) = 14.88989 27.24237 68.35436
#
# Poissons Ratio (x) = -0.50121 0.87824
# Poissons Ratio (y) = -0.27394 -0.07427
# Poissons Ratio (z) = 0.19131 -0.02960
#
# Static dielectric constant tensor:
#      x y z
#    x 1.755620 0.015690 -0.034550 
#    y 0.015690 1.807390 0.045400 
#    z -0.034550 0.045400 1.796200 
# 
# From -- ./inp_files/530072.got.cif
#   From: 2010.05.17/outbox.cif.g08.bks.cpg/sg2_266_cif.got.tgz:530072.got - 2010.06.03 11:33:40.
