data_PCOD9078489
_publ_section_title
;
Structure prediction by ZEFSAII (Michael W. Deem and Ramdas Pophale) SiO2 
 PCOD9078489
Probable space group: P -1
;
_chemical_formula_sum "Si O2"
_cell_formula_units_Z 14
_cell_length_a 12.787660
_cell_length_b 7.223090
_cell_length_c 9.265329
_cell_angle_alpha 76.593456
_cell_angle_beta 54.894293
_cell_angle_gamma 103.544979
_cell_volume 604.058277
_symmetry_space_group_name_H-M "P -1"
_symmetry_group_IT_number 2
_symmetry_cell_setting 'triclinic'
loop_
_space_group_symop_operation_xyz
x,y,z
-x,-y,-z
loop_
_atom_site_type_symbol
_atom_site_label
_atom_site_fract_x
_atom_site_fract_y
_atom_site_fract_z
Si Si1 0.109386 0.397509 0.965622
Si Si2 0.079540 0.296938 0.588362
Si Si3 0.235529 0.984257 0.018595
Si Si4 0.246401 0.677257 0.565021
Si Si5 0.825921 0.991670 0.267480
Si Si6 0.520577 0.227623 0.885532
Si Si7 0.756842 0.466730 0.861796
O O1 0.240707 0.530614 0.730821
O O2 0.181916 0.419147 0.057139
O O3 0.000000 0.500000 0.000000
O O4 0.995151 0.153739 0.075880
O O5 0.104420 0.510446 0.619101
O O6 0.128733 0.383009 0.374858
O O7 0.919487 0.107416 0.765450
O O8 0.179679 0.207712 0.603183
O O9 0.254523 0.768247 0.055433
O O10 0.240206 0.041994 0.834662
O O11 0.362605 0.177998 0.967787
O O12 0.234736 0.880688 0.603601
O O13 0.375692 0.726549 0.344315
O O14 0.605686 0.400868 0.910525
O O15 0.500000 0.000000 0.000000
#
# Coordination Sequence:
#
# PCOD9078489 Si02
#       7
#     2   2   2   2   2   2   2
#     4  10  18  35  63  91 122 157 207 264 305 364
#     4  11  23  38  70  95 126 165 211 266 319 361
#     4  11  19  38  63  95 127 166 210 260 311 382
#     4  10  20  41  66  90 128 167 208 256 318 371
#     4  11  22  38  66 104 122 156 223 265 310 371
#     4   9  22  38  63  92 128 171 211 250 319 382
#     4  10  20  40  60  92 126 167 208 258 314 376
#
# _framework density 23.176573000000001
#
# number of rings (size 3 to 8) (size 9 to 14) (size 15 to 20)
#    0.000    1.714    4.286    1.714    0.000    5.714 
#    0.000    2.857    0.000    8.571    0.000    0.000 
#    0.000    0.000    0.000    0.000    0.000    0.000 
#
# Total GULP energy -78087.765257 kJ/mol
# GULP energy per Si atom -5577.697518 kJ/mol
# Density = 2.312382 g / cm^3
# Si number density = 23.176573 Si / 1000 Ang^3
#
#
#
# Elastic Constant Matrix: (Units=GPa)
#
#
# Indices 1 2 3 4 5 6 
#
# 1 148.6220 63.1354 62.0019 9.3167 19.4780 34.1984
# 2 63.1354 77.5402 20.5534 7.4531 9.5702 23.0671
# 3 62.0019 20.5534 133.9293 10.4620 32.2178 20.8688
# 4 9.3167 7.4531 10.4620 17.3024 9.8899 6.7399
# 5 19.4780 9.5702 32.2178 9.8899 43.5336 -2.9019
# 6 34.1984 23.0671 20.8688 6.7399 -2.9019 54.4565
#
#
#
# Elastic Compliance Matrix: (Units=1/GPa)
#
#
# Indices 1 2 3 4 5 6 
#
# 1 0.012729 -0.008313 -0.003845 0.001166 -0.001502 -0.003224
# 2 -0.008313 0.020893 0.001984 -0.003014 -0.001932 -0.004120
# 3 -0.003845 0.001984 0.011147 -0.000278 -0.007105 -0.003042
# 4 0.001166 -0.003014 -0.000278 0.071626 -0.016531 -0.009094
# 5 -0.001502 -0.001932 -0.007105 -0.016531 0.033636 0.008323
# 6 -0.003224 -0.004120 -0.003042 -0.009094 0.008323 0.024868
#
#
# Mechanical properties :
#
#
# Convention : Reuss Voigt Hill
#
# Bulk Modulus (GPa) = 40.94591 72.38589 56.66590
# Shear Modulus (GPa) = 24.58364 37.35189 30.96777
#
# Velocity S-wave (km/s) = 3.26039 4.01886 3.65933
# Velocity P-wave (km/s) = 5.64613 7.26878 6.50822
#
# Compressibility (1/GPa) = 0.02442247
#
# Stress axis : x y z
#
# Youngs Moduli (GPa) = 78.55780 47.86258 89.71138
#
# Poissons Ratio (x) = 0.39789 0.34490
# Poissons Ratio (y) = 0.65307 -0.17802
# Poissons Ratio (z) = 0.30202 -0.09498
#
# Static dielectric constant tensor:
#      x y z
#    x 1.934060 -0.025800 -0.014180 
#    y -0.025800 1.946730 0.041920 
#    z -0.014180 0.041920 1.876480 
# 
# From -- ./inp_files/237588.got.cif
#   From: 2010.05.17/outbox.cif.g08.bks.cpg/sg2_119_cif.got.tgz:237588.got - 2010.06.03 11:33:40.
