data_PCOD9078757
_publ_section_title
;
Structure prediction by ZEFSAII (Michael W. Deem and Ramdas Pophale) SiO2 
 PCOD9078757
Probable space group: P -1
;
_chemical_formula_sum "Si O2"
_cell_formula_units_Z 16
_cell_length_a 11.884621
_cell_length_b 9.224217
_cell_length_c 9.513881
_cell_angle_alpha 128.843030
_cell_angle_beta 61.357511
_cell_angle_gamma 86.368288
_cell_volume 603.452305
_symmetry_space_group_name_H-M "P -1"
_symmetry_group_IT_number 2
_symmetry_cell_setting 'triclinic'
loop_
_space_group_symop_operation_xyz
x,y,z
-x,-y,-z
loop_
_atom_site_type_symbol
_atom_site_label
_atom_site_fract_x
_atom_site_fract_y
_atom_site_fract_z
Si Si1 0.340874 0.639681 0.099967
Si Si2 0.867248 0.575706 0.511347
Si Si3 0.927941 0.208225 0.015983
Si Si4 0.500079 0.889382 0.649630
Si Si5 0.439559 0.380923 0.266895
Si Si6 0.238794 0.896198 0.754973
Si Si7 0.220702 0.100489 0.492426
Si Si8 0.769826 0.583311 0.118469
O O1 0.406533 0.684029 0.944468
O O2 0.258580 0.502263 0.060854
O O3 0.500000 0.500000 0.000000
O O4 0.219384 0.882640 0.375529
O O5 0.906480 0.375009 0.258076
O O6 0.698528 0.652696 0.719320
O O7 0.000000 0.500000 0.500000
O O8 0.850659 0.759375 0.521500
O O9 0.826963 0.109771 0.058621
O O10 0.866363 0.353842 0.004530
O O11 0.097954 0.010647 0.807201
O O12 0.516957 0.743934 0.685715
O O13 0.328449 0.020560 0.783277
O O14 0.598509 0.724335 0.365595
O O15 0.402861 0.003750 0.314688
O O16 0.353475 0.644201 0.493578
O O17 0.171267 0.269323 0.757422
#
# Coordination Sequence:
#
# PCOD9078757 Si02
#       8
#     2   2   2   2   2   2   2   2
#     4  12  24  35  57  83 106 155 201 226 268 323
#     4   9  18  33  51  84 117 145 170 230 295 342
#     4   9  18  27  48  79 111 144 178 206 282 360
#     4   9  16  33  57  78 107 143 169 232 303 322
#     4  10  18  32  51  79 119 139 183 232 276 342
#     4  10  15  26  49  82 106 139 173 215 279 339
#     4   8  20  37  54  82 109 142 185 229 285 325
#     4   9  18  39  54  76 112 140 182 240 278 329
#
# _framework density 26.514109000000001
#
# number of rings (size 3 to 8) (size 9 to 14) (size 15 to 20)
#    0.750    1.750    3.750    1.125    0.000    7.500 
#    0.000    0.000    0.000    3.000    0.000    4.375 
#    0.000    0.000    0.000    0.000    0.000    0.000 
#
# Total GULP energy -89280.603558 kJ/mol
# GULP energy per Si atom -5580.037722 kJ/mol
# Density = 2.645376 g / cm^3
# Si number density = 26.514109 Si / 1000 Ang^3
#
#
#
# Elastic Constant Matrix: (Units=GPa)
#
#
# Indices 1 2 3 4 5 6 
#
# 1 140.8444 10.0400 22.3255 2.7728 -3.2419 -12.3927
# 2 10.0400 70.0456 24.4815 7.2479 11.3963 -2.6317
# 3 22.3255 24.4815 67.4323 14.8481 12.1312 5.1300
# 4 2.7728 7.2479 14.8481 31.7992 10.4241 -1.4249
# 5 -3.2419 11.3963 12.1312 10.4241 37.3258 0.3314
# 6 -12.3927 -2.6317 5.1300 -1.4249 0.3314 39.2216
#
#
#
# Elastic Compliance Matrix: (Units=1/GPa)
#
#
# Indices 1 2 3 4 5 6 
#
# 1 0.007898 -0.000237 -0.003136 0.000424 0.001633 0.002891
# 2 -0.000237 0.016878 -0.005573 -0.000039 -0.003368 0.001814
# 3 -0.003136 -0.005573 0.020350 -0.007113 -0.003160 -0.004258
# 4 0.000424 -0.000039 -0.007113 0.037521 -0.008140 0.002493
# 5 0.001633 -0.003368 -0.003160 -0.008140 0.031260 0.000144
# 6 0.002891 0.001814 -0.004258 0.002493 0.000144 0.027178
#
#
# Mechanical properties :
#
#
# Convention : Reuss Voigt Hill
#
# Bulk Modulus (GPa) = 36.71788 43.55734 40.13761
# Shear Modulus (GPa) = 29.75232 36.43434 33.09333
#
# Velocity S-wave (km/s) = 3.35346 3.71097 3.53674
# Velocity P-wave (km/s) = 5.37334 5.90131 5.64350
#
# Compressibility (1/GPa) = 0.02723469
#
# Stress axis : x y z
#
# Youngs Moduli (GPa) = 126.62002 59.24797 49.14032
#
# Poissons Ratio (x) = 0.01404 0.15410
# Poissons Ratio (y) = 0.03001 0.27384
# Poissons Ratio (z) = 0.39706 0.33017
#
# Static dielectric constant tensor:
#      x y z
#    x 2.124570 0.042570 0.054280 
#    y 0.042570 2.100610 -0.065090 
#    z 0.054280 -0.065090 2.131590 
# 
# From -- ./inp_files/426908.got.cif
#   From: 2010.05.17/outbox.cif.g08.bks.cpg/sg2_214_cif.got.tgz:426908.got - 2010.06.03 11:33:40.
