data_PCOD9078379
_publ_section_title
;
Structure prediction by ZEFSAII (Michael W. Deem and Ramdas Pophale) SiO2 
 PCOD9078379
Probable space group: P -1
;
_chemical_formula_sum "Si O2"
_cell_formula_units_Z 14
_cell_length_a 13.148243
_cell_length_b 19.285029
_cell_length_c 9.851416
_cell_angle_alpha 37.023995
_cell_angle_beta 134.102915
_cell_angle_gamma 157.891172
_cell_volume 555.473485
_symmetry_space_group_name_H-M "P -1"
_symmetry_group_IT_number 2
_symmetry_cell_setting 'triclinic'
loop_
_space_group_symop_operation_xyz
x,y,z
-x,-y,-z
loop_
_atom_site_type_symbol
_atom_site_label
_atom_site_fract_x
_atom_site_fract_y
_atom_site_fract_z
Si Si1 0.523238 0.818303 0.283444
Si Si2 0.967891 0.332023 0.494226
Si Si3 0.349838 0.674438 0.815460
Si Si4 0.625233 0.531448 0.701603
Si Si5 0.909761 0.833065 0.079738
Si Si6 0.850320 0.253414 0.818016
Si Si7 0.816935 0.943337 0.608876
O O1 0.272993 0.583457 0.339298
O O2 0.387146 0.821482 0.249395
O O3 0.672953 0.835906 0.497150
O O4 0.724740 0.038201 0.040198
O O5 0.935861 0.172824 0.714166
O O6 0.742361 0.260538 0.334810
O O7 0.961577 0.354343 0.614486
O O8 0.599389 0.838715 0.682978
O O9 0.089374 0.437218 0.862925
O O10 0.384699 0.614056 0.069733
O O11 0.500000 0.500000 0.500000
O O12 0.413678 0.417728 0.802636
O O13 0.930986 0.793172 0.585922
O O14 0.926361 0.900065 0.841412
O O15 0.000000 0.000000 0.000000
#
# Coordination Sequence:
#
# PCOD9078379 Si02
#       7
#     2   2   2   2   2   2   2
#     4  10  19  34  64 100 133 160 195 253 324 384
#     4  11  22  40  63 100 132 158 211 262 312 382
#     4  10  20  37  69  98 123 165 204 259 323 377
#     4  11  23  43  67  84 123 178 216 257 312 373
#     4  11  26  45  64  82 126 179 217 261 315 363
#     4  10  18  35  62 101 137 159 190 256 329 382
#     4  11  20  40  66  89 127 168 206 252 320 378
#
# _framework density 25.203723
#
# number of rings (size 3 to 8) (size 9 to 14) (size 15 to 20)
#    0.000    1.429    5.714    0.857    0.000    1.714 
#    0.000    5.000    0.000    0.000    0.000    0.000 
#    0.000    0.000    0.000    0.000    0.000    0.000 
#
# Total GULP energy -78331.539138 kJ/mol
# GULP energy per Si atom -5595.109938 kJ/mol
# Density = 2.514636 g / cm^3
# Si number density = 25.203723 Si / 1000 Ang^3
#
#
#
# Elastic Constant Matrix: (Units=GPa)
#
#
# Indices 1 2 3 4 5 6 
#
# 1 49.1521 14.0964 43.1195 4.3043 31.7637 14.1834
# 2 14.0964 91.8830 51.1635 -3.5739 12.5446 16.4847
# 3 43.1195 51.1635 211.8567 7.2243 26.8414 17.1243
# 4 4.3043 -3.5739 7.2243 58.0236 8.9598 1.2396
# 5 31.7637 12.5446 26.8414 8.9598 51.5685 11.0593
# 6 14.1834 16.4847 17.1243 1.2396 11.0593 24.2853
#
#
#
# Elastic Compliance Matrix: (Units=1/GPa)
#
#
# Indices 1 2 3 4 5 6 
#
# 1 0.041212 0.001628 -0.005221 0.001142 -0.020657 -0.012144
# 2 0.001628 0.013912 -0.002931 0.001492 -0.001461 -0.007738
# 3 -0.005221 -0.002931 0.006411 -0.000699 0.000659 0.000254
# 4 0.001142 0.001492 -0.000699 0.017913 -0.003729 -0.000404
# 5 -0.020657 -0.001461 0.000659 -0.003729 0.033285 -0.002376
# 6 -0.012144 -0.007738 0.000254 -0.000404 -0.002376 0.054445
#
#
# Mechanical properties :
#
#
# Convention : Reuss Voigt Hill
#
# Bulk Modulus (GPa) = 20.62471 63.29449 41.95960
# Shear Modulus (GPa) = 25.45970 43.07631 34.26800
#
# Velocity S-wave (km/s) = 3.18174 4.13864 3.69133
# Velocity P-wave (km/s) = 4.65821 6.92860 5.90358
#
# Compressibility (1/GPa) = 0.04848552
#
# Stress axis : x y z
#
# Youngs Moduli (GPa) = 24.26461 71.88211 155.99307
#
# Poissons Ratio (x) = -0.11705 0.81450
# Poissons Ratio (y) = -0.03951 0.45728
# Poissons Ratio (z) = 0.12669 0.21071
#
# Static dielectric constant tensor:
#      x y z
#    x 2.025480 0.054500 0.047160 
#    y 0.054500 2.021140 0.005320 
#    z 0.047160 0.005320 1.994720 
# 
# From -- ./inp_files/389667.got.cif
#   From: 2010.05.17/outbox.cif.g08.bks.cpg/sg2_195_cif.got.tgz:389667.got - 2010.06.03 11:33:40.
