data_PCOD9078420
_publ_section_title
;
Structure prediction by ZEFSAII (Michael W. Deem and Ramdas Pophale) SiO2 
 PCOD9078420
Probable space group: P -1
;
_chemical_formula_sum "Si O2"
_cell_formula_units_Z 16
_cell_length_a 11.660879
_cell_length_b 15.533804
_cell_length_c 7.841077
_cell_angle_alpha 35.254433
_cell_angle_beta 64.473084
_cell_angle_gamma 55.912911
_cell_volume 677.900170
_symmetry_space_group_name_H-M "P -1"
_symmetry_group_IT_number 2
_symmetry_cell_setting 'triclinic'
loop_
_space_group_symop_operation_xyz
x,y,z
-x,-y,-z
loop_
_atom_site_type_symbol
_atom_site_label
_atom_site_fract_x
_atom_site_fract_y
_atom_site_fract_z
Si Si1 0.934092 0.478398 0.894526
Si Si2 0.633395 0.834146 0.672518
Si Si3 0.287255 0.956921 0.235414
Si Si4 0.113088 0.857285 0.263073
Si Si5 0.310342 0.517186 0.727991
Si Si6 0.728957 0.718965 0.421781
Si Si7 0.484825 0.394812 0.336983
Si Si8 0.114157 0.141473 0.331878
O O1 0.883090 0.623589 0.555640
O O2 0.790673 0.465647 0.068922
O O3 0.000000 0.500000 0.000000
O O4 0.049286 0.318309 0.998137
O O5 0.648030 0.787942 0.539404
O O6 0.765283 0.863474 0.609248
O O7 0.500000 0.000000 0.500000
O O8 0.638548 0.674867 0.032122
O O9 0.178816 0.994293 0.399069
O O10 0.223356 0.922495 0.159111
O O11 0.420909 0.795829 0.445137
O O12 0.302492 0.125825 0.928371
O O13 0.204606 0.672885 0.436017
O O14 0.016980 0.849594 0.492553
O O15 0.000000 0.000000 0.000000
O O16 0.443826 0.551224 0.640363
O O17 0.669625 0.597820 0.567230
O O18 0.500000 0.500000 0.000000
#
# Coordination Sequence:
#
# PCOD9078420 Si02
#       8
#     2   2   2   2   2   2   2   2
#     4  10  18  35  62  90 121 159 207 254 316 372
#     4  11  21  36  64  91 122 165 219 254 318 372
#     4  11  25  39  62  95 129 160 214 265 314 377
#     4  10  22  40  67  90 127 167 209 259 322 385
#     4   9  20  36  61  94 119 167 208 258 311 387
#     4  11  22  40  66  92 122 172 213 260 314 382
#     4  11  20  40  63  86 124 170 215 248 320 374
#     4  11  22  38  61  93 127 160 208 263 315 380
#
# _framework density 23.602295000000002
#
# number of rings (size 3 to 8) (size 9 to 14) (size 15 to 20)
#    0.000    1.500    5.000    2.250    1.750    0.500 
#    0.000    0.000    2.750    4.500    0.000    0.000 
#    0.000    0.000    0.000    0.000    0.000    0.000 
#
# Total GULP energy -89244.030371 kJ/mol
# GULP energy per Si atom -5577.751898 kJ/mol
# Density = 2.354857 g / cm^3
# Si number density = 23.602295 Si / 1000 Ang^3
#
#
#
# Elastic Constant Matrix: (Units=GPa)
#
#
# Indices 1 2 3 4 5 6 
#
# 1 111.9401 5.1586 33.8152 -13.7554 7.3233 1.5261
# 2 5.1586 56.2330 13.5935 -20.8450 12.8554 1.1462
# 3 33.8152 13.5935 127.0997 -23.8113 19.0679 -3.5859
# 4 -13.7554 -20.8450 -23.8113 27.6140 -6.7852 5.4122
# 5 7.3233 12.8554 19.0679 -6.7852 43.1726 -6.8517
# 6 1.5261 1.1462 -3.5859 5.4122 -6.8517 15.9144
#
#
#
# Elastic Compliance Matrix: (Units=1/GPa)
#
#
# Indices 1 2 3 4 5 6 
#
# 1 0.010193 0.001857 -0.001829 0.005356 -0.001248 -0.003882
# 2 0.001857 0.028400 0.001901 0.024731 -0.007883 -0.013600
# 3 -0.001829 0.001901 0.010331 0.008955 -0.003777 -0.002305
# 4 0.005356 0.024731 0.008955 0.069036 -0.005525 -0.026134
# 5 -0.001248 -0.007883 -0.003777 -0.005525 0.028759 0.014097
# 6 -0.003882 -0.013600 -0.002305 -0.026134 0.014097 0.078626
#
#
# Mechanical properties :
#
#
# Convention : Reuss Voigt Hill
#
# Bulk Modulus (GPa) = 18.94638 44.48970 31.71804
# Shear Modulus (GPa) = 20.91339 33.52058 27.21698
#
# Velocity S-wave (km/s) = 2.97993 3.77268 3.39949
# Velocity P-wave (km/s) = 4.45923 6.15371 5.37368
#
# Compressibility (1/GPa) = 0.05278052
#
# Stress axis : x y z
#
# Youngs Moduli (GPa) = 98.10490 35.21113 96.80072
#
# Poissons Ratio (x) = -0.06539 0.17708
# Poissons Ratio (y) = -0.18220 -0.18397
# Poissons Ratio (z) = 0.17947 -0.06692
#
# Static dielectric constant tensor:
#      x y z
#    x 1.943590 0.001120 0.000130 
#    y 0.001120 1.926610 -0.018220 
#    z 0.000130 -0.018220 2.099260 
# 
# From -- ./inp_files/277226.got.cif
#   From: 2010.05.17/outbox.cif.g08.bks.cpg/sg2_139_cif.got.tgz:277226.got - 2010.06.03 11:33:40.
