data_PCOD9078281
_publ_section_title
;
Structure prediction by ZEFSAII (Michael W. Deem and Ramdas Pophale) SiO2 
 PCOD9078281
Probable space group: P -1
;
_chemical_formula_sum "Si O2"
_cell_formula_units_Z 16
_cell_length_a 16.134384
_cell_length_b 9.602033
_cell_length_c 10.516500
_cell_angle_alpha 100.668492
_cell_angle_beta 152.154224
_cell_angle_gamma 93.488148
_cell_volume 652.276966
_symmetry_space_group_name_H-M "P -1"
_symmetry_group_IT_number 2
_symmetry_cell_setting 'triclinic'
loop_
_space_group_symop_operation_xyz
x,y,z
-x,-y,-z
loop_
_atom_site_type_symbol
_atom_site_label
_atom_site_fract_x
_atom_site_fract_y
_atom_site_fract_z
Si Si1 0.347202 0.757238 0.673582
Si Si2 0.056211 0.209719 0.227949
Si Si3 0.236671 0.448392 0.751906
Si Si4 0.443554 0.208799 0.776665
Si Si5 0.660790 0.532713 0.529226
Si Si6 0.978571 0.581214 0.315201
Si Si7 0.607728 0.053814 0.496479
Si Si8 0.411254 0.678941 0.351791
O O1 0.401669 0.617477 0.679974
O O2 0.364201 0.860293 0.589818
O O3 0.115910 0.683973 0.401378
O O4 0.492752 0.831172 0.007160
O O5 0.136110 0.314739 0.484602
O O6 0.199753 0.126676 0.413681
O O7 0.132473 0.333776 0.232793
O O8 0.819269 0.100615 0.862016
O O9 0.155012 0.368469 0.766353
O O10 0.146544 0.570561 0.626356
O O11 0.469341 0.594492 0.081449
O O12 0.510951 0.133167 0.739615
O O13 0.551755 0.634526 0.448380
O O14 0.648469 0.437811 0.625339
O O15 0.814158 0.399210 0.024676
O O16 0.507089 0.138967 0.458395
#
# Coordination Sequence:
#
# PCOD9078281 Si02
#       8
#     2   2   2   2   2   2   2   2
#     4  10  21  40  66  89 119 160 206 252 294 361
#     4  12  21  39  63  92 121 157 209 253 297 353
#     4  10  21  35  61  91 121 156 203 252 295 354
#     4  11  23  38  61  95 124 164 193 247 310 367
#     4  10  20  35  60  92 117 152 208 255 302 336
#     4  10  18  35  60  90 112 152 207 249 294 340
#     4  11  23  41  62  89 128 162 198 240 312 369
#     4  10  20  35  59  88 122 157 199 257 295 356
#
# _framework density 24.529457000000001
#
# number of rings (size 3 to 8) (size 9 to 14) (size 15 to 20)
#    0.000    1.500    3.750    2.625    1.750    2.000 
#    0.000    2.500    5.500    0.750    0.000    0.000 
#    0.000    0.000    0.000    0.000    0.000    0.000 
#
# Total GULP energy -89124.260625 kJ/mol
# GULP energy per Si atom -5570.266289 kJ/mol
# Density = 2.447363 g / cm^3
# Si number density = 24.529457 Si / 1000 Ang^3
#
#
#
# Elastic Constant Matrix: (Units=GPa)
#
#
# Indices 1 2 3 4 5 6 
#
# 1 159.8910 30.8061 57.5682 13.4946 -23.6905 -10.4324
# 2 30.8061 86.9590 48.6583 8.8058 -7.3724 -12.7335
# 3 57.5682 48.6583 109.6488 12.0861 -20.6072 -15.5587
# 4 13.4946 8.8058 12.0861 22.0912 -4.0593 -5.6664
# 5 -23.6905 -7.3724 -20.6072 -4.0593 41.0154 8.3520
# 6 -10.4324 -12.7335 -15.5587 -5.6664 8.3520 41.0529
#
#
#
# Elastic Compliance Matrix: (Units=1/GPa)
#
#
# Indices 1 2 3 4 5 6 
#
# 1 0.008146 -0.000621 -0.003241 -0.002514 0.002770 -0.000261
# 2 -0.000621 0.015701 -0.006349 -0.002072 -0.001401 0.002305
# 3 -0.003241 -0.006349 0.014883 -0.002481 0.003869 0.001718
# 4 -0.002514 -0.002072 -0.002481 0.050327 0.000989 0.004524
# 5 0.002770 -0.001401 0.003869 0.000989 0.028574 -0.003941
# 6 -0.000261 0.002305 0.001718 0.004524 -0.003941 0.027085
#
#
# Mechanical properties :
#
#
# Convention : Reuss Voigt Hill
#
# Bulk Modulus (GPa) = 54.62062 70.06267 62.34165
# Shear Modulus (GPa) = 29.19848 35.46297 32.33073
#
# Velocity S-wave (km/s) = 3.45388 3.80640 3.63442
# Velocity P-wave (km/s) = 6.18235 6.92408 6.56370
#
# Compressibility (1/GPa) = 0.01830810
#
# Stress axis : x y z
#
# Youngs Moduli (GPa) = 122.75538 63.68997 67.18880
#
# Poissons Ratio (x) = 0.03958 0.21774
# Poissons Ratio (y) = 0.07629 0.42660
# Poissons Ratio (z) = 0.39781 0.40438
#
# Static dielectric constant tensor:
#      x y z
#    x 2.065930 0.011240 0.046470 
#    y 0.011240 2.031090 -0.033850 
#    z 0.046470 -0.033850 2.037470 
# 
# From -- ./inp_files/463929.got.cif
#   From: 2010.05.17/outbox.cif.g08.bks.cpg/sg2_232_cif.got.tgz:463929.got - 2010.06.03 11:33:40.
