data_PCOD9078597
_publ_section_title
;
Structure prediction by ZEFSAII (Michael W. Deem and Ramdas Pophale) SiO2 
 PCOD9078597
Probable space group: P -1
;
_chemical_formula_sum "Si O2"
_cell_formula_units_Z 16
_cell_length_a 12.206385
_cell_length_b 14.371430
_cell_length_c 14.241554
_cell_angle_alpha 151.527531
_cell_angle_beta 136.808899
_cell_angle_gamma 64.034978
_cell_volume 638.076667
_symmetry_space_group_name_H-M "P -1"
_symmetry_group_IT_number 2
_symmetry_cell_setting 'triclinic'
loop_
_space_group_symop_operation_xyz
x,y,z
-x,-y,-z
loop_
_atom_site_type_symbol
_atom_site_label
_atom_site_fract_x
_atom_site_fract_y
_atom_site_fract_z
Si Si1 0.525978 0.353928 0.698309
Si Si2 0.831140 0.449193 0.453042
Si Si3 0.717424 0.903947 0.873764
Si Si4 0.757516 0.413133 0.160864
Si Si5 0.152434 0.105212 0.384544
Si Si6 0.226571 0.094046 0.724588
Si Si7 0.299973 0.910711 0.440935
Si Si8 0.487913 0.224093 0.179768
O O1 0.404027 0.219603 0.406728
O O2 0.352228 0.214307 0.544192
O O3 0.693639 0.310674 0.776785
O O4 0.634911 0.643636 0.011484
O O5 0.793895 0.504981 0.374925
O O6 0.690470 0.429455 0.428951
O O7 0.070266 0.620082 0.778190
O O8 0.767677 0.173206 0.155022
O O9 0.569132 0.739257 0.721610
O O10 0.936456 0.963581 0.071152
O O11 0.800959 0.636499 0.323553
O O12 0.531886 0.159194 0.786089
O O13 0.150264 0.938223 0.314216
O O14 0.254431 0.914885 0.525642
O O15 0.305943 0.133868 0.914627
O O16 0.000000 0.000000 0.500000
O O17 0.500000 0.000000 0.000000
#
# Coordination Sequence:
#
# PCOD9078597 Si02
#       8
#     2   2   2   2   2   2   2   2
#     4  12  25  45  70  95 135 182 219 278 337 388
#     4   9  17  34  64 101 131 178 224 265 333 391
#     4  10  21  39  66  96 138 170 223 278 324 399
#     4  10  18  35  66  97 134 176 218 275 328 387
#     4  11  23  40  66 104 136 175 220 277 338 389
#     4  12  27  47  70  97 135 179 223 272 339 403
#     4  12  23  45  68  99 141 172 221 280 326 408
#     4  10  19  41  66  98 130 175 223 275 326 389
#
# _framework density 25.075355999999999
#
# number of rings (size 3 to 8) (size 9 to 14) (size 15 to 20)
#    0.000    1.250    3.750    2.625    0.000    1.000 
#    2.250    1.250    0.000    0.000    0.000    0.000 
#    0.000    0.000    0.000    0.000    0.000    0.000 
#
# Total GULP energy -89702.502044 kJ/mol
# GULP energy per Si atom -5606.406378 kJ/mol
# Density = 2.501828 g / cm^3
# Si number density = 25.075356 Si / 1000 Ang^3
#
#
#
# Elastic Constant Matrix: (Units=GPa)
#
#
# Indices 1 2 3 4 5 6 
#
# 1 115.4485 1.9123 20.7025 -20.0935 12.2133 -5.1085
# 2 1.9123 105.7725 12.3129 -18.5993 -5.1216 -10.1030
# 3 20.7025 12.3129 58.6755 -4.9306 14.3899 -7.1648
# 4 -20.0935 -18.5993 -4.9306 42.0311 -9.8627 -0.3582
# 5 12.2133 -5.1216 14.3899 -9.8627 33.6896 -5.8606
# 6 -5.1085 -10.1030 -7.1648 -0.3582 -5.8606 44.5121
#
#
#
# Elastic Compliance Matrix: (Units=1/GPa)
#
#
# Indices 1 2 3 4 5 6 
#
# 1 0.010151 0.001085 -0.003150 0.004829 -0.000606 0.000864
# 2 0.001085 0.011459 -0.003134 0.006440 0.005084 0.002942
# 3 -0.003150 -0.003134 0.020895 -0.002496 -0.008797 0.001112
# 4 0.004829 0.006440 -0.002496 0.031014 0.009925 0.003171
# 5 -0.000606 0.005084 -0.008797 0.009925 0.038169 0.004774
# 6 0.000864 0.002942 0.001112 0.003171 0.004774 0.024066
#
#
# Mechanical properties :
#
#
# Convention : Reuss Voigt Hill
#
# Bulk Modulus (GPa) = 31.14372 38.86132 35.00252
# Shear Modulus (GPa) = 31.87671 40.37781 36.12726
#
# Velocity S-wave (km/s) = 3.56931 4.01716 3.79984
# Velocity P-wave (km/s) = 5.42528 6.08672 5.76549
#
# Compressibility (1/GPa) = 0.03210920
#
# Stress axis : x y z
#
# Youngs Moduli (GPa) = 98.50762 87.26634 47.85754
#
# Poissons Ratio (x) = -0.09472 0.15074
# Poissons Ratio (y) = -0.10692 0.14999
# Poissons Ratio (z) = 0.31027 0.27350
#
# Static dielectric constant tensor:
#      x y z
#    x 1.985620 -0.030970 -0.051120 
#    y -0.030970 2.017180 0.048170 
#    z -0.051120 0.048170 1.983120 
# 
# From -- ./inp_files/522708.got.cif
#   From: 2010.05.17/outbox.cif.g08.bks.cpg/sg2_262_cif.got.tgz:522708.got - 2010.06.03 11:33:40.
