data_PCOD9078892
_publ_section_title
;
Structure prediction by ZEFSAII (Michael W. Deem and Ramdas Pophale) SiO2 
 PCOD9078892
Probable space group: P -1
;
_chemical_formula_sum "Si O2"
_cell_formula_units_Z 14
_cell_length_a 16.785509
_cell_length_b 7.265408
_cell_length_c 8.049696
_cell_angle_alpha 106.741055
_cell_angle_beta 65.607374
_cell_angle_gamma 136.801179
_cell_volume 611.879746
_symmetry_space_group_name_H-M "P -1"
_symmetry_group_IT_number 2
_symmetry_cell_setting 'triclinic'
loop_
_space_group_symop_operation_xyz
x,y,z
-x,-y,-z
loop_
_atom_site_type_symbol
_atom_site_label
_atom_site_fract_x
_atom_site_fract_y
_atom_site_fract_z
Si Si1 0.611600 0.364574 0.129370
Si Si2 0.764790 0.221393 0.423202
Si Si3 0.515696 0.307726 0.512875
Si Si4 0.912522 0.639443 0.104248
Si Si5 0.408750 0.324457 0.181313
Si Si6 0.838270 0.944440 0.140191
Si Si7 0.761256 0.257586 0.824593
O O1 0.604251 0.322248 0.322392
O O2 0.479862 0.253431 0.185760
O O3 0.712714 0.684298 0.094072
O O4 0.654849 0.246258 0.964677
O O5 0.843377 0.451616 0.275323
O O6 0.785947 0.316762 0.621248
O O7 0.619341 0.990486 0.443492
O O8 0.806929 0.064551 0.325416
O O9 0.500000 0.500000 0.500000
O O10 0.583718 0.468632 0.666050
O O11 0.886680 0.827572 0.159220
O O12 0.862763 0.471761 0.929496
O O13 0.058076 0.833182 0.021009
O O14 0.280010 0.026491 0.182963
O O15 0.500000 0.500000 0.000000
#
# Coordination Sequence:
#
# PCOD9078892 Si02
#       7
#     2   2   2   2   2   2   2
#     4  10  20  40  60  84 124 167 190 258 315 350
#     4  12  21  42  66  90 126 168 204 258 316 363
#     4  10  18  36  60  83 122 165 197 240 320 366
#     4  10  25  43  64  95 119 169 213 253 312 370
#     4  11  20  35  58  90 123 158 207 249 309 374
#     4  10  21  45  66  84 132 162 208 261 306 373
#     4  11  23  39  60  95 126 153 217 260 294 378
#
# _framework density 22.880312
#
# number of rings (size 3 to 8) (size 9 to 14) (size 15 to 20)
#    0.000    1.429    5.714    1.714    0.000    0.571 
#    7.714   10.000    0.000    0.000    0.000    0.000 
#    0.000    0.000    0.000    0.000    0.000    0.000 
#
# Total GULP energy -78100.316237 kJ/mol
# GULP energy per Si atom -5578.594017 kJ/mol
# Density = 2.282824 g / cm^3
# Si number density = 22.880312 Si / 1000 Ang^3
#
#
#
# Elastic Constant Matrix: (Units=GPa)
#
#
# Indices 1 2 3 4 5 6 
#
# 1 37.3345 25.1159 22.0608 6.2260 -3.5611 -3.1966
# 2 25.1159 127.6508 100.4850 -11.6155 10.1165 3.0173
# 3 22.0608 100.4850 192.7893 13.3236 2.7554 -10.6158
# 4 6.2260 -11.6155 13.3236 43.9220 -1.2841 -5.6909
# 5 -3.5611 10.1165 2.7554 -1.2841 26.9444 -11.2759
# 6 -3.1966 3.0173 -10.6158 -5.6909 -11.2759 22.5956
#
#
#
# Elastic Compliance Matrix: (Units=1/GPa)
#
#
# Indices 1 2 3 4 5 6 
#
# 1 0.036445 -0.011420 0.002788 -0.006904 0.014038 0.013257
# 2 -0.011420 0.020496 -0.010510 0.008004 -0.013642 -0.014082
# 3 0.002788 -0.010510 0.011107 -0.005172 0.006728 0.009071
# 4 -0.006904 0.008004 -0.005172 0.027631 -0.001305 0.001833
# 5 0.014038 -0.013642 0.006728 -0.001305 0.058293 0.035730
# 6 0.013257 -0.014082 0.009071 0.001833 0.035730 0.070566
#
#
# Mechanical properties :
#
#
# Convention : Reuss Voigt Hill
#
# Bulk Modulus (GPa) = 33.59618 72.56645 53.08131
# Shear Modulus (GPa) = 18.33234 32.69993 25.51613
#
# Velocity S-wave (km/s) = 2.83367 3.78454 3.34308
# Velocity P-wave (km/s) = 5.04198 7.13313 6.17669
#
# Compressibility (1/GPa) = 0.02976529
#
# Stress axis : x y z
#
# Youngs Moduli (GPa) = 27.43855 48.78954 90.03682
#
# Poissons Ratio (x) = 0.55716 -0.25104
# Poissons Ratio (y) = 0.31334 0.94627
# Poissons Ratio (z) = -0.07651 0.51277
#
# Static dielectric constant tensor:
#      x y z
#    x 2.018540 0.026940 0.128650 
#    y 0.026940 1.916180 0.014050 
#    z 0.128650 0.014050 1.919620 
# 
# From -- ./inp_files/201920.got.cif
#   From: 2010.05.17/outbox.cif.g08.bks.cpg/sg2_101_cif.got.tgz:201920.got - 2010.06.03 11:33:40.
