data_PCOD9079436
_publ_section_title
;
Structure prediction by ZEFSAII (Michael W. Deem and Ramdas Pophale) SiO2 
 PCOD9079436
Probable space group: P -1
;
_chemical_formula_sum "Si O2"
_cell_formula_units_Z 16
_cell_length_a 18.645870
_cell_length_b 9.651449
_cell_length_c 8.150336
_cell_angle_alpha 87.009804
_cell_angle_beta 76.232956
_cell_angle_gamma 35.308748
_cell_volume 796.600177
_symmetry_space_group_name_H-M "P -1"
_symmetry_group_IT_number 2
_symmetry_cell_setting 'triclinic'
loop_
_space_group_symop_operation_xyz
x,y,z
-x,-y,-z
loop_
_atom_site_type_symbol
_atom_site_label
_atom_site_fract_x
_atom_site_fract_y
_atom_site_fract_z
Si Si1 0.010865 0.347912 0.890584
Si Si2 0.597216 0.341892 0.299854
Si Si3 0.332313 0.753553 0.280293
Si Si4 0.775595 0.272499 0.373133
Si Si5 0.871956 0.019405 0.871872
Si Si6 0.091017 0.727173 0.216714
Si Si7 0.226538 0.127207 0.576096
Si Si8 0.150156 0.561366 0.564728
O O1 0.084517 0.283611 0.689928
O O2 0.889227 0.441609 0.892968
O O3 0.090762 0.118649 0.976561
O O4 0.000000 0.500000 0.000000
O O5 0.500000 0.500000 0.500000
O O6 0.490694 0.504533 0.204192
O O7 0.689386 0.333127 0.274886
O O8 0.684163 0.070631 0.309609
O O9 0.280763 0.709555 0.430759
O O10 0.255309 0.850642 0.148723
O O11 0.282370 0.969203 0.390786
O O12 0.771249 0.444541 0.375664
O O13 0.931556 0.994976 0.299788
O O14 0.999215 0.797174 0.697801
O O15 0.858613 0.205875 0.886808
O O16 0.145112 0.618291 0.375618
O O17 0.211476 0.314140 0.563230
#
# Coordination Sequence:
#
# PCOD9079436 Si02
#       8
#     2   2   2   2   2   2   2   2
#     4  12  23  34  49  80 117 140 169 213 268 325
#     4   8  17  34  56  76 106 134 181 219 257 304
#     4  10  18  37  58  78 102 138 186 220 249 316
#     4   9  15  32  55  77 103 133 175 216 260 307
#     4  11  21  34  54  82 105 141 177 212 266 321
#     4  11  20  35  53  77 111 139 174 217 265 315
#     4  10  20  35  52  81 110 138 168 222 269 303
#     4  11  19  31  57  83 107 135 171 223 274 308
#
# _framework density 20.085357999999999
#
# number of rings (size 3 to 8) (size 9 to 14) (size 15 to 20)
#    0.000    2.000    6.250    1.125    1.750    1.000 
#    0.000    6.250    0.000    0.000    0.000    1.750 
#    0.000    0.000    0.000    0.000    0.000    0.000 
#
# Total GULP energy -89213.535741 kJ/mol
# GULP energy per Si atom -5575.845984 kJ/mol
# Density = 2.003964 g / cm^3
# Si number density = 20.085358 Si / 1000 Ang^3
#
#
#
# Elastic Constant Matrix: (Units=GPa)
#
#
# Indices 1 2 3 4 5 6 
#
# 1 145.9961 76.3287 22.3939 -9.7620 7.2098 17.6200
# 2 76.3287 78.3780 10.8190 -7.8878 -4.1460 26.2953
# 3 22.3939 10.8190 42.3202 -9.0853 -3.0107 5.2715
# 4 -9.7620 -7.8878 -9.0853 24.8458 0.5253 0.7522
# 5 7.2098 -4.1460 -3.0107 0.5253 24.3979 -6.5074
# 6 17.6200 26.2953 5.2715 0.7522 -6.5074 50.0384
#
#
#
# Elastic Compliance Matrix: (Units=1/GPa)
#
#
# Indices 1 2 3 4 5 6 
#
# 1 0.016302 -0.016436 -0.005429 -0.000713 -0.007601 0.002491
# 2 -0.016436 0.032926 0.003355 0.005387 0.007835 -0.010930
# 3 -0.005429 0.003355 0.028262 0.009235 0.004839 -0.002339
# 4 -0.000713 0.005387 0.009235 0.045180 0.000170 -0.004210
# 5 -0.007601 0.007835 0.004839 0.000170 0.046241 0.004060
# 6 0.002491 -0.010930 -0.002339 -0.004210 0.004060 0.025689
#
#
# Mechanical properties :
#
#
# Convention : Reuss Voigt Hill
#
# Bulk Modulus (GPa) = 24.70865 53.97528 39.34196
# Shear Modulus (GPa) = 20.39905 30.33325 25.36615
#
# Velocity S-wave (km/s) = 3.19033 3.89037 3.55761
# Velocity P-wave (km/s) = 5.08916 6.86376 6.04197
#
# Compressibility (1/GPa) = 0.04047165
#
# Stress axis : x y z
#
# Youngs Moduli (GPa) = 61.34108 30.37149 35.38274
#
# Poissons Ratio (x) = 0.49919 0.19208
# Poissons Ratio (y) = 1.00821 -0.11872
# Poissons Ratio (z) = 0.33299 -0.10191
#
# Static dielectric constant tensor:
#      x y z
#    x 1.772280 -0.016520 0.032450 
#    y -0.016520 1.740010 0.028210 
#    z 0.032450 0.028210 1.761610 
# 
# From -- ./inp_files/295463.got.cif
#   From: 2010.05.17/outbox.cif.g08.bks.cpg/sg2_148_cif.got.tgz:295463.got - 2010.06.03 11:33:40.
