data_PCOD9079117
_publ_section_title
;
Structure prediction by ZEFSAII (Michael W. Deem and Ramdas Pophale) SiO2 
 PCOD9079117
Probable space group: P -1
;
_chemical_formula_sum "Si O2"
_cell_formula_units_Z 16
_cell_length_a 12.637990
_cell_length_b 13.912779
_cell_length_c 8.480155
_cell_angle_alpha 104.122644
_cell_angle_beta 40.794583
_cell_angle_gamma 127.234159
_cell_volume 706.886933
_symmetry_space_group_name_H-M "P -1"
_symmetry_group_IT_number 2
_symmetry_cell_setting 'triclinic'
loop_
_space_group_symop_operation_xyz
x,y,z
-x,-y,-z
loop_
_atom_site_type_symbol
_atom_site_label
_atom_site_fract_x
_atom_site_fract_y
_atom_site_fract_z
Si Si1 0.719794 0.539032 0.822724
Si Si2 0.990418 0.204179 0.190219
Si Si3 0.356723 0.691685 0.000416
Si Si4 0.344544 0.779732 0.396675
Si Si5 0.803954 0.812646 0.537910
Si Si6 0.253704 0.396683 0.679202
Si Si7 0.828018 0.906775 0.897830
Si Si8 0.088460 0.496146 0.706973
O O1 0.884891 0.682159 0.770618
O O2 0.672344 0.433491 0.959584
O O3 0.819691 0.523050 0.557009
O O4 0.500000 0.500000 0.000000
O O5 0.049295 0.114557 0.125914
O O6 0.744407 0.144948 0.448709
O O7 0.106024 0.286140 0.933350
O O8 0.330875 0.746105 0.211251
O O9 0.165755 0.629029 0.068565
O O10 0.598829 0.794181 0.702570
O O11 0.179942 0.642859 0.627460
O O12 0.590453 0.849371 0.191905
O O13 0.771251 0.686384 0.475293
O O14 0.802652 0.832620 0.734451
O O15 0.020825 0.941839 0.266638
O O16 0.500000 0.500000 0.500000
O O17 0.182112 0.477585 0.744062
#
# Coordination Sequence:
#
# PCOD9079117 Si02
#       8
#     2   2   2   2   2   2   2   2
#     4  11  18  33  62  89 122 162 206 263 314 375
#     4  12  22  39  61  92 127 167 210 253 319 380
#     4  10  18  36  62  93 122 158 209 271 319 352
#     4  10  20  38  64  97 124 159 215 262 311 376
#     4  10  23  45  65  92 124 163 217 261 309 371
#     4  12  26  40  61  97 130 167 203 257 331 384
#     4  10  23  45  70  89 121 173 218 264 301 361
#     4  11  20  37  60  93 126 159 211 266 314 367
#
# _framework density 22.634454999999999
#
# number of rings (size 3 to 8) (size 9 to 14) (size 15 to 20)
#    0.000    1.250    2.500    6.750    0.000    1.000 
#    4.500    2.500    0.000    0.000    0.000    0.000 
#    0.000    0.000    0.000    0.000    0.000    0.000 
#
# Total GULP energy -89474.077177 kJ/mol
# GULP energy per Si atom -5592.129824 kJ/mol
# Density = 2.258294 g / cm^3
# Si number density = 22.634455 Si / 1000 Ang^3
#
#
#
# Elastic Constant Matrix: (Units=GPa)
#
#
# Indices 1 2 3 4 5 6 
#
# 1 100.3503 8.9699 26.0148 -0.2456 -27.0801 -14.6983
# 2 8.9699 48.0250 15.2464 4.3831 -5.6238 3.2728
# 3 26.0148 15.2464 97.6227 -4.0401 -17.0237 1.5250
# 4 -0.2456 4.3831 -4.0401 26.3537 -0.0731 -3.7800
# 5 -27.0801 -5.6238 -17.0237 -0.0731 35.7182 1.5200
# 6 -14.6983 3.2728 1.5250 -3.7800 1.5200 12.1598
#
#
#
# Elastic Compliance Matrix: (Units=1/GPa)
#
#
# Indices 1 2 3 4 5 6 
#
# 1 0.016669 -0.002891 -0.002412 0.003305 0.010147 0.020989
# 2 -0.002891 0.023688 -0.002889 -0.006053 0.000636 -0.011470
# 3 -0.002412 -0.002889 0.012103 0.001815 0.003639 -0.003547
# 4 0.003305 -0.006053 0.001815 0.041876 0.001729 0.018198
# 5 0.010147 0.000636 0.003639 0.001729 0.037208 0.007524
# 6 0.020989 -0.011470 -0.003547 0.018198 0.007524 0.115857
#
#
# Mechanical properties :
#
#
# Convention : Reuss Voigt Hill
#
# Bulk Modulus (GPa) = 27.72062 38.49559 33.10811
# Shear Modulus (GPa) = 18.12825 27.89745 23.01285
#
# Velocity S-wave (km/s) = 2.83311 3.51454 3.19206
# Velocity P-wave (km/s) = 4.79330 5.78910 5.31458
#
# Compressibility (1/GPa) = 0.03607423
#
# Stress axis : x y z
#
# Youngs Moduli (GPa) = 59.99020 42.21467 82.62604
#
# Poissons Ratio (x) = 0.12206 0.19931
# Poissons Ratio (y) = 0.17346 0.23875
# Poissons Ratio (z) = 0.14471 0.12198
#
# Static dielectric constant tensor:
#      x y z
#    x 1.865110 0.010320 0.000200 
#    y 0.010320 1.835190 0.016030 
#    z 0.000200 0.016030 1.883970 
# 
# From -- ./inp_files/273289.got.cif
#   From: 2010.05.17/outbox.cif.g08.bks.cpg/sg2_137_cif.got.tgz:273289.got - 2010.06.03 11:33:40.
