data_PCOD9079267
_publ_section_title
;
Structure prediction by ZEFSAII (Michael W. Deem and Ramdas Pophale) SiO2 
 PCOD9079267
Probable space group: P -1
;
_chemical_formula_sum "Si O2"
_cell_formula_units_Z 14
_cell_length_a 11.325824
_cell_length_b 20.679997
_cell_length_c 9.738577
_cell_angle_alpha 29.072963
_cell_angle_beta 126.331137
_cell_angle_gamma 136.026033
_cell_volume 765.049678
_symmetry_space_group_name_H-M "P -1"
_symmetry_group_IT_number 2
_symmetry_cell_setting 'triclinic'
loop_
_space_group_symop_operation_xyz
x,y,z
-x,-y,-z
loop_
_atom_site_type_symbol
_atom_site_label
_atom_site_fract_x
_atom_site_fract_y
_atom_site_fract_z
Si Si1 0.243519 0.667809 0.787288
Si Si2 0.618279 0.886880 0.726596
Si Si3 0.009714 0.317746 0.200676
Si Si4 0.761154 0.120199 0.850660
Si Si5 0.008847 0.997511 0.174252
Si Si6 0.128344 0.663914 0.212849
Si Si7 0.453615 0.881473 0.910948
O O1 0.443897 0.743332 0.814526
O O2 0.211278 0.747339 0.486152
O O3 0.153727 0.706175 0.778990
O O4 0.156518 0.485298 0.043978
O O5 0.574976 0.896419 0.839385
O O6 0.635196 0.028036 0.383086
O O7 0.797536 0.895665 0.834644
O O8 0.043110 0.178419 0.503018
O O9 0.979548 0.326368 0.003778
O O10 0.801833 0.200804 0.876687
O O11 0.574413 0.978300 0.941740
O O12 0.888335 0.056494 0.036799
O O13 0.000000 0.000000 0.000000
O O14 0.000000 0.500000 0.500000
O O15 0.308533 0.709077 0.177958
#
# Coordination Sequence:
#
# PCOD9079267 Si02
#       7
#     2   2   2   2   2   2   2
#     4  10  20  38  65  88 114 163 208 250 290 349
#     4  10  18  36  65  90 118 151 209 253 298 346
#     4  11  21  38  62  87 124 160 203 249 299 351
#     4  11  23  37  64  93 122 156 203 246 309 365
#     4  12  21  38  63  95 122 155 200 258 305 355
#     4  12  23  39  61  93 125 159 204 250 298 362
#     4  10  19  38  61  91 117 161 203 253 290 355
#
# _framework density 18.299465000000001
#
# number of rings (size 3 to 8) (size 9 to 14) (size 15 to 20)
#    0.000    1.143    7.143    1.286    0.000    0.571 
#    0.000    2.143    0.000    1.714    0.000    0.000 
#    0.000    0.000    0.000    0.000    0.000    0.000 
#
# Total GULP energy -78030.665448 kJ/mol
# GULP energy per Si atom -5573.618961 kJ/mol
# Density = 1.825781 g / cm^3
# Si number density = 18.299465 Si / 1000 Ang^3
#
#
#
# Elastic Constant Matrix: (Units=GPa)
#
#
# Indices 1 2 3 4 5 6 
#
# 1 63.1626 38.4287 34.3728 1.2143 3.9581 7.8375
# 2 38.4287 128.1792 37.4186 1.4139 3.8895 9.6198
# 3 34.3728 37.4186 87.0437 0.5718 -5.8674 10.1341
# 4 1.2143 1.4139 0.5718 34.7067 3.7695 -12.0518
# 5 3.9581 3.8895 -5.8674 3.7695 26.5545 3.1125
# 6 7.8375 9.6198 10.1341 -12.0518 3.1125 37.9908
#
#
#
# Elastic Compliance Matrix: (Units=1/GPa)
#
#
# Indices 1 2 3 4 5 6 
#
# 1 0.022977 -0.004537 -0.007219 -0.000581 -0.004095 -0.001515
# 2 -0.004537 0.009995 -0.002467 -0.000421 -0.001159 -0.000975
# 3 -0.007219 -0.002467 0.016158 -0.001623 0.005610 -0.003171
# 4 -0.000581 -0.000421 -0.001623 0.033693 -0.006385 0.011871
# 5 -0.004095 -0.001159 0.005610 -0.006385 0.041260 -0.005764
# 6 -0.001515 -0.000975 -0.003171 0.011871 -0.005764 0.031965
#
#
# Mechanical properties :
#
#
# Convention : Reuss Voigt Hill
#
# Bulk Modulus (GPa) = 48.34664 55.42508 51.88586
# Shear Modulus (GPa) = 26.12513 31.06143 28.59328
#
# Velocity S-wave (km/s) = 3.78252 4.12442 3.95716
# Velocity P-wave (km/s) = 6.74934 7.28249 7.02098
#
# Compressibility (1/GPa) = 0.02068396
#
# Stress axis : x y z
#
# Youngs Moduli (GPa) = 43.52264 100.05133 61.89055
#
# Poissons Ratio (x) = 0.45391 0.44678
# Poissons Ratio (y) = 0.19745 0.15268
# Poissons Ratio (z) = 0.31418 0.24682
#
# Static dielectric constant tensor:
#      x y z
#    x 1.631410 0.003800 -0.053160 
#    y 0.003800 1.653380 -0.032830 
#    z -0.053160 -0.032830 1.608080 
# 
# From -- ./inp_files/159729.got.cif
#   From: 2010.05.17/outbox.cif.g08.bks.cpg/sg2_80_cif.got.tgz:159729.got - 2010.06.03 11:33:40.
