data_PCOD9079636
_publ_section_title
;
Structure prediction by ZEFSAII (Michael W. Deem and Ramdas Pophale) SiO2 
 PCOD9079636
Probable space group: P -1
;
_chemical_formula_sum "Si O2"
_cell_formula_units_Z 14
_cell_length_a 14.083427
_cell_length_b 8.442155
_cell_length_c 14.621908
_cell_angle_alpha 60.358160
_cell_angle_beta 148.296191
_cell_angle_gamma 139.741589
_cell_volume 525.613936
_symmetry_space_group_name_H-M "P -1"
_symmetry_group_IT_number 2
_symmetry_cell_setting 'triclinic'
loop_
_space_group_symop_operation_xyz
x,y,z
-x,-y,-z
loop_
_atom_site_type_symbol
_atom_site_label
_atom_site_fract_x
_atom_site_fract_y
_atom_site_fract_z
Si Si1 0.559590 0.773687 0.177337
Si Si2 0.249436 0.105731 0.234776
Si Si3 0.881138 0.285046 0.176225
Si Si4 0.078984 0.195185 0.224639
Si Si5 0.739031 0.238650 0.521929
Si Si6 0.888064 0.118643 0.521884
Si Si7 0.501256 0.618191 0.873662
O O1 0.471758 0.509760 0.148648
O O2 0.685912 0.971811 0.135762
O O3 0.774604 0.952016 0.383139
O O4 0.300613 0.693096 0.019575
O O5 0.209451 0.898057 0.328932
O O6 0.284810 0.300483 0.281100
O O7 0.494171 0.195238 0.353451
O O8 0.000000 0.000000 0.000000
O O9 0.000698 0.446984 0.323488
O O10 0.100549 0.389273 0.250724
O O11 0.092635 0.039685 0.350912
O O12 0.765035 0.947275 0.001196
O O13 0.711224 0.127831 0.431934
O O14 0.184463 0.434538 0.661812
O O15 0.500000 0.500000 0.000000
#
# Coordination Sequence:
#
# PCOD9079636 Si02
#       7
#     2   2   2   2   2   2   2
#     4  11  22  35  60  95 136 166 208 248 318 393
#     4  10  23  46  72  89 119 173 223 265 324 376
#     4  11  23  38  58  97 132 167 203 260 320 382
#     4  10  22  40  66  89 130 167 214 265 316 375
#     4  10  24  45  66  94 132 164 213 275 316 372
#     4  10  21  38  61  93 129 170 208 257 312 381
#     4  10  18  37  62  89 125 171 200 250 315 379
#
# _framework density 26.63552
#
# number of rings (size 3 to 8) (size 9 to 14) (size 15 to 20)
#    0.000    1.714    2.857    3.000    4.000    2.286 
#    2.571    0.714    0.000    0.000    0.000    0.000 
#    0.000    0.000    0.000    0.000    0.000    0.000 
#
# Total GULP energy -78240.006243 kJ/mol
# GULP energy per Si atom -5588.571875 kJ/mol
# Density = 2.657490 g / cm^3
# Si number density = 26.635520 Si / 1000 Ang^3
#
#
#
# Elastic Constant Matrix: (Units=GPa)
#
#
# Indices 1 2 3 4 5 6 
#
# 1 174.8080 9.5485 35.5600 -3.6238 18.0465 -39.7008
# 2 9.5485 62.8591 19.3425 -13.0467 -2.2075 -11.8336
# 3 35.5600 19.3425 139.0395 -16.9490 -0.7994 -7.6147
# 4 -3.6238 -13.0467 -16.9490 42.2627 -7.9360 2.5032
# 5 18.0465 -2.2075 -0.7994 -7.9360 46.5597 4.2276
# 6 -39.7008 -11.8336 -7.6147 2.5032 4.2276 28.5566
#
#
#
# Elastic Compliance Matrix: (Units=1/GPa)
#
#
# Indices 1 2 3 4 5 6 
#
# 1 0.009977 0.001444 -0.002149 -0.001459 -0.005430 0.014827
# 2 0.001444 0.018951 -0.001941 0.004726 0.000305 0.008883
# 3 -0.002149 -0.001941 0.008267 0.002951 0.001575 -0.002080
# 4 -0.001459 0.004726 0.002951 0.027407 0.005742 -0.002535
# 5 -0.005430 0.000305 0.001575 0.005742 0.025629 -0.011301
# 6 0.014827 0.008883 -0.002080 -0.002535 -0.011301 0.060653
#
#
# Mechanical properties :
#
#
# Convention : Reuss Voigt Hill
#
# Bulk Modulus (GPa) = 31.34768 56.17873 43.76320
# Shear Modulus (GPa) = 29.97416 44.29284 37.13350
#
# Velocity S-wave (km/s) = 3.35826 4.08232 3.73786
# Velocity P-wave (km/s) = 5.17995 6.58467 5.92409
#
# Compressibility (1/GPa) = 0.03190029
#
# Stress axis : x y z
#
# Youngs Moduli (GPa) = 100.23371 52.76885 120.96585
#
# Poissons Ratio (x) = -0.07618 0.26001
# Poissons Ratio (y) = -0.14471 0.23481
# Poissons Ratio (z) = 0.21545 0.10243
#
# Static dielectric constant tensor:
#      x y z
#    x 2.181910 0.064460 -0.014150 
#    y 0.064460 2.081120 -0.045840 
#    z -0.014150 -0.045840 2.128240 
# 
# From -- ./inp_files/308232.got.cif
#   From: 2010.05.17/outbox.cif.g08.bks.cpg/sg2_155_cif.got.tgz:308232.got - 2010.06.03 11:33:40.
