data_PCOD9079004
_publ_section_title
;
Structure prediction by ZEFSAII (Michael W. Deem and Ramdas Pophale) SiO2 
 PCOD9079004
Probable space group: P -1
;
_chemical_formula_sum "Si O2"
_cell_formula_units_Z 12
_cell_length_a 15.050857
_cell_length_b 12.687632
_cell_length_c 8.673664
_cell_angle_alpha 129.789471
_cell_angle_beta 36.781396
_cell_angle_gamma 146.415265
_cell_volume 546.742012
_symmetry_space_group_name_H-M "P -1"
_symmetry_group_IT_number 2
_symmetry_cell_setting 'triclinic'
loop_
_space_group_symop_operation_xyz
x,y,z
-x,-y,-z
loop_
_atom_site_type_symbol
_atom_site_label
_atom_site_fract_x
_atom_site_fract_y
_atom_site_fract_z
Si Si1 0.635797 0.241398 0.364776
Si Si2 0.495426 0.457013 0.792951
Si Si3 0.267102 0.789619 0.470014
Si Si4 0.618354 0.218922 0.024237
Si Si5 0.325312 0.288652 0.469857
Si Si6 0.059249 0.179477 0.005087
O O1 0.511545 0.304800 0.602900
O O2 0.747275 0.303937 0.436292
O O3 0.488040 0.012154 0.360722
O O4 0.730614 0.308867 0.120795
O O5 0.682724 0.657605 0.639082
O O6 0.276576 0.366719 0.948798
O O7 0.500000 0.500000 0.000000
O O8 0.253654 0.702739 0.241686
O O9 0.104370 0.807759 0.729258
O O10 0.434676 0.212648 0.258066
O O11 0.500000 0.000000 0.000000
O O12 0.500000 0.500000 0.500000
O O13 0.115362 0.176668 0.748700
O O14 0.000000 0.000000 0.000000
#
# Coordination Sequence:
#
# PCOD9079004 Si02
#       6
#     2   2   2   2   2   2
#     4  10  19  38  61  88 125 166 207 255 322 381
#     4  11  22  40  65  89 127 174 208 252 331 393
#     4  10  21  35  64  93 120 160 216 267 306 368
#     4  10  18  36  61  88 121 170 207 250 320 386
#     4  10  20  38  64  86 126 170 203 253 328 378
#     4  11  20  41  64  93 124 162 217 272 307 364
#
# _framework density 21.948194000000001
#
# number of rings (size 3 to 8) (size 9 to 14) (size 15 to 20)
#    0.000    1.667    5.000    2.000    0.000    0.000 
#    3.000    9.167    0.000    0.000    0.000    0.000 
#    0.000    0.000    0.000    0.000    0.000    0.000 
#
# Total GULP energy -66859.329708 kJ/mol
# GULP energy per Si atom -5571.610809 kJ/mol
# Density = 2.189824 g / cm^3
# Si number density = 21.948194 Si / 1000 Ang^3
#
#
#
# Elastic Constant Matrix: (Units=GPa)
#
#
# Indices 1 2 3 4 5 6 
#
# 1 112.7047 -5.0170 66.8730 -12.9411 40.5130 -18.5457
# 2 -5.0170 24.0271 4.1556 3.1227 12.1554 -9.7169
# 3 66.8730 4.1556 156.8625 -7.0248 35.5022 -14.1129
# 4 -12.9411 3.1227 -7.0248 35.3756 -17.3965 -0.6201
# 5 40.5130 12.1554 35.5022 -17.3965 57.8085 -6.4873
# 6 -18.5457 -9.7169 -14.1129 -0.6201 -6.4873 20.8014
#
#
#
# Elastic Compliance Matrix: (Units=1/GPa)
#
#
# Indices 1 2 3 4 5 6 
#
# 1 0.020921 0.021308 -0.004354 -0.001952 -0.014698 0.021010
# 2 0.021308 0.082635 -0.000689 -0.013957 -0.030799 0.047110
# 3 -0.004354 -0.000689 0.008843 -0.000940 -0.002403 0.001018
# 4 -0.001952 -0.013957 -0.000940 0.036126 0.015413 -0.003014
# 5 -0.014698 -0.030799 -0.002403 0.015413 0.038314 -0.016713
# 6 0.021010 0.047110 0.001018 -0.003014 -0.016713 0.084200
#
#
# Mechanical properties :
#
#
# Convention : Reuss Voigt Hill
#
# Bulk Modulus (GPa) = 6.89997 47.29081 27.09539
# Shear Modulus (GPa) = 17.43257 37.96926 27.70091
#
# Velocity S-wave (km/s) = 2.82132 4.16378 3.55646
# Velocity P-wave (km/s) = 3.70995 6.68651 5.40708
#
# Compressibility (1/GPa) = 0.14492808
#
# Stress axis : x y z
#
# Youngs Moduli (GPa) = 47.79854 12.10141 113.08521
#
# Poissons Ratio (x) = -0.25785 0.49239
# Poissons Ratio (y) = -1.01847 0.07791
# Poissons Ratio (z) = 0.20812 0.00834
#
# Static dielectric constant tensor:
#      x y z
#    x 1.855100 -0.013220 0.091980 
#    y -0.013220 1.810790 -0.028580 
#    z 0.091980 -0.028580 1.832620 
# 
# From -- ./inp_files/304056.got.cif
#   From: 2010.05.17/outbox.cif.g08.bks.cpg/sg2_153_cif.got.tgz:304056.got - 2010.06.03 11:33:40.
