data_PCOD9079917
_publ_section_title
;
Structure prediction by ZEFSAII (Michael W. Deem and Ramdas Pophale) SiO2 
 PCOD9079917
Probable space group: P -1
;
_chemical_formula_sum "Si O2"
_cell_formula_units_Z 14
_cell_length_a 8.183937
_cell_length_b 17.368498
_cell_length_c 14.632843
_cell_angle_alpha 22.752056
_cell_angle_beta 133.202186
_cell_angle_gamma 131.142102
_cell_volume 583.747408
_symmetry_space_group_name_H-M "P -1"
_symmetry_group_IT_number 2
_symmetry_cell_setting 'triclinic'
loop_
_space_group_symop_operation_xyz
x,y,z
-x,-y,-z
loop_
_atom_site_type_symbol
_atom_site_label
_atom_site_fract_x
_atom_site_fract_y
_atom_site_fract_z
Si Si1 0.768059 0.141401 0.584696
Si Si2 0.369514 0.278876 0.186789
Si Si3 0.705130 0.546127 0.214038
Si Si4 0.212579 0.150074 0.942303
Si Si5 0.206130 0.063711 0.723664
Si Si6 0.478290 0.734064 0.234612
Si Si7 0.193775 0.347108 0.236212
O O1 0.576492 0.152906 0.423499
O O2 0.805594 0.351144 0.425120
O O3 0.665681 0.980898 0.794475
O O4 0.998028 0.104905 0.663296
O O5 0.205864 0.262158 0.229992
O O6 0.500000 0.500000 0.000000
O O7 0.270420 0.286329 0.040204
O O8 0.439488 0.472753 0.208846
O O9 0.815616 0.646362 0.236964
O O10 0.567967 0.821185 0.270774
O O11 0.349358 0.188960 0.861759
O O12 0.000000 0.000000 0.000000
O O13 0.168860 0.169081 0.496655
O O14 0.253737 0.831391 0.009348
O O15 0.500000 0.500000 0.500000
O O16 0.000000 0.500000 0.000000
#
# Coordination Sequence:
#
# PCOD9079917 Si02
#       7
#     2   2   2   2   2   2   2
#     4  10  21  42  66  98 138 173 231 290 346 421
#     4   8  17  36  63  97 132 174 219 280 347 416
#     4  10  22  40  68  99 139 181 227 283 352 421
#     4  12  25  45  66  99 131 187 237 286 340 418
#     4  11  22  41  66  98 139 179 225 293 349 417
#     4  11  25  44  66  95 138 184 237 287 351 410
#     4  10  18  37  72 105 141 179 226 293 365 419
#
# _framework density 23.982975
#
# number of rings (size 3 to 8) (size 9 to 14) (size 15 to 20)
#    0.000    2.000    1.429    5.143    0.000    3.429 
#    0.000    1.429    0.000   13.714    0.000    0.000 
#    0.000    0.000    0.000    0.000    0.000    0.000 
#
# Total GULP energy -78211.457773 kJ/mol
# GULP energy per Si atom -5586.532698 kJ/mol
# Density = 2.392839 g / cm^3
# Si number density = 23.982975 Si / 1000 Ang^3
#
#
#
# Elastic Constant Matrix: (Units=GPa)
#
#
# Indices 1 2 3 4 5 6 
#
# 1 149.2463 44.7174 67.1062 9.9174 10.4210 8.0239
# 2 44.7174 83.1851 13.7290 -11.8260 13.2041 -11.1114
# 3 67.1062 13.7290 174.5269 3.7650 8.5298 11.3952
# 4 9.9174 -11.8260 3.7650 27.4072 -5.0875 1.9959
# 5 10.4210 13.2041 8.5298 -5.0875 50.9172 4.5601
# 6 8.0239 -11.1114 11.3952 1.9959 4.5601 40.3519
#
#
#
# Elastic Compliance Matrix: (Units=1/GPa)
#
#
# Indices 1 2 3 4 5 6 
#
# 1 0.010627 -0.006315 -0.003273 -0.005998 -0.000356 -0.002591
# 2 -0.006315 0.017863 0.000595 0.008909 -0.003079 0.005914
# 3 -0.003273 0.000595 0.007031 0.000463 -0.000514 -0.001136
# 4 -0.005998 0.008909 0.000463 0.042925 0.003035 0.001049
# 5 -0.000356 -0.003079 -0.000514 0.003035 0.021185 -0.003176
# 6 -0.002591 0.005914 -0.001136 0.001049 -0.003176 0.027553
#
#
# Mechanical properties :
#
#
# Convention : Reuss Voigt Hill
#
# Bulk Modulus (GPa) = 57.02978 73.11816 65.07397
# Shear Modulus (GPa) = 33.10951 42.49563 37.80257
#
# Velocity S-wave (km/s) = 3.71960 4.21397 3.97448
# Velocity P-wave (km/s) = 6.50216 7.36413 6.94653
#
# Compressibility (1/GPa) = 0.01753470
#
# Stress axis : x y z
#
# Youngs Moduli (GPa) = 94.10140 55.98222 142.22946
#
# Poissons Ratio (x) = 0.35350 0.46557
# Poissons Ratio (y) = 0.59421 -0.08462
# Poissons Ratio (z) = 0.30803 -0.03331
#
# Static dielectric constant tensor:
#      x y z
#    x 1.856510 -0.035030 -0.099210 
#    y -0.035030 1.987380 0.053660 
#    z -0.099210 0.053660 1.633410 
# 
# From -- ./inp_files/563130.got.cif
#   From: 2010.05.17/outbox.cif.g08.bks.cpg/sg2_282_cif.got.tgz:563130.got - 2010.06.03 11:33:40.
