data_PCOD9079734
_publ_section_title
;
Structure prediction by ZEFSAII (Michael W. Deem and Ramdas Pophale) SiO2 
 PCOD9079734
Probable space group: P -1
;
_chemical_formula_sum "Si O2"
_cell_formula_units_Z 12
_cell_length_a 11.454157
_cell_length_b 6.794018
_cell_length_c 9.101047
_cell_angle_alpha 74.437570
_cell_angle_beta 53.805237
_cell_angle_gamma 63.471235
_cell_volume 511.371208
_symmetry_space_group_name_H-M "P -1"
_symmetry_group_IT_number 2
_symmetry_cell_setting 'triclinic'
loop_
_space_group_symop_operation_xyz
x,y,z
-x,-y,-z
loop_
_atom_site_type_symbol
_atom_site_label
_atom_site_fract_x
_atom_site_fract_y
_atom_site_fract_z
Si Si1 0.376584 0.954811 0.413872
Si Si2 0.333761 0.657570 0.920127
Si Si3 0.963291 0.240201 0.055386
Si Si4 0.711399 0.871478 0.223012
Si Si5 0.322320 0.433318 0.281419
Si Si6 0.110494 0.794034 0.552018
O O1 0.324433 0.033382 0.603943
O O2 0.343244 0.180121 0.304367
O O3 0.561331 0.816570 0.304361
O O4 0.267598 0.836614 0.460493
O O5 0.209502 0.630175 0.904461
O O6 0.516878 0.569490 0.763175
O O7 0.296578 0.919146 0.912197
O O8 0.313105 0.548972 0.108984
O O9 0.962507 0.219063 0.234637
O O10 0.111908 0.297961 0.884628
O O11 0.000000 0.000000 0.000000
O O12 0.170362 0.569037 0.460805
O O13 0.000000 0.000000 0.500000
#
# Coordination Sequence:
#
# PCOD9079734 Si02
#       6
#     2   2   2   2   2   2
#     4  10  21  41  65  91 123 162 208 257 304 363
#     4   9  18  40  62  90 128 167 198 253 317 364
#     4  10  18  37  64  87 124 170 198 247 315 366
#     4   9  18  38  65  88 119 172 201 243 316 365
#     4  10  23  39  65  94 123 163 211 252 308 369
#     4  12  24  40  65  95 124 163 208 258 309 364
#
# _framework density 23.466315999999999
#
# number of rings (size 3 to 8) (size 9 to 14) (size 15 to 20)
#    0.000    2.000    3.333    2.000    0.000    1.333 
#    0.000   14.167    0.000    0.000    0.000    0.000 
#    0.000    0.000    0.000    0.000    0.000    0.000 
#
# Total GULP energy -67082.663746 kJ/mol
# GULP energy per Si atom -5590.221979 kJ/mol
# Density = 2.341291 g / cm^3
# Si number density = 23.466316 Si / 1000 Ang^3
#
#
#
# Elastic Constant Matrix: (Units=GPa)
#
#
# Indices 1 2 3 4 5 6 
#
# 1 78.2632 1.6914 9.1308 0.8263 -19.4220 -22.6107
# 2 1.6914 60.5917 33.7531 6.9790 7.4648 -19.9389
# 3 9.1308 33.7531 107.3488 3.3780 -10.7722 -21.2134
# 4 0.8263 6.9790 3.3780 43.3560 -9.3787 -9.3368
# 5 -19.4220 7.4648 -10.7722 -9.3787 33.4877 -3.2994
# 6 -22.6107 -19.9389 -21.2134 -9.3368 -3.2994 37.1147
#
#
#
# Elastic Compliance Matrix: (Units=1/GPa)
#
#
# Indices 1 2 3 4 5 6 
#
# 1 0.022222 0.000966 0.003139 0.007111 0.017566 0.019202
# 2 0.000966 0.024139 -0.006622 -0.003098 -0.006994 0.008371
# 3 0.003139 -0.006622 0.013513 0.003687 0.009450 0.007846
# 4 0.007111 -0.003098 0.003687 0.029432 0.015580 0.013564
# 5 0.017566 -0.006994 0.009450 0.015580 0.051062 0.020804
# 6 0.019202 0.008371 0.007846 0.013564 0.020804 0.052885
#
#
# Mechanical properties :
#
#
# Convention : Reuss Voigt Hill
#
# Bulk Modulus (GPa) = 18.23437 37.26160 27.74799
# Shear Modulus (GPa) = 23.08765 36.23357 29.66061
#
# Velocity S-wave (km/s) = 3.14006 3.93373 3.55909
# Velocity P-wave (km/s) = 4.57537 6.04529 5.36095
#
# Compressibility (1/GPa) = 0.05484148
#
# Stress axis : x y z
#
# Youngs Moduli (GPa) = 45.00051 41.42697 74.00095
#
# Poissons Ratio (x) = -0.04003 -0.23233
# Poissons Ratio (y) = -0.04349 0.49005
# Poissons Ratio (z) = -0.14128 0.27434
#
# Static dielectric constant tensor:
#      x y z
#    x 1.855290 -0.052870 -0.076290 
#    y -0.052870 1.850180 -0.053550 
#    z -0.076290 -0.053550 1.805060 
# 
# From -- ./inp_files/156003.got.cif
#   From: 2010.05.17/outbox.cif.g08.bks.cpg/sg2_79_cif.got.tgz:156003.got - 2010.06.03 11:33:40.
