data_PCOD9079565
_publ_section_title
;
Structure prediction by ZEFSAII (Michael W. Deem and Ramdas Pophale) SiO2 
 PCOD9079565
Probable space group: P -1
;
_chemical_formula_sum "Si O2"
_cell_formula_units_Z 16
_cell_length_a 22.773251
_cell_length_b 11.316066
_cell_length_c 17.011866
_cell_angle_alpha 39.959240
_cell_angle_beta 20.834003
_cell_angle_gamma 29.287454
_cell_volume 732.338428
_symmetry_space_group_name_H-M "P -1"
_symmetry_group_IT_number 2
_symmetry_cell_setting 'triclinic'
loop_
_space_group_symop_operation_xyz
x,y,z
-x,-y,-z
loop_
_atom_site_type_symbol
_atom_site_label
_atom_site_fract_x
_atom_site_fract_y
_atom_site_fract_z
Si Si1 0.590747 0.619965 0.485168
Si Si2 0.409736 0.721757 0.437470
Si Si3 0.092127 0.131495 0.836005
Si Si4 0.131425 0.656347 0.580523
Si Si5 0.038708 0.291130 0.653560
Si Si6 0.679178 0.569646 0.830934
Si Si7 0.795882 0.220698 0.725566
Si Si8 0.824125 0.569843 0.063065
O O1 0.582730 0.408043 0.582747
O O2 0.659218 0.570163 0.515066
O O3 0.359481 0.903527 0.618233
O O4 0.761121 0.576294 0.229081
O O5 0.500000 0.500000 0.500000
O O6 0.176536 0.999669 0.606555
O O7 0.600735 0.727644 0.208367
O O8 0.016467 0.310623 0.765242
O O9 0.992304 0.288105 0.960974
O O10 0.000000 0.000000 0.000000
O O11 0.186213 0.622438 0.437586
O O12 0.938521 0.673513 0.847868
O O13 0.032497 0.934416 0.577583
O O14 0.197329 0.341928 0.403261
O O15 0.798507 0.469354 0.818304
O O16 0.750690 0.338346 0.807354
O O17 0.407462 0.755788 0.065379
#
# Coordination Sequence:
#
# PCOD9079565 Si02
#       8
#     2   2   2   2   2   2   2   2
#     4  11  23  42  62  96 129 170 204 254 324 381
#     4  10  18  37  61  88 125 165 197 248 320 366
#     4  12  23  38  66  96 135 161 206 262 317 383
#     4  11  24  42  63  87 126 167 214 261 313 377
#     4  11  21  39  66  97 127 164 213 264 313 378
#     4  10  23  41  66  93 122 168 216 264 313 371
#     4  10  23  44  61  87 125 168 211 266 316 364
#     4  11  22  40  62  94 129 167 204 257 312 378
#
# _framework density 21.847823000000002
#
# number of rings (size 3 to 8) (size 9 to 14) (size 15 to 20)
#    0.000    1.250    3.750    3.375    1.750    0.500 
#    2.250    0.000    0.000    8.250    0.000    0.000 
#    0.000    0.000    0.000    0.000    0.000    0.000 
#
# Total GULP energy -89231.441155 kJ/mol
# GULP energy per Si atom -5576.965072 kJ/mol
# Density = 2.179810 g / cm^3
# Si number density = 21.847823 Si / 1000 Ang^3
#
#
#
# Elastic Constant Matrix: (Units=GPa)
#
#
# Indices 1 2 3 4 5 6 
#
# 1 60.3482 19.6343 32.7510 -1.1260 -2.6942 -26.1968
# 2 19.6343 48.2809 13.9333 1.0440 1.8425 -5.9561
# 3 32.7510 13.9333 50.6453 -0.7529 0.3915 -16.7870
# 4 -1.1260 1.0440 -0.7529 35.7959 4.5149 8.2470
# 5 -2.6942 1.8425 0.3915 4.5149 27.1656 7.5764
# 6 -26.1968 -5.9561 -16.7870 8.2470 7.5764 26.8292
#
#
#
# Elastic Compliance Matrix: (Units=1/GPa)
#
#
# Indices 1 2 3 4 5 6 
#
# 1 0.039747 -0.008275 -0.013077 -0.005624 -0.003132 0.031404
# 2 -0.008275 0.024408 -0.002668 0.000055 -0.001340 -0.003970
# 3 -0.013077 -0.002668 0.031480 -0.000985 -0.003536 0.007637
# 4 -0.005624 0.000055 -0.000985 0.031461 -0.001497 -0.015343
# 5 -0.003132 -0.001340 -0.003536 -0.001497 0.041592 -0.016853
# 6 0.031404 -0.003970 0.007637 -0.015343 -0.016853 0.081310
#
#
# Mechanical properties :
#
#
# Convention : Reuss Voigt Hill
#
# Bulk Modulus (GPa) = 21.01097 32.43462 26.72279
# Shear Modulus (GPa) = 15.92855 24.15520 20.04187
#
# Velocity S-wave (km/s) = 2.70306 3.32868 3.03205
# Velocity P-wave (km/s) = 4.40226 5.44531 4.95133
#
# Compressibility (1/GPa) = 0.04759419
#
# Stress axis : x y z
#
# Youngs Moduli (GPa) = 25.15898 40.97096 31.76619
#
# Poissons Ratio (x) = 0.33903 0.41541
# Poissons Ratio (y) = 0.20819 0.08476
# Poissons Ratio (z) = 0.32901 0.10933
#
# Static dielectric constant tensor:
#      x y z
#    x 1.846430 -0.003510 -0.044830 
#    y -0.003510 1.789930 -0.030910 
#    z -0.044830 -0.030910 1.882220 
# 
# From -- ./inp_files/579232.got.cif
#   From: 2010.05.17/outbox.cif.g08.bks.cpg/sg2_290_cif.got.tgz:579232.got - 2010.06.03 11:33:40.
