data_PCOD9079898
_publ_section_title
;
Structure prediction by ZEFSAII (Michael W. Deem and Ramdas Pophale) SiO2 
 PCOD9079898
Probable space group: P -1
;
_chemical_formula_sum "Si O2"
_cell_formula_units_Z 14
_cell_length_a 10.262793
_cell_length_b 19.482141
_cell_length_c 17.103493
_cell_angle_alpha 157.651772
_cell_angle_beta 40.101314
_cell_angle_gamma 144.839120
_cell_volume 748.199992
_symmetry_space_group_name_H-M "P -1"
_symmetry_group_IT_number 2
_symmetry_cell_setting 'triclinic'
loop_
_space_group_symop_operation_xyz
x,y,z
-x,-y,-z
loop_
_atom_site_type_symbol
_atom_site_label
_atom_site_fract_x
_atom_site_fract_y
_atom_site_fract_z
Si Si1 0.126221 0.969943 0.710120
Si Si2 0.535100 0.598872 0.961783
Si Si3 0.185918 0.438583 0.815519
Si Si4 0.219625 0.700361 0.929929
Si Si5 0.753780 0.386039 0.742039
Si Si6 0.385663 0.258424 0.304195
Si Si7 0.887894 0.947267 0.641670
O O1 0.267601 0.177040 0.907701
O O2 0.244254 0.823585 0.500176
O O3 0.093022 0.021029 0.688338
O O4 0.866604 0.845136 0.725942
O O5 0.377392 0.625449 0.129211
O O6 0.385774 0.500583 0.851273
O O7 0.642433 0.463671 0.808301
O O8 0.260439 0.567461 0.837243
O O9 0.090462 0.203571 0.589002
O O10 0.000000 0.500000 0.000000
O O11 0.442013 0.804614 0.884656
O O12 0.012217 0.549211 0.812201
O O13 0.144678 0.862168 0.170639
O O14 0.500000 0.500000 0.500000
O O15 0.328042 0.186469 0.344527
#
# Coordination Sequence:
#
# PCOD9079898 Si02
#       7
#     2   2   2   2   2   2   2
#     4  10  20  37  62  90 114 156 207 249 293 354
#     4  11  24  37  57  90 125 157 202 247 305 363
#     4  12  24  41  58  92 130 161 196 258 304 361
#     4  12  20  40  66  92 119 161 210 253 297 356
#     4  11  20  38  62  84 121 165 201 248 293 361
#     4  10  18  37  69  92 114 157 215 256 288 353
#     4  10  22  36  65  93 115 159 209 247 301 355
#
# _framework density 18.711575
#
# number of rings (size 3 to 8) (size 9 to 14) (size 15 to 20)
#    0.857    0.286    7.143    0.857    0.000    1.714 
#    0.000    0.714    0.000    4.286    0.000    0.000 
#    0.000    0.000    0.000    0.000    0.000    0.000 
#
# Total GULP energy -78109.015091 kJ/mol
# GULP energy per Si atom -5579.215364 kJ/mol
# Density = 1.866899 g / cm^3
# Si number density = 18.711575 Si / 1000 Ang^3
#
#
#
# Elastic Constant Matrix: (Units=GPa)
#
#
# Indices 1 2 3 4 5 6 
#
# 1 95.1293 1.7785 15.7200 2.3025 -2.9008 12.2458
# 2 1.7785 31.4813 -10.6540 -13.5941 -5.1654 7.4795
# 3 15.7200 -10.6540 94.0528 3.3235 -11.8790 -0.4842
# 4 2.3025 -13.5941 3.3235 27.7415 0.7976 -2.3072
# 5 -2.9008 -5.1654 -11.8790 0.7976 29.6445 4.9356
# 6 12.2458 7.4795 -0.4842 -2.3072 4.9356 17.5631
#
#
#
# Elastic Compliance Matrix: (Units=1/GPa)
#
#
# Indices 1 2 3 4 5 6 
#
# 1 0.012115 0.000921 -0.001631 -0.001233 0.002341 -0.009704
# 2 0.000921 0.051625 0.006707 0.022002 0.015145 -0.023808
# 3 -0.001631 0.006707 0.012409 0.001502 0.006439 -0.002989
# 4 -0.001233 0.022002 0.001502 0.046364 0.003633 -0.003399
# 5 0.002341 0.015145 0.006439 0.003633 0.042299 -0.019314
# 6 -0.009704 -0.023808 -0.002989 -0.003399 -0.019314 0.078741
#
#
# Mechanical properties :
#
#
# Convention : Reuss Voigt Hill
#
# Bulk Modulus (GPa) = 11.34545 26.03918 18.69232
# Shear Modulus (GPa) = 19.16141 29.24443 24.20292
#
# Velocity S-wave (km/s) = 3.20353 3.95765 3.60039
# Velocity P-wave (km/s) = 4.44522 5.90172 5.22448
#
# Compressibility (1/GPa) = 0.08814105
#
# Stress axis : x y z
#
# Youngs Moduli (GPa) = 82.54394 19.37057 80.58345
#
# Poissons Ratio (x) = -0.01783 0.13146
# Poissons Ratio (y) = -0.07599 -0.54046
# Poissons Ratio (z) = 0.13465 -0.12991
#
# Static dielectric constant tensor:
#      x y z
#    x 1.660970 -0.006920 -0.021010 
#    y -0.006920 1.677200 -0.005610 
#    z -0.021010 -0.005610 1.659860 
# 
# From -- ./inp_files/562711.got.cif
#   From: 2010.05.17/outbox.cif.g08.bks.cpg/sg2_282_cif.got.tgz:562711.got - 2010.06.03 11:33:40.
