data_PCOD9079590
_publ_section_title
;
Structure prediction by ZEFSAII (Michael W. Deem and Ramdas Pophale) SiO2 
 PCOD9079590
Probable space group: P -1
;
_chemical_formula_sum "Si O2"
_cell_formula_units_Z 12
_cell_length_a 5.485881
_cell_length_b 13.861149
_cell_length_c 12.001883
_cell_angle_alpha 29.309106
_cell_angle_beta 94.024258
_cell_angle_gamma 86.829086
_cell_volume 432.779453
_symmetry_space_group_name_H-M "P -1"
_symmetry_group_IT_number 2
_symmetry_cell_setting 'triclinic'
loop_
_space_group_symop_operation_xyz
x,y,z
-x,-y,-z
loop_
_atom_site_type_symbol
_atom_site_label
_atom_site_fract_x
_atom_site_fract_y
_atom_site_fract_z
Si Si1 0.736547 0.312110 0.170480
Si Si2 0.883029 0.399251 0.498128
Si Si3 0.498124 0.247562 0.938077
Si Si4 0.612487 0.026472 0.613229
Si Si5 0.858248 0.604451 0.724437
Si Si6 0.061566 0.040646 0.103165
O O1 0.686172 0.094152 0.424435
O O2 0.948181 0.342632 0.233928
O O3 0.500000 0.500000 0.000000
O O4 0.826652 0.382246 0.984853
O O5 0.601901 0.518329 0.333443
O O6 0.905674 0.164721 0.758111
O O7 0.000000 0.500000 0.500000
O O8 0.040731 0.412020 0.379431
O O9 0.715180 0.849937 0.028829
O O10 0.455671 0.179643 0.133775
O O11 0.773576 0.156913 0.992674
O O12 0.390600 0.215290 0.454868
O O13 0.850393 0.030785 0.695146
#
# Coordination Sequence:
#
# PCOD9079590 Si02
#       6
#     2   2   2   2   2   2
#     4   9  17  31  67  93 126 180 217 276 349 392
#     4  12  25  43  70 102 138 184 229 279 342 409
#     4  10  23  42  70  97 138 181 232 277 339 407
#     4   9  17  38  66  92 132 172 219 278 337 396
#     4  10  18  37  61  98 131 175 226 275 339 404
#     4  10  22  45  66  97 145 175 228 283 333 406
#
# _framework density 27.72775
#
# number of rings (size 3 to 8) (size 9 to 14) (size 15 to 20)
#    1.000    1.000    3.333    0.000    0.000    4.000 
#    0.000    5.000    0.000   10.000    0.000    0.000 
#    0.000    0.000    0.000    0.000    0.000    0.000 
#
# Total GULP energy -67215.335678 kJ/mol
# GULP energy per Si atom -5601.277973 kJ/mol
# Density = 2.766464 g / cm^3
# Si number density = 27.727750 Si / 1000 Ang^3
#
#
#
# Elastic Constant Matrix: (Units=GPa)
#
#
# Indices 1 2 3 4 5 6 
#
# 1 181.4185 34.0383 74.8598 -22.4619 23.3591 -19.6249
# 2 34.0383 75.2024 59.0450 1.2252 13.5366 -30.0549
# 3 74.8598 59.0450 161.7440 -8.5307 8.6384 -5.7477
# 4 -22.4619 1.2252 -8.5307 51.3941 -4.3856 -11.6561
# 5 23.3591 13.5366 8.6384 -4.3856 74.7579 -17.8381
# 6 -19.6249 -30.0549 -5.7477 -11.6561 -17.8381 32.1296
#
#
#
# Elastic Compliance Matrix: (Units=1/GPa)
#
#
# Indices 1 2 3 4 5 6 
#
# 1 0.008348 0.003307 -0.004482 0.004847 -0.000256 0.009007
# 2 0.003307 0.037400 -0.013582 0.007515 0.003580 0.039289
# 3 -0.004482 -0.013582 0.012590 -0.003080 -0.001371 -0.015069
# 4 0.004847 0.007515 -0.003080 0.026023 0.004049 0.021128
# 5 -0.000256 0.003580 -0.001371 0.004049 0.016435 0.013540
# 6 0.009007 0.039289 -0.015069 0.021128 0.013540 0.085864
#
#
# Mechanical properties :
#
#
# Convention : Reuss Voigt Hill
#
# Bulk Modulus (GPa) = 34.69217 83.80568 59.24892
# Shear Modulus (GPa) = 22.14520 48.35111 35.24815
#
# Velocity S-wave (km/s) = 2.82913 4.18039 3.56929
# Velocity P-wave (km/s) = 4.81777 7.32059 6.19685
#
# Compressibility (1/GPa) = 0.02882495
#
# Stress axis : x y z
#
# Youngs Moduli (GPa) = 119.78332 26.73819 79.42553
#
# Poissons Ratio (x) = -0.08843 0.35597
# Poissons Ratio (y) = -0.39614 1.07877
# Poissons Ratio (z) = 0.53684 0.36316
#
# Static dielectric constant tensor:
#      x y z
#    x 2.187710 0.140900 -0.064020 
#    y 0.140900 2.307990 -0.019760 
#    z -0.064020 -0.019760 2.217260 
# 
# From -- ./inp_files/93895.got.cif
#   From: 2010.05.17/outbox.cif.g08.bks.cpg/sg2_47_cif.got.tgz:93895.got - 2010.06.03 11:33:40.
