data_PCOD9079881
_publ_section_title
;
Structure prediction by ZEFSAII (Michael W. Deem and Ramdas Pophale) SiO2 
 PCOD9079881
Probable space group: P -1
;
_chemical_formula_sum "Si O2"
_cell_formula_units_Z 16
_cell_length_a 11.641211
_cell_length_b 13.434533
_cell_length_c 8.812014
_cell_angle_alpha 84.757051
_cell_angle_beta 60.169731
_cell_angle_gamma 37.298340
_cell_volume 590.714390
_symmetry_space_group_name_H-M "P -1"
_symmetry_group_IT_number 2
_symmetry_cell_setting 'triclinic'
loop_
_space_group_symop_operation_xyz
x,y,z
-x,-y,-z
loop_
_atom_site_type_symbol
_atom_site_label
_atom_site_fract_x
_atom_site_fract_y
_atom_site_fract_z
Si Si1 0.638263 0.835048 0.665813
Si Si2 0.880287 0.885383 0.883779
Si Si3 0.126136 0.123200 0.449869
Si Si4 0.217360 0.527301 0.900143
Si Si5 0.125630 0.442295 0.220702
Si Si6 0.795063 0.280184 0.898058
Si Si7 0.366829 0.698940 0.550818
Si Si8 0.416464 0.391791 0.283849
O O1 0.667559 0.933383 0.604406
O O2 0.784226 0.723213 0.750631
O O3 0.825403 0.659403 0.444200
O O4 0.352445 0.974314 0.859041
O O5 0.767822 0.967427 0.774916
O O6 0.049583 0.673912 0.844225
O O7 0.070464 0.857374 0.761887
O O8 0.025231 0.112075 0.646065
O O9 0.834261 0.366404 0.576205
O O10 0.528955 0.332237 0.676790
O O11 0.162570 0.458280 0.026055
O O12 0.140444 0.663959 0.053042
O O13 0.306057 0.393738 0.222198
O O14 0.500000 0.500000 0.000000
O O15 0.699781 0.251384 0.065109
O O16 0.500000 0.500000 0.500000
O O17 0.501812 0.683771 0.586516
#
# Coordination Sequence:
#
# PCOD9079881 Si02
#       8
#     2   2   2   2   2   2   2   2
#     4  10  22  40  54  74 111 152 184 205 264 327
#     4  11  21  32  57  86 112 132 173 236 274 303
#     4  10  18  33  55  78 106 144 181 220 261 315
#     4  11  18  31  56  85 105 134 179 228 265 306
#     4  10  22  38  59  73 106 154 185 207 255 339
#     4  10  15  27  53  85 104 131 182 226 255 306
#     4  10  17  29  53  87 113 129 166 230 287 305
#     4  10  16  31  56  83 106 140 178 219 267 323
#
# _framework density 27.085849
#
# number of rings (size 3 to 8) (size 9 to 14) (size 15 to 20)
#    0.000    1.750    8.750    1.125    0.000    0.500 
#    0.000    1.875    0.000    0.000    0.000    0.000 
#    0.000    0.000    0.000    0.000    0.000    0.000 
#
# Total GULP energy -89223.001636 kJ/mol
# GULP energy per Si atom -5576.437602 kJ/mol
# Density = 2.702420 g / cm^3
# Si number density = 27.085849 Si / 1000 Ang^3
#
#
#
# Elastic Constant Matrix: (Units=GPa)
#
#
# Indices 1 2 3 4 5 6 
#
# 1 72.9617 2.1969 16.4458 -2.0227 -10.0282 -19.7680
# 2 2.1969 47.9000 27.0222 -1.8485 -1.8027 1.8076
# 3 16.4458 27.0222 205.5196 -11.3094 -45.2873 9.4771
# 4 -2.0227 -1.8485 -11.3094 41.5058 4.0843 1.0612
# 5 -10.0282 -1.8027 -45.2873 4.0843 39.3822 -3.8733
# 6 -19.7680 1.8076 9.4771 1.0612 -3.8733 22.5589
#
#
#
# Elastic Compliance Matrix: (Units=1/GPa)
#
#
# Indices 1 2 3 4 5 6 
#
# 1 0.019883 -0.000784 -0.001148 -0.000416 0.005614 0.018952
# 2 -0.000784 0.022904 -0.003629 0.000381 -0.003524 -0.001621
# 3 -0.001148 -0.003629 0.007274 0.001086 0.007545 -0.002526
# 4 -0.000416 0.000381 0.001086 0.024603 -0.001615 -0.002286
# 5 0.005614 -0.003524 0.007545 -0.001615 0.036325 0.008346
# 6 0.018952 -0.001621 -0.002526 -0.002286 0.008346 0.063667
#
#
# Mechanical properties :
#
#
# Convention : Reuss Voigt Hill
#
# Bulk Modulus (GPa) = 25.68240 46.41235 36.04737
# Shear Modulus (GPa) = 25.15638 39.40381 32.28009
#
# Velocity S-wave (km/s) = 3.05087 3.81829 3.45595
# Velocity P-wave (km/s) = 4.68112 6.05075 5.40946
#
# Compressibility (1/GPa) = 0.03893717
#
# Stress axis : x y z
#
# Youngs Moduli (GPa) = 50.29440 43.66131 137.48481
#
# Poissons Ratio (x) = 0.03425 0.15776
# Poissons Ratio (y) = 0.03946 0.49899
# Poissons Ratio (z) = 0.05771 0.15847
#
# Static dielectric constant tensor:
#      x y z
#    x 2.227070 0.112500 -0.035300 
#    y 0.112500 2.249620 0.011820 
#    z -0.035300 0.011820 2.191920 
# 
# From -- ./inp_files/318957.got.cif
#   From: 2010.05.17/outbox.cif.g08.bks.cpg/sg2_160_cif.got.tgz:318957.got - 2010.06.03 11:33:40.
