data_PCOD9079684
_publ_section_title
;
Structure prediction by ZEFSAII (Michael W. Deem and Ramdas Pophale) SiO2 
 PCOD9079684
Probable space group: P -1
;
_chemical_formula_sum "Si O2"
_cell_formula_units_Z 14
_cell_length_a 9.987593
_cell_length_b 8.894835
_cell_length_c 21.714434
_cell_angle_alpha 42.566551
_cell_angle_beta 25.199929
_cell_angle_gamma 46.088012
_cell_volume 553.127249
_symmetry_space_group_name_H-M "P -1"
_symmetry_group_IT_number 2
_symmetry_cell_setting 'triclinic'
loop_
_space_group_symop_operation_xyz
x,y,z
-x,-y,-z
loop_
_atom_site_type_symbol
_atom_site_label
_atom_site_fract_x
_atom_site_fract_y
_atom_site_fract_z
Si Si1 0.584723 0.783204 0.639727
Si Si2 0.182334 0.402722 0.629954
Si Si3 0.620942 0.312108 0.815048
Si Si4 0.660592 0.877534 0.118748
Si Si5 0.837965 0.242737 0.372771
Si Si6 0.007435 0.627621 0.858766
Si Si7 0.318447 0.049654 0.780197
O O1 0.715663 0.526405 0.671398
O O2 0.273582 0.778633 0.728410
O O3 0.796062 0.978839 0.473222
O O4 0.466598 0.849572 0.737538
O O5 0.478015 0.358780 0.473742
O O6 0.069485 0.640853 0.636375
O O7 0.327637 0.264410 0.669564
O O8 0.899664 0.279467 0.757279
O O9 0.562010 0.123064 0.847346
O O10 0.294927 0.351983 0.976949
O O11 0.834469 0.626512 0.125828
O O12 0.514285 0.933301 0.229367
O O13 0.946129 0.030753 0.948279
O O14 0.048458 0.313556 0.207271
#
# Coordination Sequence:
#
# PCOD9079684 Si02
#       7
#     2   2   2   2   2   2   2
#     4  10  20  38  66  87 121 166 204 245 306 373
#     4  10  23  40  63  88 127 162 204 253 303 364
#     4  11  22  39  65  97 121 148 212 271 294 336
#     4  10  19  35  63  89 122 160 202 244 306 367
#     4  10  22  41  62  84 127 173 200 230 320 385
#     4  11  19  39  65  94 116 161 200 263 297 366
#     4  10  18  37  63  88 118 171 198 236 307 382
#
# _framework density 25.31063
#
# number of rings (size 3 to 8) (size 9 to 14) (size 15 to 20)
#    0.000    1.714    4.286    1.286    0.000    1.714 
#    0.000    2.857    6.286    0.000    0.000    0.000 
#    0.000    0.000    0.000    0.000    0.000    0.000 
#
# Total GULP energy -78253.485071 kJ/mol
# GULP energy per Si atom -5589.534648 kJ/mol
# Density = 2.525302 g / cm^3
# Si number density = 25.310630 Si / 1000 Ang^3
#
#
#
# Elastic Constant Matrix: (Units=GPa)
#
#
# Indices 1 2 3 4 5 6 
#
# 1 104.6233 4.3607 36.9547 8.3599 -3.4524 38.3015
# 2 4.3607 63.3133 19.6454 -3.2386 1.1651 14.3214
# 3 36.9547 19.6454 65.2774 -4.6266 2.9560 6.6292
# 4 8.3599 -3.2386 -4.6266 29.5350 1.9539 5.2176
# 5 -3.4524 1.1651 2.9560 1.9539 35.7210 -7.7931
# 6 38.3015 14.3214 6.6292 5.2176 -7.7931 33.1671
#
#
#
# Elastic Compliance Matrix: (Units=1/GPa)
#
#
# Indices 1 2 3 4 5 6 
#
# 1 0.025968 0.009792 -0.014470 -0.002722 -0.003377 -0.031690
# 2 0.009792 0.023032 -0.010104 0.002004 -0.003524 -0.020377
# 3 -0.014470 -0.010104 0.025297 0.004244 -0.000048 0.015338
# 4 -0.002722 0.002004 0.004244 0.036693 -0.003830 -0.005243
# 5 -0.003377 -0.003524 -0.000048 -0.003830 0.030897 0.013293
# 6 -0.031690 -0.020377 0.015338 -0.005243 0.013293 0.076427
#
#
# Mechanical properties :
#
#
# Convention : Reuss Voigt Hill
#
# Bulk Modulus (GPa) = 22.35435 39.45952 30.90694
# Shear Modulus (GPa) = 19.02667 31.16817 25.09742
#
# Velocity S-wave (km/s) = 2.74474 3.51297 3.15235
# Velocity P-wave (km/s) = 4.34695 5.66380 5.04849
#
# Compressibility (1/GPa) = 0.04473401
#
# Stress axis : x y z
#
# Youngs Moduli (GPa) = 38.50848 43.41809 39.53003
#
# Poissons Ratio (x) = -0.42517 0.57200
# Poissons Ratio (y) = -0.37709 0.39942
# Poissons Ratio (z) = 0.55721 0.43871
#
# Static dielectric constant tensor:
#      x y z
#    x 2.015300 -0.003950 0.008450 
#    y -0.003950 2.084110 0.005830 
#    z 0.008450 0.005830 1.985360 
# 
# From -- ./inp_files/199855.got.cif
#   From: 2010.05.17/outbox.cif.g08.bks.cpg/sg2_100_cif.got.tgz:199855.got - 2010.06.03 11:33:40.
