data_PCOD9079676
_publ_section_title
;
Structure prediction by ZEFSAII (Michael W. Deem and Ramdas Pophale) SiO2 
 PCOD9079676
Probable space group: P -1
;
_chemical_formula_sum "Si O2"
_cell_formula_units_Z 14
_cell_length_a 10.448627
_cell_length_b 13.272809
_cell_length_c 10.176515
_cell_angle_alpha 147.008649
_cell_angle_beta 60.739059
_cell_angle_gamma 106.867581
_cell_volume 648.744367
_symmetry_space_group_name_H-M "P -1"
_symmetry_group_IT_number 2
_symmetry_cell_setting 'triclinic'
loop_
_space_group_symop_operation_xyz
x,y,z
-x,-y,-z
loop_
_atom_site_type_symbol
_atom_site_label
_atom_site_fract_x
_atom_site_fract_y
_atom_site_fract_z
Si Si1 0.025793 0.387156 0.692909
Si Si2 0.034365 0.643769 0.746664
Si Si3 0.623004 0.715715 0.542046
Si Si4 0.322932 0.735627 0.630218
Si Si5 0.860065 0.169042 0.703600
Si Si6 0.620181 0.135534 0.991163
Si Si7 0.125019 0.913799 0.679400
O O1 0.981297 0.581658 0.845829
O O2 0.199945 0.357104 0.609317
O O3 0.992680 0.220368 0.429681
O O4 0.927406 0.346056 0.820254
O O5 0.214833 0.612896 0.609068
O O6 0.000000 0.500000 0.500000
O O7 0.503275 0.637109 0.428513
O O8 0.605226 0.930443 0.729762
O O9 0.542540 0.730628 0.742530
O O10 0.248024 0.823534 0.628699
O O11 0.309741 0.890261 0.924384
O O12 0.729673 0.210789 0.922797
O O13 0.805209 0.098189 0.515744
O O14 0.000000 0.000000 0.500000
O O15 0.041049 0.131930 0.992276
#
# Coordination Sequence:
#
# PCOD9079676 Si02
#       7
#     2   2   2   2   2   2   2
#     4  10  22  38  63  90 124 157 200 254 305 355
#     4  12  22  33  61  94 123 158 207 252 302 346
#     4   9  19  34  63  89 123 152 207 245 307 358
#     4  10  20  38  61  90 123 156 205 253 295 362
#     4  10  18  37  63  86 124 161 197 249 306 362
#     4   9  18  34  66  88 120 156 202 244 309 357
#     4  10  23  38  62  90 125 154 208 252 294 367
#
# _framework density 21.580148000000001
#
# number of rings (size 3 to 8) (size 9 to 14) (size 15 to 20)
#    1.714    0.286    2.857    2.143    2.000    0.571 
#    0.000    3.571    3.143    0.000    0.000    4.000 
#    0.000    0.000    0.000    0.000    0.000    0.000 
#
# Total GULP energy -77939.749876 kJ/mol
# GULP energy per Si atom -5567.124991 kJ/mol
# Density = 2.153103 g / cm^3
# Si number density = 21.580148 Si / 1000 Ang^3
#
#
#
# Elastic Constant Matrix: (Units=GPa)
#
#
# Indices 1 2 3 4 5 6 
#
# 1 122.4132 53.6171 47.5414 -6.3930 -0.8251 13.1524
# 2 53.6171 144.9719 32.9787 -17.1148 -8.6654 5.4388
# 3 47.5414 32.9787 72.0591 -9.2871 -0.4191 -1.7960
# 4 -6.3930 -17.1148 -9.2871 42.5329 2.6909 2.5693
# 5 -0.8251 -8.6654 -0.4191 2.6909 22.2479 -4.9864
# 6 13.1524 5.4388 -1.7960 2.5693 -4.9864 42.8198
#
#
#
# Elastic Compliance Matrix: (Units=1/GPa)
#
#
# Indices 1 2 3 4 5 6 
#
# 1 0.012674 -0.003082 -0.007130 -0.000546 -0.001687 -0.003964
# 2 -0.003082 0.008908 -0.001697 0.002565 0.003000 -0.000061
# 3 -0.007130 -0.001697 0.019741 0.002380 -0.000153 0.003073
# 4 -0.000546 0.002565 0.002380 0.025248 -0.002447 -0.001858
# 5 -0.001687 0.003000 -0.000153 -0.002447 0.047653 0.005827
# 6 -0.003964 -0.000061 0.003073 -0.001858 0.005827 0.025498
#
#
# Mechanical properties :
#
#
# Convention : Reuss Voigt Hill
#
# Bulk Modulus (GPa) = 57.12851 67.52430 62.32640
# Shear Modulus (GPa) = 29.52017 35.20724 32.36370
#
# Velocity S-wave (km/s) = 3.70257 4.04352 3.87679
# Velocity P-wave (km/s) = 6.69394 7.29095 6.99882
#
# Compressibility (1/GPa) = 0.01750439
#
# Stress axis : x y z
#
# Youngs Moduli (GPa) = 78.90017 112.25675 50.65630
#
# Poissons Ratio (x) = 0.34598 0.36120
# Poissons Ratio (y) = 0.24317 0.08597
# Poissons Ratio (z) = 0.56259 0.19051
#
# Static dielectric constant tensor:
#      x y z
#    x 1.889490 0.012010 0.060790 
#    y 0.012010 1.836680 0.001730 
#    z 0.060790 0.001730 1.887940 
# 
# From -- ./inp_files/394528.got.cif
#   From: 2010.05.17/outbox.cif.g08.bks.cpg/sg2_198_cif.got.tgz:394528.got - 2010.06.03 11:33:40.
