data_PCOD9079902
_publ_section_title
;
Structure prediction by ZEFSAII (Michael W. Deem and Ramdas Pophale) SiO2 
 PCOD9079902
Probable space group: P -1
;
_chemical_formula_sum "Si O2"
_cell_formula_units_Z 16
_cell_length_a 5.370623
_cell_length_b 8.503478
_cell_length_c 25.031276
_cell_angle_alpha 50.475463
_cell_angle_beta 65.520744
_cell_angle_gamma 93.984870
_cell_volume 706.359401
_symmetry_space_group_name_H-M "P -1"
_symmetry_group_IT_number 2
_symmetry_cell_setting 'triclinic'
loop_
_space_group_symop_operation_xyz
x,y,z
-x,-y,-z
loop_
_atom_site_type_symbol
_atom_site_label
_atom_site_fract_x
_atom_site_fract_y
_atom_site_fract_z
Si Si1 0.716970 0.999514 0.176206
Si Si2 0.730302 0.459360 0.746078
Si Si3 0.189909 0.953572 0.299704
Si Si4 0.695037 0.783680 0.594361
Si Si5 0.684044 0.128535 0.307267
Si Si6 0.149087 0.071460 0.032184
Si Si7 0.785427 0.652984 0.317149
Si Si8 0.203091 0.614297 0.132383
O O1 0.527089 0.761835 0.212426
O O2 0.469793 0.075162 0.204400
O O3 0.817605 0.897641 0.240528
O O4 0.967757 0.140077 0.078267
O O5 0.778081 0.676383 0.661496
O O6 0.650600 0.452236 0.815771
O O7 0.024344 0.415971 0.726430
O O8 0.966802 0.703745 0.346122
O O9 0.383383 0.969483 0.332170
O O10 0.945267 0.048287 0.308563
O O11 0.451140 0.856559 0.626128
O O12 0.547075 0.573811 0.609465
O O13 0.000000 0.000000 0.500000
O O14 0.875718 0.381228 0.206108
O O15 0.152910 0.835857 0.100710
O O16 0.506274 0.275303 0.957302
O O17 0.000000 0.000000 0.000000
#
# Coordination Sequence:
#
# PCOD9079902 Si02
#       8
#     2   2   2   2   2   2   2   2
#     4  10  19  39  67  96 135 184 235 275 334 414
#     4  10  18  37  69  95 135 174 227 279 340 408
#     4  11  25  43  72  97 138 196 229 273 346 431
#     4  11  25  43  73 109 137 171 229 298 347 407
#     4  12  25  46  69 103 139 182 230 285 354 415
#     4  11  22  35  64 105 138 170 238 296 341 392
#     4  10  20  43  71  97 133 184 236 267 350 413
#     4  11  22  37  63 102 135 180 224 294 346 396
#
# _framework density 22.651357000000001
#
# number of rings (size 3 to 8) (size 9 to 14) (size 15 to 20)
#    0.000    1.250    5.000    1.500    1.750    0.500 
#    0.000    2.500    0.000    0.000    0.000    0.000 
#    0.000    0.000    0.000    0.000    0.000    0.000 
#
# Total GULP energy -89085.744514 kJ/mol
# GULP energy per Si atom -5567.859032 kJ/mol
# Density = 2.259980 g / cm^3
# Si number density = 22.651357 Si / 1000 Ang^3
#
#
#
# Elastic Constant Matrix: (Units=GPa)
#
#
# Indices 1 2 3 4 5 6 
#
# 1 84.5693 16.7927 -0.9627 16.5475 -26.0510 -9.7053
# 2 16.7927 50.7396 8.8675 24.1478 -23.2816 -5.1797
# 3 -0.9627 8.8675 56.2494 1.8275 -43.1821 -13.7657
# 4 16.5475 24.1478 1.8275 17.7772 1.4255 -6.9137
# 5 -26.0510 -23.2816 -43.1821 1.4255 22.6797 8.0046
# 6 -9.7053 -5.1797 -13.7657 -6.9137 8.0046 55.7882
#
#
#
# Elastic Compliance Matrix: (Units=1/GPa)
#
#
# Indices 1 2 3 4 5 6 
#
# 1 0.009710 -0.008950 -0.005716 0.005062 -0.009756 0.001475
# 2 -0.008950 0.026967 -0.024124 -0.025555 -0.025321 -0.004540
# 3 -0.005716 -0.024124 0.012976 0.040244 -0.011483 0.006603
# 4 0.005062 -0.025555 0.040244 0.083043 0.046743 0.012023
# 5 -0.009756 -0.025321 -0.011483 0.046743 -0.018459 0.001560
# 6 0.001475 -0.004540 0.006603 0.012023 0.001560 0.020655
#
#
# Mechanical properties :
#
#
# Convention : Reuss Voigt Hill
#
# Bulk Modulus (GPa) = -35.80829 26.77259 -4.51785
# Shear Modulus (GPa) = 24.61086 30.37308 27.49197
#
# Velocity S-wave (km/s) = 3.29980 3.66580 3.48760
# Velocity P-wave (km/s) = 1.15090 5.45550 3.77080
#
# Compressibility (1/GPa) = -0.02792650
#
# Stress axis : x y z
#
# Youngs Moduli (GPa) = 102.98558 37.08284 77.06467
#
# Poissons Ratio (x) = 0.33189 0.44051
# Poissons Ratio (y) = 0.92171 1.85908
# Poissons Ratio (z) = 0.58868 0.89457
#
# Static dielectric constant tensor:
#      x y z
#    x 1.953590 0.034450 -0.020130 
#    y 0.034450 1.973440 0.031330 
#    z -0.020130 0.031330 1.888280 
# 
# From -- ./inp_files/603975.got.cif
#   From: 2010.05.17/outbox.cif.g08.bks.cpg/sg2_302_cif.got.tgz:603975.got - 2010.06.03 11:33:40.
