data_PCOD9079554
_publ_section_title
;
Structure prediction by ZEFSAII (Michael W. Deem and Ramdas Pophale) SiO2 
 PCOD9079554
Probable space group: P -1
;
_chemical_formula_sum "Si O2"
_cell_formula_units_Z 14
_cell_length_a 9.460435
_cell_length_b 14.162794
_cell_length_c 10.873437
_cell_angle_alpha 116.923070
_cell_angle_beta 59.795306
_cell_angle_gamma 149.533744
_cell_volume 637.788351
_symmetry_space_group_name_H-M "P -1"
_symmetry_group_IT_number 2
_symmetry_cell_setting 'triclinic'
loop_
_space_group_symop_operation_xyz
x,y,z
-x,-y,-z
loop_
_atom_site_type_symbol
_atom_site_label
_atom_site_fract_x
_atom_site_fract_y
_atom_site_fract_z
Si Si1 0.371114 0.458310 0.666178
Si Si2 0.137237 0.142437 0.207451
Si Si3 0.868158 0.797017 0.034443
Si Si4 0.703028 0.439858 0.583596
Si Si5 0.820815 0.538581 0.857660
Si Si6 0.441241 0.090762 0.599178
Si Si7 0.930332 0.370640 0.718912
O O1 0.500000 0.500000 0.500000
O O2 0.559136 0.652385 0.759577
O O3 0.443779 0.387655 0.661235
O O4 0.055020 0.339655 0.722994
O O5 0.073303 0.150558 0.103762
O O6 0.066760 0.980536 0.135341
O O7 0.895955 0.068058 0.352777
O O8 0.529355 0.647077 0.102554
O O9 0.905659 0.692313 0.976539
O O10 0.887017 0.570948 0.700912
O O11 0.581740 0.257827 0.552983
O O12 0.890080 0.541700 0.437397
O O13 0.957449 0.505310 0.834719
O O14 0.596055 0.188792 0.721317
O O15 0.500000 0.000000 0.500000
#
# Coordination Sequence:
#
# PCOD9079554 Si02
#       7
#     2   2   2   2   2   2   2
#     4  10  21  39  59  82 119 158 184 235 303 353
#     4  11  21  37  58  88 117 148 195 239 289 339
#     4  10  21  34  62  83 117 153 199 233 277 342
#     4  10  19  36  60  82 116 155 190 234 294 350
#     4  10  18  37  61  87 106 157 205 227 281 350
#     4  11  21  34  61  88 112 142 202 251 279 331
#     4  10  21  37  58  88 115 149 196 242 291 337
#
# _framework density 21.950856999999999
#
# number of rings (size 3 to 8) (size 9 to 14) (size 15 to 20)
#    0.000    1.714    4.286    3.429    2.000    0.000 
#    0.000    7.857    0.000    0.000    0.000    0.000 
#    0.000    0.000    0.000    0.000    0.000    0.000 
#
# Total GULP energy -78066.776211 kJ/mol
# GULP energy per Si atom -5576.198301 kJ/mol
# Density = 2.190090 g / cm^3
# Si number density = 21.950857 Si / 1000 Ang^3
#
#
#
# Elastic Constant Matrix: (Units=GPa)
#
#
# Indices 1 2 3 4 5 6 
#
# 1 128.4182 10.6001 16.9613 12.1211 -38.2729 -9.0004
# 2 10.6001 52.5916 12.1500 12.8838 -7.0083 -12.0213
# 3 16.9613 12.1500 59.9760 14.2951 -29.0295 -20.5528
# 4 12.1211 12.8838 14.2951 34.5956 -11.1521 -16.6774
# 5 -38.2729 -7.0083 -29.0295 -11.1521 39.8247 10.1114
# 6 -9.0004 -12.0213 -20.5528 -16.6774 10.1114 22.8675
#
#
#
# Elastic Compliance Matrix: (Units=1/GPa)
#
#
# Indices 1 2 3 4 5 6 
#
# 1 0.011421 -0.001054 0.003939 -0.000288 0.013219 0.001427
# 2 -0.001054 0.022094 -0.001022 -0.003988 -0.000967 0.007800
# 3 0.003939 -0.001022 0.034831 0.004311 0.023880 0.024904
# 4 -0.000288 -0.003988 0.004311 0.046685 0.006950 0.032640
# 5 0.013219 -0.000967 0.023880 0.006950 0.055274 0.006785
# 6 0.001427 0.007800 0.024904 0.032640 0.006785 0.091579
#
#
# Mechanical properties :
#
#
# Convention : Reuss Voigt Hill
#
# Bulk Modulus (GPa) = 13.87501 35.60096 24.73798
# Shear Modulus (GPa) = 17.71910 32.87585 25.29748
#
# Velocity S-wave (km/s) = 2.84424 3.87421 3.39847
# Velocity P-wave (km/s) = 4.13774 6.02216 5.16659
#
# Compressibility (1/GPa) = 0.07207203
#
# Stress axis : x y z
#
# Youngs Moduli (GPa) = 87.56167 45.26095 28.70996
#
# Poissons Ratio (x) = 0.04770 -0.11310
# Poissons Ratio (y) = 0.09227 0.02935
# Poissons Ratio (z) = -0.34494 0.04628
#
# Static dielectric constant tensor:
#      x y z
#    x 1.873000 -0.065290 0.060380 
#    y -0.065290 1.868160 -0.046100 
#    z 0.060380 -0.046100 1.972940 
# 
# From -- ./inp_files/258486.got.cif
#   From: 2010.05.17/outbox.cif.g08.bks.cpg/sg2_130_cif.got.tgz:258486.got - 2010.06.03 11:33:40.
