data_PCOD9079217
_publ_section_title
;
Structure prediction by ZEFSAII (Michael W. Deem and Ramdas Pophale) SiO2 
 PCOD9079217
Probable space group: P -1
;
_chemical_formula_sum "Si O2"
_cell_formula_units_Z 15
_cell_length_a 9.071135
_cell_length_b 12.339462
_cell_length_c 15.521869
_cell_angle_alpha 26.433172
_cell_angle_beta 70.915917
_cell_angle_gamma 86.125795
_cell_volume 617.354588
_symmetry_space_group_name_H-M "P -1"
_symmetry_group_IT_number 2
_symmetry_cell_setting 'triclinic'
loop_
_space_group_symop_operation_xyz
x,y,z
-x,-y,-z
loop_
_atom_site_type_symbol
_atom_site_label
_atom_site_fract_x
_atom_site_fract_y
_atom_site_fract_z
Si Si1 0.821380 0.123966 0.778053
Si Si2 0.602822 0.227262 0.118611
Si Si3 0.500000 0.500000 0.500000
Si Si4 0.873111 0.099462 0.257555
Si Si5 0.264654 0.458760 0.846774
Si Si6 0.381636 0.217762 0.333049
Si Si7 0.725328 0.335489 0.483195
Si Si8 0.771711 0.577332 0.536809
O O1 0.836974 0.269152 0.577460
O O2 0.750256 0.265111 0.759059
O O3 0.028861 0.219072 0.692482
O O4 0.705435 0.788537 0.020076
O O5 0.461419 0.184453 0.252343
O O6 0.767786 0.206628 0.141285
O O7 0.479683 0.961298 0.267130
O O8 0.659163 0.530997 0.851565
O O9 0.689653 0.564159 0.370207
O O10 0.600180 0.536999 0.547056
O O11 0.798006 0.064308 0.393615
O O12 0.800361 0.770842 0.476599
O O13 0.090708 0.297031 0.059754
O O14 0.451404 0.680733 0.702858
O O15 0.214457 0.577673 0.688058
#
# Coordination Sequence:
#
# PCOD9079217 Si02
#       8
#     2   2   1   2   2   2   2   2
#     4   9  20  38  58  90 130 163 200 257 302 375
#     4  11  23  43  65  90 127 167 207 266 318 369
#     4  10  18  36  64  90 124 160 208 248 304 374
#     4  11  23  42  64  96 124 165 212 263 308 381
#     4  11  23  40  68  94 124 171 209 256 320 370
#     4  11  24  44  63  91 127 165 212 264 319 371
#     4  11  21  40  64  92 126 167 209 255 315 374
#     4   9  18  36  60  88 128 157 205 249 307 364
#
# _framework density 24.297217
#
# number of rings (size 3 to 8) (size 9 to 14) (size 15 to 20)
#    0.000    1.600    4.000    0.400    0.000    2.667 
#    2.400   20.000    0.000    0.000    0.000    0.000 
#    0.000    0.000    0.000    0.000    0.000    0.000 
#
# Total GULP energy -83557.291064 kJ/mol
# GULP energy per Si atom -5570.486071 kJ/mol
# Density = 2.424192 g / cm^3
# Si number density = 24.297217 Si / 1000 Ang^3
#
#
#
# Elastic Constant Matrix: (Units=GPa)
#
#
# Indices 1 2 3 4 5 6 
#
# 1 90.9113 10.7308 23.1209 10.9295 10.5940 -11.6548
# 2 10.7308 57.6618 29.5926 10.1607 -1.6516 -11.3190
# 3 23.1209 29.5926 86.9477 16.0288 4.3190 -5.4489
# 4 10.9295 10.1607 16.0288 39.5660 -3.2594 5.4319
# 5 10.5940 -1.6516 4.3190 -3.2594 30.0098 -0.1280
# 6 -11.6548 -11.3190 -5.4489 5.4319 -0.1280 30.3623
#
#
#
# Elastic Compliance Matrix: (Units=1/GPa)
#
#
# Indices 1 2 3 4 5 6 
#
# 1 0.013288 0.000377 -0.002351 -0.003962 -0.004738 0.005508
# 2 0.000377 0.023191 -0.006754 -0.004333 0.001680 0.008361
# 3 -0.002351 -0.006754 0.015269 -0.003984 -0.002172 0.000023
# 4 -0.003962 -0.004333 -0.003984 0.030792 0.005038 -0.009339
# 5 -0.004738 0.001680 -0.002172 0.005038 0.035937 -0.002332
# 6 0.005508 0.008361 0.000023 -0.009339 -0.002332 0.039832
#
#
# Mechanical properties :
#
#
# Convention : Reuss Voigt Hill
#
# Bulk Modulus (GPa) = 29.16114 40.26771 34.71443
# Shear Modulus (GPa) = 26.70995 31.45939 29.08467
#
# Velocity S-wave (km/s) = 3.31917 3.60220 3.46358
# Velocity P-wave (km/s) = 5.16885 5.82324 5.50578
#
# Compressibility (1/GPa) = 0.03429221
#
# Stress axis : x y z
#
# Youngs Moduli (GPa) = 75.25767 43.11927 65.49255
#
# Poissons Ratio (x) = -0.01627 0.15397
# Poissons Ratio (y) = -0.02840 0.44235
# Poissons Ratio (z) = 0.17693 0.29124
#
# Static dielectric constant tensor:
#      x y z
#    x 1.855710 -0.047440 0.048860 
#    y -0.047440 1.944340 -0.082590 
#    z 0.048860 -0.082590 1.991280 
# 
# From -- ./inp_files/499666.got.cif
#   From: 2010.05.17/outbox.cif.g08.bks.cpg/sg2_250_cif.got.tgz:499666.got - 2010.06.03 11:33:40.
