data_PCOD9079446
_publ_section_title
;
Structure prediction by ZEFSAII (Michael W. Deem and Ramdas Pophale) SiO2 
 PCOD9079446
Probable space group: P -1
;
_chemical_formula_sum "Si O2"
_cell_formula_units_Z 16
_cell_length_a 18.895157
_cell_length_b 21.114372
_cell_length_c 9.545410
_cell_angle_alpha 125.901056
_cell_angle_beta 135.057032
_cell_angle_gamma 19.245397
_cell_volume 830.094254
_symmetry_space_group_name_H-M "P -1"
_symmetry_group_IT_number 2
_symmetry_cell_setting 'triclinic'
loop_
_space_group_symop_operation_xyz
x,y,z
-x,-y,-z
loop_
_atom_site_type_symbol
_atom_site_label
_atom_site_fract_x
_atom_site_fract_y
_atom_site_fract_z
Si Si1 0.760916 0.724231 0.115713
Si Si2 0.499960 0.700296 0.048757
Si Si3 0.593736 0.583834 0.461393
Si Si4 0.955791 0.092481 0.931329
Si Si5 0.347840 0.142979 0.181796
Si Si6 0.636327 0.702139 0.493419
Si Si7 0.231175 0.463076 0.075256
Si Si8 0.738212 0.388238 0.157326
O O1 0.054134 0.521655 0.323563
O O2 0.557313 0.923050 0.176182
O O3 0.744238 0.766936 0.988208
O O4 0.699311 0.676697 0.969422
O O5 0.591448 0.708835 0.280022
O O6 0.634983 0.528828 0.090446
O O7 0.594639 0.638397 0.943658
O O8 0.188683 0.917372 0.919579
O O9 0.329521 0.723743 0.291235
O O10 0.520455 0.716363 0.446464
O O11 0.718101 0.518668 0.696878
O O12 0.786767 0.396755 0.384170
O O13 0.952277 0.180609 0.111880
O O14 0.000000 0.000000 0.000000
O O15 0.460509 0.141194 0.403869
O O16 0.079870 0.311809 0.102855
O O17 0.500000 0.500000 0.000000
#
# Coordination Sequence:
#
# PCOD9079446 Si02
#       8
#     2   2   2   2   2   2   2   2
#     4  10  20  36  60  88 114 151 199 235 283 347
#     4  11  24  37  60  87 119 157 186 243 295 330
#     4  10  19  37  62  85 115 155 190 241 285 338
#     4  11  20  39  63  86 113 148 200 240 276 343
#     4  10  20  36  61  86 116 154 194 238 282 347
#     4  10  18  37  58  86 110 154 199 234 279 342
#     4  11  22  41  54  87 130 146 186 245 295 336
#     4   9  19  38  60  82 107 145 201 235 273 340
#
# _framework density 19.274920000000002
#
# number of rings (size 3 to 8) (size 9 to 14) (size 15 to 20)
#    0.000    1.750    6.250    0.750    0.000    5.500 
#    2.250    3.750    0.000    0.000    0.000    0.000 
#    0.000    0.000    0.000    0.000    0.000    0.000 
#
# Total GULP energy -89315.235793 kJ/mol
# GULP energy per Si atom -5582.202237 kJ/mol
# Density = 1.923105 g / cm^3
# Si number density = 19.274920 Si / 1000 Ang^3
#
#
#
# Elastic Constant Matrix: (Units=GPa)
#
#
# Indices 1 2 3 4 5 6 
#
# 1 62.8319 40.8074 23.8363 10.4366 5.1514 -24.6534
# 2 40.8074 120.5342 17.2286 23.1786 12.6021 -1.3417
# 3 23.8363 17.2286 80.2626 25.3112 12.7650 2.2591
# 4 10.4366 23.1786 25.3112 29.5772 1.1359 1.7744
# 5 5.1514 12.6021 12.7650 1.1359 20.1259 5.0499
# 6 -24.6534 -1.3417 2.2591 1.7744 5.0499 30.2551
#
#
#
# Elastic Compliance Matrix: (Units=1/GPa)
#
#
# Indices 1 2 3 4 5 6 
#
# 1 0.041400 -0.011921 -0.010424 0.001773 -0.005346 0.034772
# 2 -0.011921 0.014240 0.005081 -0.010584 -0.006546 -0.007748
# 3 -0.010424 0.005081 0.022438 -0.018634 -0.011973 -0.006852
# 4 0.001773 -0.010584 -0.018634 0.057038 0.015675 -0.003594
# 5 -0.005346 -0.006546 -0.011973 0.015675 0.065792 -0.015653
# 6 0.034772 -0.007748 -0.006852 -0.003594 -0.015653 0.064378
#
#
# Mechanical properties :
#
#
# Convention : Reuss Voigt Hill
#
# Bulk Modulus (GPa) = 22.96290 47.48595 35.22442
# Shear Modulus (GPa) = 15.90689 28.10873 22.00781
#
# Velocity S-wave (km/s) = 2.87586 3.82292 3.38270
# Velocity P-wave (km/s) = 4.79235 6.64650 5.79407
#
# Compressibility (1/GPa) = 0.04354851
#
# Stress axis : x y z
#
# Youngs Moduli (GPa) = 24.15480 70.22665 44.56820
#
# Poissons Ratio (x) = 0.83718 0.46456
# Poissons Ratio (y) = 0.28795 -0.22644
# Poissons Ratio (z) = 0.25178 -0.35680
#
# Static dielectric constant tensor:
#      x y z
#    x 1.656920 -0.002510 0.028760 
#    y -0.002510 1.702520 0.007880 
#    z 0.028760 0.007880 1.691510 
# 
# From -- ./inp_files/306280.got.cif
#   From: 2010.05.17/outbox.cif.g08.bks.cpg/sg2_154_cif.got.tgz:306280.got - 2010.06.03 11:33:40.
