data_PCOD9079035
_publ_section_title
;
Structure prediction by ZEFSAII (Michael W. Deem and Ramdas Pophale) SiO2 
 PCOD9079035
Probable space group: P -1
;
_chemical_formula_sum "Si O2"
_cell_formula_units_Z 16
_cell_length_a 15.366340
_cell_length_b 11.472293
_cell_length_c 9.049317
_cell_angle_alpha 82.128894
_cell_angle_beta 43.922152
_cell_angle_gamma 51.108242
_cell_volume 699.203266
_symmetry_space_group_name_H-M "P -1"
_symmetry_group_IT_number 2
_symmetry_cell_setting 'triclinic'
loop_
_space_group_symop_operation_xyz
x,y,z
-x,-y,-z
loop_
_atom_site_type_symbol
_atom_site_label
_atom_site_fract_x
_atom_site_fract_y
_atom_site_fract_z
Si Si1 0.379051 0.980103 0.712671
Si Si2 0.964404 0.407781 0.150030
Si Si3 0.811690 0.224008 0.686507
Si Si4 0.217723 0.918436 0.723673
Si Si5 0.834606 0.264748 0.308481
Si Si6 0.428206 0.830709 0.991843
Si Si7 0.834861 0.630712 0.557309
Si Si8 0.917083 0.837599 0.435571
O O1 0.380947 0.883543 0.597508
O O2 0.500000 0.000000 0.500000
O O3 0.164846 0.190976 0.965698
O O4 0.446988 0.869493 0.798188
O O5 0.828702 0.404531 0.245075
O O6 0.882481 0.509242 0.387317
O O7 0.000000 0.500000 0.000000
O O8 0.805506 0.277531 0.517698
O O9 0.625267 0.270529 0.930664
O O10 0.873641 0.278204 0.723057
O O11 0.000000 0.000000 0.500000
O O12 0.129754 0.039835 0.661756
O O13 0.297217 0.732702 0.618632
O O14 0.046302 0.054702 0.034909
O O15 0.242848 0.024430 0.264832
O O16 0.621889 0.739972 0.852615
O O17 0.865358 0.745047 0.454197
O O18 0.000000 0.500000 0.500000
#
# Coordination Sequence:
#
# PCOD9079035 Si02
#       8
#     2   2   2   2   2   2   2   2
#     4  11  23  41  66  95 125 169 217 272 318 379
#     4  11  23  42  62  90 133 173 204 258 334 392
#     4  10  18  36  61  95 130 160 208 274 330 362
#     4  10  19  32  64  97 119 156 220 265 308 367
#     4  10  19  35  58  91 126 162 209 260 314 379
#     4  11  23  41  65  95 131 166 223 272 321 380
#     4  12  25  42  63  92 130 175 213 263 330 398
#     4  11  21  38  67  98 127 168 221 271 316 382
#
# _framework density 22.883187
#
# number of rings (size 3 to 8) (size 9 to 14) (size 15 to 20)
#    0.000    1.250    2.500    7.875    1.750    1.000 
#    0.000    2.500    0.000    1.500    0.000    0.000 
#    0.000    0.000    0.000    0.000    0.000    0.000 
#
# Total GULP energy -89309.294265 kJ/mol
# GULP energy per Si atom -5581.830892 kJ/mol
# Density = 2.283110 g / cm^3
# Si number density = 22.883187 Si / 1000 Ang^3
#
#
#
# Elastic Constant Matrix: (Units=GPa)
#
#
# Indices 1 2 3 4 5 6 
#
# 1 147.8579 52.6371 47.7439 -18.4747 -22.0576 36.0912
# 2 52.6371 80.8867 30.6149 -25.0547 -11.6438 27.7172
# 3 47.7439 30.6149 76.6036 -37.2516 -10.5431 7.9227
# 4 -18.4747 -25.0547 -37.2516 38.9962 5.7235 -3.0925
# 5 -22.0576 -11.6438 -10.5431 5.7235 41.3376 -9.9813
# 6 36.0912 27.7172 7.9227 -3.0925 -9.9813 52.0003
#
#
#
# Elastic Compliance Matrix: (Units=1/GPa)
#
#
# Indices 1 2 3 4 5 6 
#
# 1 0.011399 -0.004445 -0.006787 -0.004676 0.002717 -0.004265
# 2 -0.004445 0.021205 0.000770 0.011600 0.000362 -0.007576
# 3 -0.006787 0.000770 0.029163 0.025123 0.000924 0.001528
# 4 -0.004676 0.011600 0.025123 0.054774 -0.001312 -0.003760
# 5 0.002717 0.000362 0.000924 -0.001312 0.026850 0.002856
# 6 -0.004265 -0.007576 0.001528 -0.003760 0.002856 0.026321
#
#
# Mechanical properties :
#
#
# Convention : Reuss Voigt Hill
#
# Bulk Modulus (GPa) = 24.48394 63.03778 43.76086
# Shear Modulus (GPa) = 24.47969 38.09032 31.28500
#
# Velocity S-wave (km/s) = 3.27428 4.08432 3.70153
# Velocity P-wave (km/s) = 5.00173 7.06043 6.11829
#
# Compressibility (1/GPa) = 0.04084311
#
# Stress axis : x y z
#
# Youngs Moduli (GPa) = 87.72375 47.15794 34.29041
#
# Poissons Ratio (x) = 0.20962 0.23273
# Poissons Ratio (y) = 0.38994 -0.02640
# Poissons Ratio (z) = 0.59538 -0.03631
#
# Static dielectric constant tensor:
#      x y z
#    x 1.748280 0.041400 0.235950 
#    y 0.041400 1.903410 -0.034280 
#    z 0.235950 -0.034280 1.331680 
# 
# From -- ./inp_files/305055.got.cif
#   From: 2010.05.17/outbox.cif.g08.bks.cpg/sg2_153_cif.got.tgz:305055.got - 2010.06.03 11:33:40.
