data_PCOD9079084
_publ_section_title
;
Structure prediction by ZEFSAII (Michael W. Deem and Ramdas Pophale) SiO2 
 PCOD9079084
Probable space group: P -1
;
_chemical_formula_sum "Si O2"
_cell_formula_units_Z 16
_cell_length_a 9.163796
_cell_length_b 8.708349
_cell_length_c 17.164483
_cell_angle_alpha 89.227836
_cell_angle_beta 132.851825
_cell_angle_gamma 118.469363
_cell_volume 773.372558
_symmetry_space_group_name_H-M "P -1"
_symmetry_group_IT_number 2
_symmetry_cell_setting 'triclinic'
loop_
_space_group_symop_operation_xyz
x,y,z
-x,-y,-z
loop_
_atom_site_type_symbol
_atom_site_label
_atom_site_fract_x
_atom_site_fract_y
_atom_site_fract_z
Si Si1 0.039570 0.305088 0.178728
Si Si2 0.467666 0.762545 0.047491
Si Si3 0.190679 0.108499 0.968173
Si Si4 0.994110 0.905881 0.418014
Si Si5 0.604662 0.347325 0.817353
Si Si6 0.040791 0.836643 0.691397
Si Si7 0.698952 0.026054 0.839585
Si Si8 0.184360 0.732696 0.582476
O O1 0.107146 0.329399 0.294410
O O2 0.228221 0.485363 0.187594
O O3 0.001235 0.113820 0.136146
O O4 0.758722 0.244772 0.068503
O O5 0.609360 0.749463 0.027695
O O6 0.338608 0.601537 0.070971
O O7 0.692689 0.974079 0.170983
O O8 0.327685 0.084246 0.088876
O O9 0.996679 0.143888 0.925258
O O10 0.688529 0.736146 0.294955
O O11 0.144880 0.827354 0.494366
O O12 0.090665 0.069070 0.385245
O O13 0.000000 0.000000 0.500000
O O14 0.641703 0.180862 0.820533
O O15 0.098952 0.769905 0.634194
O O16 0.486986 0.852422 0.705056
O O17 0.000000 0.500000 0.500000
#
# Coordination Sequence:
#
# PCOD9079084 Si02
#       8
#     2   2   2   2   2   2   2   2
#     4  11  20  34  63  91 117 154 207 245 290 363
#     4  10  18  36  62  87 118 161 197 237 303 362
#     4  10  22  36  63  89 125 159 191 245 307 366
#     4   9  18  37  60  81 110 163 200 239 293 351
#     4  11  21  35  62  89 122 151 203 251 291 360
#     4   9  18  37  59  86 116 156 201 240 291 358
#     4  11  21  39  58  91 127 158 192 247 314 347
#     4  11  21  37  65  88 120 161 203 247 300 351
#
# _framework density 20.688607000000001
#
# number of rings (size 3 to 8) (size 9 to 14) (size 15 to 20)
#    0.000    1.750    5.000    2.625    1.750    0.000 
#    0.000    6.875    2.750    7.500    0.000    0.875 
#    0.000    0.000    0.000    0.000    0.000    0.000 
#
# Total GULP energy -89165.120530 kJ/mol
# GULP energy per Si atom -5572.820033 kJ/mol
# Density = 2.064152 g / cm^3
# Si number density = 20.688607 Si / 1000 Ang^3
#
#
#
# Elastic Constant Matrix: (Units=GPa)
#
#
# Indices 1 2 3 4 5 6 
#
# 1 64.9027 41.5337 25.8106 -15.8604 1.1777 24.8650
# 2 41.5337 114.3933 48.9967 -21.5383 -8.3542 33.7955
# 3 25.8106 48.9967 87.2818 -26.8000 -4.6250 0.0153
# 4 -15.8604 -21.5383 -26.8000 34.2532 1.8573 -10.4956
# 5 1.1777 -8.3542 -4.6250 1.8573 18.6387 -7.5132
# 6 24.8650 33.7955 0.0153 -10.4956 -7.5132 31.6639
#
#
#
# Elastic Compliance Matrix: (Units=1/GPa)
#
#
# Indices 1 2 3 4 5 6 
#
# 1 0.029976 0.000565 -0.010594 -0.001934 -0.015552 -0.028468
# 2 0.000565 0.020247 -0.013118 -0.004556 -0.003602 -0.024412
# 3 -0.010594 -0.013118 0.028027 0.017632 0.012534 0.031126
# 4 -0.001934 -0.004556 0.017632 0.045988 0.007283 0.023344
# 5 -0.015552 -0.003602 0.012534 0.007283 0.069495 0.034956
# 6 -0.028468 -0.024412 0.031126 0.023344 0.034956 0.096009
#
#
# Mechanical properties :
#
#
# Convention : Reuss Voigt Hill
#
# Bulk Modulus (GPa) = 31.29553 55.47330 43.38441
# Shear Modulus (GPa) = 14.42223 26.92694 20.67458
#
# Velocity S-wave (km/s) = 2.64315 3.61159 3.16464
# Velocity P-wave (km/s) = 4.94720 6.65305 5.86250
#
# Compressibility (1/GPa) = 0.03195345
#
# Stress axis : x y z
#
# Youngs Moduli (GPa) = 33.36052 49.39116 35.68035
#
# Poissons Ratio (x) = -0.02789 0.37800
# Poissons Ratio (y) = -0.01884 0.46806
# Poissons Ratio (z) = 0.35343 0.64792
#
# Static dielectric constant tensor:
#      x y z
#    x 1.782270 0.021310 -0.037430 
#    y 0.021310 1.800630 0.013120 
#    z -0.037430 0.013120 1.705100 
# 
# From -- ./inp_files/556265.got.cif
#   From: 2010.05.17/outbox.cif.g08.bks.cpg/sg2_279_cif.got.tgz:556265.got - 2010.06.03 11:33:40.
