data_PCOD9079658
_publ_section_title
;
Structure prediction by ZEFSAII (Michael W. Deem and Ramdas Pophale) SiO2 
 PCOD9079658
Probable space group: P -1
;
_chemical_formula_sum "Si O2"
_cell_formula_units_Z 16
_cell_length_a 11.617031
_cell_length_b 28.754767
_cell_length_c 8.971951
_cell_angle_alpha 145.559498
_cell_angle_beta 122.194952
_cell_angle_gamma 34.203364
_cell_volume 841.232569
_symmetry_space_group_name_H-M "P -1"
_symmetry_group_IT_number 2
_symmetry_cell_setting 'triclinic'
loop_
_space_group_symop_operation_xyz
x,y,z
-x,-y,-z
loop_
_atom_site_type_symbol
_atom_site_label
_atom_site_fract_x
_atom_site_fract_y
_atom_site_fract_z
Si Si1 0.205458 0.926137 0.555732
Si Si2 0.042428 0.674256 0.544226
Si Si3 0.273705 0.115122 0.547599
Si Si4 0.505147 0.592819 0.306019
Si Si5 0.999839 0.143182 0.217230
Si Si6 0.856131 0.349658 0.106270
Si Si7 0.497518 0.630238 0.078601
Si Si8 0.421493 0.119635 0.356414
O O1 0.379876 0.766500 0.285376
O O2 0.364607 0.923483 0.603801
O O3 0.000000 0.000000 0.500000
O O4 0.083222 0.021089 0.870187
O O5 0.022008 0.770043 0.688334
O O6 0.052558 0.682699 0.749908
O O7 0.810791 0.737320 0.510054
O O8 0.278657 0.514863 0.234458
O O9 0.338374 0.141870 0.524958
O O10 0.183755 0.078834 0.300730
O O11 0.500000 0.000000 0.500000
O O12 0.060962 0.243724 0.847102
O O13 0.251853 0.740834 0.577376
O O14 0.683482 0.504181 0.331621
O O15 0.568383 0.610887 0.248538
O O16 0.500000 0.500000 0.000000
O O17 0.702718 0.341658 0.984799
O O18 0.500000 0.000000 0.000000
#
# Coordination Sequence:
#
# PCOD9079658 Si02
#       8
#     2   2   2   2   2   2   2   2
#     4  12  28  42  66  99 139 171 216 273 336 389
#     4  11  21  38  71  94 123 174 228 265 317 389
#     4  11  22  36  67  97 128 168 226 265 317 384
#     4  10  18  37  62  94 129 164 218 270 320 381
#     4  11  21  41  64  95 130 171 214 268 321 390
#     4  11  21  36  68 101 125 167 230 271 314 392
#     4  11  23  39  64  97 135 171 214 276 333 381
#     4  11  23  44  68  93 131 178 220 269 320 396
#
# _framework density 19.019711000000001
#
# number of rings (size 3 to 8) (size 9 to 14) (size 15 to 20)
#    0.000    1.000    7.500    2.625    3.500    1.000 
#    0.000    0.000    0.000    1.500    0.000    0.000 
#    0.000    0.000    0.000    0.000    0.000    0.000 
#
# Total GULP energy -89276.788457 kJ/mol
# GULP energy per Si atom -5579.799279 kJ/mol
# Density = 1.897642 g / cm^3
# Si number density = 19.019711 Si / 1000 Ang^3
#
#
#
# Elastic Constant Matrix: (Units=GPa)
#
#
# Indices 1 2 3 4 5 6 
#
# 1 77.6536 39.8673 45.2105 -7.3055 -21.2242 -12.3147
# 2 39.8673 153.5894 49.4646 -14.2648 -4.0044 -0.3746
# 3 45.2105 49.4646 99.5642 9.8348 -22.4403 -8.6582
# 4 -7.3055 -14.2648 9.8348 33.3486 4.8141 -10.5114
# 5 -21.2242 -4.0044 -22.4403 4.8141 33.1953 3.0778
# 6 -12.3147 -0.3746 -8.6582 -10.5114 3.0778 35.3256
#
#
#
# Elastic Compliance Matrix: (Units=1/GPa)
#
#
# Indices 1 2 3 4 5 6 
#
# 1 0.022281 -0.002563 -0.007267 0.007233 0.007282 0.007477
# 2 -0.002563 0.009178 -0.005003 0.005532 -0.004719 0.000035
# 3 -0.007267 -0.005003 0.018867 -0.011321 0.009345 -0.002145
# 4 0.007233 0.005532 -0.011321 0.042931 -0.009833 0.013436
# 5 0.007282 -0.004719 0.009345 -0.009833 0.042123 -0.001817
# 6 0.007477 0.000035 -0.002145 0.013436 -0.001817 0.034546
#
#
# Mechanical properties :
#
#
# Convention : Reuss Voigt Hill
#
# Bulk Modulus (GPa) = 48.40298 66.65467 57.52883
# Shear Modulus (GPa) = 24.21546 33.45822 28.83684
#
# Velocity S-wave (km/s) = 3.57203 4.19875 3.89801
# Velocity P-wave (km/s) = 6.52048 7.65684 7.11139
#
# Compressibility (1/GPa) = 0.02065989
#
# Stress axis : x y z
#
# Youngs Moduli (GPa) = 44.88115 108.95218 53.00173
#
# Poissons Ratio (x) = 0.27927 0.38517
# Poissons Ratio (y) = 0.11504 0.26517
# Poissons Ratio (z) = 0.32616 0.54510
#
# Static dielectric constant tensor:
#      x y z
#    x 1.615100 -0.029420 -0.110900 
#    y -0.029420 1.671940 -0.064060 
#    z -0.110900 -0.064060 1.488520 
# 
# From -- ./inp_files/286114.got.cif
#   From: 2010.05.17/outbox.cif.g08.bks.cpg/sg2_144_cif.got.tgz:286114.got - 2010.06.03 11:33:40.
