data_PCOD9079413
_publ_section_title
;
Structure prediction by ZEFSAII (Michael W. Deem and Ramdas Pophale) SiO2 
 PCOD9079413
Probable space group: P -1
;
_chemical_formula_sum "Si O2"
_cell_formula_units_Z 15
_cell_length_a 17.514665
_cell_length_b 5.032870
_cell_length_c 8.038334
_cell_angle_alpha 102.792516
_cell_angle_beta 97.949484
_cell_angle_gamma 93.211958
_cell_volume 681.583373
_symmetry_space_group_name_H-M "P -1"
_symmetry_group_IT_number 2
_symmetry_cell_setting 'triclinic'
loop_
_space_group_symop_operation_xyz
x,y,z
-x,-y,-z
loop_
_atom_site_type_symbol
_atom_site_label
_atom_site_fract_x
_atom_site_fract_y
_atom_site_fract_z
Si Si1 0.791963 0.540482 0.538220
Si Si2 0.500000 0.000000 0.000000
Si Si3 0.046891 0.332243 0.224160
Si Si4 0.624225 0.384960 0.532672
Si Si5 0.492584 0.428073 0.733043
Si Si6 0.950683 0.797007 0.185874
Si Si7 0.791463 0.955473 0.306545
Si Si8 0.372530 0.043668 0.814973
O O1 0.869713 0.556377 0.669594
O O2 0.711443 0.504012 0.609834
O O3 0.790453 0.811784 0.465513
O O4 0.793003 0.281315 0.377630
O O5 0.487448 0.259349 0.167479
O O6 0.596425 0.114941 0.042930
O O7 0.982374 0.544590 0.256244
O O8 0.052686 0.274704 0.020899
O O9 0.014650 0.052004 0.262162
O O10 0.567741 0.318425 0.659782
O O11 0.576047 0.577521 0.425658
O O12 0.632658 0.128797 0.378906
O O13 0.455882 0.234047 0.845359
O O14 0.867533 0.874660 0.227552
O O15 0.710328 0.848843 0.178334
#
# Coordination Sequence:
#
# PCOD9079413 Si02
#       8
#     2   1   2   2   2   2   2   2
#     4  11  22  39  60  94 119 155 199 258 283 365
#     4  10  22  34  54  84 112 152 198 242 292 348
#     4  10  22  40  63  84 126 152 205 235 303 355
#     4   9  20  34  58  82 111 153 198 236 302 338
#     4  10  18  37  57  79 115 153 194 243 290 354
#     4  10  22  41  61  89 118 167 187 247 297 367
#     4  11  23  38  64  88 125 151 203 244 310 338
#     4  10  20  37  57  81 117 156 191 251 287 357
#
# _framework density 22.007580000000001
#
# number of rings (size 3 to 8) (size 9 to 14) (size 15 to 20)
#    0.000    1.867    1.333    2.400    0.000    4.267 
#    0.000    0.000    8.800    0.000    0.000    0.000 
#    0.000    0.000    0.000    0.000    0.000    0.000 
#
# Total GULP energy -83552.792477 kJ/mol
# GULP energy per Si atom -5570.186165 kJ/mol
# Density = 2.195749 g / cm^3
# Si number density = 22.007580 Si / 1000 Ang^3
#
#
#
# Elastic Constant Matrix: (Units=GPa)
#
#
# Indices 1 2 3 4 5 6 
#
# 1 195.5279 1.8729 46.9117 10.2502 10.6505 -8.3721
# 2 1.8729 46.4870 7.0860 7.7665 -0.8466 3.6512
# 3 46.9117 7.0860 42.9248 5.8701 20.6846 2.2378
# 4 10.2502 7.7665 5.8701 26.1873 -0.6573 2.4200
# 5 10.6505 -0.8466 20.6846 -0.6573 24.9419 -2.7801
# 6 -8.3721 3.6512 2.2378 2.4200 -2.7801 27.6455
#
#
#
# Elastic Compliance Matrix: (Units=1/GPa)
#
#
# Indices 1 2 3 4 5 6 
#
# 1 0.007961 0.001593 -0.012735 -0.000919 0.007647 0.004081
# 2 0.001593 0.023794 -0.007986 -0.005647 0.006505 -0.000865
# 3 -0.012735 -0.007986 0.063973 -0.007088 -0.049448 -0.012332
# 4 -0.000919 -0.005647 -0.007088 0.042165 0.006973 -0.001949
# 5 0.007647 0.006505 -0.049448 0.006973 0.079674 0.012861
# 6 0.004081 -0.000865 -0.012332 -0.001949 0.012861 0.039985
#
#
# Mechanical properties :
#
#
# Convention : Reuss Voigt Hill
#
# Bulk Modulus (GPa) = 17.39985 44.07565 30.73775
# Shear Modulus (GPa) = 15.87471 31.02622 23.45046
#
# Velocity S-wave (km/s) = 2.68867 3.75880 3.26784
# Velocity P-wave (km/s) = 4.19071 6.23771 5.31371
#
# Compressibility (1/GPa) = 0.05747175
#
# Stress axis : x y z
#
# Youngs Moduli (GPa) = 125.61302 42.02674 15.63152
#
# Poissons Ratio (x) = -0.06694 0.19907
# Poissons Ratio (y) = -0.20007 0.12483
# Poissons Ratio (z) = 1.59971 0.33563
#
# Static dielectric constant tensor:
#      x y z
#    x 1.849360 -0.119830 0.082640 
#    y -0.119830 2.314470 -0.333210 
#    z 0.082640 -0.333210 2.048140 
# 
# From -- ./inp_files/35056.got.cif
#   From: 2010.05.17/outbox.cif.g08.bks.cpg/sg2_18_cif.got.tgz:35056.got - 2010.06.03 11:33:40.
