data_PCOD9079386
_publ_section_title
;
Structure prediction by ZEFSAII (Michael W. Deem and Ramdas Pophale) SiO2 
 PCOD9079386
Probable space group: P -1
;
_chemical_formula_sum "Si O2"
_cell_formula_units_Z 16
_cell_length_a 5.878804
_cell_length_b 24.562079
_cell_length_c 9.529555
_cell_angle_alpha 129.565928
_cell_angle_beta 48.739991
_cell_angle_gamma 135.240510
_cell_volume 690.370442
_symmetry_space_group_name_H-M "P -1"
_symmetry_group_IT_number 2
_symmetry_cell_setting 'triclinic'
loop_
_space_group_symop_operation_xyz
x,y,z
-x,-y,-z
loop_
_atom_site_type_symbol
_atom_site_label
_atom_site_fract_x
_atom_site_fract_y
_atom_site_fract_z
Si Si1 0.803753 0.395577 0.535009
Si Si2 0.871725 0.170164 0.311324
Si Si3 0.255972 0.446955 0.828630
Si Si4 0.756676 0.450837 0.232519
Si Si5 0.401589 0.710609 0.301428
Si Si6 0.306142 0.190264 0.911821
Si Si7 0.366938 0.043870 0.513351
Si Si8 0.395830 0.699432 0.793567
O O1 0.588529 0.438527 0.648777
O O2 0.556773 0.332952 0.651870
O O3 0.866022 0.351242 0.306487
O O4 0.142815 0.468431 0.587132
O O5 0.671353 0.220083 0.493700
O O6 0.668188 0.087734 0.345182
O O7 0.258889 0.232328 0.314184
O O8 0.963624 0.161862 0.099868
O O9 0.329977 0.528738 0.851217
O O10 0.936760 0.363673 0.757003
O O11 0.117736 0.449967 0.045432
O O12 0.527409 0.366109 0.265069
O O13 0.679020 0.756409 0.140608
O O14 0.346614 0.115252 0.723307
O O15 0.626400 0.249069 0.983465
O O16 0.500000 0.000000 0.500000
O O17 0.000000 0.000000 0.500000
#
# Coordination Sequence:
#
# PCOD9079386 Si02
#       8
#     2   2   2   2   2   2   2   2
#     4  11  22  34  58  91 127 181 235 297 338 393
#     4   9  21  43  70 102 133 178 226 277 355 420
#     4  10  18  37  54  78 125 174 231 286 337 400
#     4  10  21  34  57  83 125 181 235 286 347 392
#     4  10  19  40  62  88 131 178 231 284 340 402
#     4   9  21  45  71 101 134 189 219 282 353 422
#     4  11  26  50  81 113 148 182 225 286 362 444
#     4  10  20  41  59  91 135 171 233 287 336 413
#
# _framework density 23.175962999999999
#
# number of rings (size 3 to 8) (size 9 to 14) (size 15 to 20)
#    0.750    1.250    2.500    0.750    0.000    3.500 
#    6.750    0.000    0.000    0.000    0.000    0.000 
#    0.000    0.000    0.000    0.000    0.000    0.000 
#
# Total GULP energy -89159.570241 kJ/mol
# GULP energy per Si atom -5572.473140 kJ/mol
# Density = 2.312321 g / cm^3
# Si number density = 23.175963 Si / 1000 Ang^3
#
#
#
# Elastic Constant Matrix: (Units=GPa)
#
#
# Indices 1 2 3 4 5 6 
#
# 1 64.2709 46.7038 27.8312 -1.4172 9.2336 -2.4748
# 2 46.7038 146.4879 50.3525 -21.8098 11.2640 -13.2672
# 3 27.8312 50.3525 143.2383 0.8352 28.5423 -4.5539
# 4 -1.4172 -21.8098 0.8352 53.3704 3.6597 6.3718
# 5 9.2336 11.2640 28.5423 3.6597 28.7315 0.0029
# 6 -2.4748 -13.2672 -4.5539 6.3718 0.0029 22.7119
#
#
#
# Elastic Compliance Matrix: (Units=1/GPa)
#
#
# Indices 1 2 3 4 5 6 
#
# 1 0.021115 -0.006434 -0.001327 -0.001712 -0.002727 -0.001243
# 2 -0.006434 0.010615 -0.002324 0.003746 -0.000262 0.003983
# 3 -0.001327 -0.002324 0.009722 -0.000648 -0.008237 0.000630
# 4 -0.001712 0.003746 -0.000648 0.020911 -0.002938 -0.003994
# 5 -0.002727 -0.000262 -0.008237 -0.002938 0.044342 -0.001283
# 6 -0.001243 0.003983 0.000630 -0.003994 -0.001283 0.047468
#
#
# Mechanical properties :
#
#
# Convention : Reuss Voigt Hill
#
# Bulk Modulus (GPa) = 46.98933 67.08579 57.03756
# Shear Modulus (GPa) = 27.55782 36.23673 31.89727
#
# Velocity S-wave (km/s) = 3.45203 3.95846 3.71389
# Velocity P-wave (km/s) = 6.01728 7.06411 6.56161
#
# Compressibility (1/GPa) = 0.02128143
#
# Stress axis : x y z
#
# Youngs Moduli (GPa) = 47.35942 94.20363 102.86416
#
# Poissons Ratio (x) = 0.60607 0.13652
# Poissons Ratio (y) = 0.30469 0.23910
# Poissons Ratio (z) = 0.06286 0.21897
#
# Static dielectric constant tensor:
#      x y z
#    x 2.009060 0.032800 0.011510 
#    y 0.032800 1.867070 -0.037970 
#    z 0.011510 -0.037970 1.930190 
# 
# From -- ./inp_files/142314.got.cif
#   From: 2010.05.17/outbox.cif.g08.bks.cpg/sg2_72_cif.got.tgz:142314.got - 2010.06.03 11:33:40.
