data_PCOD9079918
_publ_section_title
;
Structure prediction by ZEFSAII (Michael W. Deem and Ramdas Pophale) SiO2 
 PCOD9079918
Probable space group: P -1
;
_chemical_formula_sum "Si O2"
_cell_formula_units_Z 14
_cell_length_a 13.193456
_cell_length_b 13.771558
_cell_length_c 8.900135
_cell_angle_alpha 137.437232
_cell_angle_beta 149.215267
_cell_angle_gamma 42.320390
_cell_volume 532.605205
_symmetry_space_group_name_H-M "P -1"
_symmetry_group_IT_number 2
_symmetry_cell_setting 'triclinic'
loop_
_space_group_symop_operation_xyz
x,y,z
-x,-y,-z
loop_
_atom_site_type_symbol
_atom_site_label
_atom_site_fract_x
_atom_site_fract_y
_atom_site_fract_z
Si Si1 0.622719 0.889347 0.233759
Si Si2 0.252102 0.631087 0.921641
Si Si3 0.669447 0.550005 0.869070
Si Si4 0.080559 0.984630 0.416319
Si Si5 0.160257 0.426157 0.325274
Si Si6 0.825540 0.841224 0.737016
Si Si7 0.485327 0.788005 0.578643
O O1 0.750418 0.457744 0.336379
O O2 0.535279 0.946783 0.823314
O O3 0.652442 0.903390 0.464399
O O4 0.825908 0.892847 0.399756
O O5 0.311513 0.517021 0.010704
O O6 0.277692 0.831764 0.468463
O O7 0.017824 0.736533 0.765067
O O8 0.390967 0.741131 0.251303
O O9 0.500000 0.500000 0.500000
O O10 0.913483 0.489811 0.060882
O O11 0.589161 0.731160 0.984731
O O12 0.899789 0.966852 0.058289
O O13 0.000000 0.000000 0.500000
O O14 0.198877 0.277607 0.308436
O O15 0.310166 0.351181 0.292705
#
# Coordination Sequence:
#
# PCOD9079918 Si02
#       7
#     2   2   2   2   2   2   2
#     4  10  20  42  74 111 140 191 265 309 351 452
#     4  10  19  41  72 103 152 191 244 300 382 447
#     4  11  23  43  73 106 150 201 253 304 371 455
#     4   9  21  41  68 104 153 194 243 311 384 439
#     4  11  20  41  73 107 150 198 240 308 385 437
#     4  10  18  37  73 109 138 195 251 302 356 451
#     4   9  23  38  74 106 148 189 252 301 378 445
#
# _framework density 26.285886000000001
#
# number of rings (size 3 to 8) (size 9 to 14) (size 15 to 20)
#    0.857    1.143    2.857    1.714    0.000    0.571 
#    2.571    7.143    6.286    0.000    0.000    0.000 
#    0.000    1.143    0.000    0.286    0.000    0.000 
#
# Total GULP energy -78271.597978 kJ/mol
# GULP energy per Si atom -5590.828427 kJ/mol
# Density = 2.622606 g / cm^3
# Si number density = 26.285886 Si / 1000 Ang^3
#
#
#
# Elastic Constant Matrix: (Units=GPa)
#
#
# Indices 1 2 3 4 5 6 
#
# 1 121.3148 58.5540 68.5558 -14.3646 -7.1575 -32.5136
# 2 58.5540 104.0951 83.8485 32.4020 -9.4615 -7.5725
# 3 68.5558 83.8485 175.7685 2.0268 -24.6872 -7.8869
# 4 -14.3646 32.4020 2.0268 41.7827 -5.0950 -3.1906
# 5 -7.1575 -9.4615 -24.6872 -5.0950 44.2429 0.0276
# 6 -32.5136 -7.5725 -7.8869 -3.1906 0.0276 46.1683
#
#
#
# Elastic Compliance Matrix: (Units=1/GPa)
#
#
# Indices 1 2 3 4 5 6 
#
# 1 0.028380 -0.026069 0.002383 0.031742 0.003990 0.018309
# 2 -0.026069 0.049249 -0.014525 -0.048579 -0.007374 -0.016115
# 3 0.002383 -0.014525 0.012441 0.012341 0.005641 0.002270
# 4 0.031742 -0.048579 0.012341 0.074822 0.010235 0.021659
# 5 0.003990 -0.007374 0.005641 0.010235 0.025995 0.003256
# 6 0.018309 -0.016115 0.002270 0.021659 0.003256 0.033793
#
#
# Mechanical properties :
#
#
# Convention : Reuss Voigt Hill
#
# Bulk Modulus (GPa) = 73.27212 91.45499 82.36356
# Shear Modulus (GPa) = 16.35856 39.12012 27.73934
#
# Velocity S-wave (km/s) = 2.49737 3.86198 3.25205
# Velocity P-wave (km/s) = 6.02091 7.39963 6.74558
#
# Compressibility (1/GPa) = 0.01364776
#
# Stress axis : x y z
#
# Youngs Moduli (GPa) = 35.23637 20.30501 80.38191
#
# Poissons Ratio (x) = 0.52933 -0.19152
# Poissons Ratio (y) = 0.91857 1.16751
# Poissons Ratio (z) = -0.08396 0.29492
#
# Static dielectric constant tensor:
#      x y z
#    x 2.229580 0.051020 0.037900 
#    y 0.051020 2.038850 -0.006810 
#    z 0.037900 -0.006810 2.066140 
# 
# From -- ./inp_files/265578.got.cif
#   From: 2010.05.17/outbox.cif.g08.bks.cpg/sg2_133_cif.got.tgz:265578.got - 2010.06.03 11:33:40.
