data_PCOD9079256
_publ_section_title
;
Structure prediction by ZEFSAII (Michael W. Deem and Ramdas Pophale) SiO2 
 PCOD9079256
Probable space group: P -1
;
_chemical_formula_sum "Si O2"
_cell_formula_units_Z 14
_cell_length_a 18.567921
_cell_length_b 6.626191
_cell_length_c 14.423401
_cell_angle_alpha 110.187973
_cell_angle_beta 153.164011
_cell_angle_gamma 84.998968
_cell_volume 641.773783
_symmetry_space_group_name_H-M "P -1"
_symmetry_group_IT_number 2
_symmetry_cell_setting 'triclinic'
loop_
_space_group_symop_operation_xyz
x,y,z
-x,-y,-z
loop_
_atom_site_type_symbol
_atom_site_label
_atom_site_fract_x
_atom_site_fract_y
_atom_site_fract_z
Si Si1 0.802013 0.963500 0.283367
Si Si2 0.896013 0.884505 0.055725
Si Si3 0.290528 0.221915 0.642914
Si Si4 0.639946 0.557080 0.883145
Si Si5 0.632447 0.479253 0.569975
Si Si6 0.387098 0.763598 0.903935
Si Si7 0.396840 0.950726 0.274234
O O1 0.771617 0.909503 0.348505
O O2 0.664309 0.718684 0.026330
O O3 0.000000 0.000000 0.500000
O O4 0.782199 0.194311 0.261745
O O5 0.793964 0.743546 0.013002
O O6 0.835171 0.669458 0.873076
O O7 0.116751 0.060718 0.350511
O O8 0.787566 0.028972 0.927704
O O9 0.484953 0.225170 0.861155
O O10 0.326987 0.501502 0.743061
O O11 0.432669 0.454190 0.587768
O O12 0.661016 0.318080 0.874914
O O13 0.500000 0.500000 0.500000
O O14 0.552794 0.183734 0.429350
O O15 0.500000 0.000000 0.000000
O O16 0.500000 0.000000 0.500000
#
# Coordination Sequence:
#
# PCOD9079256 Si02
#       7
#     2   2   2   2   2   2   2
#     4  11  22  34  55  84 116 142 174 226 276 327
#     4  10  18  28  51  80 105 135 183 222 257 318
#     4  10  21  38  58  79 107 147 190 218 266 331
#     4  10  18  31  45  79 116 139 168 217 276 315
#     4   8  16  28  44  71 108 137 174 215 261 315
#     4   9  22  42  55  73 108 152 187 222 268 322
#     4  10  15  27  46  70 108 145 168 211 269 312
#
# _framework density 21.814539
#
# number of rings (size 3 to 8) (size 9 to 14) (size 15 to 20)
#    0.000    2.571    5.714    0.000    2.000    2.857 
#    0.000    0.000    0.000    0.857    0.000   10.000 
#    0.000    0.000    0.000    0.000    0.000    0.000 
#
# Total GULP energy -78017.453252 kJ/mol
# GULP energy per Si atom -5572.675232 kJ/mol
# Density = 2.176489 g / cm^3
# Si number density = 21.814539 Si / 1000 Ang^3
#
#
#
# Elastic Constant Matrix: (Units=GPa)
#
#
# Indices 1 2 3 4 5 6 
#
# 1 19.8814 -0.4386 7.1894 -11.5202 -0.5681 -5.6974
# 2 -0.4386 149.5464 49.1122 -15.6614 7.3301 -17.8315
# 3 7.1894 49.1122 159.8175 -12.7327 -19.4378 -9.4798
# 4 -11.5202 -15.6614 -12.7327 26.5568 -5.0079 1.6480
# 5 -0.5681 7.3301 -19.4378 -5.0079 24.8178 3.0158
# 6 -5.6974 -17.8315 -9.4798 1.6480 3.0158 16.2014
#
#
#
# Elastic Compliance Matrix: (Units=1/GPa)
#
#
# Indices 1 2 3 4 5 6 
#
# 1 0.083158 0.008544 -0.000969 0.039011 0.002402 0.033664
# 2 0.008544 0.010115 -0.002856 0.006515 -0.005267 0.012784
# 3 -0.000969 -0.002856 0.008427 0.003505 0.008181 -0.000433
# 4 0.039011 0.006515 0.003505 0.061545 0.012386 0.014375
# 5 0.002402 -0.005267 0.008181 0.012386 0.052165 -0.011136
# 6 0.033664 0.012784 -0.000433 0.014375 -0.011136 0.087989
#
#
# Mechanical properties :
#
#
# Convention : Reuss Voigt Hill
#
# Bulk Modulus (GPa) = 8.99791 48.99683 28.99737
# Shear Modulus (GPa) = 15.10547 31.74069 23.42308
#
# Velocity S-wave (km/s) = 2.63430 3.81862 3.28035
# Velocity P-wave (km/s) = 3.65874 6.47702 5.26014
#
# Compressibility (1/GPa) = 0.11113694
#
# Stress axis : x y z
#
# Youngs Moduli (GPa) = 12.02532 98.86644 118.66581
#
# Poissons Ratio (x) = -0.84472 0.11505
# Poissons Ratio (y) = -0.10275 0.33890
# Poissons Ratio (z) = 0.01166 0.28235
#
# Static dielectric constant tensor:
#      x y z
#    x 1.971160 -0.013660 0.209340 
#    y -0.013660 1.870480 0.044790 
#    z 0.209340 0.044790 2.377240 
# 
# From -- ./inp_files/123380.got.cif
#   From: 2010.05.17/outbox.cif.g08.bks.cpg/sg2_62_cif.got.tgz:123380.got - 2010.06.03 11:33:40.
