data_PCOD9079118
_publ_section_title
;
Structure prediction by ZEFSAII (Michael W. Deem and Ramdas Pophale) SiO2 
 PCOD9079118
Probable space group: P -1
;
_chemical_formula_sum "Si O2"
_cell_formula_units_Z 14
_cell_length_a 10.026499
_cell_length_b 11.820184
_cell_length_c 9.550400
_cell_angle_alpha 112.747415
_cell_angle_beta 44.875240
_cell_angle_gamma 135.327017
_cell_volume 545.552192
_symmetry_space_group_name_H-M "P -1"
_symmetry_group_IT_number 2
_symmetry_cell_setting 'triclinic'
loop_
_space_group_symop_operation_xyz
x,y,z
-x,-y,-z
loop_
_atom_site_type_symbol
_atom_site_label
_atom_site_fract_x
_atom_site_fract_y
_atom_site_fract_z
Si Si1 0.025128 0.366408 0.290772
Si Si2 0.728356 0.008492 0.306691
Si Si3 0.787738 0.281553 0.955149
Si Si4 0.640687 0.998466 0.072552
Si Si5 0.203991 0.479276 0.519040
Si Si6 0.029559 0.028860 0.328986
Si Si7 0.535246 0.412252 0.140317
O O1 0.037082 0.370683 0.452286
O O2 0.959143 0.203931 0.204735
O O3 0.820688 0.382896 0.408499
O O4 0.302671 0.512024 0.087638
O O5 0.797770 0.965398 0.372087
O O6 0.500000 0.000000 0.500000
O O7 0.663402 0.929986 0.164941
O O8 0.604773 0.147433 0.902663
O O9 0.061327 0.387148 0.726478
O O10 0.710923 0.390779 0.083343
O O11 0.688816 0.165171 0.110161
O O12 0.881637 0.062757 0.834688
O O13 0.458101 0.508087 0.316414
O O14 0.266570 0.225551 0.228165
O O15 0.000000 0.000000 0.500000
#
# Coordination Sequence:
#
# PCOD9079118 Si02
#       7
#     2   2   2   2   2   2   2
#     4  10  22  38  61  98 127 169 223 274 327 383
#     4  12  26  42  64 100 141 169 212 283 337 387
#     4   9  20  37  65  95 126 174 218 267 325 401
#     4  10  22  40  63  94 137 172 216 272 335 386
#     4  10  18  36  62  93 123 168 224 273 312 390
#     4  11  24  42  72  98 127 176 228 267 328 402
#     4  10  20  37  68  94 125 167 226 269 317 389
#
# _framework density 25.662071000000001
#
# number of rings (size 3 to 8) (size 9 to 14) (size 15 to 20)
#    0.000    1.714    1.429    2.571    6.000    1.143 
#    2.571    2.857    0.000    2.571    0.000    0.000 
#    0.000    0.000    0.000    0.000    0.000    0.000 
#
# Total GULP energy -78109.346065 kJ/mol
# GULP energy per Si atom -5579.239005 kJ/mol
# Density = 2.560366 g / cm^3
# Si number density = 25.662071 Si / 1000 Ang^3
#
#
#
# Elastic Constant Matrix: (Units=GPa)
#
#
# Indices 1 2 3 4 5 6 
#
# 1 111.2781 6.2618 68.0339 0.3314 28.5292 -5.0668
# 2 6.2618 37.6781 15.8439 -0.1683 6.5215 -7.8427
# 3 68.0339 15.8439 139.9329 1.8558 -6.2984 -7.5360
# 4 0.3314 -0.1683 1.8558 33.4611 -8.7260 -4.3625
# 5 28.5292 6.5215 -6.2984 -8.7260 40.0332 15.2084
# 6 -5.0668 -7.8427 -7.5360 -4.3625 15.2084 30.1586
#
#
#
# Elastic Compliance Matrix: (Units=1/GPa)
#
#
# Indices 1 2 3 4 5 6 
#
# 1 0.025240 0.010398 -0.013763 -0.004851 -0.029648 0.017755
# 2 0.010398 0.036898 -0.009144 -0.002808 -0.023203 0.020352
# 3 -0.013763 -0.009144 0.015129 0.002671 0.017885 -0.009542
# 4 -0.004851 -0.002808 0.002671 0.032685 0.012365 -0.002385
# 5 -0.029648 -0.023203 0.017885 0.012365 0.070759 -0.040440
# 6 0.017755 0.020352 -0.009542 -0.002385 -0.040440 0.059097
#
#
# Mechanical properties :
#
#
# Convention : Reuss Voigt Hill
#
# Bulk Modulus (GPa) = 19.13935 52.12980 35.63457
# Shear Modulus (GPa) = 17.71540 33.98054 25.84797
#
# Velocity S-wave (km/s) = 2.63027 3.64284 3.17715
# Velocity P-wave (km/s) = 4.08642 6.16861 5.23214
#
# Compressibility (1/GPa) = 0.05224839
#
# Stress axis : x y z
#
# Youngs Moduli (GPa) = 39.62030 27.10208 66.10038
#
# Poissons Ratio (x) = -0.28181 0.90971
# Poissons Ratio (y) = -0.41198 0.60444
# Poissons Ratio (z) = 0.54527 0.24783
#
# Static dielectric constant tensor:
#      x y z
#    x 2.119270 -0.067300 -0.021390 
#    y -0.067300 2.149340 -0.007920 
#    z -0.021390 -0.007920 2.018260 
# 
# From -- ./inp_files/188264.got.cif
#   From: 2010.05.17/outbox.cif.g08.bks.cpg/sg2_95_cif.got.tgz:188264.got - 2010.06.03 11:33:40.
