data_PCOD9079575
_publ_section_title
;
Structure prediction by ZEFSAII (Michael W. Deem and Ramdas Pophale) SiO2 
 PCOD9079575
Probable space group: P -1
;
_chemical_formula_sum "Si O2"
_cell_formula_units_Z 15
_cell_length_a 11.853803
_cell_length_b 7.450873
_cell_length_c 7.981504
_cell_angle_alpha 101.495832
_cell_angle_beta 60.220307
_cell_angle_gamma 121.746241
_cell_volume 518.462660
_symmetry_space_group_name_H-M "P -1"
_symmetry_group_IT_number 2
_symmetry_cell_setting 'triclinic'
loop_
_space_group_symop_operation_xyz
x,y,z
-x,-y,-z
loop_
_atom_site_type_symbol
_atom_site_label
_atom_site_fract_x
_atom_site_fract_y
_atom_site_fract_z
Si Si1 0.950627 0.898049 0.697537
Si Si2 0.623084 0.953975 0.554345
Si Si3 0.279459 0.774060 0.154331
Si Si4 0.392239 0.439889 0.402507
Si Si5 0.668592 0.596871 0.036024
Si Si6 0.134852 0.362409 0.780126
Si Si7 0.000000 0.500000 0.500000
Si Si8 0.711934 0.167976 0.201427
O O1 0.775134 0.752908 0.845241
O O2 0.004252 0.720778 0.622786
O O3 0.010893 0.115279 0.804444
O O4 0.000000 0.000000 0.500000
O O5 0.661573 0.141331 0.688533
O O6 0.710503 0.024176 0.327411
O O7 0.663570 0.807334 0.605187
O O8 0.443795 0.836081 0.637767
O O9 0.352849 0.632831 0.027283
O O10 0.101965 0.637340 0.292989
O O11 0.306757 0.908264 0.990376
O O12 0.500000 0.500000 0.500000
O O13 0.239728 0.440821 0.547963
O O14 0.508652 0.570629 0.195968
O O15 0.769352 0.655451 0.140610
O O16 0.149548 0.591694 0.851038
#
# Coordination Sequence:
#
# PCOD9079575 Si02
#       8
#     2   2   2   2   2   2   1   2
#     4  11  24  43  66  91 128 173 214 264 326 389
#     4  11  20  36  64  90 123 168 201 269 319 380
#     4  10  20  40  63  87 129 168 207 265 329 370
#     4  10  18  37  61  91 122 161 209 261 328 378
#     4   9  20  38  64  88 124 167 209 253 329 394
#     4  10  20  40  64  90 125 164 207 267 322 382
#     4  10  24  44  62  94 128 170 224 266 316 398
#     4  10  22  36  62  98 123 159 223 253 320 405
#
# _framework density 28.931688999999999
#
# number of rings (size 3 to 8) (size 9 to 14) (size 15 to 20)
#    0.000    1.867    4.000    1.600    3.733    0.000 
#    4.800    1.333    0.000    0.000    0.000    0.000 
#    0.000    0.000    0.000    0.000    0.000    0.000 
#
# Total GULP energy -83595.793231 kJ/mol
# GULP energy per Si atom -5573.052882 kJ/mol
# Density = 2.886584 g / cm^3
# Si number density = 28.931689 Si / 1000 Ang^3
#
#
#
# Elastic Constant Matrix: (Units=GPa)
#
#
# Indices 1 2 3 4 5 6 
#
# 1 49.7207 34.0536 20.9391 -18.9678 12.7034 9.3126
# 2 34.0536 134.7474 21.5388 -11.8839 15.3205 -11.0747
# 3 20.9391 21.5388 171.1531 -68.4287 16.4221 3.3762
# 4 -18.9678 -11.8839 -68.4287 55.1168 2.6675 -6.9527
# 5 12.7034 15.3205 16.4221 2.6675 41.3089 -1.7642
# 6 9.3126 -11.0747 3.3762 -6.9527 -1.7642 30.7411
#
#
#
# Elastic Compliance Matrix: (Units=1/GPa)
#
#
# Indices 1 2 3 4 5 6 
#
# 1 0.033545 -0.007591 0.003264 0.013076 -0.010107 -0.010878
# 2 -0.007591 0.009975 -0.000448 -0.000237 -0.000923 0.005836
# 3 0.003264 -0.000448 0.013479 0.018251 -0.007329 0.001077
# 4 0.013076 -0.000237 0.018251 0.046389 -0.014029 0.003636
# 5 -0.010107 -0.000923 -0.007329 -0.014029 0.031570 0.002173
# 6 -0.010878 0.005836 0.001077 0.003636 0.002173 0.038756
#
#
# Mechanical properties :
#
#
# Convention : Reuss Voigt Hill
#
# Bulk Modulus (GPa) = 21.07550 56.52046 38.79798
# Shear Modulus (GPa) = 25.11549 44.03935 34.57742
#
# Velocity S-wave (km/s) = 2.94954 3.90575 3.46083
# Velocity P-wave (km/s) = 4.34743 6.31808 5.42302
#
# Compressibility (1/GPa) = 0.04744846
#
# Stress axis : x y z
#
# Youngs Moduli (GPa) = 29.81083 100.25167 74.19056
#
# Poissons Ratio (x) = 0.76099 -0.24214
# Poissons Ratio (y) = 0.22629 0.03323
# Poissons Ratio (z) = -0.09729 0.04491
#
# Static dielectric constant tensor:
#      x y z
#    x 2.461340 0.068480 -0.062300 
#    y 0.068480 2.410350 0.074490 
#    z -0.062300 0.074490 2.216390 
# 
# From -- ./inp_files/327711.got.cif
#   From: 2010.05.17/outbox.cif.g08.bks.cpg/sg2_164_cif.got.tgz:327711.got - 2010.06.03 11:33:40.
