data_PCOD9079994
_publ_section_title
;
Structure prediction by ZEFSAII (Michael W. Deem and Ramdas Pophale) SiO2 
 PCOD9079994
Probable space group: P -1
;
_chemical_formula_sum "Si O2"
_cell_formula_units_Z 15
_cell_length_a 14.007454
_cell_length_b 8.180530
_cell_length_c 9.499078
_cell_angle_alpha 92.086404
_cell_angle_beta 42.118187
_cell_angle_gamma 104.884417
_cell_volume 685.272832
_symmetry_space_group_name_H-M "P -1"
_symmetry_group_IT_number 2
_symmetry_cell_setting 'triclinic'
loop_
_space_group_symop_operation_xyz
x,y,z
-x,-y,-z
loop_
_atom_site_type_symbol
_atom_site_label
_atom_site_fract_x
_atom_site_fract_y
_atom_site_fract_z
Si Si1 0.703639 0.473736 0.854445
Si Si2 0.580245 0.664357 0.225634
Si Si3 0.568957 0.868989 0.846051
Si Si4 0.156961 0.218163 0.491288
Si Si5 0.000000 0.500000 0.000000
Si Si6 0.724358 0.632304 0.348854
Si Si7 0.551390 0.020168 0.283473
Si Si8 0.127345 0.720307 0.149611
O O1 0.772219 0.588909 0.647919
O O2 0.813753 0.379562 0.797153
O O3 0.674997 0.600760 0.006926
O O4 0.541977 0.324349 0.000543
O O5 0.676520 0.712337 0.265559
O O6 0.428466 0.504755 0.423429
O O7 0.538853 0.831091 0.233460
O O8 0.742580 0.889436 0.685131
O O9 0.545445 0.898186 0.706942
O O10 0.500000 0.000000 0.000000
O O11 0.193981 0.230508 0.616734
O O12 0.978597 0.176249 0.670615
O O13 0.836970 0.532412 0.176754
O O14 0.034736 0.588618 0.125808
O O15 0.500000 0.000000 0.500000
O O16 0.723437 0.146741 0.081868
#
# Coordination Sequence:
#
# PCOD9079994 Si02
#       8
#     2   2   2   2   1   2   2   2
#     4  11  22  41  65  92 123 169 217 251 309 379
#     4  11  21  39  65  91 123 162 215 254 311 369
#     4  11  24  42  61  96 129 164 210 265 306 371
#     4  11  22  40  66  90 126 167 212 258 308 376
#     4  10  18  38  60  88 124 160 194 258 306 364
#     4  10  21  35  65  93 121 160 208 258 304 367
#     4  11  24  41  65  93 130 166 207 257 320 371
#     4  10  23  42  61  94 130 162 206 263 316 367
#
# _framework density 21.889091000000001
#
# number of rings (size 3 to 8) (size 9 to 14) (size 15 to 20)
#    0.000    1.333    2.667    3.200    5.600    0.000 
#    0.000   14.667    0.000    0.000    0.000    0.000 
#    0.000    0.000    0.000    0.000    0.000    0.000 
#
# Total GULP energy -83605.696582 kJ/mol
# GULP energy per Si atom -5573.713105 kJ/mol
# Density = 2.183927 g / cm^3
# Si number density = 21.889091 Si / 1000 Ang^3
#
#
#
# Elastic Constant Matrix: (Units=GPa)
#
#
# Indices 1 2 3 4 5 6 
#
# 1 102.3155 8.7889 44.4929 2.0513 -18.0497 -12.8323
# 2 8.7889 46.8748 16.9779 11.8987 -1.3494 -8.9227
# 3 44.4929 16.9779 109.3289 20.2036 -17.3661 -22.4198
# 4 2.0513 11.8987 20.2036 34.5824 -15.6401 1.2279
# 5 -18.0497 -1.3494 -17.3661 -15.6401 42.1589 13.4872
# 6 -12.8323 -8.9227 -22.4198 1.2279 13.4872 24.3177
#
#
#
# Elastic Compliance Matrix: (Units=1/GPa)
#
#
# Indices 1 2 3 4 5 6 
#
# 1 0.013139 -0.002490 -0.005816 0.006621 0.006690 -0.003387
# 2 -0.002490 0.028348 0.001359 -0.016022 -0.011075 0.017292
# 3 -0.005816 0.001359 0.016002 -0.012578 -0.005619 0.015934
# 4 0.006621 -0.016022 -0.012578 0.055157 0.027921 -0.032252
# 5 0.006690 -0.011075 -0.005619 0.027921 0.044436 -0.031769
# 6 -0.003387 0.017292 0.015934 -0.032252 -0.031769 0.079619
#
#
# Mechanical properties :
#
#
# Convention : Reuss Voigt Hill
#
# Bulk Modulus (GPa) = 22.93821 44.33760 33.63790
# Shear Modulus (GPa) = 18.85886 32.76243 25.81064
#
# Velocity S-wave (km/s) = 2.93843 3.87298 3.43761
# Velocity P-wave (km/s) = 4.69196 6.34819 5.58185
#
# Compressibility (1/GPa) = 0.04359539
#
# Stress axis : x y z
#
# Youngs Moduli (GPa) = 76.10733 35.27590 62.49212
#
# Poissons Ratio (x) = 0.08783 0.36345
# Poissons Ratio (y) = 0.18949 -0.08491
# Poissons Ratio (z) = 0.44264 -0.04793
#
# Static dielectric constant tensor:
#      x y z
#    x 1.818850 0.008590 0.007250 
#    y 0.008590 1.802150 0.045310 
#    z 0.007250 0.045310 1.817800 
# 
# From -- ./inp_files/180451.got.cif
#   From: 2010.05.17/outbox.cif.g08.bks.cpg/sg2_91_cif.got.tgz:180451.got - 2010.06.03 11:33:40.
