data_PCOD9079835
_publ_section_title
;
Structure prediction by ZEFSAII (Michael W. Deem and Ramdas Pophale) SiO2 
 PCOD9079835
Probable space group: P -1
;
_chemical_formula_sum "Si O2"
_cell_formula_units_Z 16
_cell_length_a 9.324645
_cell_length_b 15.287393
_cell_length_c 8.687636
_cell_angle_alpha 92.061251
_cell_angle_beta 112.214847
_cell_angle_gamma 136.456148
_cell_volume 690.237545
_symmetry_space_group_name_H-M "P -1"
_symmetry_group_IT_number 2
_symmetry_cell_setting 'triclinic'
loop_
_space_group_symop_operation_xyz
x,y,z
-x,-y,-z
loop_
_atom_site_type_symbol
_atom_site_label
_atom_site_fract_x
_atom_site_fract_y
_atom_site_fract_z
Si Si1 0.218951 0.686330 0.397451
Si Si2 0.725438 0.528013 0.076983
Si Si3 0.185688 0.177724 0.285423
Si Si4 0.582147 0.292737 0.208050
Si Si5 0.306117 0.985293 0.366548
Si Si6 0.407275 0.628618 0.268036
Si Si7 0.112164 0.101902 0.695839
Si Si8 0.333815 0.998759 0.013973
O O1 0.225495 0.656581 0.575648
O O2 0.516769 0.850276 0.509106
O O3 0.201410 0.598898 0.263253
O O4 0.019180 0.671813 0.266401
O O5 0.677529 0.417160 0.152278
O O6 0.500000 0.500000 0.000000
O O7 0.725507 0.507022 0.893047
O O8 0.347684 0.231919 0.202797
O O9 0.386998 0.297327 0.507120
O O10 0.009156 0.010645 0.225238
O O11 0.951022 0.138432 0.180422
O O12 0.483308 0.160161 0.074041
O O13 0.288631 0.969250 0.176007
O O14 0.500000 0.000000 0.500000
O O15 0.034605 0.873468 0.334099
O O16 0.594073 0.754751 0.221108
O O17 0.000000 0.000000 0.500000
O O18 0.500000 0.000000 0.000000
#
# Coordination Sequence:
#
# PCOD9079835 Si02
#       8
#     2   2   2   2   2   2   2   2
#     4  10  22  47  63  92 131 178 222 266 328 393
#     4  12  27  41  66  98 125 176 233 272 320 383
#     4  10  20  40  64  91 131 167 215 259 334 396
#     4  10  22  45  67  89 132 180 216 272 328 384
#     4  11  24  37  63 100 133 164 210 275 332 392
#     4  10  22  39  67  90 125 171 212 274 319 387
#     4  10  18  37  66  95 123 165 211 258 340 385
#     4  11  24  37  62 101 135 172 210 263 336 405
#
# _framework density 23.180426000000001
#
# number of rings (size 3 to 8) (size 9 to 14) (size 15 to 20)
#    0.000    1.500    5.000    1.875    7.000    2.000 
#    0.000    3.750    0.000    0.000    0.000    0.000 
#    0.000    0.000    0.000    0.000    0.000    0.000 
#
# Total GULP energy -89081.264745 kJ/mol
# GULP energy per Si atom -5567.579047 kJ/mol
# Density = 2.312767 g / cm^3
# Si number density = 23.180426 Si / 1000 Ang^3
#
#
#
# Elastic Constant Matrix: (Units=GPa)
#
#
# Indices 1 2 3 4 5 6 
#
# 1 168.1746 8.9639 71.3750 -6.0360 6.4387 0.6959
# 2 8.9639 38.5081 1.4741 -1.3741 -0.5667 8.1051
# 3 71.3750 1.4741 120.3826 7.7231 15.9241 -5.2225
# 4 -6.0360 -1.3741 7.7231 15.6129 0.6306 5.8214
# 5 6.4387 -0.5667 15.9241 0.6306 45.2800 2.1192
# 6 0.6959 8.1051 -5.2225 5.8214 2.1192 28.9842
#
#
#
# Elastic Compliance Matrix: (Units=1/GPa)
#
#
# Indices 1 2 3 4 5 6 
#
# 1 0.008696 -0.001027 -0.005807 0.007020 0.000809 -0.002437
# 2 -0.001027 0.028414 -0.000662 0.005853 0.001088 -0.009295
# 3 -0.005807 -0.000662 0.013174 -0.010566 -0.003907 0.005106
# 4 0.007020 0.005853 -0.010566 0.079832 0.002612 -0.019934
# 5 0.000809 0.001088 -0.003907 0.002612 0.023474 -0.003269
# 6 -0.002437 -0.009295 0.005106 -0.019934 -0.003269 0.042322
#
#
# Mechanical properties :
#
#
# Convention : Reuss Voigt Hill
#
# Bulk Modulus (GPa) = 28.33331 54.52126 41.42728
# Shear Modulus (GPa) = 22.45491 34.32557 28.39024
#
# Velocity S-wave (km/s) = 3.11577 3.85229 3.50344
# Velocity P-wave (km/s) = 5.01932 6.58470 5.85456
#
# Compressibility (1/GPa) = 0.03529415
#
# Stress axis : x y z
#
# Youngs Moduli (GPa) = 114.99031 35.19363 75.90747
#
# Poissons Ratio (x) = 0.03613 0.44077
# Poissons Ratio (y) = 0.11806 0.05024
# Poissons Ratio (z) = 0.66771 0.02329
#
# Static dielectric constant tensor:
#      x y z
#    x 1.892790 -0.086210 0.092630 
#    y -0.086210 2.064860 0.049490 
#    z 0.092630 0.049490 1.995110 
# 
# From -- ./inp_files/207931.got.cif
#   From: 2010.05.17/outbox.cif.g08.bks.cpg/sg2_104_cif.got.tgz:207931.got - 2010.06.03 11:33:40.
