data_PCOD9079433
_publ_section_title
;
Structure prediction by ZEFSAII (Michael W. Deem and Ramdas Pophale) SiO2 
 PCOD9079433
Probable space group: P -1
;
_chemical_formula_sum "Si O2"
_cell_formula_units_Z 16
_cell_length_a 16.851350
_cell_length_b 7.974144
_cell_length_c 19.897012
_cell_angle_alpha 128.959594
_cell_angle_beta 152.712159
_cell_angle_gamma 33.918274
_cell_volume 619.160108
_symmetry_space_group_name_H-M "P -1"
_symmetry_group_IT_number 2
_symmetry_cell_setting 'triclinic'
loop_
_space_group_symop_operation_xyz
x,y,z
-x,-y,-z
loop_
_atom_site_type_symbol
_atom_site_label
_atom_site_fract_x
_atom_site_fract_y
_atom_site_fract_z
Si Si1 0.117771 0.378741 0.750895
Si Si2 0.505204 0.712874 0.803865
Si Si3 0.899272 0.894603 0.520142
Si Si4 0.056779 0.692694 0.073146
Si Si5 0.912707 0.322660 0.693618
Si Si6 0.467490 0.231632 0.376225
Si Si7 0.661788 0.614486 0.368497
Si Si8 0.229168 0.773195 0.907277
O O1 0.023480 0.429326 0.769185
O O2 0.149214 0.600446 0.815041
O O3 0.878571 0.497998 0.556354
O O4 0.392396 0.986049 0.843515
O O5 0.802675 0.428048 0.924532
O O6 0.424531 0.545285 0.720048
O O7 0.314599 0.963338 0.661057
O O8 0.180401 0.528967 0.620004
O O9 0.768654 0.976090 0.514131
O O10 0.938357 0.113311 0.604725
O O11 0.297346 0.515166 0.262992
O O12 0.816210 0.071173 0.014491
O O13 0.000000 0.500000 0.000000
O O14 0.616006 0.619885 0.575165
O O15 0.074309 0.083108 0.818580
O O16 0.428056 0.010725 0.290770
O O17 0.500000 0.500000 0.000000
#
# Coordination Sequence:
#
# PCOD9079433 Si02
#       8
#     2   2   2   2   2   2   2   2
#     4  11  22  41  65  93 130 166 200 253 307 367
#     4  10  20  38  62  90 129 159 201 253 298 362
#     4  10  18  37  57  88 129 164 198 248 300 367
#     4  10  23  45  64  84 120 161 210 262 306 359
#     4  11  22  40  61  92 130 159 205 254 311 366
#     4  10  23  34  60  92 124 158 204 255 307 367
#     4  11  20  36  61  96 126 164 200 241 310 369
#     4  11  26  44  66  90 119 165 213 256 313 365
#
# _framework density 25.841459
#
# number of rings (size 3 to 8) (size 9 to 14) (size 15 to 20)
#    0.000    1.500    2.500    3.000    1.750    6.000 
#    0.000    0.625    0.000    0.000    0.000    0.000 
#    0.000    0.000    0.000    0.000    0.000    0.000 
#
# Total GULP energy -89369.079794 kJ/mol
# GULP energy per Si atom -5585.567487 kJ/mol
# Density = 2.578264 g / cm^3
# Si number density = 25.841459 Si / 1000 Ang^3
#
#
#
# Elastic Constant Matrix: (Units=GPa)
#
#
# Indices 1 2 3 4 5 6 
#
# 1 149.5637 41.7261 43.0165 -5.7380 37.6443 2.2780
# 2 41.7261 113.9949 24.2485 -2.5276 8.1316 -13.6802
# 3 43.0165 24.2485 53.2503 -0.1580 22.2030 -3.7090
# 4 -5.7380 -2.5276 -0.1580 34.7297 -1.2561 12.6724
# 5 37.6443 8.1316 22.2030 -1.2561 35.5954 -2.8170
# 6 2.2780 -13.6802 -3.7090 12.6724 -2.8170 53.4546
#
#
#
# Elastic Compliance Matrix: (Units=1/GPa)
#
#
# Indices 1 2 3 4 5 6 
#
# 1 0.010890 -0.002732 -0.004223 0.002157 -0.008373 -0.002409
# 2 -0.002732 0.010680 -0.003690 -0.000643 0.002957 0.002902
# 3 -0.004223 -0.003690 0.029345 -0.001660 -0.012976 0.000982
# 4 0.002157 -0.000643 -0.001660 0.031988 -0.000602 -0.007987
# 5 -0.008373 0.002957 -0.012976 -0.000602 0.044559 0.002704
# 6 -0.002409 0.002902 0.000982 -0.007987 0.002704 0.021657
#
#
# Mechanical properties :
#
#
# Convention : Reuss Voigt Hill
#
# Bulk Modulus (GPa) = 33.75484 59.42125 46.58804
# Shear Modulus (GPa) = 27.73416 38.61046 33.17231
#
# Velocity S-wave (km/s) = 3.27959 3.86959 3.58674
# Velocity P-wave (km/s) = 5.23752 6.55816 5.93469
#
# Compressibility (1/GPa) = 0.02962539
#
# Stress axis : x y z
#
# Youngs Moduli (GPa) = 91.83013 93.63243 34.07758
#
# Poissons Ratio (x) = 0.25577 0.14392
# Poissons Ratio (y) = 0.25085 0.12573
# Poissons Ratio (z) = 0.38783 0.34547
#
# Static dielectric constant tensor:
#      x y z
#    x 2.055650 -0.040190 -0.007020 
#    y -0.040190 2.131550 -0.014940 
#    z -0.007020 -0.014940 2.193460 
# 
# From -- ./inp_files/187447.got.cif
#   From: 2010.05.17/outbox.cif.g08.bks.cpg/sg2_94_cif.got.tgz:187447.got - 2010.06.03 11:33:40.
