data_PCOD9080262
_publ_section_title
;
Structure prediction by ZEFSAII (Michael W. Deem and Ramdas Pophale) SiO2 
 PCOD9080262
Probable space group: P -1
;
_chemical_formula_sum "Si O2"
_cell_formula_units_Z 16
_cell_length_a 9.552589
_cell_length_b 11.533273
_cell_length_c 10.792555
_cell_angle_alpha 46.761072
_cell_angle_beta 133.615096
_cell_angle_gamma 117.364637
_cell_volume 626.949067
_symmetry_space_group_name_H-M "P -1"
_symmetry_group_IT_number 2
_symmetry_cell_setting 'triclinic'
loop_
_space_group_symop_operation_xyz
x,y,z
-x,-y,-z
loop_
_atom_site_type_symbol
_atom_site_label
_atom_site_fract_x
_atom_site_fract_y
_atom_site_fract_z
Si Si1 0.047017 0.805402 0.949057
Si Si2 0.317508 0.465233 0.496709
Si Si3 0.688653 0.717362 0.944688
Si Si4 0.577436 0.033855 0.299744
Si Si5 0.069239 0.870348 0.411607
Si Si6 0.849061 0.766610 0.591280
Si Si7 0.559079 0.179097 0.932322
Si Si8 0.313985 0.595478 0.661000
O O1 0.901354 0.724649 0.012145
O O2 0.957269 0.773201 0.781908
O O3 0.040165 0.995664 0.832005
O O4 0.271785 0.766086 0.095556
O O5 0.500000 0.500000 0.500000
O O6 0.160524 0.410359 0.341352
O O7 0.377754 0.298082 0.724347
O O8 0.292802 0.583264 0.509206
O O9 0.625600 0.891569 0.833342
O O10 0.519041 0.670591 0.775838
O O11 0.687021 0.576206 0.147585
O O12 0.723396 0.055561 0.485915
O O13 0.639608 0.857547 0.419139
O O14 0.631786 0.160083 0.132144
O O15 0.129656 0.700489 0.518642
O O16 0.958606 0.860319 0.481863
O O17 0.500000 0.000000 0.000000
#
# Coordination Sequence:
#
# PCOD9080262 Si02
#       8
#     2   2   2   2   2   2   2   2
#     4  11  22  40  70 104 121 160 232 272 305 382
#     4  12  26  41  63  93 130 174 216 262 322 388
#     4  10  22  39  65  96 130 172 216 266 316 383
#     4  10  18  38  68  90 121 169 211 258 323 380
#     4  10  20  38  65  94 126 164 211 268 323 372
#     4  11  21  40  67  95 128 168 217 267 319 379
#     4  12  22  43  69  94 128 169 214 268 328 381
#     4  10  23  41  61  90 139 178 202 258 341 384
#
# _framework density 25.520413999999999
#
# number of rings (size 3 to 8) (size 9 to 14) (size 15 to 20)
#    0.000    1.250    5.000    1.500    0.000    7.000 
#    0.000    2.500    0.000    0.000    0.000    0.000 
#    0.000    0.000    0.000    0.000    0.000    0.000 
#
# Total GULP energy -89408.380754 kJ/mol
# GULP energy per Si atom -5588.023797 kJ/mol
# Density = 2.546233 g / cm^3
# Si number density = 25.520414 Si / 1000 Ang^3
#
#
#
# Elastic Constant Matrix: (Units=GPa)
#
#
# Indices 1 2 3 4 5 6 
#
# 1 146.9902 51.9554 20.0266 0.4518 5.1726 -14.0127
# 2 51.9554 81.3402 20.6150 1.5814 4.2577 -20.1721
# 3 20.0266 20.6150 72.7025 1.6059 20.4545 -18.1516
# 4 0.4518 1.5814 1.6059 22.9955 -3.9409 5.4003
# 5 5.1726 4.2577 20.4545 -3.9409 35.2638 -8.2206
# 6 -14.0127 -20.1721 -18.1516 5.4003 -8.2206 50.0847
#
#
#
# Elastic Compliance Matrix: (Units=1/GPa)
#
#
# Indices 1 2 3 4 5 6 
#
# 1 0.008843 -0.005445 -0.000887 0.000263 -0.000116 -0.000088
# 2 -0.005445 0.017642 -0.002501 -0.001935 0.001083 0.005062
# 3 -0.000887 -0.002501 0.018619 -0.003797 -0.009791 0.004295
# 4 0.000263 -0.001935 -0.003797 0.046362 0.006164 -0.006069
# 5 -0.000116 0.001083 -0.009791 0.006164 0.035066 0.001946
# 6 -0.000088 0.005062 0.004295 -0.006069 0.001946 0.024511
#
#
# Mechanical properties :
#
#
# Convention : Reuss Voigt Hill
#
# Bulk Modulus (GPa) = 36.44407 54.02521 45.23464
# Shear Modulus (GPa) = 28.11299 35.56451 31.83875
#
# Velocity S-wave (km/s) = 3.32262 3.73711 3.53594
# Velocity P-wave (km/s) = 5.38805 6.31163 5.86804
#
# Compressibility (1/GPa) = 0.02743930
#
# Stress axis : x y z
#
# Youngs Moduli (GPa) = 113.07830 56.68337 53.70866
#
# Poissons Ratio (x) = 0.30862 0.04765
# Poissons Ratio (y) = 0.61567 0.13431
# Poissons Ratio (z) = 0.10032 0.14175
#
# Static dielectric constant tensor:
#      x y z
#    x 1.987380 -0.022770 -0.009520 
#    y -0.022770 2.084210 -0.014120 
#    z -0.009520 -0.014120 2.089610 
# 
# From -- ./inp_files/391943.got.cif
#   From: 2010.05.17/outbox.cif.g08.bks.cpg/sg2_196_cif.got.tgz:391943.got - 2010.06.03 11:33:40.
