data_PCOD9080771
_publ_section_title
;
Structure prediction by ZEFSAII (Michael W. Deem and Ramdas Pophale) SiO2 
 PCOD9080771
Probable space group: P -1
;
_chemical_formula_sum "Si O2"
_cell_formula_units_Z 15
_cell_length_a 5.445803
_cell_length_b 26.458017
_cell_length_c 19.163962
_cell_angle_alpha 16.744952
_cell_angle_beta 69.399092
_cell_angle_gamma 60.844241
_cell_volume 618.401473
_symmetry_space_group_name_H-M "P -1"
_symmetry_group_IT_number 2
_symmetry_cell_setting 'triclinic'
loop_
_space_group_symop_operation_xyz
x,y,z
-x,-y,-z
loop_
_atom_site_type_symbol
_atom_site_label
_atom_site_fract_x
_atom_site_fract_y
_atom_site_fract_z
Si Si1 0.781589 0.464399 0.195173
Si Si2 0.877241 0.177464 0.172656
Si Si3 0.032471 0.572325 0.502005
Si Si4 0.735604 0.149812 0.539235
Si Si5 0.460631 0.760664 0.199522
Si Si6 0.500000 0.500000 0.000000
Si Si7 0.760713 0.771036 0.410478
Si Si8 0.904898 0.804233 0.734053
O O1 0.871321 0.293406 0.352115
O O2 0.008386 0.346299 0.393263
O O3 0.430207 0.588772 0.099263
O O4 0.810465 0.651055 0.918015
O O5 0.125767 0.159897 0.227602
O O6 0.786741 0.015573 0.424208
O O7 0.029166 0.080764 0.210715
O O8 0.208621 0.695628 0.311231
O O9 0.317608 0.336294 0.763578
O O10 0.727360 0.655376 0.373076
O O11 0.899246 0.618568 0.532057
O O12 0.577378 0.155914 0.619598
O O13 0.500025 0.300615 0.302464
O O14 0.275471 0.011152 0.891960
O O15 0.279640 0.661190 0.870675
#
# Coordination Sequence:
#
# PCOD9080771 Si02
#       8
#     2   2   2   2   2   1   2   2
#     4  12  24  42  63 103 131 180 235 291 361 408
#     4  10  23  43  64  91 132 180 238 291 353 417
#     4  10  24  48  77 107 147 185 234 290 361 448
#     4  11  26  42  66  96 138 186 230 296 350 417
#     4  10  24  47  77 111 140 190 232 289 364 442
#     4  10  18  44  60  88 132 180 232 282 342 406
#     4  12  26  42  71 104 142 177 229 294 355 426
#     4  10  21  42  66  87 129 180 236 297 347 411
#
# _framework density 24.256088999999999
#
# number of rings (size 3 to 8) (size 9 to 14) (size 15 to 20)
#    0.000    1.333    2.667    1.200    3.733    6.400 
#    4.800    0.000    0.000    0.000    0.000    0.000 
#    0.000    0.000    0.000    0.000    0.000    0.000 
#
# Total GULP energy -83532.939109 kJ/mol
# GULP energy per Si atom -5568.862607 kJ/mol
# Density = 2.420088 g / cm^3
# Si number density = 24.256089 Si / 1000 Ang^3
#
#
#
# Elastic Constant Matrix: (Units=GPa)
#
#
# Indices 1 2 3 4 5 6 
#
# 1 -137.3941 150.8858 -90.4147 38.2537 -92.7550 206.5700
# 2 150.8858 67.6315 65.0954 -73.0411 52.3361 -140.9647
# 3 -90.4147 65.0954 -10.8638 6.0652 -33.9187 94.5629
# 4 38.2537 -73.0411 6.0652 17.4608 14.6060 -61.3535
# 5 -92.7550 52.3361 -33.9187 14.6060 2.1727 75.5631
# 6 206.5700 -140.9647 94.5629 -61.3535 75.5631 -183.8648
#
#
#
# Elastic Compliance Matrix: (Units=1/GPa)
#
#
# Indices 1 2 3 4 5 6 
#
# 1 0.022851 0.008201 0.016993 0.040309 0.017128 0.021714
# 2 0.008201 0.011283 0.016604 0.028446 0.010452 0.003906
# 3 0.016993 0.016604 0.074686 0.081373 0.021684 0.026532
# 4 0.040309 0.028446 0.081373 0.146870 0.049111 0.036503
# 5 0.017128 0.010452 0.021684 0.049111 0.048362 0.025870
# 6 0.021714 0.003906 0.026532 0.036503 0.025870 0.028059
#
#
# Mechanical properties :
#
#
# Convention : Reuss Voigt Hill
#
# Bulk Modulus (GPa) = 5.19709 18.94516 12.07112
# Shear Modulus (GPa) = 15.99221 -46.59245 -15.30012
#
# Velocity S-wave (km/s) = 2.57048 -4.38751 -2.51425
# Velocity P-wave (km/s) = 3.31015 4.22369 1.85506
#
# Compressibility (1/GPa) = 0.19241553
#
# Stress axis : x y z
#
# Youngs Moduli (GPa) = 43.76222 88.62854 13.38944
#
# Poissons Ratio (x) = -0.72680 -0.22753
# Poissons Ratio (y) = -0.35888 -0.22232
# Poissons Ratio (z) = -0.74366 -1.47160
#
# Static dielectric constant tensor:
#      x y z
#    x 2.019370 -0.130530 -0.057090 
#    y -0.130530 1.852200 -0.060570 
#    z -0.057090 -0.060570 1.864690 
# 
# From -- ./inp_files/479855.got.cif
#   From: 2010.05.17/outbox.cif.g08.bks.cpg/sg2_240_cif.got.tgz:479855.got - 2010.06.03 11:33:40.
