data_PCOD9080767
_publ_section_title
;
Structure prediction by ZEFSAII (Michael W. Deem and Ramdas Pophale) SiO2 
 PCOD9080767
Probable space group: P -1
;
_chemical_formula_sum "Si O2"
_cell_formula_units_Z 13
_cell_length_a 9.421838
_cell_length_b 12.799533
_cell_length_c 12.553710
_cell_angle_alpha 141.532481
_cell_angle_beta 35.182533
_cell_angle_gamma 123.034128
_cell_volume 523.307884
_symmetry_space_group_name_H-M "P -1"
_symmetry_group_IT_number 2
_symmetry_cell_setting 'triclinic'
loop_
_space_group_symop_operation_xyz
x,y,z
-x,-y,-z
loop_
_atom_site_type_symbol
_atom_site_label
_atom_site_fract_x
_atom_site_fract_y
_atom_site_fract_z
Si Si1 0.311835 0.250746 0.250561
Si Si2 0.431607 0.329934 0.455491
Si Si3 0.500000 0.500000 0.000000
Si Si4 0.215068 0.011569 0.960439
Si Si5 0.376240 0.519111 0.845722
Si Si6 0.108872 0.887447 0.241276
Si Si7 0.391251 0.923688 0.402581
O O1 0.246303 0.288024 0.444383
O O2 0.365677 0.421500 0.298217
O O3 0.403114 0.882823 0.033885
O O4 0.137178 0.171656 0.218787
O O5 0.500000 0.500000 0.500000
O O6 0.677940 0.167390 0.184617
O O7 0.358565 0.370966 0.655417
O O8 0.389242 0.486902 0.935984
O O9 0.582570 0.282423 0.781336
O O10 0.445789 0.043727 0.773500
O O11 0.000000 0.000000 0.000000
O O12 0.152084 0.685792 0.082630
O O13 0.000000 0.000000 0.500000
O O14 0.899138 0.962871 0.342513
O O15 0.500000 0.000000 0.500000
#
# Coordination Sequence:
#
# PCOD9080767 Si02
#       7
#     2   2   1   2   2   2   2
#     4   9  20  43  74  96 139 188 243 290 361 441
#     4  10  22  44  69  99 142 184 248 297 355 449
#     4  12  20  44  74 104 152 186 246 312 364 430
#     4  12  25  44  68 105 153 193 235 298 382 442
#     4   9  20  39  74 103 138 180 243 311 362 430
#     4  10  18  43  73  96 136 183 248 295 363 425
#     4  12  26  44  74 109 149 191 244 313 370 443
#
# _framework density 24.841971000000001
#
# number of rings (size 3 to 8) (size 9 to 14) (size 15 to 20)
#    0.923    0.615    4.615    1.385    2.154    0.000 
#    0.000   10.769    3.385    0.000    0.000    0.000 
#    0.000    0.000    0.000    0.000    0.000    0.000 
#
# Total GULP energy -72424.232131 kJ/mol
# GULP energy per Si atom -5571.094779 kJ/mol
# Density = 2.478543 g / cm^3
# Si number density = 24.841971 Si / 1000 Ang^3
#
#
#
# Elastic Constant Matrix: (Units=GPa)
#
#
# Indices 1 2 3 4 5 6 
#
# 1 208.4522 30.4429 39.1134 4.8658 39.8322 -2.0133
# 2 30.4429 79.6212 28.3202 10.7272 -15.9315 -10.5462
# 3 39.1134 28.3202 82.7957 7.0958 27.8071 -3.0840
# 4 4.8658 10.7272 7.0958 40.3024 -2.2766 -1.8734
# 5 39.8322 -15.9315 27.8071 -2.2766 55.2707 10.9246
# 6 -2.0133 -10.5462 -3.0840 -1.8734 10.9246 34.2984
#
#
#
# Elastic Compliance Matrix: (Units=1/GPa)
#
#
# Indices 1 2 3 4 5 6 
#
# 1 0.006445 -0.003598 0.000285 -0.000157 -0.006073 0.001224
# 2 -0.003598 0.020272 -0.009281 -0.002559 0.012808 0.000968
# 3 0.000285 -0.009281 0.019959 -0.001699 -0.013625 0.003205
# 4 -0.000157 -0.002559 -0.001699 0.025887 0.001285 0.000056
# 5 -0.006073 0.012808 -0.013625 0.001285 0.034779 -0.008651
# 6 0.001224 0.000968 0.003205 0.000056 -0.008651 0.032572
#
#
# Mechanical properties :
#
#
# Convention : Reuss Voigt Hill
#
# Bulk Modulus (GPa) = 46.53670 62.95802 54.74736
# Shear Modulus (GPa) = 29.02502 44.17379 36.59941
#
# Velocity S-wave (km/s) = 3.42188 4.22144 3.84251
# Velocity P-wave (km/s) = 5.86396 7.01136 6.46317
#
# Compressibility (1/GPa) = 0.02148842
#
# Stress axis : x y z
#
# Youngs Moduli (GPa) = 155.15197 49.32932 50.10261
#
# Poissons Ratio (x) = 0.17746 -0.01426
# Poissons Ratio (y) = 0.55817 0.46500
# Poissons Ratio (z) = -0.04414 0.45782
#
# Static dielectric constant tensor:
#      x y z
#    x 1.977710 0.051640 -0.004530 
#    y 0.051640 2.069530 -0.073190 
#    z -0.004530 -0.073190 2.036090 
# 
# From -- ./inp_files/393250.got.cif
#   From: 2010.05.17/outbox.cif.g08.bks.cpg/sg2_197_cif.got.tgz:393250.got - 2010.06.03 11:33:40.
