data_PCOD9080958
_publ_section_title
;
Structure prediction by ZEFSAII (Michael W. Deem and Ramdas Pophale) SiO2 
 PCOD9080958
Probable space group: P -1
;
_chemical_formula_sum "Si O2"
_cell_formula_units_Z 16
_cell_length_a 13.193836
_cell_length_b 15.207619
_cell_length_c 8.340993
_cell_angle_alpha 54.857552
_cell_angle_beta 58.426166
_cell_angle_gamma 29.574692
_cell_volume 674.356221
_symmetry_space_group_name_H-M "P -1"
_symmetry_group_IT_number 2
_symmetry_cell_setting 'triclinic'
loop_
_space_group_symop_operation_xyz
x,y,z
-x,-y,-z
loop_
_atom_site_type_symbol
_atom_site_label
_atom_site_fract_x
_atom_site_fract_y
_atom_site_fract_z
Si Si1 0.508385 0.815811 0.197894
Si Si2 0.476275 0.317145 0.379953
Si Si3 0.707233 0.367175 0.577405
Si Si4 0.230931 0.553232 0.835820
Si Si5 0.640066 0.248060 0.004240
Si Si6 0.642297 0.000880 0.185766
Si Si7 0.753690 0.710909 0.578493
Si Si8 0.072285 0.395020 0.880803
O O1 0.410929 0.832405 0.415687
O O2 0.634332 0.631718 0.187355
O O3 0.685979 0.765640 0.158242
O O4 0.363936 0.977717 0.020602
O O5 0.336714 0.505563 0.392449
O O6 0.625260 0.270617 0.184031
O O7 0.342687 0.324505 0.389218
O O8 0.500000 0.500000 0.500000
O O9 0.847848 0.303866 0.381042
O O10 0.763965 0.225587 0.793351
O O11 0.404633 0.451906 0.929856
O O12 0.042467 0.633881 0.990678
O O13 0.696936 0.080244 0.117361
O O14 0.409817 0.150174 0.286115
O O15 0.761639 0.813036 0.359166
O O16 0.031881 0.465921 0.326247
O O17 0.000000 0.500000 0.000000
#
# Coordination Sequence:
#
# PCOD9080958 Si02
#       8
#     2   2   2   2   2   2   2   2
#     4   9  17  27  44  65  97 128 156 183 229 282
#     4  10  18  28  42  71  98 125 151 200 232 275
#     4   9  17  27  46  64  93 125 158 194 241 275
#     4   8  14  27  41  63  88 119 152 193 228 272
#     4   9  15  29  44  67  95 122 156 193 235 271
#     4   9  17  31  46  67  98 129 153 188 231 288
#     4  10  18  29  47  67 101 125 154 191 236 275
#     4  10  15  29  47  67  93 128 159 188 226 285
#
# _framework density 23.726334000000001
#
# number of rings (size 3 to 8) (size 9 to 14) (size 15 to 20)
#    0.000    2.750    5.000    1.125    0.000    1.000 
#    0.000    0.000    0.000    0.000    0.000    7.875 
#    0.000   10.250    0.000    0.125    0.000    0.000 
#
# Total GULP energy -89195.565596 kJ/mol
# GULP energy per Si atom -5574.722850 kJ/mol
# Density = 2.367233 g / cm^3
# Si number density = 23.726334 Si / 1000 Ang^3
#
#
#
# Elastic Constant Matrix: (Units=GPa)
#
#
# Indices 1 2 3 4 5 6 
#
# 1 42.7612 14.7627 17.9877 -8.7817 15.1712 11.7720
# 2 14.7627 54.0506 20.2857 -13.7117 4.0898 3.6467
# 3 17.9877 20.2857 224.7850 -13.4122 14.9779 7.5402
# 4 -8.7817 -13.7117 -13.4122 20.6640 9.9577 -10.6113
# 5 15.1712 4.0898 14.9779 9.9577 34.5426 3.7061
# 6 11.7720 3.6467 7.5402 -10.6113 3.7061 14.9985
#
#
#
# Elastic Compliance Matrix: (Units=1/GPa)
#
#
# Indices 1 2 3 4 5 6 
#
# 1 0.038889 -0.003772 0.000058 0.017783 -0.020498 -0.011989
# 2 -0.003772 0.029043 0.000247 0.040487 -0.016621 0.028526
# 3 0.000058 0.000247 0.005106 0.008240 -0.005119 0.004422
# 4 0.017783 0.040487 0.008240 0.200651 -0.088601 0.135908
# 5 -0.020498 -0.016621 -0.005119 -0.088601 0.073931 -0.058249
# 6 -0.011989 0.028526 0.004422 0.135908 -0.058249 0.177471
#
#
# Mechanical properties :
#
#
# Convention : Reuss Voigt Hill
#
# Bulk Modulus (GPa) = 15.12798 47.51878 31.32338
# Shear Modulus (GPa) = 9.02430 31.94506 20.48468
#
# Velocity S-wave (km/s) = 1.95237 3.67331 2.94151
# Velocity P-wave (km/s) = 3.38707 6.16946 4.97667
#
# Compressibility (1/GPa) = 0.06610267
#
# Stress axis : x y z
#
# Youngs Moduli (GPa) = 25.71437 34.43223 195.84157
#
# Poissons Ratio (x) = 0.12988 -0.01126
# Poissons Ratio (y) = 0.09700 -0.04842
# Poissons Ratio (z) = -0.00148 -0.00851
#
# Static dielectric constant tensor:
#      x y z
#    x 1.964050 0.049230 -0.026000 
#    y 0.049230 2.030930 0.013350 
#    z -0.026000 0.013350 2.009650 
# 
# From -- ./inp_files/215345.got.cif
#   From: 2010.05.17/outbox.cif.g08.bks.cpg/sg2_108_cif.got.tgz:215345.got - 2010.06.03 11:33:40.
