data_PCOD9080441
_publ_section_title
;
Structure prediction by ZEFSAII (Michael W. Deem and Ramdas Pophale) SiO2 
 PCOD9080441
Probable space group: P -1
;
_chemical_formula_sum "Si O2"
_cell_formula_units_Z 14
_cell_length_a 9.184725
_cell_length_b 9.026609
_cell_length_c 8.702123
_cell_angle_alpha 116.370855
_cell_angle_beta 73.505337
_cell_angle_gamma 112.259563
_cell_volume 592.368870
_symmetry_space_group_name_H-M "P -1"
_symmetry_group_IT_number 2
_symmetry_cell_setting 'triclinic'
loop_
_space_group_symop_operation_xyz
x,y,z
-x,-y,-z
loop_
_atom_site_type_symbol
_atom_site_label
_atom_site_fract_x
_atom_site_fract_y
_atom_site_fract_z
Si Si1 0.931264 0.161453 0.081660
Si Si2 0.794165 0.502820 0.836518
Si Si3 0.440374 0.107094 0.439433
Si Si4 0.280267 0.356007 0.578473
Si Si5 0.551590 0.637126 0.796044
Si Si6 0.209349 0.636711 0.565849
Si Si7 0.335792 0.834194 0.075915
O O1 0.871650 0.221329 0.288154
O O2 0.069000 0.332606 0.069361
O O3 0.784270 0.128412 0.994481
O O4 0.000000 0.000000 0.000000
O O5 0.646142 0.575088 0.872909
O O6 0.828485 0.430814 0.626022
O O7 0.751951 0.344651 0.892401
O O8 0.287883 0.172693 0.559284
O O9 0.598744 0.270912 0.438607
O O10 0.500000 0.000000 0.500000
O O11 0.390214 0.980097 0.253861
O O12 0.400051 0.483801 0.717875
O O13 0.340500 0.331230 0.375067
O O14 0.166617 0.472807 0.621535
O O15 0.488087 0.794335 0.936781
#
# Coordination Sequence:
#
# PCOD9080441 Si02
#       7
#     2   2   2   2   2   2   2
#     4  12  29  46  65  97 135 181 230 272 324 405
#     4  11  24  46  67  96 138 176 220 267 343 407
#     4  12  22  39  69 107 137 158 227 287 334 388
#     4  10  18  39  65  96 131 170 218 263 333 393
#     4  10  19  39  71  98 125 173 222 269 333 388
#     4  11  22  46  68  92 129 186 219 269 334 399
#     4  12  25  42  69 103 137 173 214 289 338 383
#
# _framework density 23.633925000000001
#
# number of rings (size 3 to 8) (size 9 to 14) (size 15 to 20)
#    0.000    0.857    7.143    1.286    6.000    1.143 
#    0.000    0.714    0.000    0.000    0.000    0.000 
#    0.000    0.000    0.000    0.000    0.000    0.000 
#
# Total GULP energy -78215.511332 kJ/mol
# GULP energy per Si atom -5586.822238 kJ/mol
# Density = 2.358013 g / cm^3
# Si number density = 23.633925 Si / 1000 Ang^3
#
#
#
# Elastic Constant Matrix: (Units=GPa)
#
#
# Indices 1 2 3 4 5 6 
#
# 1 124.3933 48.7411 54.0375 17.0442 4.4726 -31.2560
# 2 48.7411 122.1795 36.1884 17.2003 2.7597 -28.3088
# 3 54.0375 36.1884 110.0501 35.2697 10.5248 -22.3900
# 4 17.0442 17.2003 35.2697 38.3391 -7.2948 -2.2977
# 5 4.4726 2.7597 10.5248 -7.2948 34.1189 18.9680
# 6 -31.2560 -28.3088 -22.3900 -2.2977 18.9680 49.4181
#
#
#
# Elastic Compliance Matrix: (Units=1/GPa)
#
#
# Indices 1 2 3 4 5 6 
#
# 1 0.012368 -0.001878 -0.002322 -0.003146 -0.005733 0.007749
# 2 -0.001878 0.011635 0.002002 -0.007184 -0.007897 0.009081
# 3 -0.002322 0.002002 0.022764 -0.023873 -0.021512 0.017138
# 4 -0.003146 -0.007184 -0.023873 0.057906 0.036420 -0.028208
# 5 -0.005733 -0.007897 -0.021512 0.036420 0.068814 -0.042615
# 6 0.007749 0.009081 0.017138 -0.028208 -0.042615 0.053148
#
#
# Mechanical properties :
#
#
# Convention : Reuss Voigt Hill
#
# Bulk Modulus (GPa) = 23.60238 70.50632 47.05435
# Shear Modulus (GPa) = 20.39517 38.88562 29.64040
#
# Velocity S-wave (km/s) = 2.94081 4.06067 3.54523
# Velocity P-wave (km/s) = 4.64106 7.20297 6.05897
#
# Compressibility (1/GPa) = 0.04236862
#
# Stress axis : x y z
#
# Youngs Moduli (GPa) = 80.85339 85.94800 43.92891
#
# Poissons Ratio (x) = 0.16145 0.10202
# Poissons Ratio (y) = 0.15188 -0.08793
# Poissons Ratio (z) = 0.18777 -0.17203
#
# Static dielectric constant tensor:
#      x y z
#    x 1.988770 0.001740 -0.084400 
#    y 0.001740 2.001120 -0.027190 
#    z -0.084400 -0.027190 1.876110 
# 
# From -- ./inp_files/160182.got.cif
#   From: 2010.05.17/outbox.cif.g08.bks.cpg/sg2_81_cif.got.tgz:160182.got - 2010.06.03 11:33:40.
