data_PCOD9080062
_publ_section_title
;
Structure prediction by ZEFSAII (Michael W. Deem and Ramdas Pophale) SiO2 
 PCOD9080062
Probable space group: P -1
;
_chemical_formula_sum "Si O2"
_cell_formula_units_Z 12
_cell_length_a 5.040434
_cell_length_b 19.450220
_cell_length_c 20.163095
_cell_angle_alpha 159.965913
_cell_angle_beta 124.094191
_cell_angle_gamma 49.022729
_cell_volume 499.337870
_symmetry_space_group_name_H-M "P -1"
_symmetry_group_IT_number 2
_symmetry_cell_setting 'triclinic'
loop_
_space_group_symop_operation_xyz
x,y,z
-x,-y,-z
loop_
_atom_site_type_symbol
_atom_site_label
_atom_site_fract_x
_atom_site_fract_y
_atom_site_fract_z
Si Si1 0.168264 0.772823 0.062918
Si Si2 0.777738 0.319224 0.422924
Si Si3 0.271825 0.606437 0.130438
Si Si4 0.422698 0.417369 0.601321
Si Si5 0.905539 0.888696 0.988212
Si Si6 0.728543 0.985822 0.324382
O O1 0.390442 0.925296 0.232581
O O2 0.905189 0.852473 0.160586
O O3 0.450697 0.510741 0.877284
O O4 0.948630 0.797482 0.987321
O O5 0.500000 0.500000 0.500000
O O6 0.579570 0.312465 0.456451
O O7 0.063361 0.402283 0.556066
O O8 0.968771 0.102613 0.206935
O O9 0.018967 0.867941 0.316577
O O10 0.500000 0.500000 0.000000
O O11 0.000000 0.500000 0.000000
O O12 0.248454 0.689507 0.819449
O O13 0.676924 0.237408 0.528338
O O14 0.500000 0.000000 0.000000
#
# Coordination Sequence:
#
# PCOD9080062 Si02
#       6
#     2   2   2   2   2   2
#     4  10  20  38  59  89 125 160 205 257 304 368
#     4  12  26  46  63  88 130 167 212 265 309 366
#     4   8  16  30  59  87 114 158 202 245 310 366
#     4  12  25  42  66  93 126 166 210 261 314 372
#     4  12  26  42  66  95 127 169 216 255 315 375
#     4  10  18  38  62  88 122 161 202 256 313 366
#
# _framework density 24.031824
#
# number of rings (size 3 to 8) (size 9 to 14) (size 15 to 20)
#    0.000    1.333    5.000    0.500    0.000    3.333 
#    0.000    0.833    0.000    0.000    0.000   16.333 
#    0.000    0.000    0.000    0.000    0.000    0.000 
#
# Total GULP energy -66804.737088 kJ/mol
# GULP energy per Si atom -5567.061424 kJ/mol
# Density = 2.397713 g / cm^3
# Si number density = 24.031824 Si / 1000 Ang^3
#
#
#
# Elastic Constant Matrix: (Units=GPa)
#
#
# Indices 1 2 3 4 5 6 
#
# 1 94.8603 16.8223 7.2596 3.6986 -11.3385 8.3490
# 2 16.8223 159.4782 37.3989 41.9215 -3.1606 9.5310
# 3 7.2596 37.3989 115.5916 22.2399 -11.5409 -1.6635
# 4 3.6986 41.9215 22.2399 48.6460 4.6099 -0.9171
# 5 -11.3385 -3.1606 -11.5409 4.6099 18.0064 7.1071
# 6 8.3490 9.5310 -1.6635 -0.9171 7.1071 25.4164
#
#
#
# Elastic Compliance Matrix: (Units=1/GPa)
#
#
# Indices 1 2 3 4 5 6 
#
# 1 0.012720 -0.000200 0.000843 -0.002470 0.012117 -0.007525
# 2 -0.000200 0.008967 -0.000979 -0.007812 0.004786 -0.004981
# 3 0.000843 -0.000979 0.010800 -0.005084 0.009375 -0.002008
# 4 -0.002470 -0.007812 -0.005084 0.031697 -0.018093 0.009611
# 5 0.012117 0.004786 0.009375 -0.018093 0.086487 -0.029998
# 6 -0.007525 -0.004981 -0.002008 0.009611 -0.029998 0.052288
#
#
# Mechanical properties :
#
#
# Convention : Reuss Voigt Hill
#
# Bulk Modulus (GPa) = 31.43316 54.76575 43.09946
# Shear Modulus (GPa) = 23.33849 38.97704 31.15777
#
# Velocity S-wave (km/s) = 3.11971 4.03164 3.60463
# Velocity P-wave (km/s) = 5.10734 6.67162 5.94119
#
# Compressibility (1/GPa) = 0.03181353
#
# Stress axis : x y z
#
# Youngs Moduli (GPa) = 78.61752 111.51494 92.58905
#
# Poissons Ratio (x) = 0.02232 -0.07802
# Poissons Ratio (y) = 0.01574 0.09069
# Poissons Ratio (z) = -0.06624 0.10923
#
# Static dielectric constant tensor:
#      x y z
#    x 1.839530 -0.001960 0.019950 
#    y -0.001960 1.955220 0.052300 
#    z 0.019950 0.052300 1.973520 
# 
# From -- ./inp_files/128812.got.cif
#   From: 2010.05.17/outbox.cif.g08.bks.cpg/sg2_65_cif.got.tgz:128812.got - 2010.06.03 11:33:40.
