data_PCOD9080793
_publ_section_title
;
Structure prediction by ZEFSAII (Michael W. Deem and Ramdas Pophale) SiO2 
 PCOD9080793
Probable space group: P -1
;
_chemical_formula_sum "Si O2"
_cell_formula_units_Z 14
_cell_length_a 5.514033
_cell_length_b 10.605559
_cell_length_c 20.917468
_cell_angle_alpha 37.097074
_cell_angle_beta 83.840845
_cell_angle_gamma 106.084997
_cell_volume 584.237258
_symmetry_space_group_name_H-M "P -1"
_symmetry_group_IT_number 2
_symmetry_cell_setting 'triclinic'
loop_
_space_group_symop_operation_xyz
x,y,z
-x,-y,-z
loop_
_atom_site_type_symbol
_atom_site_label
_atom_site_fract_x
_atom_site_fract_y
_atom_site_fract_z
Si Si1 0.087426 0.502021 0.666675
Si Si2 0.183554 0.553183 0.845855
Si Si3 0.855358 0.136979 0.919893
Si Si4 0.649421 0.534188 0.913980
Si Si5 0.759486 0.745093 0.569678
Si Si6 0.355181 0.810594 0.402057
Si Si7 0.884928 0.851191 0.371205
O O1 0.423229 0.658856 0.626218
O O2 0.202307 0.629803 0.541540
O O3 0.928116 0.205231 0.814667
O O4 0.830819 0.545478 0.669460
O O5 0.376799 0.451863 0.905674
O O6 0.039932 0.420214 0.835763
O O7 0.871453 0.447269 0.937472
O O8 0.421699 0.875437 0.711040
O O9 0.500000 0.000000 0.000000
O O10 0.000000 0.000000 0.000000
O O11 0.895463 0.841178 0.770198
O O12 0.500000 0.500000 0.000000
O O13 0.822358 0.800982 0.469321
O O14 0.000000 0.000000 0.500000
O O15 0.095498 0.767319 0.381697
O O16 0.570997 0.751464 0.386736
#
# Coordination Sequence:
#
# PCOD9080793 Si02
#       7
#     2   2   2   2   2   2   2
#     4  10  21  32  50  72 105 139 177 221 268 321
#     4  10  21  35  56  76 113 142 179 233 277 321
#     4  12  26  40  52  74 113 163 205 218 246 321
#     4  10  19  33  53  81 110 142 176 220 288 349
#     4  10  19  27  48  77 105 128 172 212 279 343
#     4   8  16  30  48  77  96 130 166 218 282 330
#     4   8  16  26  41  70 109 126 156 202 254 335
#
# _framework density 23.962865000000001
#
# number of rings (size 3 to 8) (size 9 to 14) (size 15 to 20)
#    0.000    2.286    0.000    2.571   12.000    0.000 
#    0.000    0.000    0.000    0.000    0.000    0.000 
#    0.000  205.714    0.000    0.000    0.000    0.000 
#
# Total GULP energy -77998.482690 kJ/mol
# GULP energy per Si atom -5571.320192 kJ/mol
# Density = 2.390832 g / cm^3
# Si number density = 23.962865 Si / 1000 Ang^3
#
#
#
# Elastic Constant Matrix: (Units=GPa)
#
#
# Indices 1 2 3 4 5 6 
#
# 1 194.6669 10.8929 20.0185 6.8013 -9.3373 18.9791
# 2 10.8929 45.3139 8.3486 -11.9964 -17.4082 8.6355
# 3 20.0185 8.3486 60.6071 8.9779 -4.3128 8.5210
# 4 6.8013 -11.9964 8.9779 29.1349 -4.9236 1.5424
# 5 -9.3373 -17.4082 -4.3128 -4.9236 38.7102 0.6491
# 6 18.9791 8.6355 8.5210 1.5424 0.6491 22.7199
#
#
#
# Elastic Compliance Matrix: (Units=1/GPa)
#
#
# Indices 1 2 3 4 5 6 
#
# 1 0.005760 -0.000004 -0.001112 -0.000557 0.001267 -0.004391
# 2 -0.000004 0.039551 -0.005144 0.022102 0.020278 -0.015180
# 3 -0.001112 -0.005144 0.019157 -0.007797 -0.001376 -0.003732
# 4 -0.000557 0.022102 -0.007797 0.049009 0.015317 -0.008776
# 5 0.001267 0.020278 -0.001376 0.015317 0.037226 -0.010353
# 6 -0.004391 -0.015180 -0.003732 -0.008776 -0.010353 0.055744
#
#
# Mechanical properties :
#
#
# Convention : Reuss Voigt Hill
#
# Bulk Modulus (GPa) = 19.24934 42.12310 30.68622
# Shear Modulus (GPa) = 21.16109 35.53486 28.34797
#
# Velocity S-wave (km/s) = 2.97489 3.85504 3.44320
# Velocity P-wave (km/s) = 4.45537 6.11815 5.35173
#
# Compressibility (1/GPa) = 0.05194985
#
# Stress axis : x y z
#
# Youngs Moduli (GPa) = 173.61443 25.28368 52.19947
#
# Poissons Ratio (x) = 0.00009 0.05804
# Poissons Ratio (y) = 0.00065 0.26849
# Poissons Ratio (z) = 0.19305 0.13005
#
# Static dielectric constant tensor:
#      x y z
#    x 2.039280 -0.011860 0.021050 
#    y -0.011860 1.920690 0.018020 
#    z 0.021050 0.018020 1.989180 
# 
# From -- ./inp_files/70235.got.cif
#   From: 2010.05.17/outbox.cif.g08.bks.cpg/sg2_36_cif.got.tgz:70235.got - 2010.06.03 11:33:40.
