data_PCOD9080963
_publ_section_title
;
Structure prediction by ZEFSAII (Michael W. Deem and Ramdas Pophale) SiO2 
 PCOD9080963
Probable space group: P -1
;
_chemical_formula_sum "Si O2"
_cell_formula_units_Z 16
_cell_length_a 7.726175
_cell_length_b 20.258145
_cell_length_c 11.879144
_cell_angle_alpha 148.209342
_cell_angle_beta 116.617243
_cell_angle_gamma 48.432845
_cell_volume 700.432939
_symmetry_space_group_name_H-M "P -1"
_symmetry_group_IT_number 2
_symmetry_cell_setting 'triclinic'
loop_
_space_group_symop_operation_xyz
x,y,z
-x,-y,-z
loop_
_atom_site_type_symbol
_atom_site_label
_atom_site_fract_x
_atom_site_fract_y
_atom_site_fract_z
Si Si1 0.326160 0.063893 0.376856
Si Si2 0.802505 0.518276 0.702312
Si Si3 0.508307 0.099920 0.050951
Si Si4 0.246695 0.693225 0.740079
Si Si5 0.096146 0.950465 0.774185
Si Si6 0.948647 0.114322 0.749639
Si Si7 0.020536 0.640093 0.806590
Si Si8 0.413517 0.233179 0.819903
O O1 0.340170 0.195538 0.627043
O O2 0.387304 0.008795 0.186497
O O3 0.520648 0.903971 0.271860
O O4 0.059011 0.111439 0.386890
O O5 0.524961 0.630102 0.733009
O O6 0.839657 0.355981 0.462297
O O7 0.005749 0.513717 0.683184
O O8 0.768444 0.599797 0.930331
O O9 0.242420 0.251085 0.168252
O O10 0.500000 0.000000 0.000000
O O11 0.674597 0.144602 0.217067
O O12 0.198481 0.620462 0.730648
O O13 0.081580 0.878834 0.972384
O O14 0.134434 0.001755 0.739057
O O15 0.672974 0.198304 0.828878
O O16 0.000000 0.000000 0.500000
O O17 0.972249 0.253006 0.942353
#
# Coordination Sequence:
#
# PCOD9080963 Si02
#       8
#     2   2   2   2   2   2   2   2
#     4  10  20  33  52  79 109 140 173 221 273 327
#     4  11  20  34  55  76 112 144 177 223 263 324
#     4  12  20  32  53  76 112 140 178 221 269 319
#     4  10  20  35  50  79 113 140 181 220 266 314
#     4  10  20  35  51  80 109 140 179 219 269 322
#     4  10  19  30  49  77 115 137 167 216 273 328
#     4  11  20  35  52  82 108 143 179 219 272 317
#     4  10  19  34  52  78 111 141 174 221 274 323
#
# _framework density 22.843015000000001
#
# number of rings (size 3 to 8) (size 9 to 14) (size 15 to 20)
#    0.000    1.500    7.500    1.500    3.500    0.000 
#    0.000    0.000    0.000    0.750    0.000    0.875 
#    0.000    0.125    0.000    0.000    0.000    0.000 
#
# Total GULP energy -89325.277773 kJ/mol
# GULP energy per Si atom -5582.829861 kJ/mol
# Density = 2.279102 g / cm^3
# Si number density = 22.843015 Si / 1000 Ang^3
#
#
#
# Elastic Constant Matrix: (Units=GPa)
#
#
# Indices 1 2 3 4 5 6 
#
# 1 94.5359 -2.7019 18.7196 -8.7503 11.8925 -2.1495
# 2 -2.7019 26.6680 10.8713 -16.5969 4.9802 -6.3749
# 3 18.7196 10.8713 146.0713 -30.6678 17.8574 -4.8895
# 4 -8.7503 -16.5969 -30.6678 28.4162 -5.9823 1.5866
# 5 11.8925 4.9802 17.8574 -5.9823 33.8021 -6.5833
# 6 -2.1495 -6.3749 -4.8895 1.5866 -6.5833 25.2567
#
#
#
# Elastic Compliance Matrix: (Units=1/GPa)
#
#
# Indices 1 2 3 4 5 6 
#
# 1 0.011843 0.006063 -0.000194 0.006147 -0.003643 0.001165
# 2 0.006063 0.068722 0.004583 0.045329 -0.003751 0.014924
# 3 -0.000194 0.004583 0.009517 0.012133 -0.003218 0.001382
# 4 0.006147 0.045329 0.012133 0.076138 0.000084 0.009552
# 5 -0.003643 -0.003751 -0.003218 0.000084 0.034518 0.007112
# 6 0.001165 0.014924 0.001382 0.009552 0.007112 0.044981
#
#
# Mechanical properties :
#
#
# Convention : Reuss Voigt Hill
#
# Bulk Modulus (GPa) = 9.01001 35.67258 22.34129
# Shear Modulus (GPa) = 19.09779 33.52078 26.30928
#
# Velocity S-wave (km/s) = 2.89458 3.83488 3.39742
# Velocity P-wave (km/s) = 3.88900 5.93790 5.01911
#
# Compressibility (1/GPa) = 0.11098768
#
# Stress axis : x y z
#
# Youngs Moduli (GPa) = 84.43480 14.55131 105.07701
#
# Poissons Ratio (x) = -0.08823 0.02040
# Poissons Ratio (y) = -0.51197 -0.48159
# Poissons Ratio (z) = 0.01639 -0.06669
#
# Static dielectric constant tensor:
#      x y z
#    x 1.929900 0.030140 -0.013100 
#    y 0.030140 1.862350 -0.004860 
#    z -0.013100 -0.004860 1.910250 
# 
# From -- ./inp_files/258513.got.cif
#   From: 2010.05.17/outbox.cif.g08.bks.cpg/sg2_130_cif.got.tgz:258513.got - 2010.06.03 11:33:40.
