data_PCOD9080871
_publ_section_title
;
Structure prediction by ZEFSAII (Michael W. Deem and Ramdas Pophale) SiO2 
 PCOD9080871
Probable space group: P -1
;
_chemical_formula_sum "Si O2"
_cell_formula_units_Z 16
_cell_length_a 11.445620
_cell_length_b 18.873393
_cell_length_c 11.194779
_cell_angle_alpha 42.855417
_cell_angle_beta 117.691077
_cell_angle_gamma 148.547648
_cell_volume 765.254413
_symmetry_space_group_name_H-M "P -1"
_symmetry_group_IT_number 2
_symmetry_cell_setting 'triclinic'
loop_
_space_group_symop_operation_xyz
x,y,z
-x,-y,-z
loop_
_atom_site_type_symbol
_atom_site_label
_atom_site_fract_x
_atom_site_fract_y
_atom_site_fract_z
Si Si1 0.621618 0.430966 0.362722
Si Si2 0.823480 0.149589 0.425445
Si Si3 0.355461 0.772122 0.302368
Si Si4 0.735573 0.247780 0.438235
Si Si5 0.054902 0.083831 0.555387
Si Si6 0.913770 0.571073 0.997255
Si Si7 0.109265 0.805440 0.027246
Si Si8 0.556282 0.656687 0.872918
O O1 0.727996 0.403114 0.518056
O O2 0.353644 0.281748 0.475000
O O3 0.529699 0.340528 0.294293
O O4 0.865302 0.666426 0.163650
O O5 0.850936 0.215341 0.489422
O O6 0.974070 0.147975 0.461826
O O7 0.911082 0.301770 0.190863
O O8 0.534804 0.928560 0.536905
O O9 0.324703 0.786534 0.407857
O O10 0.210312 0.760034 0.172713
O O11 0.640903 0.959408 0.156950
O O12 0.896729 0.450842 0.208102
O O13 0.000000 0.000000 0.500000
O O14 0.841025 0.870665 0.781973
O O15 0.633693 0.425418 0.018312
O O16 0.016242 0.726576 0.945999
O O17 0.500000 0.500000 0.000000
#
# Coordination Sequence:
#
# PCOD9080871 Si02
#       8
#     2   2   2   2   2   2   2   2
#     4  10  20  32  54  76 109 135 177 224 275 316
#     4  11  22  36  52  82 114 144 183 211 275 333
#     4  11  20  38  53  83 107 141 186 225 278 313
#     4  11  21  35  56  75 115 150 175 224 263 337
#     4  10  19  34  53  77 110 146 175 223 272 322
#     4  11  19  34  53  81 111 140 181 221 272 315
#     4  10  22  32  58  82 107 138 183 237 269 313
#     4  10  19  29  50  78 111 143 169 217 272 326
#
# _framework density 20.908079000000001
#
# number of rings (size 3 to 8) (size 9 to 14) (size 15 to 20)
#    0.000    1.500    5.000    3.000    3.500    0.000 
#    0.000    0.000    0.000    0.750    0.000    1.750 
#    0.000    0.000    0.000    0.000    0.000    0.000 
#
# Total GULP energy -89072.082436 kJ/mol
# GULP energy per Si atom -5567.005152 kJ/mol
# Density = 2.086049 g / cm^3
# Si number density = 20.908079 Si / 1000 Ang^3
#
#
#
# Elastic Constant Matrix: (Units=GPa)
#
#
# Indices 1 2 3 4 5 6 
#
# 1 79.8084 8.2237 12.9489 -1.4407 9.2526 1.9905
# 2 8.2237 30.9811 20.4619 -19.7943 -5.7399 9.7423
# 3 12.9489 20.4619 113.3617 -23.6796 -0.2802 5.5887
# 4 -1.4407 -19.7943 -23.6796 36.4576 10.9254 -6.5685
# 5 9.2526 -5.7399 -0.2802 10.9254 20.3423 -4.3946
# 6 1.9905 9.7423 5.5887 -6.5685 -4.3946 16.4525
#
#
#
# Elastic Compliance Matrix: (Units=1/GPa)
#
#
# Indices 1 2 3 4 5 6 
#
# 1 0.014040 -0.004498 -0.000823 -0.000276 -0.007719 -0.000927
# 2 -0.004498 0.059588 -0.003765 0.025516 0.000080 -0.023253
# 3 -0.000823 -0.003765 0.010864 0.006136 -0.003819 0.000069
# 4 -0.000276 0.025516 0.006136 0.050980 -0.020462 -0.002273
# 5 -0.007719 0.000080 -0.003819 -0.020462 0.066154 0.011685
# 6 -0.000927 -0.023253 0.000069 -0.002273 0.011685 0.076853
#
#
# Mechanical properties :
#
#
# Convention : Reuss Voigt Hill
#
# Bulk Modulus (GPa) = 15.07844 34.15781 24.61812
# Shear Modulus (GPa) = 15.68588 26.81826 21.25207
#
# Velocity S-wave (km/s) = 2.74201 3.58533 3.19164
# Velocity P-wave (km/s) = 4.15358 5.78896 5.03807
#
# Compressibility (1/GPa) = 0.06631987
#
# Stress axis : x y z
#
# Youngs Moduli (GPa) = 71.22486 16.78178 92.04770
#
# Poissons Ratio (x) = 0.07548 0.07574
# Poissons Ratio (y) = 0.32037 0.34660
# Poissons Ratio (z) = 0.05860 0.06319
#
# Static dielectric constant tensor:
#      x y z
#    x 1.837490 0.070720 -0.025440 
#    y 0.070720 1.762000 -0.046810 
#    z -0.025440 -0.046810 1.853660 
# 
# From -- ./inp_files/431408.got.cif
#   From: 2010.05.17/outbox.cif.g08.bks.cpg/sg2_216_cif.got.tgz:431408.got - 2010.06.03 11:33:40.
