data_PCOD9080437
_publ_section_title
;
Structure prediction by ZEFSAII (Michael W. Deem and Ramdas Pophale) SiO2 
 PCOD9080437
Probable space group: P -1
;
_chemical_formula_sum "Si O2"
_cell_formula_units_Z 14
_cell_length_a 10.443781
_cell_length_b 12.631213
_cell_length_c 12.333062
_cell_angle_alpha 44.344561
_cell_angle_beta 49.531944
_cell_angle_gamma 85.645282
_cell_volume 591.212428
_symmetry_space_group_name_H-M "P -1"
_symmetry_group_IT_number 2
_symmetry_cell_setting 'triclinic'
loop_
_space_group_symop_operation_xyz
x,y,z
-x,-y,-z
loop_
_atom_site_type_symbol
_atom_site_label
_atom_site_fract_x
_atom_site_fract_y
_atom_site_fract_z
Si Si1 0.964376 0.439396 0.689360
Si Si2 0.278671 0.378485 0.574707
Si Si3 0.281139 0.510887 0.846829
Si Si4 0.090158 0.980914 0.575091
Si Si5 0.381198 0.586126 0.989884
Si Si6 0.422686 0.029113 0.635270
Si Si7 0.999400 0.999120 0.161211
O O1 0.000000 0.500000 0.500000
O O2 0.207709 0.505228 0.544730
O O3 0.869181 0.533089 0.725797
O O4 0.740519 0.183721 0.040687
O O5 0.533906 0.496196 0.295486
O O6 0.077285 0.192353 0.730605
O O7 0.230222 0.237772 0.807264
O O8 0.322627 0.561082 0.914623
O O9 0.362033 0.730151 0.600548
O O10 0.020198 0.258040 0.165062
O O11 0.997282 0.021234 0.698030
O O12 0.383908 0.163912 0.280993
O O13 0.000000 0.000000 0.500000
O O14 0.500000 0.500000 0.000000
O O15 0.500000 0.000000 0.500000
O O16 0.223753 0.028591 0.713421
#
# Coordination Sequence:
#
# PCOD9080437 Si02
#       7
#     2   2   2   2   2   2   2
#     4  11  23  36  70 100 126 174 225 269 339 393
#     4   9  19  40  67  93 126 176 210 270 333 388
#     4  11  22  40  70  95 130 175 223 266 331 390
#     4  12  24  37  68 103 130 174 228 267 325 400
#     4  12  23  44  66  93 135 174 220 276 327 393
#     4  10  18  39  65  94 129 173 221 271 322 391
#     4   9  19  37  63  93 130 168 218 262 327 395
#
# _framework density 23.680150999999999
#
# number of rings (size 3 to 8) (size 9 to 14) (size 15 to 20)
#    0.000    1.429    5.714    1.714    0.000    0.571 
#    0.000    2.857    3.143    2.571    0.000    0.000 
#    0.000    0.000    0.000    0.000    0.000    0.000 
#
# Total GULP energy -78103.295270 kJ/mol
# GULP energy per Si atom -5578.806805 kJ/mol
# Density = 2.362625 g / cm^3
# Si number density = 23.680151 Si / 1000 Ang^3
#
#
#
# Elastic Constant Matrix: (Units=GPa)
#
#
# Indices 1 2 3 4 5 6 
#
# 1 56.9820 39.9046 22.0069 18.7394 4.5643 -8.2339
# 2 39.9046 112.6215 48.0053 28.7471 -8.5372 -14.3940
# 3 22.0069 48.0053 98.2671 13.2901 4.2192 -9.2594
# 4 18.7394 28.7471 13.2901 66.0088 1.4522 1.9469
# 5 4.5643 -8.5372 4.2192 1.4522 39.4118 12.3854
# 6 -8.2339 -14.3940 -9.2594 1.9469 12.3854 52.3915
#
#
#
# Elastic Compliance Matrix: (Units=1/GPa)
#
#
# Indices 1 2 3 4 5 6 
#
# 1 0.025350 -0.007668 -0.000915 -0.003647 -0.005343 0.003114
# 2 -0.007668 0.015264 -0.005355 -0.003525 0.004553 0.001097
# 3 -0.000915 -0.005355 0.013264 -0.000056 -0.002919 0.001421
# 4 -0.003647 -0.003525 -0.000056 0.017801 -0.000319 -0.002138
# 5 -0.005343 0.004553 -0.002919 -0.000319 0.029525 -0.007073
# 6 0.003114 0.001097 0.001421 -0.002138 -0.007073 0.021880
#
#
# Mechanical properties :
#
#
# Convention : Reuss Voigt Hill
#
# Bulk Modulus (GPa) = 38.45830 54.18934 46.32382
# Shear Modulus (GPa) = 31.32272 42.09268 36.70770
#
# Velocity S-wave (km/s) = 3.64090 4.22068 3.94146
# Velocity P-wave (km/s) = 5.82673 6.83269 6.34967
#
# Compressibility (1/GPa) = 0.02600219
#
# Stress axis : x y z
#
# Youngs Moduli (GPa) = 39.44726 65.51397 75.39174
#
# Poissons Ratio (x) = 0.50238 0.06898
# Poissons Ratio (y) = 0.30249 0.40371
# Poissons Ratio (z) = 0.03609 0.35082
#
# Static dielectric constant tensor:
#      x y z
#    x 1.984960 -0.082880 -0.002480 
#    y -0.082880 2.029900 -0.088890 
#    z -0.002480 -0.088890 2.081990 
# 
# From -- ./inp_files/425257.got.cif
#   From: 2010.05.17/outbox.cif.g08.bks.cpg/sg2_213_cif.got.tgz:425257.got - 2010.06.03 11:33:40.
