data_PCOD9080778
_publ_section_title
;
Structure prediction by ZEFSAII (Michael W. Deem and Ramdas Pophale) SiO2 
 PCOD9080778
Probable space group: P -1
;
_chemical_formula_sum "Si O2"
_cell_formula_units_Z 10
_cell_length_a 10.458758
_cell_length_b 19.474422
_cell_length_c 7.546106
_cell_angle_alpha 128.631155
_cell_angle_beta 61.449096
_cell_angle_gamma 159.033527
_cell_volume 398.139835
_symmetry_space_group_name_H-M "P -1"
_symmetry_group_IT_number 2
_symmetry_cell_setting 'triclinic'
loop_
_space_group_symop_operation_xyz
x,y,z
-x,-y,-z
loop_
_atom_site_type_symbol
_atom_site_label
_atom_site_fract_x
_atom_site_fract_y
_atom_site_fract_z
Si Si1 0.292735 0.555443 0.503415
Si Si2 0.613719 0.838168 0.447000
Si Si3 0.641200 0.863589 0.057215
Si Si4 0.953601 0.727528 0.554516
Si Si5 0.147442 0.276593 0.746308
O O1 0.997610 0.321950 0.413459
O O2 0.662390 0.697609 0.451183
O O3 0.344750 0.656946 0.783873
O O4 0.292735 0.609764 0.408172
O O5 0.525069 0.787971 0.216809
O O6 0.000000 0.000000 0.500000
O O7 0.777528 0.027696 0.686870
O O8 0.775209 0.037602 0.210416
O O9 0.000000 0.000000 0.000000
O O10 0.500000 0.500000 0.500000
O O11 0.985029 0.727016 0.320207
O O12 0.500000 0.500000 0.000000
#
# Coordination Sequence:
#
# PCOD9080778 Si02
#       5
#     2   2   2   2   2
#     4  10  19  23  32  35  42  48  53  62  67  66
#     4   9  17  23  29  38  39  51  52  61  66  71
#     4  11  16  26  30  32  46  46  56  58  66  74
#     4   9  17  23  29  38  39  51  52  61  66  71
#     4   9  17  22  30  36  43  47  56  56  68  75
#
# _framework density 25.116803999999998
#
# number of rings (size 3 to 8) (size 9 to 14) (size 15 to 20)
#    0.000    2.400    8.000    0.000   11.200    0.000 
#    0.000    0.000    0.000    0.000    0.000    0.000 
#    0.000    0.000    0.000    0.000    0.000    0.000 
#
# Total GULP energy -55672.035513 kJ/mol
# GULP energy per Si atom -5567.203551 kJ/mol
# Density = 2.505964 g / cm^3
# Si number density = 25.116804 Si / 1000 Ang^3
#
#
#
# Elastic Constant Matrix: (Units=GPa)
#
#
# Indices 1 2 3 4 5 6 
#
# 1 85.2149 120.4681 52.7896 19.5865 11.6482 -30.1731
# 2 120.4681 115.2809 37.0512 -5.3221 -27.3432 -84.4202
# 3 52.7896 37.0512 147.8576 -7.6859 -11.3821 -48.7918
# 4 19.5865 -5.3221 -7.6859 10.0707 -23.5191 -9.3274
# 5 11.6482 -27.3432 -11.3821 -23.5191 2.7348 -1.3533
# 6 -30.1731 -84.4202 -48.7918 -9.3274 -1.3533 90.3778
#
#
#
# Elastic Compliance Matrix: (Units=1/GPa)
#
#
# Indices 1 2 3 4 5 6 
#
# 1 0.017755 -0.011714 -0.000457 0.026201 0.029643 -0.002113
# 2 -0.011714 0.019717 -0.001594 -0.032169 -0.031379 0.009857
# 3 -0.000457 -0.001594 0.007534 -0.002656 -0.004446 0.002085
# 4 0.026201 -0.032169 -0.002656 0.054669 0.017533 -0.016830
# 5 0.029643 -0.031379 -0.004446 0.017533 0.048394 -0.019280
# 6 -0.002113 0.009857 0.002085 -0.016830 -0.019280 0.018666
#
#
# Mechanical properties :
#
#
# Convention : Reuss Voigt Hill
#
# Bulk Modulus (GPa) = 57.21837 85.44123 71.32980
# Shear Modulus (GPa) = 24.98869 29.83963 27.41416
#
# Velocity S-wave (km/s) = 3.15762 3.45053 3.30732
# Velocity P-wave (km/s) = 6.01036 7.06868 6.56090
#
# Compressibility (1/GPa) = 0.01747690
#
# Stress axis : x y z
#
# Youngs Moduli (GPa) = 56.32133 50.71658 132.73902
#
# Poissons Ratio (x) = 0.59407 0.06067
# Poissons Ratio (y) = 0.65972 0.21159
# Poissons Ratio (z) = 0.02574 0.08084
#
# Static dielectric constant tensor:
#      x y z
#    x 2.090860 -0.020990 0.000430 
#    y -0.020990 2.118160 0.010350 
#    z 0.000430 0.010350 1.996930 
# 
# From -- ./inp_files/316801.got.cif
#   From: 2010.05.17/outbox.cif.g08.bks.cpg/sg2_159_cif.got.tgz:316801.got - 2010.06.03 11:33:40.
