data_PCOD9080947
_publ_section_title
;
Structure prediction by ZEFSAII (Michael W. Deem and Ramdas Pophale) SiO2 
 PCOD9080947
Probable space group: P -1
;
_chemical_formula_sum "Si O2"
_cell_formula_units_Z 14
_cell_length_a 14.838553
_cell_length_b 7.686386
_cell_length_c 7.752690
_cell_angle_alpha 75.186272
_cell_angle_beta 142.982138
_cell_angle_gamma 101.984004
_cell_volume 514.660239
_symmetry_space_group_name_H-M "P -1"
_symmetry_group_IT_number 2
_symmetry_cell_setting 'triclinic'
loop_
_space_group_symop_operation_xyz
x,y,z
-x,-y,-z
loop_
_atom_site_type_symbol
_atom_site_label
_atom_site_fract_x
_atom_site_fract_y
_atom_site_fract_z
Si Si1 0.861649 0.488385 0.585857
Si Si2 0.397354 0.036107 0.120770
Si Si3 0.608261 0.746124 0.517267
Si Si4 0.427350 0.683323 0.905349
Si Si5 0.183027 0.102914 0.471655
Si Si6 0.887158 0.028064 0.162578
Si Si7 0.185884 0.565150 0.066568
O O1 0.747304 0.366419 0.336140
O O2 0.829830 0.702518 0.498812
O O3 0.835373 0.432299 0.758716
O O4 0.032082 0.472908 0.789776
O O5 0.488514 0.874203 0.390348
O O6 0.520976 0.172875 0.197329
O O7 0.259565 0.097680 0.018096
O O8 0.300502 0.998487 0.801843
O O9 0.746629 0.857160 0.616764
O O10 0.673758 0.559014 0.733606
O O11 0.511706 0.712315 0.204688
O O12 0.500000 0.500000 0.000000
O O13 0.014765 0.028988 0.212977
O O14 0.817924 0.225974 0.035448
O O15 0.000000 0.000000 0.500000
#
# Coordination Sequence:
#
# PCOD9080947 Si02
#       7
#     2   2   2   2   2   2   2
#     4   9  16  29  53  79  96 129 178 216 239 288
#     4  10  19  30  48  80 107 133 164 209 259 303
#     4  10  19  31  53  82 103 131 170 212 255 297
#     4  11  17  31  54  80 102 130 173 216 250 292
#     4   8  14  29  50  73  93 128 175 205 233 293
#     4   9  18  31  50  75 102 136 174 207 246 308
#     4   9  17  31  51  74 102 135 172 207 251 303
#
# _framework density 27.202413
#
# number of rings (size 3 to 8) (size 9 to 14) (size 15 to 20)
#    0.000    2.571    4.286    2.571    0.000    0.571 
#    0.000    1.429    0.000    3.429    7.429    0.000 
#    0.000    0.000    0.000    0.000    0.000    0.000 
#
# Total GULP energy -78220.220583 kJ/mol
# GULP energy per Si atom -5587.158613 kJ/mol
# Density = 2.714050 g / cm^3
# Si number density = 27.202413 Si / 1000 Ang^3
#
#
#
# Elastic Constant Matrix: (Units=GPa)
#
#
# Indices 1 2 3 4 5 6 
#
# 1 67.6793 5.3155 15.4855 3.3105 10.9847 2.1212
# 2 5.3155 65.6128 49.5298 -25.3378 -0.5464 11.6025
# 3 15.4855 49.5298 175.7170 -6.1667 28.4403 9.7668
# 4 3.3105 -25.3378 -6.1667 75.1474 5.1804 3.5053
# 5 10.9847 -0.5464 28.4403 5.1804 36.8721 0.7656
# 6 2.1212 11.6025 9.7668 3.5053 0.7656 35.2166
#
#
#
# Elastic Compliance Matrix: (Units=1/GPa)
#
#
# Indices 1 2 3 4 5 6 
#
# 1 0.015707 -0.001365 -0.000317 -0.000869 -0.004328 -0.000228
# 2 -0.001365 0.025096 -0.007143 0.007900 0.005326 -0.007107
# 3 -0.000317 -0.007143 0.008743 -0.001233 -0.006587 0.000214
# 4 -0.000869 0.007900 -0.001233 0.016144 -0.000862 -0.003797
# 5 -0.004328 0.005326 -0.006587 -0.000862 0.033697 -0.000314
# 6 -0.000228 -0.007107 0.000214 -0.003797 -0.000314 0.031076
#
#
# Mechanical properties :
#
#
# Convention : Reuss Voigt Hill
#
# Bulk Modulus (GPa) = 31.35111 49.96343 40.65727
# Shear Modulus (GPa) = 31.49684 45.35911 38.42797
#
# Velocity S-wave (km/s) = 3.40644 4.08789 3.76262
# Velocity P-wave (km/s) = 5.19826 6.37874 5.81851
#
# Compressibility (1/GPa) = 0.03189679
#
# Stress axis : x y z
#
# Youngs Moduli (GPa) = 63.66409 39.84769 114.37359
#
# Poissons Ratio (x) = 0.05438 0.03624
# Poissons Ratio (y) = 0.08688 0.81700
# Poissons Ratio (z) = 0.02017 0.28464
#
# Static dielectric constant tensor:
#      x y z
#    x 3.926530 -1.718930 -1.061840 
#    y -1.718930 3.964850 1.132160 
#    z -1.061840 1.132160 2.843850 
# 
# From -- ./inp_files/280621.got.cif
#   From: 2010.05.17/outbox.cif.g08.bks.cpg/sg2_141_cif.got.tgz:280621.got - 2010.06.03 11:33:40.
