data_PCOD9080099
_publ_section_title
;
Structure prediction by ZEFSAII (Michael W. Deem and Ramdas Pophale) SiO2 
 PCOD9080099
Probable space group: P -1
;
_chemical_formula_sum "Si O2"
_cell_formula_units_Z 16
_cell_length_a 8.163862
_cell_length_b 17.805563
_cell_length_c 10.073636
_cell_angle_alpha 35.522218
_cell_angle_beta 53.884307
_cell_angle_gamma 71.450920
_cell_volume 645.277575
_symmetry_space_group_name_H-M "P -1"
_symmetry_group_IT_number 2
_symmetry_cell_setting 'triclinic'
loop_
_space_group_symop_operation_xyz
x,y,z
-x,-y,-z
loop_
_atom_site_type_symbol
_atom_site_label
_atom_site_fract_x
_atom_site_fract_y
_atom_site_fract_z
Si Si1 0.699270 0.586236 0.960618
Si Si2 0.563346 0.224638 0.169514
Si Si3 0.340752 0.572366 0.534762
Si Si4 0.489603 0.961104 0.767042
Si Si5 0.243513 0.159330 0.042764
Si Si6 0.197927 0.062160 0.916678
Si Si7 0.241363 0.365290 0.421141
Si Si8 0.029537 0.374268 0.791836
O O1 0.761194 0.509885 0.164000
O O2 0.471290 0.477898 0.179840
O O3 0.629686 0.716785 0.846429
O O4 0.838336 0.622259 0.708247
O O5 0.627696 0.171098 0.077326
O O6 0.503512 0.092472 0.482720
O O7 0.774318 0.335669 0.972049
O O8 0.500000 0.500000 0.500000
O O9 0.508856 0.726760 0.259006
O O10 0.156209 0.521106 0.585354
O O11 0.360686 0.980807 0.928385
O O12 0.715138 0.942991 0.722384
O O13 0.153231 0.071238 0.080329
O O14 0.098883 0.254145 0.002694
O O15 0.287927 0.222171 0.604453
O O16 0.000000 0.000000 0.000000
O O17 0.104922 0.366957 0.615318
#
# Coordination Sequence:
#
# PCOD9080099 Si02
#       8
#     2   2   2   2   2   2   2   2
#     4  11  20  40  69  87 125 166 215 261 321 378
#     4  11  24  39  63  96 129 163 212 270 310 377
#     4  10  18  38  63  92 119 168 204 264 319 375
#     4  11  23  40  62  91 129 173 209 250 324 382
#     4  10  21  40  63  89 126 170 210 253 318 386
#     4  11  21  42  64  91 129 165 216 259 312 380
#     4  10  21  38  64  91 119 165 209 258 312 379
#     4  10  21  40  62  97 127 159 216 265 317 371
#
# _framework density 24.795531
#
# number of rings (size 3 to 8) (size 9 to 14) (size 15 to 20)
#    0.000    1.500    5.000    3.375    0.000    1.000 
#    4.500    0.000    0.000    3.750    0.000    0.000 
#    0.000    0.000    0.000    0.000    0.000    0.000 
#
# Total GULP energy -89370.736850 kJ/mol
# GULP energy per Si atom -5585.671053 kJ/mol
# Density = 2.473910 g / cm^3
# Si number density = 24.795531 Si / 1000 Ang^3
#
#
#
# Elastic Constant Matrix: (Units=GPa)
#
#
# Indices 1 2 3 4 5 6 
#
# 1 86.0813 25.3224 11.8205 -17.5509 3.9122 6.0840
# 2 25.3224 108.4419 19.4926 -16.0180 -3.7525 2.5371
# 3 11.8205 19.4926 51.9089 -19.6415 12.2147 0.5714
# 4 -17.5509 -16.0180 -19.6415 30.5561 4.0770 1.9947
# 5 3.9122 -3.7525 12.2147 4.0770 43.4000 -7.6815
# 6 6.0840 2.5371 0.5714 1.9947 -7.6815 42.9457
#
#
#
# Elastic Compliance Matrix: (Units=1/GPa)
#
#
# Indices 1 2 3 4 5 6 
#
# 1 0.014201 -0.002399 0.001751 0.008654 -0.003304 -0.002886
# 2 -0.002399 0.010704 -0.003171 0.001949 0.001849 -0.000010
# 3 0.001751 -0.003171 0.030750 0.020897 -0.011674 -0.003529
# 4 0.008654 0.001949 0.020897 0.054268 -0.012727 -0.006416
# 5 -0.003304 0.001849 -0.011674 -0.012727 0.029097 0.006310
# 6 -0.002886 -0.000010 -0.003529 -0.006416 0.006310 0.025168
#
#
# Mechanical properties :
#
#
# Convention : Reuss Voigt Hill
#
# Bulk Modulus (GPa) = 20.82651 39.96702 30.39676
# Shear Modulus (GPa) = 26.61958 36.03346 31.32652
#
# Velocity S-wave (km/s) = 3.28008 3.81625 3.55828
# Velocity P-wave (km/s) = 4.77104 5.96423 5.40069
#
# Compressibility (1/GPa) = 0.04801573
#
# Stress axis : x y z
#
# Youngs Moduli (GPa) = 70.41829 93.42455 32.52084
#
# Poissons Ratio (x) = 0.22416 -0.05694
# Poissons Ratio (y) = 0.16896 0.10312
# Poissons Ratio (z) = -0.12330 0.29623
#
# Static dielectric constant tensor:
#      x y z
#    x 2.025820 -0.011950 0.047490 
#    y -0.011950 2.005170 0.054640 
#    z 0.047490 0.054640 2.041440 
# 
# From -- ./inp_files/402642.got.cif
#   From: 2010.05.17/outbox.cif.g08.bks.cpg/sg2_202_cif.got.tgz:402642.got - 2010.06.03 11:33:40.
