data_PCOD9080085
_publ_section_title
;
Structure prediction by ZEFSAII (Michael W. Deem and Ramdas Pophale) SiO2 
 PCOD9080085
Probable space group: P -1
;
_chemical_formula_sum "Si O2"
_cell_formula_units_Z 14
_cell_length_a 15.401081
_cell_length_b 6.663103
_cell_length_c 16.162923
_cell_angle_alpha 52.657732
_cell_angle_beta 24.832939
_cell_angle_gamma 64.832954
_cell_volume 513.370268
_symmetry_space_group_name_H-M "P -1"
_symmetry_group_IT_number 2
_symmetry_cell_setting 'triclinic'
loop_
_space_group_symop_operation_xyz
x,y,z
-x,-y,-z
loop_
_atom_site_type_symbol
_atom_site_label
_atom_site_fract_x
_atom_site_fract_y
_atom_site_fract_z
Si Si1 0.666237 0.403345 0.432555
Si Si2 0.719256 0.008371 0.595383
Si Si3 0.032245 0.836330 0.931741
Si Si4 0.819891 0.782095 0.951610
Si Si5 0.400445 0.285014 0.430171
Si Si6 0.320780 0.740940 0.093864
Si Si7 0.814318 0.409965 0.567604
O O1 0.500000 0.500000 0.500000
O O2 0.602584 0.096867 0.594772
O O3 0.678223 0.555275 0.470314
O O4 0.907616 0.527600 0.149191
O O5 0.770229 0.187617 0.590588
O O6 0.968491 0.100682 0.320669
O O7 0.534059 0.734731 0.860640
O O8 0.889776 0.851881 0.969976
O O9 0.286038 0.980020 0.643331
O O10 0.000000 0.000000 0.000000
O O11 0.676488 0.958838 0.005600
O O12 0.664459 0.461339 0.153981
O O13 0.278925 0.358697 0.438707
O O14 0.305097 0.709737 0.213459
O O15 0.080337 0.538122 0.320032
#
# Coordination Sequence:
#
# PCOD9080085 Si02
#       7
#     2   2   2   2   2   2   2
#     4  10  18  38  63  85 120 167 202 252 306 367
#     4  11  25  40  64  99 128 159 215 263 311 375
#     4  10  21  37  63  89 122 170 207 248 317 369
#     4  12  23  40  66  95 129 164 207 267 315 367
#     4  10  20  37  63  89 125 161 210 253 308 375
#     4  11  22  44  67  89 130 167 210 259 313 381
#     4  10  22  42  66  93 122 174 210 251 322 375
#
# _framework density 27.270764
#
# number of rings (size 3 to 8) (size 9 to 14) (size 15 to 20)
#    0.000    1.429    5.714    0.429    0.000    2.286 
#    0.000    2.143    0.000    0.000    0.000    0.000 
#    0.000    0.000    0.000    0.000    0.000    0.000 
#
# Total GULP energy -78234.764297 kJ/mol
# GULP energy per Si atom -5588.197450 kJ/mol
# Density = 2.720869 g / cm^3
# Si number density = 27.270764 Si / 1000 Ang^3
#
#
#
# Elastic Constant Matrix: (Units=GPa)
#
#
# Indices 1 2 3 4 5 6 
#
# 1 158.9328 25.4435 84.0726 2.9204 22.4947 16.3457
# 2 25.4435 46.6779 37.6476 -3.0540 10.6879 5.4982
# 3 84.0726 37.6476 291.9532 4.9167 26.0604 20.7626
# 4 2.9204 -3.0540 4.9167 52.1704 4.1629 10.2709
# 5 22.4947 10.6879 26.0604 4.1629 56.5414 -6.7035
# 6 16.3457 5.4982 20.7626 10.2709 -6.7035 22.2514
#
#
#
# Elastic Compliance Matrix: (Units=1/GPa)
#
#
# Indices 1 2 3 4 5 6 
#
# 1 0.008387 -0.001947 -0.001514 0.000898 -0.002999 -0.005585
# 2 -0.001947 0.025997 -0.002064 0.003303 -0.004123 -0.005834
# 3 -0.001514 -0.002064 0.004475 0.000273 -0.001460 -0.003119
# 4 0.000898 0.003303 0.000273 0.022249 -0.004323 -0.013302
# 5 -0.002999 -0.004123 -0.001460 -0.004323 0.022223 0.013274
# 6 -0.005585 -0.005834 -0.003119 -0.013302 0.013274 0.063534
#
#
# Mechanical properties :
#
#
# Convention : Reuss Voigt Hill
#
# Bulk Modulus (GPa) = 35.96136 87.98790 61.97463
# Shear Modulus (GPa) = 29.90666 49.55266 39.72966
#
# Velocity S-wave (km/s) = 3.31517 4.26732 3.82102
# Velocity P-wave (km/s) = 5.27913 7.52427 6.49938
#
# Compressibility (1/GPa) = 0.02780762
#
# Stress axis : x y z
#
# Youngs Moduli (GPa) = 119.23074 38.46593 223.46444
#
# Poissons Ratio (x) = 0.07489 0.33841
# Poissons Ratio (y) = 0.23214 0.46132
# Poissons Ratio (z) = 0.18056 0.07941
#
# Static dielectric constant tensor:
#      x y z
#    x 2.204210 0.036240 -0.018250 
#    y 0.036240 2.300150 -0.015620 
#    z -0.018250 -0.015620 2.164850 
# 
# From -- ./inp_files/503657.got.cif
#   From: 2010.05.17/outbox.cif.g08.bks.cpg/sg2_252_cif.got.tgz:503657.got - 2010.06.03 11:33:40.
