data_PCOD9080403
_publ_section_title
;
Structure prediction by ZEFSAII (Michael W. Deem and Ramdas Pophale) SiO2 
 PCOD9080403
Probable space group: P -1
;
_chemical_formula_sum "Si O2"
_cell_formula_units_Z 15
_cell_length_a 11.761523
_cell_length_b 7.505638
_cell_length_c 12.767709
_cell_angle_alpha 98.348685
_cell_angle_beta 45.310802
_cell_angle_gamma 114.237309
_cell_volume 712.535924
_symmetry_space_group_name_H-M "P -1"
_symmetry_group_IT_number 2
_symmetry_cell_setting 'triclinic'
loop_
_space_group_symop_operation_xyz
x,y,z
-x,-y,-z
loop_
_atom_site_type_symbol
_atom_site_label
_atom_site_fract_x
_atom_site_fract_y
_atom_site_fract_z
Si Si1 0.934317 0.328822 0.440521
Si Si2 0.434089 0.974777 0.421414
Si Si3 0.677533 0.582907 0.191105
Si Si4 0.074351 0.281874 0.139266
Si Si5 0.796666 0.234510 0.128840
Si Si6 0.944832 0.821212 0.197284
Si Si7 0.703210 0.701152 0.529992
Si Si8 0.000000 0.000000 0.500000
O O1 0.730345 0.233808 0.521661
O O2 0.000000 0.500000 0.500000
O O3 0.055982 0.393900 0.263236
O O4 0.945493 0.139984 0.471289
O O5 0.500000 0.000000 0.500000
O O6 0.611413 0.037010 0.242803
O O7 0.368337 0.147594 0.460954
O O8 0.744223 0.417608 0.170880
O O9 0.798327 0.776017 0.197321
O O10 0.472323 0.497178 0.345438
O O11 0.739041 0.625738 0.034984
O O12 0.925660 0.263017 0.146918
O O13 0.028990 0.056536 0.185554
O O14 0.904392 0.228565 0.955613
O O15 0.841751 0.693830 0.353631
O O16 0.816394 0.801581 0.567139
#
# Coordination Sequence:
#
# PCOD9080403 Si02
#       8
#     2   2   2   2   2   2   2   1
#     4  11  24  43  66  93 131 177 220 264 328 393
#     4  10  18  39  63  91 124 162 216 270 320 379
#     4  10  22  35  59  96 126 159 212 263 324 387
#     4  11  20  39  58  91 130 162 208 264 325 386
#     4  10  20  34  61  93 126 161 203 271 324 380
#     4  11  19  36  60  87 130 160 200 263 330 376
#     4  10  21  39  62  88 126 169 214 261 319 387
#     4  10  22  46  60  88 124 178 218 260 316 392
#
# _framework density 21.051570000000002
#
# number of rings (size 3 to 8) (size 9 to 14) (size 15 to 20)
#    0.000    1.600    4.000    3.600    0.000    2.133 
#    7.200    2.000    0.000    4.800    0.000    0.000 
#    0.000    0.000    0.000    0.000    0.000    0.000 
#
# Total GULP energy -83542.376532 kJ/mol
# GULP energy per Si atom -5569.491769 kJ/mol
# Density = 2.100366 g / cm^3
# Si number density = 21.051570 Si / 1000 Ang^3
#
#
#
# Elastic Constant Matrix: (Units=GPa)
#
#
# Indices 1 2 3 4 5 6 
#
# 1 88.0016 24.4120 19.2907 -1.1360 -9.4392 6.8032
# 2 24.4120 57.4515 42.2648 3.3100 9.8576 14.1303
# 3 19.2907 42.2648 156.4264 -16.9708 -9.2118 14.3748
# 4 -1.1360 3.3100 -16.9708 26.2662 2.5786 -4.8001
# 5 -9.4392 9.8576 -9.2118 2.5786 16.2703 2.0300
# 6 6.8032 14.1303 14.3748 -4.8001 2.0300 36.2069
#
#
#
# Elastic Compliance Matrix: (Units=1/GPa)
#
#
# Indices 1 2 3 4 5 6 
#
# 1 0.015958 -0.011629 0.002426 0.001993 0.017378 -0.000133
# 2 -0.011629 0.039584 -0.011764 -0.011182 -0.034603 -0.008135
# 3 0.002426 -0.011764 0.010855 0.007280 0.013523 0.000033
# 4 0.001993 -0.011182 0.007280 0.045126 0.004045 0.006855
# 5 0.017378 -0.034603 0.013523 0.004045 0.099546 -0.000175
# 6 -0.000133 -0.008135 0.000033 0.006855 -0.000175 0.031725
#
#
# Mechanical properties :
#
#
# Convention : Reuss Voigt Hill
#
# Bulk Modulus (GPa) = 40.87949 52.64603 46.76276
# Shear Modulus (GPa) = 17.07170 30.14280 23.60725
#
# Velocity S-wave (km/s) = 2.85080 3.78809 3.35237
# Velocity P-wave (km/s) = 5.50427 6.64795 6.10296
#
# Compressibility (1/GPa) = 0.02446215
#
# Stress axis : x y z
#
# Youngs Moduli (GPa) = 62.66621 25.26263 92.12002
#
# Poissons Ratio (x) = 0.29378 -0.22348
# Poissons Ratio (y) = 0.72874 1.08374
# Poissons Ratio (z) = -0.15202 0.29720
#
# Static dielectric constant tensor:
#      x y z
#    x 1.747220 -0.021950 -0.007490 
#    y -0.021950 1.822390 -0.000680 
#    z -0.007490 -0.000680 1.803590 
# 
# From -- ./inp_files/415119.got.cif
#   From: 2010.05.17/outbox.cif.g08.bks.cpg/sg2_208_cif.got.tgz:415119.got - 2010.06.03 11:33:40.
