data_PCOD9080127
_publ_section_title
;
Structure prediction by ZEFSAII (Michael W. Deem and Ramdas Pophale) SiO2 
 PCOD9080127
Probable space group: P -1
;
_chemical_formula_sum "Si O2"
_cell_formula_units_Z 13
_cell_length_a 12.031170
_cell_length_b 11.212238
_cell_length_c 7.255577
_cell_angle_alpha 75.368776
_cell_angle_beta 93.680924
_cell_angle_gamma 35.911187
_cell_volume 489.201710
_symmetry_space_group_name_H-M "P -1"
_symmetry_group_IT_number 2
_symmetry_cell_setting 'triclinic'
loop_
_space_group_symop_operation_xyz
x,y,z
-x,-y,-z
loop_
_atom_site_type_symbol
_atom_site_label
_atom_site_fract_x
_atom_site_fract_y
_atom_site_fract_z
Si Si1 0.693294 0.301294 0.252344
Si Si2 0.468910 0.100895 0.723619
Si Si3 0.824372 0.789538 0.138051
Si Si4 0.269664 0.458032 0.883108
Si Si5 0.000000 0.500000 0.000000
Si Si6 0.434338 0.344480 0.351444
Si Si7 0.990968 0.890661 0.174098
O O1 0.760806 0.377068 0.264256
O O2 0.604401 0.295588 0.402707
O O3 0.889042 0.042788 0.285051
O O4 0.500000 0.500000 0.000000
O O5 0.302451 0.148309 0.728408
O O6 0.398187 0.260203 0.819202
O O7 0.489547 0.164133 0.524397
O O8 0.714057 0.832991 0.918457
O O9 0.836677 0.923486 0.084255
O O10 0.048963 0.516558 0.214676
O O11 0.060639 0.580643 0.873138
O O12 0.399593 0.351221 0.129136
O O13 0.219180 0.607877 0.309824
O O14 0.000000 0.000000 0.000000
#
# Coordination Sequence:
#
# PCOD9080127 Si02
#       7
#     2   2   2   2   1   2   2
#     4  10  20  38  63  95 128 168 213 259 320 382
#     4  10  24  42  66  95 125 172 217 267 323 379
#     4  10  21  42  63  89 133 167 212 271 324 380
#     4  10  20  41  64  90 133 167 208 267 319 378
#     4  10  18  38  64  88 122 172 208 256 324 380
#     4  11  23  42  67  98 128 170 219 266 317 386
#     4  12  21  40  69  96 128 178 211 261 333 380
#
# _framework density 26.573903999999999
#
# number of rings (size 3 to 8) (size 9 to 14) (size 15 to 20)
#    0.000    1.538    4.615    1.846    0.000    1.231 
#    5.538   11.538    0.000    0.000    0.000    0.000 
#    0.000    0.000    0.000    0.000    0.000    0.000 
#
# Total GULP energy -72536.608959 kJ/mol
# GULP energy per Si atom -5579.739151 kJ/mol
# Density = 2.651342 g / cm^3
# Si number density = 26.573904 Si / 1000 Ang^3
#
#
#
# Elastic Constant Matrix: (Units=GPa)
#
#
# Indices 1 2 3 4 5 6 
#
# 1 221.1552 38.5889 41.2199 2.7817 -66.3610 -0.0271
# 2 38.5889 133.9068 3.0529 1.5145 0.7914 2.7303
# 3 41.2199 3.0529 114.0319 -1.7197 -34.2417 -5.4935
# 4 2.7817 1.5145 -1.7197 34.4998 2.4677 -6.7101
# 5 -66.3610 0.7914 -34.2417 2.4677 36.3481 3.9715
# 6 -0.0271 2.7303 -5.4935 -6.7101 3.9715 57.4505
#
#
#
# Elastic Compliance Matrix: (Units=1/GPa)
#
#
# Indices 1 2 3 4 5 6 
#
# 1 0.012585 -0.003796 0.003439 -0.002910 0.026679 -0.001669
# 2 -0.003796 0.008636 -0.001391 0.000482 -0.008472 0.000097
# 3 0.003439 -0.001391 0.013194 -0.000919 0.018810 -0.000078
# 4 -0.002910 0.000482 -0.000919 0.030566 -0.008707 0.004060
# 5 0.026679 -0.008472 0.018810 -0.008707 0.095304 -0.005391
# 6 -0.001669 0.000097 -0.000078 0.004060 -0.005391 0.018240
#
#
# Mechanical properties :
#
#
# Convention : Reuss Voigt Hill
#
# Bulk Modulus (GPa) = 32.34165 70.53525 51.43845
# Shear Modulus (GPa) = 25.99744 51.40847 38.70295
#
# Velocity S-wave (km/s) = 3.13118 4.40312 3.82046
# Velocity P-wave (km/s) = 5.02686 7.24228 6.23378
#
# Compressibility (1/GPa) = 0.03091988
#
# Stress axis : x y z
#
# Youngs Moduli (GPa) = 79.46151 115.79311 75.79108
#
# Poissons Ratio (x) = 0.43952 -0.26067
# Poissons Ratio (y) = 0.30162 0.10544
# Poissons Ratio (z) = -0.27330 0.16108
#
# Static dielectric constant tensor:
#      x y z
#    x 2.278190 -0.179230 0.179900 
#    y -0.179230 2.627880 -0.170250 
#    z 0.179900 -0.170250 2.273800 
# 
# From -- ./inp_files/147230.got.cif
#   From: 2010.05.17/outbox.cif.g08.bks.cpg/sg2_74_cif.got.tgz:147230.got - 2010.06.03 11:33:40.
