data_PCOD9080154
_publ_section_title
;
Structure prediction by ZEFSAII (Michael W. Deem and Ramdas Pophale) SiO2 
 PCOD9080154
Probable space group: P -1
;
_chemical_formula_sum "Si O2"
_cell_formula_units_Z 14
_cell_length_a 9.439148
_cell_length_b 12.360716
_cell_length_c 16.421178
_cell_angle_alpha 22.400832
_cell_angle_beta 137.309273
_cell_angle_gamma 135.825556
_cell_volume 489.772155
_symmetry_space_group_name_H-M "P -1"
_symmetry_group_IT_number 2
_symmetry_cell_setting 'triclinic'
loop_
_space_group_symop_operation_xyz
x,y,z
-x,-y,-z
loop_
_atom_site_type_symbol
_atom_site_label
_atom_site_fract_x
_atom_site_fract_y
_atom_site_fract_z
Si Si1 0.983842 0.872714 0.792048
Si Si2 0.235188 0.664748 0.312395
Si Si3 0.425901 0.673772 0.224768
Si Si4 0.587412 0.731043 0.977237
Si Si5 0.127475 0.914172 0.246537
Si Si6 0.547920 0.734338 0.627536
Si Si7 0.136131 0.791643 0.748437
O O1 0.762644 0.919679 0.622283
O O2 0.153038 0.916148 0.761597
O O3 0.022030 0.063374 0.756499
O O4 0.946124 0.542505 0.035263
O O5 0.232466 0.608920 0.253610
O O6 0.385934 0.459725 0.558050
O O7 0.068796 0.710147 0.284811
O O8 0.351253 0.994599 0.129796
O O9 0.381484 0.482128 0.258765
O O10 0.500000 0.000000 0.000000
O O11 0.786488 0.771550 0.973137
O O12 0.364163 0.790581 0.804794
O O13 0.541476 0.443998 0.207026
O O14 0.346047 0.840631 0.427570
O O15 0.000000 0.000000 0.500000
#
# Coordination Sequence:
#
# PCOD9080154 Si02
#       7
#     2   2   2   2   2   2   2
#     4  10  21  34  48  75 104 132 162 201 239 302
#     4   8  18  28  46  75 100 122 160 200 248 286
#     4  10  15  28  46  71 103 125 155 203 246 287
#     4   9  18  32  47  75  99 127 164 199 242 292
#     4   9  18  32  49  73 106 127 155 206 250 287
#     4  10  18  28  50  75 103 128 161 200 253 284
#     4  10  21  34  49  68 102 139 169 192 239 293
#
# _framework density 28.584720999999998
#
# number of rings (size 3 to 8) (size 9 to 14) (size 15 to 20)
#    0.857    1.714    1.429    1.286    0.000    3.429 
#    0.000    0.000    0.000    0.000    0.000   18.000 
#    0.000    0.714    0.000    0.000    0.000    0.000 
#
# Total GULP energy -78255.882460 kJ/mol
# GULP energy per Si atom -5589.705890 kJ/mol
# Density = 2.851966 g / cm^3
# Si number density = 28.584721 Si / 1000 Ang^3
#
#
#
# Elastic Constant Matrix: (Units=GPa)
#
#
# Indices 1 2 3 4 5 6 
#
# 1 121.7486 45.3577 31.2548 -0.1655 -5.8780 -39.4243
# 2 45.3577 129.6206 28.6498 5.0162 7.4001 -58.0494
# 3 31.2548 28.6498 115.5507 27.6793 13.9665 -7.4787
# 4 -0.1655 5.0162 27.6793 44.6452 4.9977 0.1227
# 5 -5.8780 7.4001 13.9665 4.9977 32.0197 8.2238
# 6 -39.4243 -58.0494 -7.4787 0.1227 8.2238 52.8600
#
#
#
# Elastic Compliance Matrix: (Units=1/GPa)
#
#
# Indices 1 2 3 4 5 6 
#
# 1 0.011733 0.000230 -0.003276 0.001905 0.001084 0.008367
# 2 0.000230 0.017971 -0.002184 0.000238 -0.008571 0.020930
# 3 -0.003276 -0.002184 0.011975 -0.006781 -0.003601 -0.002572
# 4 0.001905 0.000238 -0.006781 0.026708 -0.001131 0.000836
# 5 0.001084 -0.008571 -0.003601 -0.001131 0.039058 -0.015188
# 6 0.008367 0.020930 -0.002572 0.000836 -0.015188 0.050140
#
#
# Mechanical properties :
#
#
# Convention : Reuss Voigt Hill
#
# Bulk Modulus (GPa) = 32.03333 64.16049 48.09691
# Shear Modulus (GPa) = 28.01866 43.34883 35.68375
#
# Velocity S-wave (km/s) = 3.13421 3.89846 3.53703
# Velocity P-wave (km/s) = 4.93239 6.53899 5.79167
#
# Compressibility (1/GPa) = 0.03121749
#
# Stress axis : x y z
#
# Youngs Moduli (GPa) = 85.22694 55.64626 83.50678
#
# Poissons Ratio (x) = -0.01279 0.27360
# Poissons Ratio (y) = -0.01958 0.18239
# Poissons Ratio (z) = 0.27924 0.12154
#
# Static dielectric constant tensor:
#      x y z
#    x 2.208110 -0.013800 0.050680 
#    y -0.013800 2.219040 -0.004350 
#    z 0.050680 -0.004350 2.198220 
# 
# From -- ./inp_files/517501.got.cif
#   From: 2010.05.17/outbox.cif.g08.bks.cpg/sg2_259_cif.got.tgz:517501.got - 2010.06.03 11:33:40.
