data_PCOD9080401
_publ_section_title
;
Structure prediction by ZEFSAII (Michael W. Deem and Ramdas Pophale) SiO2 
 PCOD9080401
Probable space group: P -1
;
_chemical_formula_sum "Si O2"
_cell_formula_units_Z 16
_cell_length_a 13.956717
_cell_length_b 11.299687
_cell_length_c 9.595485
_cell_angle_alpha 66.425980
_cell_angle_beta 46.432635
_cell_angle_gamma 40.644575
_cell_volume 689.510598
_symmetry_space_group_name_H-M "P -1"
_symmetry_group_IT_number 2
_symmetry_cell_setting 'triclinic'
loop_
_space_group_symop_operation_xyz
x,y,z
-x,-y,-z
loop_
_atom_site_type_symbol
_atom_site_label
_atom_site_fract_x
_atom_site_fract_y
_atom_site_fract_z
Si Si1 0.838719 0.227343 0.180164
Si Si2 0.751279 0.124474 0.928877
Si Si3 0.803561 0.776604 0.434767
Si Si4 0.844132 0.328963 0.807611
Si Si5 0.786112 0.503919 0.269847
Si Si6 0.888179 0.616580 0.858521
Si Si7 0.585451 0.767745 0.877878
Si Si8 0.599868 0.163631 0.349755
O O1 0.731967 0.409799 0.293106
O O2 0.729139 0.170246 0.308297
O O3 0.862640 0.260959 0.980837
O O4 0.044855 0.064936 0.123814
O O5 0.638857 0.111351 0.941427
O O6 0.611012 0.212550 0.161629
O O7 0.778681 0.257050 0.809623
O O8 0.648050 0.807831 0.663134
O O9 0.949119 0.756206 0.396506
O O10 0.954672 0.578262 0.295637
O O11 0.694724 0.955667 0.361884
O O12 0.692824 0.552567 0.860658
O O13 0.613945 0.679453 0.452187
O O14 0.983891 0.355366 0.229703
O O15 0.828502 0.574859 0.071371
O O16 0.693653 0.765205 0.895589
#
# Coordination Sequence:
#
# PCOD9080401 Si02
#       8
#     2   2   2   2   2   2   2   2
#     4  11  20  41  65  87 126 159 207 253 299 362
#     4  11  21  38  66  95 120 160 201 262 303 355
#     4  11  20  40  63  90 128 151 203 263 298 350
#     4  10  18  39  63  89 123 157 201 253 307 355
#     4  11  22  38  64  86 124 165 202 246 303 373
#     4  10  22  40  58  87 123 166 195 245 312 363
#     4  11  23  36  64  96 123 156 203 260 305 357
#     4  11  22  37  64  98 117 157 212 254 300 358
#
# _framework density 23.204864000000001
#
# number of rings (size 3 to 8) (size 9 to 14) (size 15 to 20)
#    0.000    1.250    5.000    3.750    0.000    4.000 
#    0.000    2.500    0.000    1.500    0.000    0.000 
#    0.000    0.000    0.000    0.000    0.000    0.000 
#
# Total GULP energy -89421.225030 kJ/mol
# GULP energy per Si atom -5588.826564 kJ/mol
# Density = 2.315205 g / cm^3
# Si number density = 23.204864 Si / 1000 Ang^3
#
#
#
# Elastic Constant Matrix: (Units=GPa)
#
#
# Indices 1 2 3 4 5 6 
#
# 1 104.5917 9.5665 34.7575 11.4116 -40.9563 -5.8772
# 2 9.5665 56.0396 0.9994 -3.6906 -10.7793 -9.0637
# 3 34.7575 0.9994 36.5961 -11.8441 -29.9693 -7.3919
# 4 11.4116 -3.6906 -11.8441 20.9054 3.8750 -12.5834
# 5 -40.9563 -10.7793 -29.9693 3.8750 40.1664 10.1370
# 6 -5.8772 -9.0637 -7.3919 -12.5834 10.1370 28.7908
#
#
#
# Elastic Compliance Matrix: (Units=1/GPa)
#
#
# Indices 1 2 3 4 5 6 
#
# 1 -0.079682 0.063339 0.230916 0.283288 0.036849 0.173801
# 2 0.063339 -0.021722 -0.146544 -0.188367 -0.004037 -0.112440
# 3 0.230916 -0.146544 -0.502611 -0.695524 -0.003019 -0.430964
# 4 0.283288 -0.188367 -0.695524 -0.834815 -0.068686 -0.520727
# 5 0.036849 -0.004037 -0.003019 -0.068686 0.078972 -0.052350
# 6 0.173801 -0.112440 -0.430964 -0.520727 -0.052350 -0.284992
#
#
# Mechanical properties :
#
#
# Convention : Reuss Voigt Hill
#
# Bulk Modulus (GPa) = -3.24050 31.98600 14.37275
# Shear Modulus (GPa) = -2.44722 28.09948 12.82613
#
# Velocity S-wave (km/s) = -1.02806 3.48362 2.35358
# Velocity P-wave (km/s) = 1.67592 5.47676 3.68688
#
# Compressibility (1/GPa) = -0.30859428
#
# Stress axis : x y z
#
# Youngs Moduli (GPa) = -12.54990 -46.03630 -1.98961
#
# Poissons Ratio (x) = 2.91589 0.45943
# Poissons Ratio (y) = 0.79490 -0.29157
# Poissons Ratio (z) = 2.89797 -6.74636
#
# Static dielectric constant tensor:
#      x y z
#    x 1.996280 -0.020350 -0.044840 
#    y -0.020350 1.859570 0.001010 
#    z -0.044840 0.001010 1.818020 
# 
# From -- ./inp_files/452179.got.cif
#   From: 2010.05.17/outbox.cif.g08.bks.cpg/sg2_227_cif.got.tgz:452179.got - 2010.06.03 11:33:40.
