data_PCOD9080601
_publ_section_title
;
Structure prediction by ZEFSAII (Michael W. Deem and Ramdas Pophale) SiO2 
 PCOD9080601
Probable space group: P -1
;
_chemical_formula_sum "Si O2"
_cell_formula_units_Z 14
_cell_length_a 15.571480
_cell_length_b 14.561855
_cell_length_c 11.988418
_cell_angle_alpha 56.511170
_cell_angle_beta 153.414402
_cell_angle_gamma 140.645308
_cell_volume 671.495447
_symmetry_space_group_name_H-M "P -1"
_symmetry_group_IT_number 2
_symmetry_cell_setting 'triclinic'
loop_
_space_group_symop_operation_xyz
x,y,z
-x,-y,-z
loop_
_atom_site_type_symbol
_atom_site_label
_atom_site_fract_x
_atom_site_fract_y
_atom_site_fract_z
Si Si1 0.216882 0.337469 0.217998
Si Si2 0.178159 0.323082 0.774592
Si Si3 0.638402 0.196546 0.626968
Si Si4 0.040468 0.944139 0.733130
Si Si5 0.178483 0.913759 0.685873
Si Si6 0.768575 0.800837 0.876165
Si Si7 0.629812 0.147066 0.385737
O O1 0.500000 0.500000 0.500000
O O2 0.204714 0.297701 0.100846
O O3 0.111469 0.179434 0.257945
O O4 0.967469 0.319488 0.958738
O O5 0.016063 0.232828 0.530807
O O6 0.942635 0.292750 0.593124
O O7 0.500000 0.500000 0.000000
O O8 0.222108 0.233991 0.962369
O O9 0.519451 0.266059 0.460522
O O10 0.611581 0.170246 0.479152
O O11 0.458348 0.021811 0.597491
O O12 0.052216 0.863870 0.697363
O O13 0.861577 0.975389 0.471364
O O14 0.378614 0.102385 0.055199
O O15 0.500000 0.000000 0.000000
O O16 0.000000 0.000000 0.000000
#
# Coordination Sequence:
#
# PCOD9080601 Si02
#       7
#     2   2   2   2   2   2   2
#     4  11  25  41  63 100 139 162 214 291 336 380
#     4  12  25  40  65  99 138 169 214 284 340 385
#     4  10  20  38  69  95 123 171 225 271 321 400
#     4  10  23  40  68  93 124 179 228 264 323 404
#     4  11  23  43  65  92 130 179 224 261 325 415
#     4  12  22  43  73  95 124 177 233 265 326 406
#     4  10  18  40  65  97 129 167 226 278 324 393
#
# _framework density 20.848987000000001
#
# number of rings (size 3 to 8) (size 9 to 14) (size 15 to 20)
#    0.000    1.143    4.286    3.429    2.000    0.571 
#    2.571    2.857    0.000    0.000    0.000    0.000 
#    0.000    0.000    0.000    0.000    0.000    0.000 
#
# Total GULP energy -78079.078304 kJ/mol
# GULP energy per Si atom -5577.077022 kJ/mol
# Density = 2.080153 g / cm^3
# Si number density = 20.848987 Si / 1000 Ang^3
#
#
#
# Elastic Constant Matrix: (Units=GPa)
#
#
# Indices 1 2 3 4 5 6 
#
# 1 78.7824 14.2443 37.0449 10.8889 -2.1642 6.4144
# 2 14.2443 38.2258 51.3908 3.7085 9.8653 8.2633
# 3 37.0449 51.3908 168.7942 2.4867 9.2703 3.5043
# 4 10.8889 3.7085 2.4867 40.2481 -4.2741 2.0989
# 5 -2.1642 9.8653 9.2703 -4.2741 42.1850 -5.1787
# 6 6.4144 8.2633 3.5043 2.0989 -5.1787 21.5849
#
#
#
# Elastic Compliance Matrix: (Units=1/GPa)
#
#
# Indices 1 2 3 4 5 6 
#
# 1 0.015007 -0.000782 -0.002986 -0.003549 0.000866 -0.003123
# 2 -0.000782 0.055630 -0.015569 -0.004192 -0.012651 -0.021164
# 3 -0.002986 -0.015569 0.011085 0.001476 0.001858 0.005350
# 4 -0.003549 -0.004192 0.001476 0.026411 0.003227 0.000626
# 5 0.000866 -0.012651 0.001858 0.003227 0.027937 0.010673
# 6 -0.003123 -0.021164 0.005350 0.000626 0.010673 0.056990
#
#
# Mechanical properties :
#
#
# Convention : Reuss Voigt Hill
#
# Bulk Modulus (GPa) = 23.23028 54.57359 38.90194
# Shear Modulus (GPa) = 20.31824 33.01177 26.66501
#
# Velocity S-wave (km/s) = 3.12515 3.98348 3.58013
# Velocity P-wave (km/s) = 4.91818 6.88404 5.98241
#
# Compressibility (1/GPa) = 0.04304726
#
# Stress axis : x y z
#
# Youngs Moduli (GPa) = 66.63485 17.97592 90.21171
#
# Poissons Ratio (x) = 0.01406 0.26936
# Poissons Ratio (y) = 0.05212 1.40454
# Poissons Ratio (z) = 0.19897 0.27987
#
# Static dielectric constant tensor:
#      x y z
#    x 1.865960 -0.020230 0.023340 
#    y -0.020230 1.739400 -0.017290 
#    z 0.023340 -0.017290 1.792110 
# 
# From -- ./inp_files/455657.got.cif
#   From: 2010.05.17/outbox.cif.g08.bks.cpg/sg2_228_cif.got.tgz:455657.got - 2010.06.03 11:33:40.
