data_PCOD9080485
_publ_section_title
;
Structure prediction by ZEFSAII (Michael W. Deem and Ramdas Pophale) SiO2 
 PCOD9080485
Probable space group: P -1
;
_chemical_formula_sum "Si O2"
_cell_formula_units_Z 16
_cell_length_a 11.158974
_cell_length_b 16.117205
_cell_length_c 7.758678
_cell_angle_alpha 116.042554
_cell_angle_beta 87.154200
_cell_angle_gamma 41.260437
_cell_volume 634.760412
_symmetry_space_group_name_H-M "P -1"
_symmetry_group_IT_number 2
_symmetry_cell_setting 'triclinic'
loop_
_space_group_symop_operation_xyz
x,y,z
-x,-y,-z
loop_
_atom_site_type_symbol
_atom_site_label
_atom_site_fract_x
_atom_site_fract_y
_atom_site_fract_z
Si Si1 0.378191 0.989173 0.806188
Si Si2 0.170990 0.280354 0.914600
Si Si3 0.120684 0.365985 0.610409
Si Si4 0.279872 0.861801 0.534663
Si Si5 0.517009 0.567938 0.801580
Si Si6 0.174448 0.943767 0.212965
Si Si7 0.991896 0.755466 0.630791
Si Si8 0.720599 0.449364 0.067995
O O1 0.641958 0.785532 0.657725
O O2 0.292503 0.958453 0.676739
O O3 0.393325 0.076467 0.783527
O O4 0.178460 0.139290 0.098240
O O5 0.062876 0.428318 0.186083
O O6 0.969524 0.335469 0.955622
O O7 0.208500 0.302774 0.746989
O O8 0.003868 0.346903 0.552690
O O9 0.227801 0.892444 0.363048
O O10 0.527338 0.645871 0.344658
O O11 0.068246 0.947102 0.717537
O O12 0.315595 0.624737 0.903588
O O13 0.732179 0.401406 0.507390
O O14 0.391011 0.747724 0.927399
O O15 0.646569 0.485672 0.905908
O O16 0.130931 0.080017 0.313911
#
# Coordination Sequence:
#
# PCOD9080485 Si02
#       8
#     2   2   2   2   2   2   2   2
#     4  12  26  41  64  91 130 167 203 256 313 374
#     4  11  23  42  69  93 117 161 214 268 301 360
#     4  11  25  44  65  89 122 164 219 262 302 355
#     4  10  20  40  66  97 122 162 207 252 315 361
#     4  10  21  37  65  96 122 163 200 251 314 371
#     4  10  22  39  68  93 125 160 205 260 303 372
#     4  12  25  42  60  93 131 168 204 249 315 378
#     4  10  18  39  68  92 125 153 206 266 304 358
#
# _framework density 25.206361000000001
#
# number of rings (size 3 to 8) (size 9 to 14) (size 15 to 20)
#    0.000    1.250    3.750    2.250    1.750    3.000 
#    0.000    1.250    0.000    0.000    0.000    0.000 
#    0.000    0.000    0.000    0.000    0.000    0.000 
#
# Total GULP energy -89589.081711 kJ/mol
# GULP energy per Si atom -5599.317607 kJ/mol
# Density = 2.514899 g / cm^3
# Si number density = 25.206361 Si / 1000 Ang^3
#
#
#
# Elastic Constant Matrix: (Units=GPa)
#
#
# Indices 1 2 3 4 5 6 
#
# 1 90.9482 15.8578 25.2852 12.9397 4.0271 21.6439
# 2 15.8578 32.7188 11.9120 14.7989 15.6903 3.4644
# 3 25.2852 11.9120 114.3546 11.3221 4.1588 2.3209
# 4 12.9397 14.7989 11.3221 25.8424 15.8740 8.1862
# 5 4.0271 15.6903 4.1588 15.8740 36.6488 13.1342
# 6 21.6439 3.4644 2.3209 8.1862 13.1342 21.5667
#
#
#
# Elastic Compliance Matrix: (Units=1/GPa)
#
#
# Indices 1 2 3 4 5 6 
#
# 1 0.019037 -0.010509 -0.002855 -0.002252 0.012193 -0.023681
# 2 -0.010509 0.051955 -0.000976 -0.018122 -0.021004 0.021976
# 3 -0.002855 -0.000976 0.009736 -0.003224 -0.000157 0.003293
# 4 -0.002252 -0.018122 -0.003224 0.064505 -0.016336 -0.009018
# 5 0.012193 -0.021004 -0.000157 -0.016336 0.054980 -0.036128
# 6 -0.023681 0.021976 0.003293 -0.009018 -0.036128 0.091675
#
#
# Mechanical properties :
#
#
# Convention : Reuss Voigt Hill
#
# Bulk Modulus (GPa) = 19.21297 38.23683 28.72490
# Shear Modulus (GPa) = 14.79658 29.14268 21.96963
#
# Velocity S-wave (km/s) = 2.42547 3.40393 2.95547
# Velocity P-wave (km/s) = 3.93481 5.53637 4.80282
#
# Compressibility (1/GPa) = 0.05204817
#
# Stress axis : x y z
#
# Youngs Moduli (GPa) = 52.52816 19.24761 102.71517
#
# Poissons Ratio (x) = 0.20227 0.29321
# Poissons Ratio (y) = 0.55201 0.10028
# Poissons Ratio (z) = 0.14995 0.01879
#
# Static dielectric constant tensor:
#      x y z
#    x 1.983620 -0.007780 -0.010460 
#    y -0.007780 2.022780 -0.050290 
#    z -0.010460 -0.050290 1.993820 
# 
# From -- ./inp_files/174971.got.cif
#   From: 2010.05.17/outbox.cif.g08.bks.cpg/sg2_88_cif.got.tgz:174971.got - 2010.06.03 11:33:40.
