data_PCOD9080674
_publ_section_title
;
Structure prediction by ZEFSAII (Michael W. Deem and Ramdas Pophale) SiO2 
 PCOD9080674
Probable space group: P -1
;
_chemical_formula_sum "Si O2"
_cell_formula_units_Z 15
_cell_length_a 11.992830
_cell_length_b 12.263532
_cell_length_c 14.465556
_cell_angle_alpha 29.632514
_cell_angle_beta 37.245967
_cell_angle_gamma 33.336186
_cell_volume 558.654281
_symmetry_space_group_name_H-M "P -1"
_symmetry_group_IT_number 2
_symmetry_cell_setting 'triclinic'
loop_
_space_group_symop_operation_xyz
x,y,z
-x,-y,-z
loop_
_atom_site_type_symbol
_atom_site_label
_atom_site_fract_x
_atom_site_fract_y
_atom_site_fract_z
Si Si1 0.500000 0.500000 0.500000
Si Si2 0.320023 0.206764 0.072173
Si Si3 0.835824 0.059480 0.282926
Si Si4 0.688839 0.322917 0.713692
Si Si5 0.772661 0.769100 0.385170
Si Si6 0.365652 0.021263 0.364627
Si Si7 0.921764 0.388545 0.853004
Si Si8 0.152226 0.379893 0.872187
O O1 0.623885 0.407641 0.588545
O O2 0.283618 0.526027 0.670931
O O3 0.366560 0.984104 0.279762
O O4 0.091211 0.443552 0.070235
O O5 0.504391 0.277414 0.911376
O O6 0.280458 0.168019 0.020330
O O7 0.771176 0.873177 0.410273
O O8 0.713801 0.134129 0.405285
O O9 0.079906 0.915563 0.254077
O O10 0.799620 0.265040 0.077245
O O11 0.728038 0.534717 0.582730
O O12 0.992237 0.700342 0.240464
O O13 0.584503 0.973031 0.297303
O O14 0.203064 0.312279 0.275763
O O15 0.130884 0.298102 0.844123
#
# Coordination Sequence:
#
# PCOD9080674 Si02
#       8
#     1   2   2   2   2   2   2   2
#     4  10  18  40  72 104 138 182 230 288 354 416
#     4   9  20  39  66  99 140 177 231 283 346 415
#     4  12  26  47  70 101 141 190 236 289 348 415
#     4  11  22  42  74 101 142 186 231 292 351 415
#     4  12  25  46  70 105 142 184 240 289 350 414
#     4  11  25  45  67 102 139 183 238 289 345 415
#     4  11  24  46  70 101 141 183 235 290 351 416
#     4   9  18  38  67  99 139 178 224 290 340 417
#
# _framework density 26.850238000000001
#
# number of rings (size 3 to 8) (size 9 to 14) (size 15 to 20)
#    0.000    1.333    2.667    2.800    3.733    0.533 
#    2.400    2.667    0.000    0.000    0.000    0.000 
#    0.000    0.000    0.000    0.000    0.000    0.000 
#
# Total GULP energy -83795.332595 kJ/mol
# GULP energy per Si atom -5586.355506 kJ/mol
# Density = 2.678913 g / cm^3
# Si number density = 26.850238 Si / 1000 Ang^3
#
#
#
# Elastic Constant Matrix: (Units=GPa)
#
#
# Indices 1 2 3 4 5 6 
#
# 1 143.9379 15.9497 38.3638 8.5279 16.6269 -1.1820
# 2 15.9497 85.6153 22.6289 17.9041 2.5065 -23.9301
# 3 38.3638 22.6289 154.2966 21.8313 -2.6423 -0.1310
# 4 8.5279 17.9041 21.8313 34.7497 -4.7110 1.0363
# 5 16.6269 2.5065 -2.6423 -4.7110 43.1628 -3.9147
# 6 -1.1820 -23.9301 -0.1310 1.0363 -3.9147 44.8225
#
#
#
# Elastic Compliance Matrix: (Units=1/GPa)
#
#
# Indices 1 2 3 4 5 6 
#
# 1 0.007941 -0.000898 -0.001787 -0.000788 -0.003251 -0.000541
# 2 -0.000898 0.016235 -0.001053 -0.007842 -0.000723 0.008759
# 3 -0.001787 -0.001053 0.007614 -0.003684 0.000774 -0.000434
# 4 -0.000788 -0.007842 -0.003684 0.036013 0.004038 -0.004698
# 5 -0.003251 -0.000723 0.000774 0.004038 0.025098 0.001629
# 6 -0.000541 0.008759 -0.000434 -0.004698 0.001629 0.027222
#
#
# Mechanical properties :
#
#
# Convention : Reuss Voigt Hill
#
# Bulk Modulus (GPa) = 41.13049 59.74829 50.43939
# Shear Modulus (GPa) = 36.84441 45.00750 40.92596
#
# Velocity S-wave (km/s) = 3.70837 4.09864 3.90838
# Velocity P-wave (km/s) = 5.80411 6.68574 6.26047
#
# Compressibility (1/GPa) = 0.02431287
#
# Stress axis : x y z
#
# Youngs Moduli (GPa) = 125.92572 61.59465 131.33588
#
# Poissons Ratio (x) = 0.05533 0.23475
# Poissons Ratio (y) = 0.11312 0.13830
# Poissons Ratio (z) = 0.22508 0.06486
#
# Static dielectric constant tensor:
#      x y z
#    x 1.951210 -0.056160 0.038840 
#    y -0.056160 1.971740 -0.011750 
#    z 0.038840 -0.011750 2.180510 
# 
# From -- ./inp_files/520611.got.cif
#   From: 2010.05.17/outbox.cif.g08.bks.cpg/sg2_261_cif.got.tgz:520611.got - 2010.06.03 11:33:40.
