data_PCOD9080011
_publ_section_title
;
Structure prediction by ZEFSAII (Michael W. Deem and Ramdas Pophale) SiO2 
 PCOD9080011
Probable space group: P -1
;
_chemical_formula_sum "Si O2"
_cell_formula_units_Z 14
_cell_length_a 18.214333
_cell_length_b 12.261977
_cell_length_c 9.229019
_cell_angle_alpha 54.474753
_cell_angle_beta 136.264114
_cell_angle_gamma 151.872236
_cell_volume 661.764340
_symmetry_space_group_name_H-M "P -1"
_symmetry_group_IT_number 2
_symmetry_cell_setting 'triclinic'
loop_
_space_group_symop_operation_xyz
x,y,z
-x,-y,-z
loop_
_atom_site_type_symbol
_atom_site_label
_atom_site_fract_x
_atom_site_fract_y
_atom_site_fract_z
Si Si1 0.646619 0.186229 0.846333
Si Si2 0.931827 0.236765 0.510907
Si Si3 0.266902 0.697127 0.788035
Si Si4 0.878288 0.184287 0.136709
Si Si5 0.250550 0.444636 0.368755
Si Si6 0.711402 0.728104 0.182203
Si Si7 0.936863 0.948482 0.785827
O O1 0.601248 0.281358 0.633880
O O2 0.470300 0.911595 0.845566
O O3 0.723324 0.307943 0.021030
O O4 0.780800 0.222257 0.926259
O O5 0.131881 0.453927 0.705035
O O6 0.814070 0.237602 0.404163
O O7 0.940155 0.264665 0.329441
O O8 0.852487 0.008438 0.600329
O O9 0.061201 0.335191 0.193858
O O10 0.748829 0.918332 0.144550
O O11 0.264665 0.356925 0.590459
O O12 0.216545 0.317606 0.278460
O O13 0.879542 0.874668 0.193318
O O14 0.500000 0.500000 0.000000
O O15 0.000000 0.000000 0.000000
#
# Coordination Sequence:
#
# PCOD9080011 Si02
#       7
#     2   2   2   2   2   2   2
#     4  10  21  37  61  93 124 158 206 257 308 360
#     4  10  18  38  61  84 119 172 199 244 313 369
#     4   9  21  36  58  89 129 157 204 254 304 373
#     4  10  20  39  64  86 120 167 204 246 314 374
#     4  11  21  42  61  94 125 163 206 259 307 376
#     4  11  24  42  63  93 126 164 214 261 308 372
#     4  11  22  39  66  91 123 166 211 250 317 376
#
# _framework density 21.155567000000001
#
# number of rings (size 3 to 8) (size 9 to 14) (size 15 to 20)
#    0.000    1.714    2.857    2.143    2.000    1.143 
#    2.571    7.143    0.000    0.000    0.000    0.000 
#    0.000    0.000    0.000    0.000    0.000    0.000 
#
# Total GULP energy -78120.228311 kJ/mol
# GULP energy per Si atom -5580.016308 kJ/mol
# Density = 2.110742 g / cm^3
# Si number density = 21.155567 Si / 1000 Ang^3
#
#
#
# Elastic Constant Matrix: (Units=GPa)
#
#
# Indices 1 2 3 4 5 6 
#
# 1 52.3264 16.0486 11.0902 -7.1607 4.6094 -19.1845
# 2 16.0486 64.3825 14.6653 -8.9802 11.1893 -16.1160
# 3 11.0902 14.6653 53.6317 -17.3658 -0.5113 -5.8648
# 4 -7.1607 -8.9802 -17.3658 42.7240 -8.1761 5.8214
# 5 4.6094 11.1893 -0.5113 -8.1761 25.8508 -10.2498
# 6 -19.1845 -16.1160 -5.8648 5.8214 -10.2498 24.6355
#
#
#
# Elastic Compliance Matrix: (Units=1/GPa)
#
#
# Indices 1 2 3 4 5 6 
#
# 1 0.027841 -0.001574 -0.002503 0.001255 0.004669 0.021701
# 2 -0.001574 0.019938 -0.004189 0.000088 -0.004937 0.008745
# 3 -0.002503 -0.004189 0.023505 0.009259 0.006161 0.001282
# 4 0.001255 0.000088 0.009259 0.029135 0.009210 0.000186
# 5 0.004669 -0.004937 0.006161 0.009210 0.051378 0.021073
# 6 0.021701 0.008745 0.001282 0.000186 0.021073 0.072241
#
#
# Mechanical properties :
#
#
# Convention : Reuss Voigt Hill
#
# Bulk Modulus (GPa) = 18.26384 28.21655 23.24019
# Shear Modulus (GPa) = 19.31844 27.21115 23.26480
#
# Velocity S-wave (km/s) = 3.02513 3.59031 3.31977
# Velocity P-wave (km/s) = 4.56659 5.52754 5.06989
#
# Compressibility (1/GPa) = 0.05475299
#
# Stress axis : x y z
#
# Youngs Moduli (GPa) = 35.91872 50.15549 42.54338
#
# Poissons Ratio (x) = 0.07895 0.10648
# Poissons Ratio (y) = 0.05654 0.17820
# Poissons Ratio (z) = 0.08990 0.21008
#
# Static dielectric constant tensor:
#      x y z
#    x 1.762920 0.024220 0.004040 
#    y 0.024220 1.828480 -0.009130 
#    z 0.004040 -0.009130 1.787360 
# 
# From -- ./inp_files/155350.got.cif
#   From: 2010.05.17/outbox.cif.g08.bks.cpg/sg2_78_cif.got.tgz:155350.got - 2010.06.03 11:33:40.
