data_PCOD9080014
_publ_section_title
;
Structure prediction by ZEFSAII (Michael W. Deem and Ramdas Pophale) SiO2 
 PCOD9080014
Probable space group: P -1
;
_chemical_formula_sum "Si O2"
_cell_formula_units_Z 16
_cell_length_a 11.895191
_cell_length_b 12.073937
_cell_length_c 17.127051
_cell_angle_alpha 41.153800
_cell_angle_beta 32.257320
_cell_angle_gamma 55.612649
_cell_volume 845.648033
_symmetry_space_group_name_H-M "P -1"
_symmetry_group_IT_number 2
_symmetry_cell_setting 'triclinic'
loop_
_space_group_symop_operation_xyz
x,y,z
-x,-y,-z
loop_
_atom_site_type_symbol
_atom_site_label
_atom_site_fract_x
_atom_site_fract_y
_atom_site_fract_z
Si Si1 0.359711 0.435112 0.442723
Si Si2 0.848796 0.606345 0.080702
Si Si3 0.025123 0.154823 0.563974
Si Si4 0.918768 0.467930 0.732559
Si Si5 0.214718 0.199278 0.134269
Si Si6 0.292972 0.710287 0.205620
Si Si7 0.580472 0.830705 0.564422
Si Si8 0.188985 0.573807 0.011914
O O1 0.604386 0.503551 0.289949
O O2 0.318714 0.551008 0.330751
O O3 0.337862 0.246341 0.521011
O O4 0.166853 0.450249 0.605287
O O5 0.978987 0.635534 0.069017
O O6 0.829579 0.763340 0.951353
O O7 0.000000 0.500000 0.000000
O O8 0.077766 0.331155 0.390831
O O9 0.234442 0.133874 0.499185
O O10 0.848089 0.184297 0.716778
O O11 0.932717 0.982536 0.661956
O O12 0.822066 0.365094 0.766448
O O13 0.790657 0.402624 0.920253
O O14 0.174955 0.370984 0.109578
O O15 0.463705 0.191603 0.003625
O O16 0.500000 0.000000 0.500000
O O17 0.389014 0.683820 0.789150
#
# Coordination Sequence:
#
# PCOD9080014 Si02
#       8
#     2   2   2   2   2   2   2   2
#     4  10  18  38  62  87 110 158 202 239 283 346
#     4   9  17  34  59  80 113 152 200 237 279 341
#     4  11  21  35  61  93 114 156 201 242 284 349
#     4  11  22  38  62  85 128 154 191 240 298 360
#     4  10  20  35  61  87 118 151 201 246 283 347
#     4  10  18  38  61  86 119 158 198 235 293 352
#     4  12  22  37  64  90 109 151 210 243 285 348
#     4  11  23  39  57  91 120 161 186 242 310 340
#
# _framework density 18.920400999999998
#
# number of rings (size 3 to 8) (size 9 to 14) (size 15 to 20)
#    0.000    1.500    6.250    1.875    1.750    3.000 
#    0.000    0.625    0.000    0.000    0.000    0.000 
#    0.000    0.000    0.000    0.000    0.000    0.000 
#
# Total GULP energy -89268.365289 kJ/mol
# GULP energy per Si atom -5579.272831 kJ/mol
# Density = 1.887734 g / cm^3
# Si number density = 18.920401 Si / 1000 Ang^3
#
#
#
# Elastic Constant Matrix: (Units=GPa)
#
#
# Indices 1 2 3 4 5 6 
#
# 1 56.3571 14.0358 24.8161 12.3039 -15.3117 -8.3910
# 2 14.0358 80.1498 21.5942 -7.5959 -5.3238 -16.2924
# 3 24.8161 21.5942 44.7878 -1.2331 -14.3952 -9.0310
# 4 12.3039 -7.5959 -1.2331 23.6183 -0.6865 -8.4524
# 5 -15.3117 -5.3238 -14.3952 -0.6865 31.1114 8.9598
# 6 -8.3910 -16.2924 -9.0310 -8.4524 8.9598 23.4251
#
#
#
# Elastic Compliance Matrix: (Units=1/GPa)
#
#
# Indices 1 2 3 4 5 6 
#
# 1 0.031365 -0.004979 -0.014189 -0.021777 0.010270 -0.009484
# 2 -0.004979 0.019021 -0.004436 0.014467 -0.005884 0.017206
# 3 -0.014189 -0.004436 0.036356 0.010524 0.007343 0.006838
# 4 -0.021777 0.014467 0.010524 0.071754 -0.012435 0.036965
# 5 0.010270 -0.005884 0.007343 -0.012435 0.044850 -0.019224
# 6 -0.009484 0.017206 0.006838 0.036965 -0.019224 0.074586
#
#
# Mechanical properties :
#
#
# Convention : Reuss Voigt Hill
#
# Bulk Modulus (GPa) = 25.29413 33.57633 29.43523
# Shear Modulus (GPa) = 14.77898 23.68754 19.23326
#
# Velocity S-wave (km/s) = 2.79787 3.54214 3.19177
# Velocity P-wave (km/s) = 4.88213 5.87483 5.40133
#
# Compressibility (1/GPa) = 0.03953486
#
# Stress axis : x y z
#
# Youngs Moduli (GPa) = 31.88315 52.57219 27.50547
#
# Poissons Ratio (x) = 0.26178 0.39027
# Poissons Ratio (y) = 0.15876 0.12200
# Poissons Ratio (z) = 0.45239 0.23319
#
# Static dielectric constant tensor:
#      x y z
#    x 1.663660 0.003170 -0.017050 
#    y 0.003170 1.662860 0.009780 
#    z -0.017050 0.009780 1.683860 
# 
# From -- ./inp_files/189284.got.cif
#   From: 2010.05.17/outbox.cif.g08.bks.cpg/sg2_95_cif.got.tgz:189284.got - 2010.06.03 11:33:40.
