data_PCOD9080580
_publ_section_title
;
Structure prediction by ZEFSAII (Michael W. Deem and Ramdas Pophale) SiO2 
 PCOD9080580
Probable space group: P -1
;
_chemical_formula_sum "Si O2"
_cell_formula_units_Z 15
_cell_length_a 13.287783
_cell_length_b 13.957471
_cell_length_c 7.584750
_cell_angle_alpha 86.909012
_cell_angle_beta 55.966496
_cell_angle_gamma 42.926162
_cell_volume 616.199887
_symmetry_space_group_name_H-M "P -1"
_symmetry_group_IT_number 2
_symmetry_cell_setting 'triclinic'
loop_
_space_group_symop_operation_xyz
x,y,z
-x,-y,-z
loop_
_atom_site_type_symbol
_atom_site_label
_atom_site_fract_x
_atom_site_fract_y
_atom_site_fract_z
Si Si1 0.991576 0.441017 0.798406
Si Si2 0.477261 0.265932 0.596035
Si Si3 0.840253 0.213547 0.827186
Si Si4 0.639568 0.478083 0.562093
Si Si5 0.821601 0.166972 0.440801
Si Si6 0.229005 0.095197 0.593702
Si Si7 0.963901 0.400322 0.436304
Si Si8 0.500000 0.000000 0.000000
O O1 0.905742 0.461512 0.689191
O O2 0.143531 0.252567 0.744674
O O3 0.114214 0.456758 0.619921
O O4 0.768585 0.606512 0.115188
O O5 0.435842 0.383871 0.499854
O O6 0.625491 0.216916 0.612727
O O7 0.631421 0.072531 0.404405
O O8 0.843261 0.189722 0.617596
O O9 0.008519 0.185342 0.726709
O O10 0.584423 0.403226 0.123116
O O11 0.947228 0.042908 0.819352
O O12 0.750933 0.308292 0.385040
O O13 0.833330 0.394864 0.501973
O O14 0.388390 0.018206 0.280488
O O15 0.237074 0.206690 0.177986
#
# Coordination Sequence:
#
# PCOD9080580 Si02
#       8
#     2   2   2   2   2   2   2   1
#     4  10  20  40  61  90 113 164 209 253 300 355
#     4  11  23  38  62  91 132 162 202 247 310 378
#     4  10  22  40  64  94 124 155 215 257 298 360
#     4  12  24  40  60  95 130 165 195 253 313 373
#     4  10  21  39  62  91 119 168 204 251 302 358
#     4  10  21  38  65  91 122 164 202 261 300 358
#     4  10  22  39  66  90 119 159 212 256 302 360
#     4  10  18  40  64  88 114 156 206 256 304 344
#
# _framework density 24.342751
#
# number of rings (size 3 to 8) (size 9 to 14) (size 15 to 20)
#    0.000    1.600    1.333    4.000    0.000    3.733 
#    7.200    0.667    0.000    0.000    0.000    0.000 
#    0.000    0.000    0.000    0.000    0.000    0.000 
#
# Total GULP energy -83656.762379 kJ/mol
# GULP energy per Si atom -5577.117492 kJ/mol
# Density = 2.428735 g / cm^3
# Si number density = 24.342751 Si / 1000 Ang^3
#
#
#
# Elastic Constant Matrix: (Units=GPa)
#
#
# Indices 1 2 3 4 5 6 
#
# 1 60.5306 18.0907 4.2499 8.9877 6.0690 13.7864
# 2 18.0907 168.9081 20.9805 26.1880 3.4917 29.6713
# 3 4.2499 20.9805 63.7201 20.9853 -9.1473 -0.4624
# 4 8.9877 26.1880 20.9853 34.4070 2.6029 5.5198
# 5 6.0690 3.4917 -9.1473 2.6029 10.7230 -2.0443
# 6 13.7864 29.6713 -0.4624 5.5198 -2.0443 31.4802
#
#
#
# Elastic Compliance Matrix: (Units=1/GPa)
#
#
# Indices 1 2 3 4 5 6 
#
# 1 0.020902 0.000586 -0.004044 -0.000383 -0.017442 -0.010831
# 2 0.000586 0.008159 -0.002643 -0.003039 -0.006000 -0.007842
# 3 -0.004044 -0.002643 0.027452 -0.017743 0.032762 0.009904
# 4 -0.000383 -0.003039 -0.017743 0.045391 -0.026262 -0.006893
# 5 -0.017442 -0.006000 0.032762 -0.026262 0.144702 0.027777
# 6 -0.010831 -0.007842 0.009904 -0.006893 0.027777 0.047059
#
#
# Mechanical properties :
#
#
# Convention : Reuss Voigt Hill
#
# Bulk Modulus (GPa) = 22.56735 42.20012 32.38373
# Shear Modulus (GPa) = 15.59403 31.97788 23.78596
#
# Velocity S-wave (km/s) = 2.53376 3.62836 3.12929
# Velocity P-wave (km/s) = 4.22501 5.90989 5.13700
#
# Compressibility (1/GPa) = 0.04431181
#
# Stress axis : x y z
#
# Youngs Moduli (GPa) = 47.84264 122.56883 36.42736
#
# Poissons Ratio (x) = -0.07184 0.14730
# Poissons Ratio (y) = -0.02804 0.09627
# Poissons Ratio (z) = 0.19346 0.32394
#
# Static dielectric constant tensor:
#      x y z
#    x 1.945110 -0.050460 0.004460 
#    y -0.050460 2.067950 -0.002310 
#    z 0.004460 -0.002310 1.839360 
# 
# From -- ./inp_files/296585.got.cif
#   From: 2010.05.17/outbox.cif.g08.bks.cpg/sg2_149_cif.got.tgz:296585.got - 2010.06.03 11:33:40.
