data_PCOD9080152
_publ_section_title
;
Structure prediction by ZEFSAII (Michael W. Deem and Ramdas Pophale) SiO2 
 PCOD9080152
Probable space group: P -1
;
_chemical_formula_sum "Si O2"
_cell_formula_units_Z 16
_cell_length_a 5.492676
_cell_length_b 22.135729
_cell_length_c 10.999310
_cell_angle_alpha 33.005493
_cell_angle_beta 126.140522
_cell_angle_gamma 121.406551
_cell_volume 587.228901
_symmetry_space_group_name_H-M "P -1"
_symmetry_group_IT_number 2
_symmetry_cell_setting 'triclinic'
loop_
_space_group_symop_operation_xyz
x,y,z
-x,-y,-z
loop_
_atom_site_type_symbol
_atom_site_label
_atom_site_fract_x
_atom_site_fract_y
_atom_site_fract_z
Si Si1 0.470766 0.041039 0.108872
Si Si2 0.973406 0.419578 0.243970
Si Si3 0.063758 0.827685 0.345593
Si Si4 0.617324 0.403037 0.564988
Si Si5 0.913656 0.195384 0.892951
Si Si6 0.857176 0.571917 0.156267
Si Si7 0.712650 0.103547 0.332232
Si Si8 0.333463 0.198579 0.239973
O O1 0.538674 0.106783 0.144778
O O2 0.349735 0.914709 0.307183
O O3 0.785967 0.067977 0.090575
O O4 0.229298 0.100077 0.853004
O O5 0.264677 0.408408 0.436506
O O6 0.920480 0.294486 0.391043
O O7 0.780907 0.484564 0.175248
O O8 0.000000 0.500000 0.000000
O O9 0.053395 0.799363 0.247797
O O10 0.698934 0.292487 0.703680
O O11 0.734363 0.513243 0.341520
O O12 0.789210 0.398332 0.752877
O O13 0.176919 0.215096 0.033414
O O14 0.700933 0.685978 0.896095
O O15 0.662953 0.179787 0.307505
O O16 0.068056 0.116613 0.369555
O O17 0.500000 0.000000 0.500000
#
# Coordination Sequence:
#
# PCOD9080152 Si02
#       8
#     2   2   2   2   2   2   2   2
#     4  10  22  37  64  93 122 175 223 280 331 421
#     4  12  26  42  64  98 143 180 221 292 362 429
#     4  11  21  40  62  89 129 171 228 270 346 416
#     4  10  21  40  67  95 128 173 233 282 348 408
#     4  10  18  38  64  94 124 166 228 293 333 403
#     4  10  23  41  68  96 126 179 233 287 336 417
#     4  11  23  43  65  97 140 172 223 290 355 416
#     4  10  23  39  68 101 129 177 229 288 352 413
#
# _framework density 27.246617000000001
#
# number of rings (size 3 to 8) (size 9 to 14) (size 15 to 20)
#    0.000    1.500    3.750    1.125    1.750    1.500 
#    0.000    0.000    0.000    0.000    0.000    0.000 
#    0.000    0.000    0.000    0.000    0.000    0.000 
#
# Total GULP energy -89181.143646 kJ/mol
# GULP energy per Si atom -5573.821478 kJ/mol
# Density = 2.718460 g / cm^3
# Si number density = 27.246617 Si / 1000 Ang^3
#
#
#
# Elastic Constant Matrix: (Units=GPa)
#
#
# Indices 1 2 3 4 5 6 
#
# 1 72.1417 33.6930 10.7100 8.8695 -7.1915 -7.5866
# 2 33.6930 120.4963 20.4379 -15.3154 17.9144 2.6606
# 3 10.7100 20.4379 86.5613 -26.5302 -29.4400 -0.6891
# 4 8.8695 -15.3154 -26.5302 56.3900 7.7606 8.0488
# 5 -7.1915 17.9144 -29.4400 7.7606 36.8812 -0.3305
# 6 -7.5866 2.6606 -0.6891 8.0488 -0.3305 46.7123
#
#
#
# Elastic Compliance Matrix: (Units=1/GPa)
#
#
# Indices 1 2 3 4 5 6 
#
# 1 0.019998 -0.008223 0.000730 -0.007132 0.010022 0.005027
# 2 -0.008223 0.014383 -0.005738 0.004913 -0.014233 -0.003187
# 3 0.000730 -0.005738 0.020760 0.005583 0.018326 -0.000081
# 4 -0.007132 0.004913 0.005583 0.024226 -0.004468 -0.005562
# 5 0.010022 -0.014233 0.018326 -0.004468 0.051584 0.003844
# 6 0.005027 -0.003187 -0.000081 -0.005562 0.003844 0.023390
#
#
# Mechanical properties :
#
#
# Convention : Reuss Voigt Hill
#
# Bulk Modulus (GPa) = 34.87019 45.43123 40.15071
# Shear Modulus (GPa) = 26.26542 42.28725 34.27634
#
# Velocity S-wave (km/s) = 3.10818 3.94384 3.55068
# Velocity P-wave (km/s) = 5.07019 6.11954 5.61941
#
# Compressibility (1/GPa) = 0.02867779
#
# Stress axis : x y z
#
# Youngs Moduli (GPa) = 50.00380 69.52857 48.16856
#
# Poissons Ratio (x) = 0.57176 -0.03516
# Poissons Ratio (y) = 0.41120 0.27641
# Poissons Ratio (z) = -0.03650 0.39898
#
# Static dielectric constant tensor:
#      x y z
#    x 2.367810 0.038850 0.107030 
#    y 0.038850 2.259550 -0.086060 
#    z 0.107030 -0.086060 2.273630 
# 
# From -- ./inp_files/371031.got.cif
#   From: 2010.05.17/outbox.cif.g08.bks.cpg/sg2_186_cif.got.tgz:371031.got - 2010.06.03 11:33:40.
