data_PCOD9080599
_publ_section_title
;
Structure prediction by ZEFSAII (Michael W. Deem and Ramdas Pophale) SiO2 
 PCOD9080599
Probable space group: P -1
;
_chemical_formula_sum "Si O2"
_cell_formula_units_Z 14
_cell_length_a 11.539624
_cell_length_b 9.263525
_cell_length_c 9.946012
_cell_angle_alpha 54.765148
_cell_angle_beta 134.749041
_cell_angle_gamma 94.945062
_cell_volume 514.446617
_symmetry_space_group_name_H-M "P -1"
_symmetry_group_IT_number 2
_symmetry_cell_setting 'triclinic'
loop_
_space_group_symop_operation_xyz
x,y,z
-x,-y,-z
loop_
_atom_site_type_symbol
_atom_site_label
_atom_site_fract_x
_atom_site_fract_y
_atom_site_fract_z
Si Si1 0.412792 0.756572 0.888817
Si Si2 0.754351 0.745866 0.905660
Si Si3 0.680022 0.752482 0.322984
Si Si4 0.257503 0.656616 0.483895
Si Si5 0.942612 0.269931 0.311798
Si Si6 0.543412 0.171365 0.621788
Si Si7 0.885512 0.941954 0.705897
O O1 0.197749 0.804393 0.719408
O O2 0.339629 0.906593 0.616815
O O3 0.512197 0.840378 0.024799
O O4 0.564426 0.503738 0.179658
O O5 0.594286 0.784485 0.642158
O O6 0.687818 0.917199 0.876130
O O7 0.889924 0.791168 0.902643
O O8 0.831358 0.511486 0.138197
O O9 0.805720 0.500473 0.523457
O O10 0.580609 0.756221 0.382026
O O11 0.837864 0.815158 0.416968
O O12 0.343838 0.717922 0.395312
O O13 0.099183 0.874965 0.310980
O O14 0.968764 0.216928 0.202747
#
# Coordination Sequence:
#
# PCOD9080599 Si02
#       7
#     2   2   2   2   2   2   2
#     4  10  24  43  67  91 136 171 212 260 325 384
#     4  10  21  37  68  99 121 172 220 260 322 377
#     4  10  23  40  67  99 128 165 217 267 320 377
#     4   9  21  41  66  94 127 171 214 260 323 378
#     4  12  23  42  67  96 131 169 216 268 316 381
#     4  10  18  40  65  96 129 164 219 265 317 382
#     4  11  22  41  68  93 132 175 210 261 328 383
#
# _framework density 27.213709999999999
#
# number of rings (size 3 to 8) (size 9 to 14) (size 15 to 20)
#    0.857    0.857    2.857    1.714    0.000    0.571 
#    2.571    2.143    0.000    0.000    0.000    0.000 
#    0.000    0.000    0.000    0.000    0.000    0.000 
#
# Total GULP energy -78158.663574 kJ/mol
# GULP energy per Si atom -5582.761684 kJ/mol
# Density = 2.715177 g / cm^3
# Si number density = 27.213710 Si / 1000 Ang^3
#
#
#
# Elastic Constant Matrix: (Units=GPa)
#
#
# Indices 1 2 3 4 5 6 
#
# 1 100.4637 32.1678 17.6789 17.3951 -10.1254 19.8191
# 2 32.1678 114.7845 30.1104 -1.7130 1.5891 29.3754
# 3 17.6789 30.1104 107.6688 15.8232 -7.1604 22.0644
# 4 17.3951 -1.7130 15.8232 39.7720 -0.5461 -4.1068
# 5 -10.1254 1.5891 -7.1604 -0.5461 22.7098 4.4738
# 6 19.8191 29.3754 22.0644 -4.1068 4.4738 38.1527
#
#
#
# Elastic Compliance Matrix: (Units=1/GPa)
#
#
# Indices 1 2 3 4 5 6 
#
# 1 0.014338 -0.002591 0.001807 -0.007846 0.008600 -0.008351
# 2 -0.002591 0.011541 -0.001894 0.001736 -0.001316 -0.006104
# 3 0.001807 -0.001894 0.012610 -0.006652 0.006377 -0.008237
# 4 -0.007846 0.001736 -0.006652 0.032324 -0.007086 0.010897
# 5 0.008600 -0.001316 0.006377 -0.007086 0.052573 -0.014070
# 6 -0.008351 -0.006104 -0.008237 0.010897 -0.014070 0.042834
#
#
# Mechanical properties :
#
#
# Convention : Reuss Voigt Hill
#
# Bulk Modulus (GPa) = 30.18121 53.64792 41.91456
# Shear Modulus (GPa) = 27.37905 36.32424 31.85164
#
# Velocity S-wave (km/s) = 3.17531 3.65742 3.42486
# Velocity P-wave (km/s) = 4.95560 6.13123 5.57450
#
# Compressibility (1/GPa) = 0.03313320
#
# Stress axis : x y z
#
# Youngs Moduli (GPa) = 69.74293 86.64716 79.30006
#
# Poissons Ratio (x) = 0.22451 -0.14327
# Poissons Ratio (y) = 0.18071 0.15018
# Poissons Ratio (z) = -0.12601 0.16410
#
# Static dielectric constant tensor:
#      x y z
#    x 2.136050 -0.030840 0.041520 
#    y -0.030840 2.234720 -0.067770 
#    z 0.041520 -0.067770 2.205770 
# 
# From -- ./inp_files/155436.got.cif
#   From: 2010.05.17/outbox.cif.g08.bks.cpg/sg2_78_cif.got.tgz:155436.got - 2010.06.03 11:33:40.
