data_PCOD9081255
_publ_section_title
;
Structure prediction by ZEFSAII (Michael W. Deem and Ramdas Pophale) SiO2 
 PCOD9081255
Probable space group: P -1
;
_chemical_formula_sum "Si O2"
_cell_formula_units_Z 16
_cell_length_a 12.498920
_cell_length_b 9.494245
_cell_length_c 11.504019
_cell_angle_alpha 90.592902
_cell_angle_beta 135.034337
_cell_angle_gamma 57.237736
_cell_volume 632.068354
_symmetry_space_group_name_H-M "P -1"
_symmetry_group_IT_number 2
_symmetry_cell_setting 'triclinic'
loop_
_space_group_symop_operation_xyz
x,y,z
-x,-y,-z
loop_
_atom_site_type_symbol
_atom_site_label
_atom_site_fract_x
_atom_site_fract_y
_atom_site_fract_z
Si Si1 0.860944 0.873161 0.570099
Si Si2 0.753773 0.649072 0.393532
Si Si3 0.365015 0.803309 0.258124
Si Si4 0.981227 0.191934 0.554791
Si Si5 0.043802 0.248633 0.101019
Si Si6 0.381833 0.273432 0.319089
Si Si7 0.520058 0.513119 0.819870
Si Si8 0.483819 0.736794 0.995362
O O1 0.592040 0.097504 0.390085
O O2 0.861918 0.712358 0.526539
O O3 0.994422 0.852958 0.566098
O O4 0.978052 0.795809 0.785284
O O5 0.529369 0.775349 0.298709
O O6 0.919649 0.398402 0.530479
O O7 0.657109 0.723931 0.188799
O O8 0.495547 0.728828 0.481086
O O9 0.360151 0.650410 0.198418
O O10 0.129441 0.057410 0.087816
O O11 0.749425 0.281304 0.424043
O O12 0.227330 0.978340 0.792582
O O13 0.254906 0.217062 0.261190
O O14 0.821697 0.489858 0.889828
O O15 0.566869 0.618498 0.934337
O O16 0.518965 0.391397 0.917027
#
# Coordination Sequence:
#
# PCOD9081255 Si02
#       8
#     2   2   2   2   2   2   2   2
#     4  11  20  35  48  78 118 139 162 212 256 316
#     4  10  20  33  51  79 112 137 170 210 255 308
#     4   9  16  32  51  76 104 127 171 224 257 294
#     4  10  21  32  54  75 108 145 169 202 265 316
#     4  10  19  32  52  73 105 139 177 211 255 306
#     4  10  19  31  53  75 101 143 176 208 256 310
#     4   9  20  36  56  78 105 131 175 226 255 295
#     4   9  19  36  53  77 103 137 180 215 250 302
#
# _framework density 25.313718000000001
#
# number of rings (size 3 to 8) (size 9 to 14) (size 15 to 20)
#    0.000    2.500    2.500    1.500    0.000    7.500 
#    0.000    0.000    0.000    3.000    0.000   57.750 
#    0.000    0.000    0.000    0.000    0.000    0.000 
#
# Total GULP energy -89490.263297 kJ/mol
# GULP energy per Si atom -5593.141456 kJ/mol
# Density = 2.525610 g / cm^3
# Si number density = 25.313718 Si / 1000 Ang^3
#
#
#
# Elastic Constant Matrix: (Units=GPa)
#
#
# Indices 1 2 3 4 5 6 
#
# 1 58.4100 9.7955 -8.7272 -4.3191 9.8945 -13.1711
# 2 9.7955 183.9200 44.0922 -16.3948 15.7596 -17.9934
# 3 -8.7272 44.0922 100.7253 -38.5606 11.1739 -4.2270
# 4 -4.3191 -16.3948 -38.5606 49.4250 -11.8576 18.3926
# 5 9.8945 15.7596 11.1739 -11.8576 26.8841 -5.3965
# 6 -13.1711 -17.9934 -4.2270 18.3926 -5.3965 40.3355
#
#
#
# Elastic Compliance Matrix: (Units=1/GPa)
#
#
# Indices 1 2 3 4 5 6 
#
# 1 0.020181 -0.000651 0.003140 0.000208 -0.007139 0.005578
# 2 -0.000651 0.006609 -0.003410 -0.002296 -0.002613 0.003076
# 3 0.003140 -0.003410 0.016992 0.014117 -0.001055 -0.005294
# 4 0.000208 -0.002296 0.014117 0.038621 0.009255 -0.015850
# 5 -0.007139 -0.002613 -0.001055 0.009255 0.045528 -0.001736
# 6 0.005578 0.003076 -0.005294 -0.015850 -0.001736 0.034426
#
#
# Mechanical properties :
#
#
# Convention : Reuss Voigt Hill
#
# Bulk Modulus (GPa) = 23.84410 48.15292 35.99851
# Shear Modulus (GPa) = 28.06130 43.18858 35.62494
#
# Velocity S-wave (km/s) = 3.33309 4.13502 3.75552
# Velocity P-wave (km/s) = 4.92469 6.47005 5.74953
#
# Compressibility (1/GPa) = 0.04193909
#
# Stress axis : x y z
#
# Youngs Moduli (GPa) = 49.55080 151.29911 58.85151
#
# Poissons Ratio (x) = 0.09857 -0.18477
# Poissons Ratio (y) = 0.03228 0.20068
# Poissons Ratio (z) = -0.15557 0.51591
#
# Static dielectric constant tensor:
#      x y z
#    x 2.118780 0.011230 0.012060 
#    y 0.011230 1.990950 0.003490 
#    z 0.012060 0.003490 2.012470 
# 
# From -- ./inp_files/463866.got.cif
#   From: 2010.05.17/outbox.cif.g08.bks.cpg/sg2_232_cif.got.tgz:463866.got - 2010.06.03 11:33:40.
