data_PCOD9081016
_publ_section_title
;
Structure prediction by ZEFSAII (Michael W. Deem and Ramdas Pophale) SiO2 
 PCOD9081016
Probable space group: P -1
;
_chemical_formula_sum "Si O2"
_cell_formula_units_Z 16
_cell_length_a 10.680996
_cell_length_b 5.165313
_cell_length_c 17.297460
_cell_angle_alpha 116.676532
_cell_angle_beta 111.699904
_cell_angle_gamma 86.555081
_cell_volume 785.827909
_symmetry_space_group_name_H-M "P -1"
_symmetry_group_IT_number 2
_symmetry_cell_setting 'triclinic'
loop_
_space_group_symop_operation_xyz
x,y,z
-x,-y,-z
loop_
_atom_site_type_symbol
_atom_site_label
_atom_site_fract_x
_atom_site_fract_y
_atom_site_fract_z
Si Si1 0.211782 0.190425 0.620057
Si Si2 0.546548 0.413031 0.082644
Si Si3 0.746626 0.261082 0.825004
Si Si4 0.991721 0.081268 0.760604
Si Si5 0.058539 0.210477 0.445891
Si Si6 0.828888 0.373390 0.203103
Si Si7 0.360984 0.153936 0.130668
Si Si8 0.465789 0.023249 0.734032
O O1 0.194604 0.202884 0.525858
O O2 0.219310 0.497772 0.708625
O O3 0.329789 0.007355 0.651485
O O4 0.064630 0.035390 0.592077
O O5 0.697763 0.333529 0.113739
O O6 0.440216 0.176385 0.071165
O O7 0.548731 0.710228 0.174160
O O8 0.500000 0.500000 0.000000
O O9 0.876744 0.156007 0.802699
O O10 0.720410 0.137200 0.889914
O O11 0.605576 0.120323 0.732650
O O12 0.740268 0.603452 0.863553
O O13 0.927494 0.849960 0.649591
O O14 0.107132 0.920091 0.805849
O O15 0.061474 0.379327 0.776729
O O16 0.000000 0.500000 0.500000
O O17 0.484657 0.223704 0.231812
#
# Coordination Sequence:
#
# PCOD9081016 Si02
#       8
#     2   2   2   2   2   2   2   2
#     4   9  18  34  49  81 113 143 186 228 288 336
#     4  10  21  37  61  93 116 137 181 237 293 334
#     4   9  19  36  58  79 105 156 199 219 266 330
#     4  11  21  37  58  82 116 149 196 226 270 341
#     4  10  19  30  52  81 115 146 178 240 287 321
#     4  10  22  34  58  85 113 149 178 234 288 335
#     4   9  19  36  58  80 106 151 186 227 274 328
#     4   8  19  35  57  80 108 152 184 228 272 338
#
# _framework density 20.360690000000002
#
# number of rings (size 3 to 8) (size 9 to 14) (size 15 to 20)
#    0.750    1.750    1.250    0.750    5.250    1.500 
#    0.000    0.625    0.000   12.000    0.000    0.000 
#    0.000    0.000    0.000    0.000    0.000    0.000 
#
# Total GULP energy -89094.566232 kJ/mol
# GULP energy per Si atom -5568.410389 kJ/mol
# Density = 2.031435 g / cm^3
# Si number density = 20.360690 Si / 1000 Ang^3
#
#
#
# Elastic Constant Matrix: (Units=GPa)
#
#
# Indices 1 2 3 4 5 6 
#
# 1 48.7726 -2.3376 14.4287 -1.0644 -10.7465 -10.5278
# 2 -2.3376 83.0435 5.5021 -9.5148 -6.1415 -5.6333
# 3 14.4287 5.5021 60.1074 -13.4655 9.2368 -4.0830
# 4 -1.0644 -9.5148 -13.4655 22.8321 -2.0903 1.2298
# 5 -10.7465 -6.1415 9.2368 -2.0903 22.5378 -1.2374
# 6 -10.5278 -5.6333 -4.0830 1.2298 -1.2374 28.8840
#
#
#
# Elastic Compliance Matrix: (Units=1/GPa)
#
#
# Indices 1 2 3 4 5 6 
#
# 1 0.030672 0.003604 -0.010498 -0.002008 0.020347 0.011356
# 2 0.003604 0.013622 -0.001729 0.005246 0.006834 0.003795
# 3 -0.010498 -0.001729 0.024022 0.011746 -0.014336 -0.001882
# 4 -0.002008 0.005246 0.011746 0.052883 0.000548 -0.000277
# 5 0.020347 0.006834 -0.014336 0.000548 0.062375 0.009372
# 6 0.011356 0.003795 -0.001882 -0.000277 0.009372 0.039648
#
#
# Mechanical properties :
#
#
# Convention : Reuss Voigt Hill
#
# Bulk Modulus (GPa) = 19.58117 25.23441 22.40779
# Shear Modulus (GPa) = 19.41817 26.47279 22.94548
#
# Velocity S-wave (km/s) = 3.09157 3.60973 3.36065
# Velocity P-wave (km/s) = 4.73093 5.45840 5.10763
#
# Compressibility (1/GPa) = 0.05106947
#
# Stress axis : x y z
#
# Youngs Moduli (GPa) = 32.60263 73.41153 41.62904
#
# Poissons Ratio (x) = -0.26457 0.43702
# Poissons Ratio (y) = -0.11750 0.07198
# Poissons Ratio (z) = 0.34226 0.12694
#
# Static dielectric constant tensor:
#      x y z
#    x 1.732570 0.040770 0.030920 
#    y 0.040770 1.822420 0.017410 
#    z 0.030920 0.017410 1.792940 
# 
# From -- ./inp_files/93209.got.cif
#   From: 2010.05.17/outbox.cif.g08.bks.cpg/sg2_47_cif.got.tgz:93209.got - 2010.06.03 11:33:40.
