data_PCOD9081544
_publ_section_title
;
Structure prediction by ZEFSAII (Michael W. Deem and Ramdas Pophale) SiO2 
 PCOD9081544
Probable space group: P -1
;
_chemical_formula_sum "Si O2"
_cell_formula_units_Z 15
_cell_length_a 20.576774
_cell_length_b 5.007721
_cell_length_c 11.652740
_cell_angle_alpha 66.842451
_cell_angle_beta 138.936686
_cell_angle_gamma 103.741448
_cell_volume 721.733616
_symmetry_space_group_name_H-M "P -1"
_symmetry_group_IT_number 2
_symmetry_cell_setting 'triclinic'
loop_
_space_group_symop_operation_xyz
x,y,z
-x,-y,-z
loop_
_atom_site_type_symbol
_atom_site_label
_atom_site_fract_x
_atom_site_fract_y
_atom_site_fract_z
Si Si1 0.812605 0.156849 0.912171
Si Si2 0.416268 0.631663 0.011774
Si Si3 0.660265 0.908218 0.611468
Si Si4 0.229131 0.298217 0.409728
Si Si5 0.500000 0.000000 0.500000
Si Si6 0.367295 0.306465 0.788419
Si Si7 0.628302 0.326832 0.788217
Si Si8 0.018512 0.162722 0.115532
O O1 0.795480 0.427642 0.754544
O O2 0.740851 0.232108 0.911352
O O3 0.764055 0.909205 0.816292
O O4 0.930034 0.093998 0.094917
O O5 0.363621 0.414667 0.895935
O O6 0.383600 0.957415 0.867980
O O7 0.534470 0.579722 0.155914
O O8 0.386299 0.632100 0.104053
O O9 0.681863 0.878810 0.513108
O O10 0.602255 0.659847 0.644100
O O11 0.583740 0.170816 0.506786
O O12 0.270515 0.395802 0.568265
O O13 0.131706 0.124610 0.315881
O O14 0.561611 0.089414 0.687812
O O15 0.000000 0.500000 0.000000
O O16 0.000000 0.000000 0.000000
#
# Coordination Sequence:
#
# PCOD9081544 Si02
#       8
#     2   2   2   2   1   2   2   2
#     4   9  20  34  55  88 113 146 180 232 297 344
#     4  10  23  41  57  78 113 150 197 233 272 330
#     4  10  19  32  51  82 111 146 177 228 287 341
#     4  10  20  35  58  82 117 143 191 235 280 345
#     4  10  20  30  50  80 110 136 186 224 288 332
#     4  10  23  39  59  81 106 156 194 233 275 322
#     4  10  21  36  54  79 111 151 182 237 283 345
#     4  10  19  34  56  85 119 147 178 232 293 341
#
# _framework density 20.783290000000001
#
# number of rings (size 3 to 8) (size 9 to 14) (size 15 to 20)
#    0.000    2.133    1.333    1.200    5.600    2.133 
#    7.200    0.000    0.000    1.600    0.000    0.000 
#    0.000    0.000    0.000    0.000    0.000    0.000 
#
# Total GULP energy -83532.474668 kJ/mol
# GULP energy per Si atom -5568.831645 kJ/mol
# Density = 2.073599 g / cm^3
# Si number density = 20.783290 Si / 1000 Ang^3
#
#
#
# Elastic Constant Matrix: (Units=GPa)
#
#
# Indices 1 2 3 4 5 6 
#
# 1 133.6034 -1.0890 67.3923 22.1865 5.8622 -0.8064
# 2 -1.0890 57.9091 21.3685 21.8797 -2.3976 -7.9847
# 3 67.3923 21.3685 100.1385 33.9137 -2.7533 -1.5046
# 4 22.1865 21.8797 33.9137 35.1585 3.1028 -2.2657
# 5 5.8622 -2.3976 -2.7533 3.1028 30.3337 12.1183
# 6 -0.8064 -7.9847 -1.5046 -2.2657 12.1183 27.1489
#
#
#
# Elastic Compliance Matrix: (Units=1/GPa)
#
#
# Indices 1 2 3 4 5 6 
#
# 1 0.012391 0.004250 -0.008819 -0.001449 -0.003790 0.002700
# 2 0.004250 0.024921 -0.003060 -0.014845 -0.000033 0.006062
# 3 -0.008819 -0.003060 0.021449 -0.014050 0.006455 -0.004027
# 4 -0.001449 -0.014845 -0.014050 0.053139 -0.008888 0.003214
# 5 -0.003790 -0.000033 0.006455 -0.008888 0.043075 -0.019733
# 6 0.002700 0.006062 -0.004027 0.003214 -0.019733 0.047550
#
#
# Mechanical properties :
#
#
# Convention : Reuss Voigt Hill
#
# Bulk Modulus (GPa) = 22.98684 51.88830 37.43757
# Shear Modulus (GPa) = 21.52526 32.12682 26.82604
#
# Velocity S-wave (km/s) = 3.22172 3.93593 3.59660
# Velocity P-wave (km/s) = 4.99235 6.75840 5.94136
#
# Compressibility (1/GPa) = 0.04350315
#
# Stress axis : x y z
#
# Youngs Moduli (GPa) = 80.70284 40.12675 46.62139
#
# Poissons Ratio (x) = -0.17054 0.41115
# Poissons Ratio (y) = -0.34299 0.14268
# Poissons Ratio (z) = 0.71171 0.12280
#
# Static dielectric constant tensor:
#      x y z
#    x 1.333310 0.521800 -0.125660 
#    y 0.521800 1.216600 0.191560 
#    z -0.125660 0.191560 1.701620 
# 
# From -- ./inp_files/78668.got.cif
#   From: 2010.05.17/outbox.cif.g08.bks.cpg/sg2_40_cif.got.tgz:78668.got - 2010.06.03 11:33:40.
