data_PCOD9081223
_publ_section_title
;
Structure prediction by ZEFSAII (Michael W. Deem and Ramdas Pophale) SiO2 
 PCOD9081223
Probable space group: P -1
;
_chemical_formula_sum "Si O2"
_cell_formula_units_Z 14
_cell_length_a 11.036911
_cell_length_b 13.605649
_cell_length_c 14.588984
_cell_angle_alpha 149.985516
_cell_angle_beta 39.587015
_cell_angle_gamma 133.100358
_cell_volume 697.454479
_symmetry_space_group_name_H-M "P -1"
_symmetry_group_IT_number 2
_symmetry_cell_setting 'triclinic'
loop_
_space_group_symop_operation_xyz
x,y,z
-x,-y,-z
loop_
_atom_site_type_symbol
_atom_site_label
_atom_site_fract_x
_atom_site_fract_y
_atom_site_fract_z
Si Si1 0.000457 0.238208 0.682143
Si Si2 0.707327 0.487507 0.153089
Si Si3 0.837209 0.784712 0.626024
Si Si4 0.276855 0.538588 0.411584
Si Si5 0.103859 0.918130 0.018965
Si Si6 0.438223 0.710168 0.742854
Si Si7 0.084387 0.258442 0.165674
O O1 0.157134 0.338461 0.741578
O O2 0.053201 0.281935 0.580802
O O3 0.000000 0.000000 0.500000
O O4 0.813587 0.355940 0.911211
O O5 0.503303 0.566631 0.307394
O O6 0.663646 0.336685 0.140099
O O7 0.787434 0.615519 0.593714
O O8 0.631117 0.840139 0.752144
O O9 0.935783 0.964291 0.770028
O O10 0.211633 0.443373 0.275865
O O11 0.133827 0.710439 0.649975
O O12 0.151147 0.078969 0.042500
O O13 0.289098 0.799063 0.833971
O O14 0.933188 0.785526 0.966875
O O15 0.500000 0.500000 0.500000
#
# Coordination Sequence:
#
# PCOD9081223 Si02
#       7
#     2   2   2   2   2   2   2
#     4  11  23  38  54  90 122 156 189 230 305 358
#     4  10  22  39  60  86 120 154 187 241 301 345
#     4  10  20  34  58  86 115 147 188 241 293 346
#     4   9  19  39  60  86 112 148 196 239 289 338
#     4  10  19  31  51  88 120 143 183 237 290 343
#     4  11  19  34  58  89 114 146 187 239 299 347
#     4   9  19  33  56  86 117 149 187 240 287 337
#
# _framework density 20.072994999999999
#
# number of rings (size 3 to 8) (size 9 to 14) (size 15 to 20)
#    0.000    2.000    1.429    3.000    0.000    2.286 
#    2.571    0.000    0.000    8.571    0.000    0.000 
#    0.000    0.000    0.000    0.000    0.000    0.000 
#
# Total GULP energy -78076.972311 kJ/mol
# GULP energy per Si atom -5576.926594 kJ/mol
# Density = 2.002731 g / cm^3
# Si number density = 20.072995 Si / 1000 Ang^3
#
#
#
# Elastic Constant Matrix: (Units=GPa)
#
#
# Indices 1 2 3 4 5 6 
#
# 1 123.5536 15.6440 50.9143 0.2878 2.1104 5.2180
# 2 15.6440 35.3979 35.1641 -6.0951 2.8021 7.7781
# 3 50.9143 35.1641 125.8015 -1.4040 9.3626 2.3471
# 4 0.2878 -6.0951 -1.4040 29.1888 -2.1160 1.4201
# 5 2.1104 2.8021 9.3626 -2.1160 48.8816 6.0212
# 6 5.2180 7.7781 2.3471 1.4201 6.0212 22.3247
#
#
#
# Elastic Compliance Matrix: (Units=1/GPa)
#
#
# Indices 1 2 3 4 5 6 
#
# 1 0.009808 -0.000018 -0.003972 -0.000152 0.000580 -0.002015
# 2 -0.000018 0.045700 -0.012522 0.009866 0.002154 -0.015810
# 3 -0.003972 -0.012522 0.013114 -0.002339 -0.002301 0.004682
# 4 -0.000152 0.009866 -0.002339 0.036666 0.002226 -0.006089
# 5 0.000580 0.002154 -0.002301 0.002226 0.021663 -0.006628
# 6 -0.002015 -0.015810 0.004682 -0.006089 -0.006628 0.052456
#
#
# Mechanical properties :
#
#
# Convention : Reuss Voigt Hill
#
# Bulk Modulus (GPa) = 28.09113 54.24420 41.16766
# Shear Modulus (GPa) = 22.29189 32.28108 27.28648
#
# Velocity S-wave (km/s) = 3.33609 4.01457 3.69095
# Velocity P-wave (km/s) = 5.37254 6.96930 6.22235
#
# Compressibility (1/GPa) = 0.03559842
#
# Stress axis : x y z
#
# Youngs Moduli (GPa) = 101.95545 21.88196 76.25254
#
# Poissons Ratio (x) = 0.00040 0.30285
# Poissons Ratio (y) = 0.00188 0.95482
# Poissons Ratio (z) = 0.40493 0.27400
#
# Static dielectric constant tensor:
#      x y z
#    x 1.750500 0.017540 0.040030 
#    y 0.017540 1.732590 0.052530 
#    z 0.040030 0.052530 1.792390 
# 
# From -- ./inp_files/521857.got.cif
#   From: 2010.05.17/outbox.cif.g08.bks.cpg/sg2_261_cif.got.tgz:521857.got - 2010.06.03 11:33:40.
