data_PCOD9081380
_publ_section_title
;
Structure prediction by ZEFSAII (Michael W. Deem and Ramdas Pophale) SiO2 
 PCOD9081380
Probable space group: P -1
;
_chemical_formula_sum "Si O2"
_cell_formula_units_Z 16
_cell_length_a 11.882994
_cell_length_b 9.218209
_cell_length_c 7.163230
_cell_angle_alpha 65.013114
_cell_angle_beta 96.493235
_cell_angle_gamma 100.091932
_cell_volume 699.543619
_symmetry_space_group_name_H-M "P -1"
_symmetry_group_IT_number 2
_symmetry_cell_setting 'triclinic'
loop_
_space_group_symop_operation_xyz
x,y,z
-x,-y,-z
loop_
_atom_site_type_symbol
_atom_site_label
_atom_site_fract_x
_atom_site_fract_y
_atom_site_fract_z
Si Si1 0.046678 0.510224 0.714267
Si Si2 0.348213 0.459274 0.173072
Si Si3 0.791030 0.879464 0.722556
Si Si4 0.170456 0.684469 0.111195
Si Si5 0.795375 0.752227 0.192744
Si Si6 0.954167 0.029998 0.185062
Si Si7 0.237378 0.771332 0.500859
Si Si8 0.601529 0.489212 0.283125
O O1 0.123194 0.366040 0.821656
O O2 0.135193 0.672525 0.657617
O O3 0.000000 0.500000 0.500000
O O4 0.932804 0.465430 0.835722
O O5 0.268147 0.288913 0.281194
O O6 0.281965 0.611157 0.112301
O O7 0.467132 0.475736 0.298190
O O8 0.379068 0.465788 0.956070
O O9 0.929123 0.919161 0.708213
O O10 0.743168 0.039588 0.556193
O O11 0.764853 0.860083 0.953273
O O12 0.191116 0.745453 0.294554
O O13 0.125205 0.831249 0.918589
O O14 0.687231 0.634218 0.315992
O O15 0.871596 0.862539 0.296781
O O16 0.000000 0.000000 0.000000
O O17 0.346176 0.676464 0.586699
#
# Coordination Sequence:
#
# PCOD9081380 Si02
#       8
#     2   2   2   2   2   2   2   2
#     4   9  16  28  50  83 111 135 173 224 279 322
#     4  10  23  39  58  77 116 154 191 224 278 342
#     4  10  18  33  56  83 111 154 179 216 291 346
#     4  11  19  33  59  90 109 143 193 234 270 332
#     4   9  15  31  56  78 104 146 188 218 265 339
#     4  10  15  29  55  87 111 136 185 225 272 338
#     4  10  19  34  62  81 107 146 195 231 273 329
#     4   9  21  41  58  77 111 157 190 226 284 330
#
# _framework density 22.872055
#
# number of rings (size 3 to 8) (size 9 to 14) (size 15 to 20)
#    0.000    2.250    5.000    0.750    0.000    1.500 
#    0.000    1.250    8.250    0.000    0.000    0.000 
#    0.000    0.000    0.000    0.000    0.000    0.000 
#
# Total GULP energy -89423.718403 kJ/mol
# GULP energy per Si atom -5588.982400 kJ/mol
# Density = 2.282000 g / cm^3
# Si number density = 22.872055 Si / 1000 Ang^3
#
#
#
# Elastic Constant Matrix: (Units=GPa)
#
#
# Indices 1 2 3 4 5 6 
#
# 1 161.5440 63.6261 30.6787 -22.6776 24.8261 12.8447
# 2 63.6261 120.2414 40.6766 -20.5363 7.4588 8.8588
# 3 30.6787 40.6766 56.7397 -18.4129 12.1593 0.1143
# 4 -22.6776 -20.5363 -18.4129 49.6004 -4.3736 4.1470
# 5 24.8261 7.4588 12.1593 -4.3736 32.7397 0.7533
# 6 12.8447 8.8588 0.1143 4.1470 0.7533 24.1320
#
#
#
# Elastic Compliance Matrix: (Units=1/GPa)
#
#
# Indices 1 2 3 4 5 6 
#
# 1 0.009219 -0.003738 -0.000326 0.002366 -0.005615 -0.003764
# 2 -0.003738 0.013148 -0.007551 0.001451 0.002910 -0.003141
# 3 -0.000326 -0.007551 0.026636 0.005807 -0.007196 0.002046
# 4 0.002366 0.001451 0.005807 0.024422 -0.000881 -0.005989
# 5 -0.005615 0.002910 -0.007196 -0.000881 0.036672 0.000961
# 6 -0.003764 -0.003141 0.002046 -0.005989 0.000961 0.045585
#
#
# Mechanical properties :
#
#
# Convention : Reuss Voigt Hill
#
# Bulk Modulus (GPa) = 38.80048 67.60977 53.20513
# Shear Modulus (GPa) = 26.66623 34.86400 30.76512
#
# Velocity S-wave (km/s) = 3.41821 3.90847 3.67153
# Velocity P-wave (km/s) = 5.70788 7.07053 6.42543
#
# Compressibility (1/GPa) = 0.02577287
#
# Stress axis : x y z
#
# Youngs Moduli (GPa) = 108.47315 76.05859 37.54259
#
# Poissons Ratio (x) = 0.28432 0.01224
# Poissons Ratio (y) = 0.40549 0.28348
# Poissons Ratio (z) = 0.03536 0.57431
#
# Static dielectric constant tensor:
#      x y z
#    x 1.864200 0.027530 -0.011490 
#    y 0.027530 1.872900 0.023990 
#    z -0.011490 0.023990 1.934990 
# 
# From -- ./inp_files/217653.got.cif
#   From: 2010.05.17/outbox.cif.g08.bks.cpg/sg2_109_cif.got.tgz:217653.got - 2010.06.03 11:33:40.
