data_PCOD9081987
_publ_section_title
;
Structure prediction by ZEFSAII (Michael W. Deem and Ramdas Pophale) SiO2 
 PCOD9081987
Probable space group: P -1
;
_chemical_formula_sum "Si O2"
_cell_formula_units_Z 16
_cell_length_a 10.709315
_cell_length_b 18.242686
_cell_length_c 11.438404
_cell_angle_alpha 58.492972
_cell_angle_beta 25.578613
_cell_angle_gamma 53.308947
_cell_volume 772.799084
_symmetry_space_group_name_H-M "P -1"
_symmetry_group_IT_number 2
_symmetry_cell_setting 'triclinic'
loop_
_space_group_symop_operation_xyz
x,y,z
-x,-y,-z
loop_
_atom_site_type_symbol
_atom_site_label
_atom_site_fract_x
_atom_site_fract_y
_atom_site_fract_z
Si Si1 0.861215 0.399788 0.406418
Si Si2 0.635550 0.669501 0.761408
Si Si3 0.955497 0.369224 0.764374
Si Si4 0.374168 0.215481 0.717086
Si Si5 0.770461 0.484080 0.046526
Si Si6 0.541771 0.117821 0.318535
Si Si7 0.232959 0.063310 0.838800
Si Si8 0.896867 0.296171 0.233153
O O1 0.541188 0.439280 0.712049
O O2 0.871298 0.323397 0.367024
O O3 0.138442 0.362561 0.294392
O O4 0.940244 0.481943 0.204999
O O5 0.565211 0.777214 0.712547
O O6 0.805919 0.619657 0.541104
O O7 0.313133 0.653633 0.056190
O O8 0.140989 0.284856 0.763182
O O9 0.804300 0.454537 0.906424
O O10 0.375448 0.115541 0.765969
O O11 0.687111 0.236530 0.426780
O O12 0.232489 0.244558 0.940523
O O13 0.783017 0.392915 0.180475
O O14 0.297350 0.099258 0.627128
O O15 0.612901 0.045873 0.211791
O O16 0.866083 0.092089 0.135947
#
# Coordination Sequence:
#
# PCOD9081987 Si02
#       8
#     2   2   2   2   2   2   2   2
#     4  12  25  39  56  80 109 157 190 226 282 326
#     4  12  22  37  57  80 124 145 177 224 277 359
#     4  11  22  36  57  85 109 150 178 230 293 320
#     4  11  19  36  60  85 110 141 185 238 276 316
#     4  11  23  40  58  79 108 143 198 247 269 316
#     4  10  19  34  54  88 117 142 172 221 274 341
#     4  10  19  32  59  86 114 140 179 220 277 329
#     4  11  23  38  60  79 108 146 196 240 267 314
#
# _framework density 20.703956999999999
#
# number of rings (size 3 to 8) (size 9 to 14) (size 15 to 20)
#    0.000    1.000    2.500    6.750    0.000    3.000 
#    0.000    0.000    0.000    1.500    0.000    0.000 
#    0.000    0.000    0.000    0.000    0.000    0.000 
#
# Total GULP energy -89487.517369 kJ/mol
# GULP energy per Si atom -5592.969836 kJ/mol
# Density = 2.065683 g / cm^3
# Si number density = 20.703957 Si / 1000 Ang^3
#
#
#
# Elastic Constant Matrix: (Units=GPa)
#
#
# Indices 1 2 3 4 5 6 
#
# 1 51.9605 16.1180 -1.4171 4.5474 4.6926 19.3261
# 2 16.1180 66.7101 2.0140 -3.8713 5.3242 20.8936
# 3 -1.4171 2.0140 87.9851 -0.5746 -5.7994 2.6585
# 4 4.5474 -3.8713 -0.5746 22.5300 11.8684 -6.7835
# 5 4.6926 5.3242 -5.7994 11.8684 21.4921 -1.8418
# 6 19.3261 20.8936 2.6585 -6.7835 -1.8418 23.8780
#
#
#
# Elastic Compliance Matrix: (Units=1/GPa)
#
#
# Indices 1 2 3 4 5 6 
#
# 1 0.032073 0.001379 0.001248 -0.014976 -0.001452 -0.031671
# 2 0.001379 0.021820 -0.000418 0.001879 -0.008596 -0.020292
# 3 0.001248 -0.000418 0.011749 -0.003167 0.004536 -0.002502
# 4 -0.014976 0.001879 -0.003167 0.076447 -0.037726 0.029637
# 5 -0.001452 -0.008596 0.004536 -0.037726 0.071287 0.002973
# 6 -0.031671 -0.020292 -0.002502 0.029637 0.002973 0.094197
#
#
# Mechanical properties :
#
#
# Convention : Reuss Voigt Hill
#
# Bulk Modulus (GPa) = 14.27329 26.67618 20.47474
# Shear Modulus (GPa) = 15.31358 26.24273 20.77815
#
# Velocity S-wave (km/s) = 2.72259 3.56409 3.17138
# Velocity P-wave (km/s) = 4.09784 5.46347 4.82917
#
# Compressibility (1/GPa) = 0.07006093
#
# Stress axis : x y z
#
# Youngs Moduli (GPa) = 31.17888 45.82911 85.11253
#
# Poissons Ratio (x) = -0.06321 -0.10626
# Poissons Ratio (y) = -0.04301 0.03562
# Poissons Ratio (z) = -0.03892 0.01918
#
# Static dielectric constant tensor:
#      x y z
#    x 1.742560 0.016650 0.026780 
#    y 0.016650 1.773050 -0.004640 
#    z 0.026780 -0.004640 1.732520 
# 
# From -- ./inp_files/437260.got.cif
#   From: 2010.05.17/outbox.cif.g08.bks.cpg/sg2_219_cif.got.tgz:437260.got - 2010.06.03 11:33:40.
