data_PCOD9081835
_publ_section_title
;
Structure prediction by ZEFSAII (Michael W. Deem and Ramdas Pophale) SiO2 
 PCOD9081835
Probable space group: P -1
;
_chemical_formula_sum "Si O2"
_cell_formula_units_Z 16
_cell_length_a 7.359363
_cell_length_b 14.677553
_cell_length_c 16.566161
_cell_angle_alpha 138.064407
_cell_angle_beta 148.248177
_cell_angle_gamma 46.266598
_cell_volume 620.474768
_symmetry_space_group_name_H-M "P -1"
_symmetry_group_IT_number 2
_symmetry_cell_setting 'triclinic'
loop_
_space_group_symop_operation_xyz
x,y,z
-x,-y,-z
loop_
_atom_site_type_symbol
_atom_site_label
_atom_site_fract_x
_atom_site_fract_y
_atom_site_fract_z
Si Si1 0.900092 0.824518 0.554594
Si Si2 0.063501 0.976161 0.154296
Si Si3 0.030033 0.485449 0.600637
Si Si4 0.278903 0.222269 0.031905
Si Si5 0.923570 0.229463 0.172033
Si Si6 0.383355 0.229093 0.822278
Si Si7 0.756343 0.481188 0.972536
Si Si8 0.082813 0.908248 0.338357
O O1 0.075159 0.663833 0.515842
O O2 0.482200 0.841124 0.425353
O O3 0.970562 0.925955 0.576014
O O4 0.003074 0.912263 0.726609
O O5 0.409186 0.865398 0.229814
O O6 0.119521 0.077947 0.169562
O O7 0.752008 0.885271 0.977938
O O8 0.865263 0.642965 0.668538
O O9 0.392858 0.470632 0.782140
O O10 0.000000 0.500000 0.500000
O O11 0.624170 0.268843 0.155408
O O12 0.976018 0.352401 0.016792
O O13 0.147490 0.144455 0.853934
O O14 0.696469 0.214423 0.997524
O O15 0.060382 0.158562 0.681692
O O16 0.271925 0.392900 0.891462
O O17 0.000000 0.500000 0.000000
#
# Coordination Sequence:
#
# PCOD9081835 Si02
#       8
#     2   2   2   2   2   2   2   2
#     4  10  19  32  56  79 109 136 181 228 265 328
#     4  11  22  34  51  85 115 137 180 228 281 327
#     4  11  19  32  56  87 107 136 187 234 268 317
#     4  10  19  34  59  81 102 141 191 236 260 316
#     4  10  20  36  57  78 106 150 183 223 273 323
#     4  10  21  35  56  77 111 147 175 226 283 325
#     4  11  18  36  60  81 105 146 190 227 272 324
#     4   9  18  34  54  80 102 143 180 221 273 322
#
# _framework density 25.786705000000001
#
# number of rings (size 3 to 8) (size 9 to 14) (size 15 to 20)
#    0.000    1.750    6.250    0.750    0.000    1.000 
#    0.000    0.000    0.000    0.750    0.000    0.000 
#    0.000    0.000    0.000    0.000    0.000    0.000 
#
# Total GULP energy -89121.496512 kJ/mol
# GULP energy per Si atom -5570.093532 kJ/mol
# Density = 2.572801 g / cm^3
# Si number density = 25.786705 Si / 1000 Ang^3
#
#
#
# Elastic Constant Matrix: (Units=GPa)
#
#
# Indices 1 2 3 4 5 6 
#
# 1 53.2159 25.5691 22.0185 12.1781 11.0243 -4.8036
# 2 25.5691 146.6340 43.5429 61.0371 7.6377 1.7683
# 3 22.0185 43.5429 83.1624 34.9500 4.9553 6.9472
# 4 12.1781 61.0371 34.9500 55.8777 10.6503 7.3949
# 5 11.0243 7.6377 4.9553 10.6503 29.0228 -0.7726
# 6 -4.8036 1.7683 6.9472 7.3949 -0.7726 23.9324
#
#
#
# Elastic Compliance Matrix: (Units=1/GPa)
#
#
# Indices 1 2 3 4 5 6 
#
# 1 0.024408 -0.003311 -0.005891 0.002801 -0.008270 0.005722
# 2 -0.003311 0.013454 -0.000427 -0.014747 0.003285 0.003128
# 3 -0.005891 -0.000427 0.017935 -0.009543 0.002701 -0.003321
# 4 0.002801 -0.014747 -0.009543 0.042767 -0.011491 -0.009163
# 5 -0.008270 0.003285 0.002701 -0.011491 0.040546 0.002173
# 6 0.005722 0.003128 -0.003321 -0.009163 0.002173 0.046567
#
#
# Mechanical properties :
#
#
# Convention : Reuss Voigt Hill
#
# Bulk Modulus (GPa) = 27.36790 51.69703 39.53247
# Shear Modulus (GPa) = 23.02931 34.55871 28.79401
#
# Velocity S-wave (km/s) = 2.99167 3.66481 3.34522
# Velocity P-wave (km/s) = 4.75075 6.16435 5.50313
#
# Compressibility (1/GPa) = 0.03653915
#
# Stress axis : x y z
#
# Youngs Moduli (GPa) = 40.96946 74.32940 55.75686
#
# Poissons Ratio (x) = 0.24610 0.32848
# Poissons Ratio (y) = 0.13565 0.02380
# Poissons Ratio (z) = 0.24136 0.03173
#
# Static dielectric constant tensor:
#      x y z
#    x 2.297750 0.039950 -0.083540 
#    y 0.039950 2.121120 0.005230 
#    z -0.083540 0.005230 2.115120 
# 
# From -- ./inp_files/252920.got.cif
#   From: 2010.05.17/outbox.cif.g08.bks.cpg/sg2_127_cif.got.tgz:252920.got - 2010.06.03 11:33:40.
