data_PCOD9081273
_publ_section_title
;
Structure prediction by ZEFSAII (Michael W. Deem and Ramdas Pophale) SiO2 
 PCOD9081273
Probable space group: P -1
;
_chemical_formula_sum "Si O2"
_cell_formula_units_Z 16
_cell_length_a 13.972296
_cell_length_b 11.077746
_cell_length_c 14.543393
_cell_angle_alpha 40.296566
_cell_angle_beta 59.717286
_cell_angle_gamma 32.490472
_cell_volume 716.639447
_symmetry_space_group_name_H-M "P -1"
_symmetry_group_IT_number 2
_symmetry_cell_setting 'triclinic'
loop_
_space_group_symop_operation_xyz
x,y,z
-x,-y,-z
loop_
_atom_site_type_symbol
_atom_site_label
_atom_site_fract_x
_atom_site_fract_y
_atom_site_fract_z
Si Si1 0.295693 0.012328 0.467406
Si Si2 0.962651 0.486152 0.919238
Si Si3 0.184452 0.109062 0.657017
Si Si4 0.799276 0.338869 0.147811
Si Si5 0.149847 0.969190 0.313591
Si Si6 0.152579 0.274442 0.773394
Si Si7 0.497682 0.654043 0.241776
Si Si8 0.584630 0.728493 0.339503
O O1 0.331955 0.971940 0.584303
O O2 0.070409 0.372600 0.353414
O O3 0.351056 0.720781 0.590681
O O4 0.431376 0.942461 0.373730
O O5 0.127337 0.219096 0.918476
O O6 0.879117 0.804838 0.744061
O O7 0.000000 0.500000 0.000000
O O8 0.837151 0.470577 0.992358
O O9 0.238463 0.053016 0.770467
O O10 0.000000 0.500000 0.500000
O O11 0.148910 0.936919 0.756631
O O12 0.581494 0.630435 0.123572
O O13 0.946699 0.172263 0.258136
O O14 0.289888 0.839435 0.236458
O O15 0.270699 0.643233 0.493460
O O16 0.284708 0.271181 0.725103
O O17 0.496157 0.801802 0.240380
#
# Coordination Sequence:
#
# PCOD9081273 Si02
#       8
#     2   2   2   2   2   2   2   2
#     4   9  19  34  52  82 110 130 175 220 262 324
#     4  10  21  35  53  78 106 142 182 211 256 322
#     4   9  19  36  57  79 102 137 181 217 261 316
#     4  10  21  37  52  73 109 142 175 220 256 302
#     4  10  19  33  53  79 108 136 168 217 272 313
#     4  11  21  35  54  77 109 144 177 217 260 305
#     4  10  19  31  53  82 106 135 175 214 269 327
#     4  11  19  30  55  83 109 137 166 219 277 311
#
# _framework density 22.326429000000001
#
# number of rings (size 3 to 8) (size 9 to 14) (size 15 to 20)
#    0.000    2.000    0.000    6.750    0.000    3.000 
#    0.000    6.250    0.000    0.000    0.000   39.375 
#    0.000    0.000    0.000    0.000    0.000    0.000 
#
# Total GULP energy -89155.136071 kJ/mol
# GULP energy per Si atom -5572.196004 kJ/mol
# Density = 2.227561 g / cm^3
# Si number density = 22.326429 Si / 1000 Ang^3
#
#
#
# Elastic Constant Matrix: (Units=GPa)
#
#
# Indices 1 2 3 4 5 6 
#
# 1 38.0938 15.9426 32.7740 18.9368 -8.1950 20.2993
# 2 15.9426 81.3530 26.1159 34.7111 -1.1885 13.8150
# 3 32.7740 26.1159 81.3409 23.8008 -16.8777 13.6030
# 4 18.9368 34.7111 23.8008 52.7296 -2.4097 1.8525
# 5 -8.1950 -1.1885 -16.8777 -2.4097 33.1081 5.8170
# 6 20.2993 13.8150 13.6030 1.8525 5.8170 42.4748
#
#
#
# Elastic Compliance Matrix: (Units=1/GPa)
#
#
# Indices 1 2 3 4 5 6 
#
# 1 0.063016 0.004782 -0.014630 -0.017652 0.011919 -0.027849
# 2 0.004782 0.018850 -0.003024 -0.012486 0.000639 -0.006991
# 3 -0.014630 -0.003024 0.021088 -0.001976 0.006811 0.000375
# 4 -0.017652 -0.012486 -0.001976 0.033726 -0.005552 0.012420
# 5 0.011919 0.000639 0.006811 -0.005552 0.038551 -0.013123
# 6 -0.027849 -0.006991 0.000375 0.012420 -0.013123 0.040262
#
#
# Mechanical properties :
#
#
# Convention : Reuss Voigt Hill
#
# Bulk Modulus (GPa) = 12.95161 38.93919 25.94540
# Shear Modulus (GPa) = 18.72854 34.05951 26.39403
#
# Velocity S-wave (km/s) = 2.89943 3.91003 3.44203
# Velocity P-wave (km/s) = 4.12584 6.15331 5.23860
#
# Compressibility (1/GPa) = 0.07721048
#
# Stress axis : x y z
#
# Youngs Moduli (GPa) = 15.86899 53.05130 47.41979
#
# Poissons Ratio (x) = -0.25372 0.69377
# Poissons Ratio (y) = -0.07589 0.14339
# Poissons Ratio (z) = 0.23217 0.16042
#
# Static dielectric constant tensor:
#      x y z
#    x 1.815030 -0.002110 0.103890 
#    y -0.002110 1.899870 -0.005000 
#    z 0.103890 -0.005000 2.005240 
# 
# From -- ./inp_files/418113.got.cif
#   From: 2010.05.17/outbox.cif.g08.bks.cpg/sg2_210_cif.got.tgz:418113.got - 2010.06.03 11:33:40.
