data_PCOD9081162
_publ_section_title
;
Structure prediction by ZEFSAII (Michael W. Deem and Ramdas Pophale) SiO2 
 PCOD9081162
Probable space group: P -1
;
_chemical_formula_sum "Si O2"
_cell_formula_units_Z 16
_cell_length_a 10.960932
_cell_length_b 10.931267
_cell_length_c 16.730622
_cell_angle_alpha 131.736919
_cell_angle_beta 149.492049
_cell_angle_gamma 48.169791
_cell_volume 735.953855
_symmetry_space_group_name_H-M "P -1"
_symmetry_group_IT_number 2
_symmetry_cell_setting 'triclinic'
loop_
_space_group_symop_operation_xyz
x,y,z
-x,-y,-z
loop_
_atom_site_type_symbol
_atom_site_label
_atom_site_fract_x
_atom_site_fract_y
_atom_site_fract_z
Si Si1 0.720310 0.930915 0.193296
Si Si2 0.784482 0.746148 0.549280
Si Si3 0.063045 0.821810 0.060415
Si Si4 0.223144 0.882183 0.855486
Si Si5 0.627517 0.415594 0.730925
Si Si6 0.750547 0.234874 0.551230
Si Si7 0.591296 0.727500 0.755891
Si Si8 0.474286 0.977883 0.343164
O O1 0.959100 0.825466 0.327838
O O2 0.568706 0.095332 0.225105
O O3 0.810217 0.007359 0.196571
O O4 0.516201 0.827712 0.012598
O O5 0.659373 0.591158 0.423275
O O6 0.667615 0.839080 0.442866
O O7 0.665539 0.879401 0.610347
O O8 0.074932 0.736562 0.707238
O O9 0.909814 0.982768 0.094208
O O10 0.218063 0.688225 0.154267
O O11 0.265155 0.889417 0.152725
O O12 0.848408 0.744918 0.868554
O O13 0.721466 0.320024 0.659027
O O14 0.655946 0.602834 0.813787
O O15 0.586841 0.339488 0.434229
O O16 0.629344 0.073632 0.418033
#
# Coordination Sequence:
#
# PCOD9081162 Si02
#       8
#     2   2   2   2   2   2   2   2
#     4  10  19  31  50  73  99 126 161 202 237 283
#     4   8  13  27  51  74  90 117 167 206 229 274
#     4   9  17  33  53  74  96 122 165 208 236 275
#     4   9  15  30  54  76  90 122 170 203 236 275
#     4  10  19  34  53  71  97 131 162 196 239 289
#     4  11  19  34  52  71 100 130 161 197 240 290
#     4  11  23  31  46  76 106 130 154 194 246 292
#     4   8  14  26  51  74  90 120 162 205 239 269
#
# _framework density 21.740493000000001
#
# number of rings (size 3 to 8) (size 9 to 14) (size 15 to 20)
#    0.000    2.500    2.500    2.625    0.000    0.500 
#    0.000    0.625    0.000    0.750    0.000    0.000 
#    0.000    0.000    0.000    0.000    0.000    0.000 
#
# Total GULP energy -89225.969653 kJ/mol
# GULP energy per Si atom -5576.623103 kJ/mol
# Density = 2.169101 g / cm^3
# Si number density = 21.740493 Si / 1000 Ang^3
#
#
#
# Elastic Constant Matrix: (Units=GPa)
#
#
# Indices 1 2 3 4 5 6 
#
# 1 28.0026 7.4813 17.0065 4.7502 13.8799 -2.6723
# 2 7.4813 37.6530 20.8834 -7.5926 7.5471 0.9090
# 3 17.0065 20.8834 123.6452 -17.3717 39.3205 -13.0904
# 4 4.7502 -7.5926 -17.3717 18.9693 2.1334 1.3143
# 5 13.8799 7.5471 39.3205 2.1334 34.3334 2.5057
# 6 -2.6723 0.9090 -13.0904 1.3143 2.5057 13.6772
#
#
#
# Elastic Compliance Matrix: (Units=1/GPa)
#
#
# Indices 1 2 3 4 5 6 
#
# 1 0.052075 -0.010173 0.000034 -0.016044 -0.019020 0.015910
# 2 -0.010173 0.033278 -0.003542 0.013168 0.000691 -0.008981
# 3 0.000034 -0.003542 0.024449 0.022530 -0.030613 0.027086
# 4 -0.016044 0.013168 0.022530 0.084835 -0.028551 0.014633
# 5 -0.019020 0.000691 -0.030613 -0.028551 0.076736 -0.044376
# 6 0.015910 -0.008981 0.027086 0.014633 -0.044376 0.109467
#
#
# Mechanical properties :
#
#
# Convention : Reuss Voigt Hill
#
# Bulk Modulus (GPa) = 12.12984 31.11590 21.62287
# Shear Modulus (GPa) = 11.47628 22.99128 17.23378
#
# Velocity S-wave (km/s) = 2.30005 3.25550 2.81855
# Velocity P-wave (km/s) = 3.55600 5.33615 4.53429
#
# Compressibility (1/GPa) = 0.08244133
#
# Stress axis : x y z
#
# Youngs Moduli (GPa) = 19.20300 30.05030 40.90081
#
# Poissons Ratio (x) = 0.30570 -0.00140
# Poissons Ratio (y) = 0.19535 0.14486
# Poissons Ratio (z) = -0.00066 0.10643
#
# Static dielectric constant tensor:
#      x y z
#    x 1.804970 0.012030 -0.008830 
#    y 0.012030 1.786010 0.011700 
#    z -0.008830 0.011700 1.878710 
# 
# From -- ./inp_files/268548.got.cif
#   From: 2010.05.17/outbox.cif.g08.bks.cpg/sg2_135_cif.got.tgz:268548.got - 2010.06.03 11:33:40.
