data_PCOD9081727
_publ_section_title
;
Structure prediction by ZEFSAII (Michael W. Deem and Ramdas Pophale) SiO2 
 PCOD9081727
Probable space group: P -1
;
_chemical_formula_sum "Si O2"
_cell_formula_units_Z 12
_cell_length_a 23.327072
_cell_length_b 14.682146
_cell_length_c 11.661457
_cell_angle_alpha 152.587757
_cell_angle_beta 19.302797
_cell_angle_gamma 158.318664
_cell_volume 485.879003
_symmetry_space_group_name_H-M "P -1"
_symmetry_group_IT_number 2
_symmetry_cell_setting 'triclinic'
loop_
_space_group_symop_operation_xyz
x,y,z
-x,-y,-z
loop_
_atom_site_type_symbol
_atom_site_label
_atom_site_fract_x
_atom_site_fract_y
_atom_site_fract_z
Si Si1 0.253926 0.705423 0.271869
Si Si2 0.391839 0.216582 0.468778
Si Si3 0.260142 0.902691 0.705466
Si Si4 0.775410 0.956633 0.842874
Si Si5 0.936297 0.996741 0.349770
Si Si6 0.588011 0.600114 0.123320
O O1 0.293152 0.746956 0.381330
O O2 0.000000 0.500000 0.500000
O O3 0.328148 0.968834 0.376160
O O4 0.404143 0.664648 0.868153
O O5 0.186236 0.112164 0.659131
O O6 0.445377 0.395154 0.672623
O O7 0.425051 0.192056 0.679989
O O8 0.027690 0.844827 0.046537
O O9 0.257276 0.887927 0.831686
O O10 0.795819 0.004470 0.722309
O O11 0.583027 0.668942 0.903108
O O12 0.000000 0.000000 0.500000
O O13 0.157773 0.272989 0.229890
#
# Coordination Sequence:
#
# PCOD9081727 Si02
#       6
#     2   2   2   2   2   2
#     4  10  22  37  56  76 111 147 176 218 266 325
#     4  10  21  37  54  85 108 138 182 217 274 320
#     4   8  19  36  54  81 107 140 181 217 264 314
#     4  10  19  32  54  84 108 140 179 219 269 315
#     4   9  20  34  55  84 112 131 179 229 265 313
#     4   9  19  31  56  81 109 138 170 230 266 306
#
# _framework density 24.697507000000002
#
# number of rings (size 3 to 8) (size 9 to 14) (size 15 to 20)
#    1.000    1.667    0.000    1.000    4.667    2.000 
#    0.000    0.833    0.000    2.000    0.000    0.000 
#    0.000    0.000    0.000    0.000    0.000    0.000 
#
# Total GULP energy -67051.547346 kJ/mol
# GULP energy per Si atom -5587.628946 kJ/mol
# Density = 2.464129 g / cm^3
# Si number density = 24.697507 Si / 1000 Ang^3
#
#
#
# Elastic Constant Matrix: (Units=GPa)
#
#
# Indices 1 2 3 4 5 6 
#
# 1 72.5855 19.1327 40.8781 16.7515 24.3722 14.3210
# 2 19.1327 109.2216 41.1006 -17.1370 13.8650 25.4485
# 3 40.8781 41.1006 146.5639 -9.7600 40.2381 25.2421
# 4 16.7515 -17.1370 -9.7600 31.0193 19.1073 1.7482
# 5 24.3722 13.8650 40.2381 19.1073 55.4080 4.1863
# 6 14.3210 25.4485 25.2421 1.7482 4.1863 42.5350
#
#
#
# Elastic Compliance Matrix: (Units=1/GPa)
#
#
# Indices 1 2 3 4 5 6 
#
# 1 0.022143 -0.004421 -0.006798 -0.018105 0.002568 -0.000285
# 2 -0.004421 0.014863 0.001920 0.016808 -0.008330 -0.008414
# 3 -0.006798 0.001920 0.014233 0.017899 -0.013492 -0.006715
# 4 -0.018105 0.016808 0.017899 0.079695 -0.035639 -0.014351
# 5 0.002568 -0.008330 -0.013492 -0.035639 0.040364 0.009618
# 6 -0.000285 -0.008414 -0.006715 -0.014351 0.009618 0.032268
#
#
# Mechanical properties :
#
#
# Convention : Reuss Voigt Hill
#
# Bulk Modulus (GPa) = 30.63597 58.95487 44.79542
# Shear Modulus (GPa) = 21.45536 40.94310 31.19923
#
# Velocity S-wave (km/s) = 2.95061 4.07600 3.55808
# Velocity P-wave (km/s) = 4.90302 6.78781 5.92089
#
# Compressibility (1/GPa) = 0.03264137
#
# Stress axis : x y z
#
# Youngs Moduli (GPa) = 45.16164 67.28304 70.26040
#
# Poissons Ratio (x) = 0.29747 0.47760
# Poissons Ratio (y) = 0.19967 -0.13494
# Poissons Ratio (z) = 0.30699 -0.12922
#
# Static dielectric constant tensor:
#      x y z
#    x 1.989080 -0.035550 -0.006740 
#    y -0.035550 1.930730 0.036970 
#    z -0.006740 0.036970 2.004820 
# 
# From -- ./inp_files/213664.got.cif
#   From: 2010.05.17/outbox.cif.g08.bks.cpg/sg2_107_cif.got.tgz:213664.got - 2010.06.03 11:33:40.
