data_PCOD9081306
_publ_section_title
;
Structure prediction by ZEFSAII (Michael W. Deem and Ramdas Pophale) SiO2 
 PCOD9081306
Probable space group: P -1
;
_chemical_formula_sum "Si O2"
_cell_formula_units_Z 16
_cell_length_a 9.409092
_cell_length_b 24.878382
_cell_length_c 18.790409
_cell_angle_alpha 151.939073
_cell_angle_beta 28.587451
_cell_angle_gamma 151.646399
_cell_volume 875.359143
_symmetry_space_group_name_H-M "P -1"
_symmetry_group_IT_number 2
_symmetry_cell_setting 'triclinic'
loop_
_space_group_symop_operation_xyz
x,y,z
-x,-y,-z
loop_
_atom_site_type_symbol
_atom_site_label
_atom_site_fract_x
_atom_site_fract_y
_atom_site_fract_z
Si Si1 0.168995 0.954796 0.934600
Si Si2 0.761606 0.055577 0.697601
Si Si3 0.465177 0.804085 0.839756
Si Si4 0.152527 0.207558 0.990387
Si Si5 0.465422 0.950266 0.363996
Si Si6 0.945693 0.676079 0.035449
Si Si7 0.047160 0.792902 0.484085
Si Si8 0.668885 0.401124 0.892882
O O1 0.932206 0.822794 0.924812
O O2 0.489364 0.958399 0.759076
O O3 0.307547 0.064430 0.063247
O O4 0.000000 0.000000 0.000000
O O5 0.587508 0.070986 0.720871
O O6 0.000000 0.000000 0.500000
O O7 0.946528 0.192543 0.815450
O O8 0.705693 0.769278 0.645040
O O9 0.188376 0.818086 0.929479
O O10 0.243929 0.701864 0.878364
O O11 0.289330 0.108728 0.788717
O O12 0.452612 0.344976 0.994522
O O13 0.126202 0.870791 0.465357
O O14 0.648848 0.101345 0.477739
O O15 0.867773 0.554743 0.977996
O O16 0.615469 0.645299 0.098174
O O17 0.099816 0.668105 0.302772
#
# Coordination Sequence:
#
# PCOD9081306 Si02
#       8
#     2   2   2   2   2   2   2   2
#     4  11  20  33  53  79 115 139 174 225 281 325
#     4  11  22  34  54  83 110 140 175 228 278 321
#     4  10  20  32  56  83 105 142 183 227 265 317
#     4  10  19  34  53  78 108 146 181 214 269 324
#     4  10  20  33  50  81 113 143 175 221 277 319
#     4   9  20  37  57  78 109 143 186 215 273 325
#     4  10  19  31  54  80 110 135 183 226 263 312
#     4   9  19  37  56  79 105 150 181 221 262 328
#
# _framework density 18.278212
#
# number of rings (size 3 to 8) (size 9 to 14) (size 15 to 20)
#    0.000    2.000    2.500    1.125    1.750    2.500 
#    0.000    2.500    0.000    0.750    0.000    0.000 
#    0.000    0.000    0.000    0.000    0.000    0.000 
#
# Total GULP energy -89195.751683 kJ/mol
# GULP energy per Si atom -5574.734480 kJ/mol
# Density = 1.823661 g / cm^3
# Si number density = 18.278212 Si / 1000 Ang^3
#
#
#
# Elastic Constant Matrix: (Units=GPa)
#
#
# Indices 1 2 3 4 5 6 
#
# 1 57.8513 36.8881 25.5346 -11.8936 3.1684 -20.6369
# 2 36.8881 109.0976 59.4546 -18.5701 2.0637 -36.2798
# 3 25.5346 59.4546 120.2711 -31.5871 -1.9914 -17.0770
# 4 -11.8936 -18.5701 -31.5871 28.2775 -4.0042 4.4049
# 5 3.1684 2.0637 -1.9914 -4.0042 26.6705 -4.7771
# 6 -20.6369 -36.2798 -17.0770 4.4049 -4.7771 26.5889
#
#
#
# Elastic Compliance Matrix: (Units=1/GPa)
#
#
# Indices 1 2 3 4 5 6 
#
# 1 0.025820 -0.002048 -0.000424 0.006676 0.000934 0.016035
# 2 -0.002048 0.021585 -0.005871 0.003427 0.002958 0.024055
# 3 -0.000424 -0.005871 0.014706 0.012950 0.003473 -0.000415
# 4 0.006676 0.003427 0.012950 0.054610 0.010067 0.010937
# 5 0.000934 0.002958 0.003473 0.010067 0.041205 0.012727
# 6 0.016035 0.024055 -0.000415 0.010937 0.012727 0.083086
#
#
# Mechanical properties :
#
#
# Convention : Reuss Voigt Hill
#
# Bulk Modulus (GPa) = 22.01379 58.99716 40.50548
# Shear Modulus (GPa) = 18.32573 27.33024 22.82798
#
# Velocity S-wave (km/s) = 3.16982 3.87102 3.53784
# Velocity P-wave (km/s) = 5.04647 7.23375 6.23675
#
# Compressibility (1/GPa) = 0.04542607
#
# Stress axis : x y z
#
# Youngs Moduli (GPa) = 38.72924 46.32854 67.99803
#
# Poissons Ratio (x) = 0.09490 0.02881
# Poissons Ratio (y) = 0.07933 0.39919
# Poissons Ratio (z) = 0.01641 0.27198
#
# Static dielectric constant tensor:
#      x y z
#    x 1.671940 -0.018990 -0.028290 
#    y -0.018990 1.662840 -0.043670 
#    z -0.028290 -0.043670 1.631050 
# 
# From -- ./inp_files/216482.got.cif
#   From: 2010.05.17/outbox.cif.g08.bks.cpg/sg2_109_cif.got.tgz:216482.got - 2010.06.03 11:33:40.
