data_PCOD9081560
_publ_section_title
;
Structure prediction by ZEFSAII (Michael W. Deem and Ramdas Pophale) SiO2 
 PCOD9081560
Probable space group: P -1
;
_chemical_formula_sum "Si O2"
_cell_formula_units_Z 16
_cell_length_a 8.964557
_cell_length_b 14.561835
_cell_length_c 23.845618
_cell_angle_alpha 157.322307
_cell_angle_beta 145.553755
_cell_angle_gamma 38.970689
_cell_volume 676.875098
_symmetry_space_group_name_H-M "P -1"
_symmetry_group_IT_number 2
_symmetry_cell_setting 'triclinic'
loop_
_space_group_symop_operation_xyz
x,y,z
-x,-y,-z
loop_
_atom_site_type_symbol
_atom_site_label
_atom_site_fract_x
_atom_site_fract_y
_atom_site_fract_z
Si Si1 0.604803 0.545300 0.876221
Si Si2 0.698548 0.932842 0.717775
Si Si3 0.720856 0.412950 0.593863
Si Si4 0.697132 0.812418 0.879102
Si Si5 0.758709 0.253468 0.220169
Si Si6 0.913412 0.112933 0.774284
Si Si7 0.578633 0.120935 0.906572
Si Si8 0.187152 0.743669 0.580175
O O1 0.405020 0.590040 0.788197
O O2 0.742682 0.282696 0.774553
O O3 0.828014 0.739820 0.049350
O O4 0.472347 0.617577 0.936039
O O5 0.416453 0.821738 0.562786
O O6 0.712336 0.064267 0.856492
O O7 0.931253 0.713011 0.663793
O O8 0.758770 0.086866 0.769561
O O9 0.844268 0.562217 0.765557
O O10 0.460968 0.587849 0.592984
O O11 0.896589 0.367765 0.567461
O O12 0.407824 0.744162 0.773224
O O13 0.707296 0.977465 0.919668
O O14 0.771260 0.980116 0.047073
O O15 0.977302 0.846352 0.618612
O O16 0.302261 0.000007 0.745037
#
# Coordination Sequence:
#
# PCOD9081560 Si02
#       8
#     2   2   2   2   2   2   2   2
#     4   9  19  35  50  67 103 143 165 194 250 304
#     4  11  20  29  52  84 103 121 164 216 250 282
#     4   9  17  30  50  75 101 129 160 205 252 290
#     4   9  17  32  51  70 102 135 162 194 247 303
#     4  10  19  32  52  78 101 126 166 210 246 290
#     4  10  19  32  52  75  97 132 176 206 235 294
#     4   8  16  30  48  75 105 128 158 206 252 291
#     4   8  15  30  49  69  96 131 169 200 238 294
#
# _framework density 23.63804
#
# number of rings (size 3 to 8) (size 9 to 14) (size 15 to 20)
#    0.000    2.750    0.000    5.250    0.000    4.500 
#    0.000    0.000    0.000    3.750    0.000    0.000 
#    0.000    3.000    0.000    0.000    0.000    0.000 
#
# Total GULP energy -89124.306801 kJ/mol
# GULP energy per Si atom -5570.269175 kJ/mol
# Density = 2.358424 g / cm^3
# Si number density = 23.638040 Si / 1000 Ang^3
#
#
#
# Elastic Constant Matrix: (Units=GPa)
#
#
# Indices 1 2 3 4 5 6 
#
# 1 125.2657 14.2915 19.7416 2.1265 -25.8060 27.4952
# 2 14.2915 75.7074 10.8855 10.0829 -2.0162 9.0259
# 3 19.7416 10.8855 61.2610 2.1876 -21.9599 9.7865
# 4 2.1265 10.0829 2.1876 16.2249 -2.1999 -3.4174
# 5 -25.8060 -2.0162 -21.9599 -2.1999 34.5640 -12.8218
# 6 27.4952 9.0259 9.7865 -3.4174 -12.8218 22.9245
#
#
#
# Elastic Compliance Matrix: (Units=1/GPa)
#
#
# Indices 1 2 3 4 5 6 
#
# 1 0.011516 -0.000136 -0.000311 -0.003423 0.003698 -0.012068
# 2 -0.000136 0.016361 -0.002754 -0.012621 -0.005415 -0.010013
# 3 -0.000311 -0.002754 0.021718 0.000578 0.013344 -0.000264
# 4 -0.003423 -0.012621 0.000578 0.077178 0.012025 0.027059
# 5 0.003698 -0.005415 0.013344 0.012025 0.048349 0.020834
# 6 -0.012068 -0.010013 -0.000264 0.027059 0.020834 0.077837
#
#
# Mechanical properties :
#
#
# Convention : Reuss Voigt Hill
#
# Bulk Modulus (GPa) = 23.15197 39.11903 31.13550
# Shear Modulus (GPa) = 18.26418 29.23039 23.74728
#
# Velocity S-wave (km/s) = 2.78269 3.52032 3.17302
# Velocity P-wave (km/s) = 4.48778 5.75401 5.15988
#
# Compressibility (1/GPa) = 0.04319288
#
# Stress axis : x y z
#
# Youngs Moduli (GPa) = 86.83241 61.12154 46.04412
#
# Poissons Ratio (x) = 0.00831 0.01433
# Poissons Ratio (y) = 0.01181 0.12681
# Poissons Ratio (z) = 0.02703 0.16833
#
# Static dielectric constant tensor:
#      x y z
#    x 2.010080 -0.039790 0.037630 
#    y -0.039790 1.941770 -0.015000 
#    z 0.037630 -0.015000 2.013340 
# 
# From -- ./inp_files/589742.got.cif
#   From: 2010.05.17/outbox.cif.g08.bks.cpg/sg2_295_cif.got.tgz:589742.got - 2010.06.03 11:33:40.
