data_PCOD9081959
_publ_section_title
;
Structure prediction by ZEFSAII (Michael W. Deem and Ramdas Pophale) SiO2 
 PCOD9081959
Probable space group: P -1
;
_chemical_formula_sum "Si O2"
_cell_formula_units_Z 16
_cell_length_a 12.152167
_cell_length_b 18.595238
_cell_length_c 23.998884
_cell_angle_alpha 25.973435
_cell_angle_beta 36.425486
_cell_angle_gamma 20.245645
_cell_volume 794.453124
_symmetry_space_group_name_H-M "P -1"
_symmetry_group_IT_number 2
_symmetry_cell_setting 'triclinic'
loop_
_space_group_symop_operation_xyz
x,y,z
-x,-y,-z
loop_
_atom_site_type_symbol
_atom_site_label
_atom_site_fract_x
_atom_site_fract_y
_atom_site_fract_z
Si Si1 0.236277 0.063293 0.227072
Si Si2 0.648981 0.188254 0.531023
Si Si3 0.784396 0.379296 0.002869
Si Si4 0.917885 0.177070 0.728480
Si Si5 0.492341 0.656165 0.121531
Si Si6 0.416051 0.046836 0.937109
Si Si7 0.445331 0.866487 0.889377
Si Si8 0.734631 0.815017 0.360711
O O1 0.318276 0.177631 0.144400
O O2 0.849014 0.326023 0.190549
O O3 0.338550 0.861954 0.373634
O O4 0.442814 0.921487 0.184576
O O5 0.345562 0.533061 0.403014
O O6 0.572910 0.078308 0.602233
O O7 0.000000 0.000000 0.500000
O O8 0.500000 0.500000 0.000000
O O9 0.646125 0.600374 0.952038
O O10 0.988677 0.072586 0.156219
O O11 0.024182 0.306769 0.915273
O O12 0.727477 0.293337 0.784134
O O13 0.239813 0.050351 0.700878
O O14 0.307284 0.856869 0.002334
O O15 0.563158 0.766220 0.052623
O O16 0.500000 0.000000 0.000000
O O17 0.210267 0.145579 0.750718
O O18 0.000000 0.500000 0.500000
#
# Coordination Sequence:
#
# PCOD9081959 Si02
#       8
#     2   2   2   2   2   2   2   2
#     4  10  19  35  59  90 115 149 202 244 286 351
#     4  10  19  36  62  83 117 152 197 248 286 343
#     4  11  21  36  56  84 123 156 188 240 290 359
#     4  10  20  36  55  88 116 153 191 234 299 343
#     4  10  19  32  58  87 118 144 197 248 288 350
#     4  10  20  35  57  84 119 154 189 243 300 337
#     4  10  19  34  56  85 117 150 193 238 295 338
#     4   9  19  34  55  81 114 150 192 235 285 349
#
# _framework density 20.139641000000001
#
# number of rings (size 3 to 8) (size 9 to 14) (size 15 to 20)
#    0.000    2.000    2.500    3.000    0.000    0.500 
#    4.500    0.000    0.000   13.500    0.000    0.000 
#    0.000    0.000    0.000    0.000    0.000    0.000 
#
# Total GULP energy -89106.452718 kJ/mol
# GULP energy per Si atom -5569.153295 kJ/mol
# Density = 2.009380 g / cm^3
# Si number density = 20.139641 Si / 1000 Ang^3
#
#
#
# Elastic Constant Matrix: (Units=GPa)
#
#
# Indices 1 2 3 4 5 6 
#
# 1 80.3069 41.5370 44.4676 9.3770 22.1147 -4.2174
# 2 41.5370 81.0381 38.8717 21.1566 19.6113 2.6901
# 3 44.4676 38.8717 118.6801 15.2267 22.5680 6.2825
# 4 9.3770 21.1566 15.2267 24.1528 3.8521 0.6590
# 5 22.1147 19.6113 22.5680 3.8521 26.0869 -1.5103
# 6 -4.2174 2.6901 6.2825 0.6590 -1.5103 34.7939
#
#
#
# Elastic Compliance Matrix: (Units=1/GPa)
#
#
# Indices 1 2 3 4 5 6 
#
# 1 0.020875 -0.007246 -0.004263 0.002223 -0.008690 0.003441
# 2 -0.007246 0.022401 -0.001133 -0.014803 -0.007673 -0.002458
# 3 -0.004263 -0.001133 0.012121 -0.004027 -0.005586 -0.002784
# 4 0.002223 -0.014803 -0.004027 0.055270 0.004641 0.001296
# 5 -0.008690 -0.007673 -0.005586 0.004641 0.055783 0.002882
# 6 0.003441 -0.002458 -0.002784 0.001296 0.002882 0.029951
#
#
# Mechanical properties :
#
#
# Convention : Reuss Voigt Hill
#
# Bulk Modulus (GPa) = 33.21030 58.86422 46.03726
# Shear Modulus (GPa) = 21.57745 27.34998 24.46371
#
# Velocity S-wave (km/s) = 3.27676 3.68913 3.48904
# Velocity P-wave (km/s) = 5.55356 6.88750 6.25619
#
# Compressibility (1/GPa) = 0.03011114
#
# Stress axis : x y z
#
# Youngs Moduli (GPa) = 47.90435 44.64083 82.50276
#
# Poissons Ratio (x) = 0.32349 0.35170
# Poissons Ratio (y) = 0.34714 0.09351
# Poissons Ratio (z) = 0.20421 0.05060
#
# Static dielectric constant tensor:
#      x y z
#    x 1.753700 -0.049520 -0.006430 
#    y -0.049520 1.742990 0.008390 
#    z -0.006430 0.008390 1.772140 
# 
# From -- ./inp_files/425793.got.cif
#   From: 2010.05.17/outbox.cif.g08.bks.cpg/sg2_213_cif.got.tgz:425793.got - 2010.06.03 11:33:40.
