data_PCOD9082590
_publ_section_title
;
Structure prediction by ZEFSAII (Michael W. Deem and Ramdas Pophale) SiO2 
 PCOD9082590
Probable space group: P -1
;
_chemical_formula_sum "Si O2"
_cell_formula_units_Z 16
_cell_length_a 18.325902
_cell_length_b 7.965761
_cell_length_c 12.365314
_cell_angle_alpha 66.516966
_cell_angle_beta 151.953306
_cell_angle_gamma 127.566914
_cell_volume 623.757782
_symmetry_space_group_name_H-M "P -1"
_symmetry_group_IT_number 2
_symmetry_cell_setting 'triclinic'
loop_
_space_group_symop_operation_xyz
x,y,z
-x,-y,-z
loop_
_atom_site_type_symbol
_atom_site_label
_atom_site_fract_x
_atom_site_fract_y
_atom_site_fract_z
Si Si1 0.411047 0.777491 0.107199
Si Si2 0.723190 0.839529 0.984123
Si Si3 0.679068 0.637442 0.419355
Si Si4 0.102159 0.395258 0.104812
Si Si5 0.058263 0.269416 0.847491
Si Si6 0.807090 0.281888 0.356354
Si Si7 0.275000 0.385235 0.746219
Si Si8 0.597790 0.127192 0.706860
O O1 0.542095 0.715305 0.239898
O O2 0.511150 0.923369 0.308759
O O3 0.212491 0.540623 0.949656
O O4 0.337188 0.862377 0.895045
O O5 0.488760 0.639858 0.728846
O O6 0.748492 0.073764 0.951056
O O7 0.818884 0.817276 0.009614
O O8 0.796817 0.783308 0.201710
O O9 0.829602 0.704289 0.693873
O O10 0.796028 0.716745 0.439553
O O11 0.301413 0.613990 0.260054
O O12 0.000969 0.243528 0.904516
O O13 0.000000 0.500000 0.000000
O O14 0.877046 0.173813 0.555573
O O15 0.737143 0.408096 0.299967
O O16 0.000000 0.500000 0.500000
O O17 0.500000 0.500000 0.000000
O O18 0.500000 0.000000 0.500000
#
# Coordination Sequence:
#
# PCOD9082590 Si02
#       8
#     2   2   2   2   2   2   2   2
#     4   9  19  33  57  90 111 156 207 243 285 365
#     4  10  19  36  57  92 113 159 201 242 304 351
#     4  10  19  35  62  88 118 155 206 246 290 353
#     4  11  23  39  60  90 118 158 204 247 298 367
#     4   9  19  33  61  85 116 157 201 248 290 360
#     4  10  15  32  56  86 116 149 205 245 289 343
#     4  10  17  31  58  87 116 148 199 250 289 346
#     4  11  23  38  61  86 124 157 196 253 302 356
#
# _framework density 25.650981999999999
#
# number of rings (size 3 to 8) (size 9 to 14) (size 15 to 20)
#    0.000    2.000    6.250    0.750    1.750    1.500 
#    0.000    1.875    0.000    0.000    0.000    0.000 
#    0.000    0.000    0.000    0.000    0.000    0.000 
#
# Total GULP energy -89419.738915 kJ/mol
# GULP energy per Si atom -5588.733682 kJ/mol
# Density = 2.559260 g / cm^3
# Si number density = 25.650982 Si / 1000 Ang^3
#
#
#
# Elastic Constant Matrix: (Units=GPa)
#
#
# Indices 1 2 3 4 5 6 
#
# 1 151.0325 5.5928 50.6707 9.0976 -31.7457 -22.5991
# 2 5.5928 34.7980 5.5269 11.5564 -4.7090 7.6089
# 3 50.6707 5.5269 98.5605 -3.3241 -35.3510 8.0049
# 4 9.0976 11.5564 -3.3241 23.9174 -4.1414 7.5396
# 5 -31.7457 -4.7090 -35.3510 -4.1414 54.2636 -1.8543
# 6 -22.5991 7.6089 8.0049 7.5396 -1.8543 41.8776
#
#
#
# Elastic Compliance Matrix: (Units=1/GPa)
#
#
# Indices 1 2 3 4 5 6 
#
# 1 0.010595 0.000024 -0.005493 -0.006955 0.002369 0.008120
# 2 0.000024 0.035199 -0.002186 -0.016319 0.000296 -0.003013
# 3 -0.005493 -0.002186 0.016854 0.009108 0.008030 -0.007073
# 4 -0.006955 -0.016319 0.009108 0.058432 0.004469 -0.012851
# 5 0.002369 0.000296 0.008030 0.004469 0.025413 0.000010
# 6 0.008120 -0.003013 -0.007073 -0.012851 0.000010 0.032475
#
#
# Mechanical properties :
#
#
# Convention : Reuss Voigt Hill
#
# Bulk Modulus (GPa) = 21.12370 45.33019 33.22694
# Shear Modulus (GPa) = 23.80321 38.85175 31.32748
#
# Velocity S-wave (km/s) = 3.04956 3.89605 3.49850
# Velocity P-wave (km/s) = 4.54452 6.16029 5.41303
#
# Compressibility (1/GPa) = 0.04734019
#
# Stress axis : x y z
#
# Youngs Moduli (GPa) = 94.38657 28.40982 59.33191
#
# Poissons Ratio (x) = -0.00069 0.32589
# Poissons Ratio (y) = -0.00229 0.12968
# Poissons Ratio (z) = 0.51843 0.06209
#
# Static dielectric constant tensor:
#      x y z
#    x 2.009400 0.066810 -0.083540 
#    y 0.066810 1.974690 0.047360 
#    z -0.083540 0.047360 2.061470 
# 
# From -- ./inp_files/277615.got.cif
#   From: 2010.05.17/outbox.cif.g08.bks.cpg/sg2_139_cif.got.tgz:277615.got - 2010.06.03 11:33:40.
