data_PCOD9082382
_publ_section_title
;
Structure prediction by ZEFSAII (Michael W. Deem and Ramdas Pophale) SiO2 
 PCOD9082382
Probable space group: P -1
;
_chemical_formula_sum "Si O2"
_cell_formula_units_Z 16
_cell_length_a 9.898348
_cell_length_b 8.123451
_cell_length_c 9.924958
_cell_angle_alpha 63.808836
_cell_angle_beta 53.806565
_cell_angle_gamma 64.294187
_cell_volume 561.167806
_symmetry_space_group_name_H-M "P -1"
_symmetry_group_IT_number 2
_symmetry_cell_setting 'triclinic'
loop_
_space_group_symop_operation_xyz
x,y,z
-x,-y,-z
loop_
_atom_site_type_symbol
_atom_site_label
_atom_site_fract_x
_atom_site_fract_y
_atom_site_fract_z
Si Si1 0.795994 0.524727 0.087082
Si Si2 0.061894 0.658144 0.319174
Si Si3 0.719493 0.732320 0.339235
Si Si4 0.206239 0.834885 0.645865
Si Si5 0.202773 0.098601 0.168213
Si Si6 0.410738 0.068160 0.323891
Si Si7 0.671559 0.367818 0.623388
Si Si8 0.388943 0.741492 0.032441
O O1 0.720498 0.630049 0.231931
O O2 0.765492 0.311768 0.192846
O O3 0.774780 0.688806 0.930052
O O4 0.000000 0.500000 0.000000
O O5 0.913374 0.733262 0.270244
O O6 0.000000 0.500000 0.500000
O O7 0.146293 0.738381 0.372386
O O8 0.236624 0.634679 0.135564
O O9 0.579844 0.925533 0.332047
O O10 0.662142 0.589284 0.530085
O O11 0.266717 0.032304 0.527983
O O12 0.316780 0.713646 0.503510
O O13 0.002487 0.880068 0.719301
O O14 0.292214 0.961920 0.042993
O O15 0.681411 0.976894 0.742994
O O16 0.480466 0.247254 0.167711
O O17 0.544044 0.342626 0.828200
#
# Coordination Sequence:
#
# PCOD9082382 Si02
#       8
#     2   2   2   2   2   2   2   2
#     4   9  20  36  54  79 105 147 179 210 266 327
#     4   8  17  36  54  74 107 142 182 221 261 318
#     4  10  19  33  54  83 106 138 182 227 256 320
#     4  10  21  36  56  78 110 150 178 209 272 335
#     4  11  21  37  52  80 117 143 174 219 274 326
#     4  12  22  30  52  88 115 133 176 229 276 301
#     4   8  18  34  55  77 102 146 180 212 266 315
#     4  10  20  33  54  82 105 142 178 225 271 301
#
# _framework density 28.511970000000002
#
# number of rings (size 3 to 8) (size 9 to 14) (size 15 to 20)
#    0.750    1.500    2.500    0.750    0.000    3.500 
#    0.000    0.000    0.000    3.000    0.000    6.125 
#    0.000    0.000    0.000    0.000    0.000    0.000 
#
# Total GULP energy -89123.541353 kJ/mol
# GULP energy per Si atom -5570.221335 kJ/mol
# Density = 2.844708 g / cm^3
# Si number density = 28.511970 Si / 1000 Ang^3
#
#
#
# Elastic Constant Matrix: (Units=GPa)
#
#
# Indices 1 2 3 4 5 6 
#
# 1 145.3928 29.9260 41.2790 8.7145 -9.1007 -35.1709
# 2 29.9260 93.9678 51.5076 -23.2367 9.0078 -13.2206
# 3 41.2790 51.5076 232.3523 -31.9345 -24.2281 -7.3882
# 4 8.7145 -23.2367 -31.9345 44.2310 -11.5275 10.1437
# 5 -9.1007 9.0078 -24.2281 -11.5275 44.3595 -0.7582
# 6 -35.1709 -13.2206 -7.3882 10.1437 -0.7582 43.3778
#
#
#
# Elastic Compliance Matrix: (Units=1/GPa)
#
#
# Indices 1 2 3 4 5 6 
#
# 1 0.010622 -0.002778 -0.001950 -0.007042 0.000004 0.009080
# 2 -0.002778 0.014541 -0.002299 0.005562 -0.003326 0.000429
# 3 -0.001950 -0.002299 0.006375 0.005631 0.004970 -0.002426
# 4 -0.007042 0.005562 0.005631 0.036107 0.009691 -0.011329
# 5 0.000004 -0.003326 0.004970 0.009691 0.028419 -0.001933
# 6 0.009080 0.000429 -0.002426 -0.011329 -0.001933 0.032749
#
#
# Mechanical properties :
#
#
# Convention : Reuss Voigt Hill
#
# Bulk Modulus (GPa) = 57.19227 79.68201 68.43714
# Shear Modulus (GPa) = 33.62587 49.66032 41.64310
#
# Velocity S-wave (km/s) = 3.43791 4.17794 3.82586
# Velocity P-wave (km/s) = 5.98845 7.16108 6.60086
#
# Compressibility (1/GPa) = 0.01748488
#
# Stress axis : x y z
#
# Youngs Moduli (GPa) = 94.14219 68.77018 156.86691
#
# Poissons Ratio (x) = 0.19105 0.30588
# Poissons Ratio (y) = 0.26154 0.36058
# Poissons Ratio (z) = 0.18357 0.15808
#
# Static dielectric constant tensor:
#      x y z
#    x 2.326060 0.039070 -0.129160 
#    y 0.039070 2.328120 -0.017080 
#    z -0.129160 -0.017080 2.432040 
# 
# From -- ./inp_files/520111.got.cif
#   From: 2010.05.17/outbox.cif.g08.bks.cpg/sg2_261_cif.got.tgz:520111.got - 2010.06.03 11:33:40.
