data_PCOD9082230
_publ_section_title
;
Structure prediction by ZEFSAII (Michael W. Deem and Ramdas Pophale) SiO2 
 PCOD9082230
Probable space group: P -1
;
_chemical_formula_sum "Si O2"
_cell_formula_units_Z 16
_cell_length_a 8.688049
_cell_length_b 22.768408
_cell_length_c 5.628493
_cell_angle_alpha 115.757701
_cell_angle_beta 95.341856
_cell_angle_gamma 132.850839
_cell_volume 594.314621
_symmetry_space_group_name_H-M "P -1"
_symmetry_group_IT_number 2
_symmetry_cell_setting 'triclinic'
loop_
_space_group_symop_operation_xyz
x,y,z
-x,-y,-z
loop_
_atom_site_type_symbol
_atom_site_label
_atom_site_fract_x
_atom_site_fract_y
_atom_site_fract_z
Si Si1 0.359501 0.169565 0.918540
Si Si2 0.066642 0.447937 0.360364
Si Si3 0.301797 0.336089 0.714855
Si Si4 0.126333 0.424904 0.827626
Si Si5 0.829940 0.977881 0.743517
Si Si6 0.614736 0.124748 0.991869
Si Si7 0.343681 0.900203 0.552646
Si Si8 0.375378 0.318235 0.192239
O O1 0.353744 0.139981 0.600673
O O2 0.482104 0.150412 0.042635
O O3 0.482728 0.281245 0.160055
O O4 0.055805 0.077508 0.772801
O O5 0.996653 0.383638 0.474385
O O6 0.381393 0.549882 0.557143
O O7 0.000000 0.500000 0.500000
O O8 0.972550 0.394607 0.990030
O O9 0.229545 0.387239 0.817443
O O10 0.229633 0.282606 0.353959
O O11 0.621162 0.442622 0.932479
O O12 0.229737 0.275093 0.842532
O O13 0.639108 0.972234 0.754484
O O14 0.000000 0.000000 0.000000
O O15 0.747858 0.162184 0.817894
O O16 0.389064 0.992677 0.705229
O O17 0.770521 0.160923 0.318303
#
# Coordination Sequence:
#
# PCOD9082230 Si02
#       8
#     2   2   2   2   2   2   2   2
#     4  10  21  33  52  78 106 139 177 227 272 320
#     4  10  19  33  55  84 109 145 181 216 257 315
#     4   9  18  33  53  81 104 138 178 218 266 315
#     4   9  17  32  56  79 107 139 181 217 255 319
#     4  10  19  33  53  78 101 138 182 225 272 315
#     4   9  17  30  49  71  94 130 169 208 260 311
#     4   9  17  30  49  72  95 123 173 217 250 314
#     4  10  21  33  53  80 109 139 175 223 270 318
#
# _framework density 26.921766000000002
#
# number of rings (size 3 to 8) (size 9 to 14) (size 15 to 20)
#    0.000    2.500    1.250    1.125    1.750    3.000 
#    0.000    0.000    5.500    0.000    3.250    0.000 
#    0.000    0.000    0.000    0.000    0.000    0.000 
#
# Total GULP energy -89446.650105 kJ/mol
# GULP energy per Si atom -5590.415632 kJ/mol
# Density = 2.686049 g / cm^3
# Si number density = 26.921766 Si / 1000 Ang^3
#
#
#
# Elastic Constant Matrix: (Units=GPa)
#
#
# Indices 1 2 3 4 5 6 
#
# 1 102.7607 61.9182 36.8685 -13.6136 -19.8707 -9.3511
# 2 61.9182 106.4919 67.7278 -34.5117 -10.8060 -10.5601
# 3 36.8685 67.7278 134.2054 -51.2971 -30.0980 2.5243
# 4 -13.6136 -34.5117 -51.2971 68.6728 5.0955 3.6387
# 5 -19.8707 -10.8060 -30.0980 5.0955 43.0778 -2.0321
# 6 -9.3511 -10.5601 2.5243 3.6387 -2.0321 48.4153
#
#
#
# Elastic Compliance Matrix: (Units=1/GPa)
#
#
# Indices 1 2 3 4 5 6 
#
# 1 0.016507 -0.010217 0.001543 -0.001246 0.006335 0.001239
# 2 -0.010217 0.021030 -0.007920 0.002875 -0.005189 0.002593
# 3 0.001543 -0.007920 0.016038 0.007777 0.008894 -0.002477
# 4 -0.001246 0.002875 0.007777 0.021428 0.002975 -0.001505
# 5 0.006335 -0.005189 0.008894 0.002975 0.030729 0.000694
# 6 0.001239 0.002593 -0.002477 -0.001505 0.000694 0.021731
#
#
# Mechanical properties :
#
#
# Convention : Reuss Voigt Hill
#
# Bulk Modulus (GPa) = 49.05067 75.16521 62.10794
# Shear Modulus (GPa) = 29.86045 43.82941 36.84493
#
# Velocity S-wave (km/s) = 3.33401 4.03926 3.70346
# Velocity P-wave (km/s) = 5.75153 7.05228 6.43486
#
# Compressibility (1/GPa) = 0.02038708
#
# Stress axis : x y z
#
# Youngs Moduli (GPa) = 60.58208 47.55148 62.35171
#
# Poissons Ratio (x) = 0.48581 -0.09618
# Poissons Ratio (y) = 0.61894 0.49381
# Poissons Ratio (z) = -0.09345 0.37659
#
# Static dielectric constant tensor:
#      x y z
#    x 2.129280 0.091230 0.040170 
#    y 0.091230 2.171020 -0.037090 
#    z 0.040170 -0.037090 2.166350 
# 
# From -- ./inp_files/53770.got.cif
#   From: 2010.05.17/outbox.cif.g08.bks.cpg/sg2_27_cif.got.tgz:53770.got - 2010.06.03 11:33:40.
