data_PCOD9082305
_publ_section_title
;
Structure prediction by ZEFSAII (Michael W. Deem and Ramdas Pophale) SiO2 
 PCOD9082305
Probable space group: P -1
;
_chemical_formula_sum "Si O2"
_cell_formula_units_Z 15
_cell_length_a 8.295380
_cell_length_b 4.933556
_cell_length_c 13.519914
_cell_angle_alpha 79.190305
_cell_angle_beta 110.773089
_cell_angle_gamma 88.894624
_cell_volume 505.939857
_symmetry_space_group_name_H-M "P -1"
_symmetry_group_IT_number 2
_symmetry_cell_setting 'triclinic'
loop_
_space_group_symop_operation_xyz
x,y,z
-x,-y,-z
loop_
_atom_site_type_symbol
_atom_site_label
_atom_site_fract_x
_atom_site_fract_y
_atom_site_fract_z
Si Si1 0.991175 0.349942 0.902231
Si Si2 0.168390 0.167768 0.544598
Si Si3 0.389981 0.783673 0.872978
Si Si4 0.918223 0.748499 0.274053
Si Si5 0.460720 0.678400 0.691864
Si Si6 0.257229 0.051449 0.365770
Si Si7 0.712649 0.129682 0.952208
Si Si8 0.500000 0.500000 0.500000
O O1 0.793177 0.273835 0.866806
O O2 0.040938 0.456310 0.796831
O O3 0.000000 0.500000 0.000000
O O4 0.126827 0.081042 0.961439
O O5 0.116247 0.362254 0.615111
O O6 0.314878 0.932371 0.626969
O O7 0.231888 0.262552 0.442151
O O8 0.000000 0.000000 0.500000
O O9 0.421796 0.579237 0.800805
O O10 0.240150 0.025961 0.799329
O O11 0.559763 0.945596 0.908623
O O12 0.340650 0.676834 0.977749
O O13 0.084200 0.923477 0.306716
O O14 0.459818 0.472355 0.614725
O O15 0.645941 0.801485 0.709309
O O16 0.383323 0.798404 0.451703
#
# Coordination Sequence:
#
# PCOD9082305 Si02
#       8
#     2   2   2   2   2   2   2   1
#     4  10  20  35  56  82 110 142 177 220 272 320
#     4   8  15  29  50  70  95 131 167 208 255 302
#     4   9  18  36  58  78 106 145 181 221 269 314
#     4   9  18  33  54  76 103 141 179 215 263 319
#     4  10  19  33  54  76 102 139 177 215 267 319
#     4  10  19  34  55  75 103 141 177 219 266 317
#     4   9  19  37  57  79 109 140 180 226 265 316
#     4  10  20  32  50  80 106 130 174 222 262 312
#
# _framework density 29.647789
#
# number of rings (size 3 to 8) (size 9 to 14) (size 15 to 20)
#    0.000    2.667    0.000    2.400    0.000    1.067 
#    0.000   11.333    0.000   75.200    0.000    0.000 
#    0.000    0.000    0.000    0.000    0.000    0.000 
#
# Total GULP energy -83929.980509 kJ/mol
# GULP energy per Si atom -5595.332034 kJ/mol
# Density = 2.958031 g / cm^3
# Si number density = 29.647789 Si / 1000 Ang^3
#
#
#
# Elastic Constant Matrix: (Units=GPa)
#
#
# Indices 1 2 3 4 5 6 
#
# 1 197.0027 45.1472 74.6771 12.4160 -23.4728 -30.1851
# 2 45.1472 123.9239 56.9141 19.2770 -20.2606 -8.4833
# 3 74.6771 56.9141 181.8760 42.3312 -59.9630 -23.1783
# 4 12.4160 19.2770 42.3312 74.0280 -27.6697 -17.9775
# 5 -23.4728 -20.2606 -59.9630 -27.6697 83.7349 22.3100
# 6 -30.1851 -8.4833 -23.1783 -17.9775 22.3100 38.7094
#
#
#
# Elastic Compliance Matrix: (Units=1/GPa)
#
#
# Indices 1 2 3 4 5 6 
#
# 1 0.006844 -0.001442 -0.002389 0.001400 -0.000955 0.004791
# 2 -0.001442 0.009778 -0.002245 -0.001178 0.000233 -0.001007
# 3 -0.002389 -0.002245 0.009281 -0.002745 0.004741 -0.000805
# 4 0.001400 -0.001178 -0.002745 0.017467 0.002325 0.005962
# 5 -0.000955 0.000233 0.004741 0.002325 0.017763 -0.007013
# 6 0.004791 -0.001007 -0.000805 0.005962 -0.007013 0.035678
#
#
# Mechanical properties :
#
#
# Convention : Reuss Voigt Hill
#
# Bulk Modulus (GPa) = 72.72237 95.14215 83.93226
# Shear Modulus (GPa) = 44.03447 61.03208 52.53327
#
# Velocity S-wave (km/s) = 3.85808 4.54207 4.21398
# Velocity P-wave (km/s) = 6.66546 7.72449 7.21443
#
# Compressibility (1/GPa) = 0.01375093
#
# Stress axis : x y z
#
# Youngs Moduli (GPa) = 146.10702 102.26628 107.74603
#
# Poissons Ratio (x) = 0.14749 0.25742
# Poissons Ratio (y) = 0.21072 0.24190
# Poissons Ratio (z) = 0.34907 0.22960
#
# Static dielectric constant tensor:
#      x y z
#    x 2.105310 -0.036740 -0.049870 
#    y -0.036740 2.142730 0.068470 
#    z -0.049870 0.068470 2.351330 
# 
# From -- ./inp_files/34832.got.cif
#   From: 2010.05.17/outbox.cif.g08.bks.cpg/sg2_18_cif.got.tgz:34832.got - 2010.06.03 11:33:40.
