data_PCOD9082758
_publ_section_title
;
Structure prediction by ZEFSAII (Michael W. Deem and Ramdas Pophale) SiO2 
 PCOD9082758
Probable space group: P -1
;
_chemical_formula_sum "Si O2"
_cell_formula_units_Z 14
_cell_length_a 25.919896
_cell_length_b 16.258551
_cell_length_c 9.339291
_cell_angle_alpha 38.510254
_cell_angle_beta 145.952462
_cell_angle_gamma 165.930648
_cell_volume 529.125090
_symmetry_space_group_name_H-M "P -1"
_symmetry_group_IT_number 2
_symmetry_cell_setting 'triclinic'
loop_
_space_group_symop_operation_xyz
x,y,z
-x,-y,-z
loop_
_atom_site_type_symbol
_atom_site_label
_atom_site_fract_x
_atom_site_fract_y
_atom_site_fract_z
Si Si1 0.372937 0.683440 0.108635
Si Si2 0.883631 0.226648 0.526555
Si Si3 0.328368 0.685069 0.434965
Si Si4 0.794711 0.877233 0.985633
Si Si5 0.162924 0.727848 0.927558
Si Si6 0.658628 0.543703 0.400386
Si Si7 0.710212 0.509451 0.132610
O O1 0.245244 0.419759 0.296316
O O2 0.260030 0.519520 0.912647
O O3 0.605710 0.896006 0.332680
O O4 0.500000 0.000000 0.000000
O O5 0.000000 0.500000 0.500000
O O6 0.942699 0.188538 0.823708
O O7 0.955535 0.339297 0.373855
O O8 0.209439 0.633602 0.125183
O O9 0.446412 0.718928 0.577312
O O10 0.500000 0.000000 0.500000
O O11 0.166347 0.403572 0.568202
O O12 0.539279 0.615915 0.781270
O O13 0.777209 0.747728 0.993200
O O14 0.815435 0.833702 0.249132
O O15 0.000000 0.500000 0.000000
O O16 0.422944 0.129015 0.014290
#
# Coordination Sequence:
#
# PCOD9082758 Si02
#       7
#     2   2   2   2   2   2   2
#     4  10  19  33  57  88 111 139 184 227 272 323
#     4  10  22  36  53  77 111 144 178 231 278 327
#     4   9  17  33  54  80 107 139 183 225 268 319
#     4   9  19  35  55  81 108 144 189 225 278 326
#     4  10  21  34  54  82 110 143 181 224 277 327
#     4   9  17  30  54  80 106 138 178 224 265 322
#     4   9  19  35  58  81 110 143 181 232 269 323
#
# _framework density 26.458773000000001
#
# number of rings (size 3 to 8) (size 9 to 14) (size 15 to 20)
#    0.000    2.571    0.000    2.571    0.000   14.286 
#    0.000    0.000    0.000   26.571    0.000    0.000 
#    0.000    0.000    0.000    0.000    0.000    0.000 
#
# Total GULP energy -77959.390071 kJ/mol
# GULP energy per Si atom -5568.527862 kJ/mol
# Density = 2.639855 g / cm^3
# Si number density = 26.458773 Si / 1000 Ang^3
#
#
#
# Elastic Constant Matrix: (Units=GPa)
#
#
# Indices 1 2 3 4 5 6 
#
# 1 109.1423 34.8509 41.3705 -21.0118 -10.2376 -15.5149
# 2 34.8509 37.8737 41.0534 -46.4595 -17.8698 -16.6675
# 3 41.3705 41.0534 268.8078 -18.5308 -20.4091 -18.0535
# 4 -21.0118 -46.4595 -18.5308 52.2180 -1.8832 -1.8502
# 5 -10.2376 -17.8698 -20.4091 -1.8832 53.9637 -9.3627
# 6 -15.5149 -16.6675 -18.0535 -1.8502 -9.3627 38.0389
#
#
#
# Elastic Compliance Matrix: (Units=1/GPa)
#
#
# Indices 1 2 3 4 5 6 
#
# 1 0.011367 0.000491 -0.000878 0.005004 0.003106 0.005442
# 2 0.000491 -0.042342 0.000583 -0.038842 -0.019353 -0.024729
# 3 -0.000878 0.000583 0.004222 0.001830 0.002123 0.002513
# 4 0.005004 -0.038842 0.001830 -0.013937 -0.014910 -0.018458
# 5 0.003106 -0.019353 0.002123 -0.014910 0.012318 -0.003899
# 6 0.005442 -0.024729 0.002513 -0.018458 -0.003899 0.017008
#
#
# Mechanical properties :
#
#
# Convention : Reuss Voigt Hill
#
# Bulk Modulus (GPa) = -37.93554 72.26371 17.16409
# Shear Modulus (GPa) = -243.40128 48.74739 -97.32694
#
# Velocity S-wave (km/s) = -9.60169 4.29696 -6.07159
# Velocity P-wave (km/s) = 11.71716 7.21038 6.53078
#
# Compressibility (1/GPa) = -0.02636050
#
# Stress axis : x y z
#
# Youngs Moduli (GPa) = 87.97612 -23.61748 236.83743
#
# Poissons Ratio (x) = 0.01159 0.20796
# Poissons Ratio (y) = -0.04319 -0.13812
# Poissons Ratio (z) = 0.07725 0.01377
#
# Static dielectric constant tensor:
#      x y z
#    x 2.125600 0.115010 0.022960 
#    y 0.115010 2.292020 0.169410 
#    z 0.022960 0.169410 2.440240 
# 
# From -- ./inp_files/257436.got.cif
#   From: 2010.05.17/outbox.cif.g08.bks.cpg/sg2_129_cif.got.tgz:257436.got - 2010.06.03 11:33:40.
