data_PCOD9082846
_publ_section_title
;
Structure prediction by ZEFSAII (Michael W. Deem and Ramdas Pophale) SiO2 
 PCOD9082846
Probable space group: P -1
;
_chemical_formula_sum "Si O2"
_cell_formula_units_Z 16
_cell_length_a 8.699693
_cell_length_b 11.137867
_cell_length_c 8.760980
_cell_angle_alpha 117.238504
_cell_angle_beta 105.050702
_cell_angle_gamma 81.065617
_cell_volume 728.219882
_symmetry_space_group_name_H-M "P -1"
_symmetry_group_IT_number 2
_symmetry_cell_setting 'triclinic'
loop_
_space_group_symop_operation_xyz
x,y,z
-x,-y,-z
loop_
_atom_site_type_symbol
_atom_site_label
_atom_site_fract_x
_atom_site_fract_y
_atom_site_fract_z
Si Si1 0.726794 0.301696 0.155158
Si Si2 0.486060 0.653643 0.136718
Si Si3 0.401757 0.935989 0.573574
Si Si4 0.935077 0.156608 0.601087
Si Si5 0.563833 0.770761 0.774945
Si Si6 0.014774 0.335311 0.431062
Si Si7 0.362425 0.400319 0.556158
Si Si8 0.755188 0.816211 0.137662
O O1 0.598933 0.215784 0.162136
O O2 0.909335 0.274484 0.232560
O O3 0.686820 0.451983 0.303723
O O4 0.671661 0.291482 0.960235
O O5 0.505619 0.657110 0.324583
O O6 0.644075 0.713720 0.139245
O O7 0.500000 0.500000 0.000000
O O8 0.252139 0.855172 0.425271
O O9 0.529894 0.862331 0.673842
O O10 0.500000 0.000000 0.500000
O O11 0.312734 0.044551 0.725842
O O12 0.951588 0.260961 0.523324
O O13 0.058988 0.206032 0.788998
O O14 0.000000 0.000000 0.500000
O O15 0.588978 0.621097 0.620118
O O16 0.706918 0.804346 0.942095
O O17 0.000000 0.500000 0.500000
O O18 0.203949 0.313088 0.472237
#
# Coordination Sequence:
#
# PCOD9082846 Si02
#       8
#     2   2   2   2   2   2   2   2
#     4   9  19  34  56  86 117 155 193 245 297 350
#     4   9  17  32  57  86 114 149 193 241 294 356
#     4  11  23  39  62  87 114 158 208 255 299 359
#     4  10  21  39  64  85 120 161 199 249 307 360
#     4  11  21  36  58  82 122 154 198 249 295 352
#     4  10  19  36  62  89 120 155 198 248 304 361
#     4  10  19  33  58  86 118 156 200 234 300 359
#     4  10  21  39  58  86 119 158 199 246 307 357
#
# _framework density 21.971384
#
# number of rings (size 3 to 8) (size 9 to 14) (size 15 to 20)
#    0.000    2.000    2.500    1.500    1.750    0.000 
#    0.000    4.375    0.000    1.500    0.000    0.000 
#    0.000    0.000    0.000    0.000    0.000    0.000 
#
# Total GULP energy -89113.335363 kJ/mol
# GULP energy per Si atom -5569.583460 kJ/mol
# Density = 2.192138 g / cm^3
# Si number density = 21.971384 Si / 1000 Ang^3
#
#
#
# Elastic Constant Matrix: (Units=GPa)
#
#
# Indices 1 2 3 4 5 6 
#
# 1 78.1859 22.9812 47.0338 2.8509 34.9207 -7.5550
# 2 22.9812 80.6612 32.4329 -12.5596 15.2790 0.0491
# 3 47.0338 32.4329 177.1665 -24.3900 36.9291 -9.6944
# 4 2.8509 -12.5596 -24.3900 25.8785 -5.7784 8.5145
# 5 34.9207 15.2790 36.9291 -5.7784 47.9890 3.7213
# 6 -7.5550 0.0491 -9.6944 8.5145 3.7213 21.4295
#
#
#
# Elastic Compliance Matrix: (Units=1/GPa)
#
#
# Indices 1 2 3 4 5 6 
#
# 1 0.028573 -0.006002 -0.004164 -0.020962 -0.019749 0.019962
# 2 -0.006002 0.015640 -0.000549 0.010314 0.001578 -0.006772
# 3 -0.004164 -0.000549 0.008364 0.007677 -0.002281 -0.000337
# 4 -0.020962 0.010314 0.007677 0.068135 0.016899 -0.033948
# 5 -0.019749 0.001578 -0.002281 0.016899 0.040179 -0.021690
# 6 0.019962 -0.006772 -0.000337 -0.033948 -0.021690 0.070820
#
#
# Mechanical properties :
#
#
# Convention : Reuss Voigt Hill
#
# Bulk Modulus (GPa) = 32.10567 60.10106 46.10337
# Shear Modulus (GPa) = 18.97367 34.63045 26.80206
#
# Velocity S-wave (km/s) = 2.94183 3.97440 3.49644
# Velocity P-wave (km/s) = 5.11697 6.96238 6.10975
#
# Compressibility (1/GPa) = 0.03114715
#
# Stress axis : x y z
#
# Youngs Moduli (GPa) = 34.99852 63.94007 119.55624
#
# Poissons Ratio (x) = 0.38375 0.49780
# Poissons Ratio (y) = 0.21005 0.06566
# Poissons Ratio (z) = 0.14572 0.03512
#
# Static dielectric constant tensor:
#      x y z
#    x 1.846710 -0.068770 0.013130 
#    y -0.068770 1.990770 -0.029990 
#    z 0.013130 -0.029990 1.820180 
# 
# From -- ./inp_files/189429.got.cif
#   From: 2010.05.17/outbox.cif.g08.bks.cpg/sg2_95_cif.got.tgz:189429.got - 2010.06.03 11:33:40.
