data_PCOD9082063
_publ_section_title
;
Structure prediction by ZEFSAII (Michael W. Deem and Ramdas Pophale) SiO2 
 PCOD9082063
Probable space group: P -1
;
_chemical_formula_sum "Si O2"
_cell_formula_units_Z 16
_cell_length_a 16.058299
_cell_length_b 13.940684
_cell_length_c 9.782563
_cell_angle_alpha 48.358664
_cell_angle_beta 35.201143
_cell_angle_gamma 40.350489
_cell_volume 812.230394
_symmetry_space_group_name_H-M "P -1"
_symmetry_group_IT_number 2
_symmetry_cell_setting 'triclinic'
loop_
_space_group_symop_operation_xyz
x,y,z
-x,-y,-z
loop_
_atom_site_type_symbol
_atom_site_label
_atom_site_fract_x
_atom_site_fract_y
_atom_site_fract_z
Si Si1 0.577730 0.566033 0.729095
Si Si2 0.747656 0.165300 0.603659
Si Si3 0.802717 0.549600 0.043432
Si Si4 0.509046 0.123770 0.780969
Si Si5 0.402996 0.138227 0.602965
Si Si6 0.448411 0.484695 0.735748
Si Si7 0.926282 0.392297 0.323369
Si Si8 0.899847 0.870178 0.845111
O O1 0.594534 0.712699 0.590492
O O2 0.471621 0.589321 0.710420
O O3 0.765608 0.427759 0.588729
O O4 0.500000 0.500000 0.000000
O O5 0.671351 0.126615 0.612774
O O6 0.594033 0.315449 0.732366
O O7 0.910405 0.172780 0.329918
O O8 0.805332 0.040039 0.761515
O O9 0.649717 0.715398 0.120238
O O10 0.734987 0.490750 0.068494
O O11 0.847993 0.472277 0.206028
O O12 0.973720 0.545404 0.787586
O O13 0.495805 0.097861 0.663902
O O14 0.500000 0.000000 0.000000
O O15 0.500000 0.000000 0.500000
O O16 0.217348 0.162504 0.867135
O O17 0.500000 0.500000 0.500000
O O18 0.062564 0.227455 0.250702
#
# Coordination Sequence:
#
# PCOD9082063 Si02
#       8
#     2   2   2   2   2   2   2   2
#     4  12  26  41  63  95 134 173 213 265 327 385
#     4  10  21  34  67 100 124 158 223 268 316 373
#     4  10  19  32  66  93 121 152 221 265 313 365
#     4  11  19  38  63  97 126 166 214 266 316 383
#     4  12  26  42  62  95 136 174 209 263 333 386
#     4  11  20  38  63  96 124 165 214 267 315 379
#     4  11  18  38  62  94 123 164 212 266 313 377
#     4  11  21  38  64  98 127 165 216 267 317 381
#
# _framework density 19.698846
#
# number of rings (size 3 to 8) (size 9 to 14) (size 15 to 20)
#    0.000    1.000    6.250    1.500    1.750    0.000 
#    0.000    1.250    0.000    6.000    0.000    0.000 
#    0.000    0.000    0.000    0.000    0.000    0.000 
#
# Total GULP energy -89155.231594 kJ/mol
# GULP energy per Si atom -5572.201975 kJ/mol
# Density = 1.965401 g / cm^3
# Si number density = 19.698846 Si / 1000 Ang^3
#
#
#
# Elastic Constant Matrix: (Units=GPa)
#
#
# Indices 1 2 3 4 5 6 
#
# 1 116.6059 9.8283 47.2811 5.1498 -43.8311 4.2230
# 2 9.8283 81.1714 21.2785 -15.6108 -7.0844 3.5238
# 3 47.2811 21.2785 140.5651 2.3449 -32.9272 8.9282
# 4 5.1498 -15.6108 2.3449 28.8575 -4.7066 0.1372
# 5 -43.8311 -7.0844 -32.9272 -4.7066 42.2635 3.1747
# 6 4.2230 3.5238 8.9282 0.1372 3.1747 29.9412
#
#
#
# Elastic Compliance Matrix: (Units=1/GPa)
#
#
# Indices 1 2 3 4 5 6 
#
# 1 0.014643 -0.000065 -0.001352 -0.000184 0.014340 -0.003174
# 2 -0.000065 0.014652 -0.001762 0.008424 0.002063 -0.001447
# 3 -0.001352 -0.001762 0.009391 -0.000516 0.005789 -0.003014
# 4 -0.000184 0.008424 -0.000516 0.040175 0.005410 -0.001569
# 5 0.014340 0.002063 0.005789 0.005410 0.044648 -0.008750
# 6 -0.003174 -0.001447 -0.003014 -0.001569 -0.008750 0.035851
#
#
# Mechanical properties :
#
#
# Convention : Reuss Voigt Hill
#
# Bulk Modulus (GPa) = 30.93044 55.01314 42.97179
# Shear Modulus (GPa) = 28.32968 37.54274 32.93621
#
# Velocity S-wave (km/s) = 3.79639 4.37032 4.09343
# Velocity P-wave (km/s) = 5.91207 7.31122 6.64855
#
# Compressibility (1/GPa) = 0.03233061
#
# Stress axis : x y z
#
# Youngs Moduli (GPa) = 68.29326 68.24856 106.47939
#
# Poissons Ratio (x) = 0.00442 0.14393
# Poissons Ratio (y) = 0.00442 0.18756
# Poissons Ratio (z) = 0.09231 0.12022
#
# Static dielectric constant tensor:
#      x y z
#    x 1.845220 0.002740 -0.067330 
#    y 0.002740 1.786590 -0.025460 
#    z -0.067330 -0.025460 1.767070 
# 
# From -- ./inp_files/312472.got.cif
#   From: 2010.05.17/outbox.cif.g08.bks.cpg/sg2_157_cif.got.tgz:312472.got - 2010.06.03 11:33:40.
