data_PCOD9082457
_publ_section_title
;
Structure prediction by ZEFSAII (Michael W. Deem and Ramdas Pophale) SiO2 
 PCOD9082457
Probable space group: P -1
;
_chemical_formula_sum "Si O2"
_cell_formula_units_Z 16
_cell_length_a 9.800906
_cell_length_b 9.421091
_cell_length_c 17.747158
_cell_angle_alpha 136.451720
_cell_angle_beta 50.970764
_cell_angle_gamma 94.101987
_cell_volume 609.428853
_symmetry_space_group_name_H-M "P -1"
_symmetry_group_IT_number 2
_symmetry_cell_setting 'triclinic'
loop_
_space_group_symop_operation_xyz
x,y,z
-x,-y,-z
loop_
_atom_site_type_symbol
_atom_site_label
_atom_site_fract_x
_atom_site_fract_y
_atom_site_fract_z
Si Si1 0.512181 0.165810 0.154912
Si Si2 0.821027 0.620204 0.182369
Si Si3 0.760039 0.943813 0.608007
Si Si4 0.548116 0.413327 0.758281
Si Si5 0.943769 0.347973 0.308285
Si Si6 0.240042 0.959611 0.183655
Si Si7 0.567548 0.120027 0.372500
Si Si8 0.143069 0.059160 0.929695
O O1 0.795759 0.924621 0.928940
O O2 0.579381 0.156837 0.214016
O O3 0.375627 0.465569 0.275752
O O4 0.386864 0.050169 0.149408
O O5 0.641366 0.575280 0.215968
O O6 0.652430 0.970203 0.367704
O O7 0.990299 0.406073 0.112174
O O8 0.000000 0.500000 0.000000
O O9 0.772448 0.091455 0.591640
O O10 0.502866 0.035388 0.707676
O O11 0.761344 0.048649 0.729077
O O12 0.947105 0.593363 0.411143
O O13 0.392879 0.645047 0.971111
O O14 0.977704 0.214615 0.327309
O O15 0.690523 0.537443 0.418568
O O16 0.797502 0.030979 0.213651
O O17 0.000000 0.000000 0.000000
#
# Coordination Sequence:
#
# PCOD9082457 Si02
#       8
#     2   2   2   2   2   2   2   2
#     4  11  21  36  54  87 113 142 183 227 276 324
#     4   9  18  34  57  79 104 143 187 222 268 316
#     4   9  18  34  56  76 107 146 179 218 267 330
#     4  10  19  33  55  81 110 140 183 229 266 325
#     4   9  19  34  57  79 114 147 171 225 285 326
#     4  11  20  35  58  85 110 143 184 229 268 328
#     4   8  18  35  56  76 104 143 181 217 274 319
#     4  11  19  33  59  82 104 144 190 228 260 326
#
# _framework density 26.254093000000001
#
# number of rings (size 3 to 8) (size 9 to 14) (size 15 to 20)
#    0.750    1.500    2.500    2.250    0.000    0.000 
#    0.000    3.750    0.000    6.000    0.000    0.000 
#    0.000    0.000    0.000    0.000    0.000    0.000 
#
# Total GULP energy -89331.805202 kJ/mol
# GULP energy per Si atom -5583.237825 kJ/mol
# Density = 2.619434 g / cm^3
# Si number density = 26.254093 Si / 1000 Ang^3
#
#
#
# Elastic Constant Matrix: (Units=GPa)
#
#
# Indices 1 2 3 4 5 6 
#
# 1 69.3030 3.0655 12.3827 0.9844 -2.4828 -0.0115
# 2 3.0655 128.8937 27.8746 20.0390 -7.1764 -15.5658
# 3 12.3827 27.8746 40.2604 4.5586 -12.0588 1.5226
# 4 0.9844 20.0390 4.5586 43.0150 0.3375 -7.7347
# 5 -2.4828 -7.1764 -12.0588 0.3375 39.8821 -1.0858
# 6 -0.0115 -15.5658 1.5226 -7.7347 -1.0858 38.0724
#
#
#
# Elastic Compliance Matrix: (Units=1/GPa)
#
#
# Indices 1 2 3 4 5 6 
#
# 1 0.015355 0.000872 -0.005499 -0.000072 -0.000534 0.000551
# 2 0.000872 0.010263 -0.007179 -0.003356 -0.000138 0.003797
# 3 -0.005499 -0.007179 0.034366 -0.001007 0.008649 -0.004269
# 4 -0.000072 -0.003356 -0.001007 0.025619 -0.001025 0.003844
# 5 -0.000534 -0.000138 0.008649 -0.001025 0.027645 0.000178
# 6 0.000551 0.003797 -0.004269 0.003844 0.000178 0.028775
#
#
# Mechanical properties :
#
#
# Convention : Reuss Voigt Hill
#
# Bulk Modulus (GPa) = 27.49340 36.12251 31.80795
# Shear Modulus (GPa) = 28.12805 37.20286 32.66545
#
# Velocity S-wave (km/s) = 3.27674 3.76843 3.53115
# Velocity P-wave (km/s) = 4.98105 5.72044 5.36350
#
# Compressibility (1/GPa) = 0.03637237
#
# Stress axis : x y z
#
# Youngs Moduli (GPa) = 65.12374 97.43968 29.09852
#
# Poissons Ratio (x) = -0.08497 0.16002
# Poissons Ratio (y) = -0.05679 0.20889
# Poissons Ratio (z) = 0.35814 0.69948
#
# Static dielectric constant tensor:
#      x y z
#    x 2.182290 -0.084580 0.040870 
#    y -0.084580 2.121580 0.010070 
#    z 0.040870 0.010070 2.134780 
# 
# From -- ./inp_files/544454.got.cif
#   From: 2010.05.17/outbox.cif.g08.bks.cpg/sg2_273_cif.got.tgz:544454.got - 2010.06.03 11:33:40.
