data_PCOD9082962
_publ_section_title
;
Structure prediction by ZEFSAII (Michael W. Deem and Ramdas Pophale) SiO2 
 PCOD9082962
Probable space group: P -1
;
_chemical_formula_sum "Si O2"
_cell_formula_units_Z 16
_cell_length_a 10.248680
_cell_length_b 8.891310
_cell_length_c 11.883985
_cell_angle_alpha 99.361818
_cell_angle_beta 119.770819
_cell_angle_gamma 42.358734
_cell_volume 593.465164
_symmetry_space_group_name_H-M "P -1"
_symmetry_group_IT_number 2
_symmetry_cell_setting 'triclinic'
loop_
_space_group_symop_operation_xyz
x,y,z
-x,-y,-z
loop_
_atom_site_type_symbol
_atom_site_label
_atom_site_fract_x
_atom_site_fract_y
_atom_site_fract_z
Si Si1 0.231727 0.738572 0.877694
Si Si2 0.658173 0.029030 0.999210
Si Si3 0.284537 0.360354 0.437395
Si Si4 0.812028 0.210372 0.534076
Si Si5 0.840634 0.639851 0.181570
Si Si6 0.260082 0.908923 0.278719
Si Si7 0.525534 0.543385 0.771152
Si Si8 0.728211 0.700566 0.823605
O O1 0.296426 0.704504 0.769798
O O2 0.500000 0.500000 0.000000
O O3 0.180767 0.949278 0.927136
O O4 0.001738 0.820128 0.823923
O O5 0.384650 0.290118 0.903409
O O6 0.680161 0.896237 0.888292
O O7 0.711986 0.902341 0.126446
O O8 0.182890 0.612397 0.421238
O O9 0.497544 0.190245 0.597772
O O10 0.383337 0.228824 0.341906
O O11 0.027412 0.476498 0.343388
O O12 0.802060 0.125770 0.634267
O O13 0.566161 0.382038 0.386067
O O14 0.000000 0.000000 0.500000
O O15 0.001931 0.508682 0.124345
O O16 0.328006 0.727138 0.194895
O O17 0.657770 0.601032 0.847241
#
# Coordination Sequence:
#
# PCOD9082962 Si02
#       8
#     2   2   2   2   2   2   2   2
#     4  12  28  43  57  83 119 170 221 243 275 349
#     4  11  21  35  59  82 122 168 189 241 301 352
#     4   9  19  32  54  96 123 147 180 240 315 369
#     4  11  17  28  57  96 125 148 178 237 316 369
#     4   9  19  34  55  95 124 141 189 236 313 376
#     4  11  20  40  59  88 126 153 197 250 303 362
#     4  11  20  35  62  93 124 156 185 248 311 359
#     4  10  19  33  59  94 127 145 185 243 316 375
#
# _framework density 26.960303
#
# number of rings (size 3 to 8) (size 9 to 14) (size 15 to 20)
#    0.750    0.750    3.750    4.125    1.750    1.500 
#    0.000    0.000    0.000    1.500    0.000    0.000 
#    0.000    0.000    0.000    0.000    0.000    0.000 
#
# Total GULP energy -89197.774949 kJ/mol
# GULP energy per Si atom -5574.860934 kJ/mol
# Density = 2.689894 g / cm^3
# Si number density = 26.960303 Si / 1000 Ang^3
#
#
#
# Elastic Constant Matrix: (Units=GPa)
#
#
# Indices 1 2 3 4 5 6 
#
# 1 63.0678 28.1929 29.2894 -6.2893 24.2029 -14.6531
# 2 28.1929 138.0426 44.7684 11.6084 12.6015 -27.4657
# 3 29.2894 44.7684 133.8741 -10.6887 36.4984 -4.6038
# 4 -6.2893 11.6084 -10.6887 49.6552 -11.1393 8.0344
# 5 24.2029 12.6015 36.4984 -11.1393 53.5889 -5.8582
# 6 -14.6531 -27.4657 -4.6038 8.0344 -5.8582 42.8398
#
#
#
# Elastic Compliance Matrix: (Units=1/GPa)
#
#
# Indices 1 2 3 4 5 6 
#
# 1 0.021682 -0.002299 -0.001744 0.000484 -0.007456 0.004645
# 2 -0.002299 0.010343 -0.003250 -0.004303 0.000623 0.006388
# 3 -0.001744 -0.003250 0.010498 0.002004 -0.005475 -0.002676
# 4 0.000484 -0.004303 0.002004 0.023466 0.003619 -0.006284
# 5 -0.007456 0.000623 -0.005475 0.003619 0.026383 0.000190
# 6 0.004645 0.006388 -0.002676 -0.006284 0.000190 0.029944
#
#
# Mechanical properties :
#
#
# Convention : Reuss Voigt Hill
#
# Bulk Modulus (GPa) = 35.79169 59.94288 47.86729
# Shear Modulus (GPa) = 34.19626 44.73237 39.46432
#
# Velocity S-wave (km/s) = 3.56531 4.07774 3.83011
# Velocity P-wave (km/s) = 5.50029 6.66728 6.11170
#
# Compressibility (1/GPa) = 0.02793945
#
# Stress axis : x y z
#
# Youngs Moduli (GPa) = 46.12110 96.67936 95.25190
#
# Poissons Ratio (x) = 0.22222 0.16611
# Poissons Ratio (y) = 0.10601 0.30955
# Poissons Ratio (z) = 0.08043 0.31419
#
# Static dielectric constant tensor:
#      x y z
#    x 2.219490 0.101730 -0.211210 
#    y 0.101730 2.261160 -0.184060 
#    z -0.211210 -0.184060 2.512050 
# 
# From -- ./inp_files/515973.got.cif
#   From: 2010.05.17/outbox.cif.g08.bks.cpg/sg2_258_cif.got.tgz:515973.got - 2010.06.03 11:33:40.
