data_PCOD9082106
_publ_section_title
;
Structure prediction by ZEFSAII (Michael W. Deem and Ramdas Pophale) SiO2 
 PCOD9082106
Probable space group: P -1
;
_chemical_formula_sum "Si O2"
_cell_formula_units_Z 14
_cell_length_a 12.320906
_cell_length_b 6.463247
_cell_length_c 16.576681
_cell_angle_alpha 47.245769
_cell_angle_beta 117.259283
_cell_angle_gamma 104.465668
_cell_volume 857.845742
_symmetry_space_group_name_H-M "P -1"
_symmetry_group_IT_number 2
_symmetry_cell_setting 'triclinic'
loop_
_space_group_symop_operation_xyz
x,y,z
-x,-y,-z
loop_
_atom_site_type_symbol
_atom_site_label
_atom_site_fract_x
_atom_site_fract_y
_atom_site_fract_z
Si Si1 0.465811 0.176442 0.566202
Si Si2 0.683678 0.811345 0.642515
Si Si3 0.877336 0.875727 0.814330
Si Si4 0.257726 0.847869 0.156742
Si Si5 0.148459 0.775289 0.975870
Si Si6 0.498201 0.155393 0.174472
Si Si7 0.410787 0.794348 0.983245
O O1 0.500000 0.500000 0.500000
O O2 0.580137 0.988612 0.613507
O O3 0.353242 0.149620 0.473702
O O4 0.447812 0.044768 0.682518
O O5 0.811980 0.894319 0.700212
O O6 0.685143 0.475389 0.746215
O O7 0.808143 0.094609 0.795390
O O8 0.022269 0.893829 0.860089
O O9 0.856292 0.563529 0.925244
O O10 0.368740 0.041878 0.136090
O O11 0.161808 0.898486 0.037849
O O12 0.271947 0.833822 0.956536
O O13 0.580719 0.164270 0.120923
O O14 0.465305 0.475733 0.107133
O O15 0.500000 0.000000 0.000000
#
# Coordination Sequence:
#
# PCOD9082106 Si02
#       7
#     2   2   2   2   2   2   2
#     4  11  20  34  54  79 109 138 175 225 271 312
#     4  10  20  30  53  80 105 137 168 220 274 310
#     4  10  19  33  51  76 110 136 178 225 259 316
#     4  11  17  33  51  79 110 135 171 218 267 315
#     4  10  20  32  51  76 105 147 178 211 268 311
#     4  11  21  33  53  78 112 138 174 217 263 319
#     4  11  22  35  52  76 113 146 173 212 258 323
#
# _framework density 16.319949000000001
#
# number of rings (size 3 to 8) (size 9 to 14) (size 15 to 20)
#    0.000    1.429    5.714    1.286    0.000    0.000 
#    0.000    0.000    0.000    0.857    0.000    5.000 
#    0.000    0.000    0.000    0.000    0.000    0.000 
#
# Total GULP energy -78073.554372 kJ/mol
# GULP energy per Si atom -5576.682455 kJ/mol
# Density = 1.628280 g / cm^3
# Si number density = 16.319949 Si / 1000 Ang^3
#
#
#
# Elastic Constant Matrix: (Units=GPa)
#
#
# Indices 1 2 3 4 5 6 
#
# 1 85.0780 36.9022 31.4776 8.7593 6.5855 11.5557
# 2 36.9022 109.7859 38.7217 3.5498 10.2332 1.3193
# 3 31.4776 38.7217 110.1701 19.1265 5.9416 10.0030
# 4 8.7593 3.5498 19.1265 30.7033 7.0832 5.5840
# 5 6.5855 10.2332 5.9416 7.0832 24.2418 5.1333
# 6 11.5557 1.3193 10.0030 5.5840 5.1333 23.0311
#
#
#
# Elastic Compliance Matrix: (Units=1/GPa)
#
#
# Indices 1 2 3 4 5 6 
#
# 1 0.015388 -0.004314 -0.002059 -0.001454 -0.000117 -0.006201
# 2 -0.004314 0.012097 -0.003509 0.002438 -0.004509 0.003409
# 3 -0.002059 -0.003509 0.012191 -0.006439 0.001536 -0.002842
# 4 -0.001454 0.002438 -0.006439 0.039713 -0.009800 -0.004058
# 5 -0.000117 -0.004509 0.001536 -0.009800 0.047485 -0.008558
# 6 -0.006201 0.003409 -0.002842 -0.004058 -0.008558 0.050461
#
#
# Mechanical properties :
#
#
# Convention : Reuss Voigt Hill
#
# Bulk Modulus (GPa) = 50.21736 57.69301 53.95519
# Shear Modulus (GPa) = 24.54169 28.79074 26.66622
#
# Velocity S-wave (km/s) = 3.88207 4.20473 4.04662
# Velocity P-wave (km/s) = 7.13662 7.68121 7.41392
#
# Compressibility (1/GPa) = 0.01991343
#
# Stress axis : x y z
#
# Youngs Moduli (GPa) = 64.98739 82.66771 82.02517
#
# Poissons Ratio (x) = 0.35661 0.16886
# Poissons Ratio (y) = 0.28034 0.28781
# Poissons Ratio (z) = 0.13378 0.29006
#
# Static dielectric constant tensor:
#      x y z
#    x 1.524750 -0.015820 0.009930 
#    y -0.015820 1.567030 0.018830 
#    z 0.009930 0.018830 1.569290 
# 
# From -- ./inp_files/127194.got.cif
#   From: 2010.05.17/outbox.cif.g08.bks.cpg/sg2_64_cif.got.tgz:127194.got - 2010.06.03 11:33:40.
