data_PCOD9082102
_publ_section_title
;
Structure prediction by ZEFSAII (Michael W. Deem and Ramdas Pophale) SiO2 
 PCOD9082102
Probable space group: P -1
;
_chemical_formula_sum "Si O2"
_cell_formula_units_Z 16
_cell_length_a 6.429370
_cell_length_b 17.403075
_cell_length_c 7.954747
_cell_angle_alpha 104.601691
_cell_angle_beta 140.976045
_cell_angle_gamma 81.509899
_cell_volume 540.622890
_symmetry_space_group_name_H-M "P -1"
_symmetry_group_IT_number 2
_symmetry_cell_setting 'triclinic'
loop_
_space_group_symop_operation_xyz
x,y,z
-x,-y,-z
loop_
_atom_site_type_symbol
_atom_site_label
_atom_site_fract_x
_atom_site_fract_y
_atom_site_fract_z
Si Si1 0.401057 0.338588 0.133307
Si Si2 0.195223 0.933440 0.785867
Si Si3 0.129032 0.459969 0.226678
Si Si4 0.143331 0.418087 0.679228
Si Si5 0.416847 0.839170 0.584553
Si Si6 0.086699 0.937529 0.166936
Si Si7 0.662982 0.215198 0.030285
Si Si8 0.403992 0.292919 0.576308
O O1 0.168658 0.367735 0.153304
O O2 0.772466 0.377547 0.411290
O O3 0.435701 0.247646 0.054031
O O4 0.278320 0.380216 0.911636
O O5 0.161301 0.870235 0.577394
O O6 0.292385 0.878042 0.973575
O O7 0.902046 0.991034 0.643433
O O8 0.500000 0.000000 0.000000
O O9 0.500000 0.500000 0.500000
O O10 0.903906 0.489414 0.254283
O O11 0.000000 0.500000 0.000000
O O12 0.367527 0.385786 0.651295
O O13 0.350024 0.883804 0.391185
O O14 0.402725 0.745185 0.477815
O O15 0.769330 0.873633 0.900721
O O16 0.000000 0.000000 0.000000
O O17 0.031756 0.254965 0.304109
O O18 0.532717 0.251637 0.800302
#
# Coordination Sequence:
#
# PCOD9082102 Si02
#       8
#     2   2   2   2   2   2   2   2
#     4   8  14  24  40  62  88 118 150 185 226 268
#     4  10  23  38  52  72  97 124 157 199 242 282
#     4   8  12  20  35  59  89 116 142 180 226 265
#     4   8  14  23  39  63  91 117 146 184 225 268
#     4  11  22  35  51  72  96 122 153 193 237 284
#     4  11  22  37  55  72  91 120 156 196 238 283
#     4  10  20  34  51  70  95 126 161 197 233 279
#     4  10  19  33  51  72  95 125 159 192 232 281
#
# _framework density 29.595492
#
# number of rings (size 3 to 8) (size 9 to 14) (size 15 to 20)
#    0.000    2.500    0.000    3.000    0.000    5.000 
#    0.000    0.000    0.000    0.000    0.000    0.875 
#    0.000    0.000    0.000   63.750    0.000    1.125 
#
# Total GULP energy -89520.100366 kJ/mol
# GULP energy per Si atom -5595.006273 kJ/mol
# Density = 2.952813 g / cm^3
# Si number density = 29.595492 Si / 1000 Ang^3
#
#
#
# Elastic Constant Matrix: (Units=GPa)
#
#
# Indices 1 2 3 4 5 6 
#
# 1 80.0223 48.2910 18.5472 1.7836 -18.0631 -0.3484
# 2 48.2910 245.3716 17.2917 3.9230 -4.9138 -51.1669
# 3 18.5472 17.2917 200.7204 -19.1339 8.2557 14.7629
# 4 1.7836 3.9230 -19.1339 45.9838 -14.5137 -18.9980
# 5 -18.0631 -4.9138 8.2557 -14.5137 31.0105 14.3440
# 6 -0.3484 -51.1669 14.7629 -18.9980 14.3440 80.3165
#
#
#
# Elastic Compliance Matrix: (Units=1/GPa)
#
#
# Indices 1 2 3 4 5 6 
#
# 1 0.018192 -0.004137 -0.001411 0.001375 0.012941 -0.004283
# 2 -0.004137 0.005746 -0.000267 0.000319 -0.003293 0.004355
# 3 -0.001411 -0.000267 0.005389 0.001701 -0.001252 -0.000541
# 4 0.001375 0.000319 0.001701 0.027793 0.011351 0.004443
# 5 0.012941 -0.003293 -0.001252 0.011351 0.048513 -0.007791
# 6 -0.004283 0.004355 -0.000541 0.004443 -0.007791 0.017748
#
#
# Mechanical properties :
#
#
# Convention : Reuss Voigt Hill
#
# Bulk Modulus (GPa) = 56.50763 77.15267 66.83015
# Shear Modulus (GPa) = 35.48392 60.92777 48.20585
#
# Velocity S-wave (km/s) = 3.46636 4.54219 4.04025
# Velocity P-wave (km/s) = 5.92922 7.32355 6.66296
#
# Compressibility (1/GPa) = 0.01769673
#
# Stress axis : x y z
#
# Youngs Moduli (GPa) = 54.96968 174.04789 185.56753
#
# Poissons Ratio (x) = 0.72001 0.26179
# Poissons Ratio (y) = 0.22740 0.04958
# Poissons Ratio (z) = 0.07755 0.04650
#
# Static dielectric constant tensor:
#      x y z
#    x 3.156450 -1.070220 -1.106300 
#    y -1.070220 3.611570 1.422900 
#    z -1.106300 1.422900 3.798850 
# 
# From -- ./inp_files/43616.got.cif
#   From: 2010.05.17/outbox.cif.g08.bks.cpg/sg2_22_cif.got.tgz:43616.got - 2010.06.03 11:33:40.
