data_PCOD9082883
_publ_section_title
;
Structure prediction by ZEFSAII (Michael W. Deem and Ramdas Pophale) SiO2 
 PCOD9082883
Probable space group: P -1
;
_chemical_formula_sum "Si O2"
_cell_formula_units_Z 16
_cell_length_a 7.873336
_cell_length_b 13.903758
_cell_length_c 19.096502
_cell_angle_alpha 31.093165
_cell_angle_beta 137.682717
_cell_angle_gamma 137.863727
_cell_volume 690.615807
_symmetry_space_group_name_H-M "P -1"
_symmetry_group_IT_number 2
_symmetry_cell_setting 'triclinic'
loop_
_space_group_symop_operation_xyz
x,y,z
-x,-y,-z
loop_
_atom_site_type_symbol
_atom_site_label
_atom_site_fract_x
_atom_site_fract_y
_atom_site_fract_z
Si Si1 0.014700 0.216668 0.185882
Si Si2 0.201393 0.245838 0.627558
Si Si3 0.955946 0.204143 0.342584
Si Si4 0.571353 0.409059 0.921028
Si Si5 0.123526 0.825624 0.038174
Si Si6 0.821879 0.483044 0.664983
Si Si7 0.358865 0.250928 0.823878
Si Si8 0.423828 0.269801 0.111024
O O1 0.017285 0.245715 0.253288
O O2 0.301382 0.364061 0.158709
O O3 0.916876 0.983808 0.285716
O O4 0.809101 0.320692 0.027826
O O5 0.519242 0.340873 0.649154
O O6 0.083132 0.380863 0.458451
O O7 0.189192 0.269794 0.692702
O O8 0.646016 0.193329 0.261786
O O9 0.133856 0.366660 0.349093
O O10 0.000000 0.000000 0.500000
O O11 0.414477 0.410633 0.800984
O O12 0.450396 0.261238 0.039821
O O13 0.030473 0.668072 0.169804
O O14 0.369918 0.773325 0.110802
O O15 0.888614 0.816926 0.918014
O O16 0.229729 0.049680 0.951934
O O17 0.500000 0.500000 0.000000
#
# Coordination Sequence:
#
# PCOD9082883 Si02
#       8
#     2   2   2   2   2   2   2   2
#     4  10  19  33  58  91 119 162 217 262 302 384
#     4  10  20  32  59  91 121 162 217 258 308 371
#     4  11  21  38  62  91 130 167 217 261 322 381
#     4  10  22  35  58  91 128 162 210 265 319 370
#     4  10  20  38  67  92 130 161 219 261 323 372
#     4  10  19  35  57  91 124 165 207 265 305 382
#     4  10  21  38  65  95 124 172 213 262 314 394
#     4  11  24  38  63  97 130 163 209 276 324 373
#
# _framework density 23.167729999999999
#
# number of rings (size 3 to 8) (size 9 to 14) (size 15 to 20)
#    0.000    1.750    2.500    3.750    5.250    0.500 
#    0.000    0.000    2.750    3.000    0.000    2.625 
#    0.000    0.000    0.000    0.000    0.000    0.000 
#
# Total GULP energy -89204.751861 kJ/mol
# GULP energy per Si atom -5575.296991 kJ/mol
# Density = 2.311500 g / cm^3
# Si number density = 23.167730 Si / 1000 Ang^3
#
#
#
# Elastic Constant Matrix: (Units=GPa)
#
#
# Indices 1 2 3 4 5 6 
#
# 1 30.2970 17.6561 29.4187 2.2678 -10.9333 -9.3951
# 2 17.6561 131.9144 51.4124 -8.0440 -10.2463 -14.6227
# 3 29.4187 51.4124 159.9050 -9.5092 -14.4564 -0.4873
# 4 2.2678 -8.0440 -9.5092 32.4933 2.1057 -14.1947
# 5 -10.9333 -10.2463 -14.4564 2.1057 40.1747 16.7696
# 6 -9.3951 -14.6227 -0.4873 -14.1947 16.7696 28.9373
#
#
#
# Elastic Compliance Matrix: (Units=1/GPa)
#
#
# Indices 1 2 3 4 5 6 
#
# 1 0.046653 -0.001884 -0.007571 -0.001934 0.005431 0.009971
# 2 -0.001884 0.010059 -0.002781 0.006010 -0.003088 0.009162
# 3 -0.007571 -0.002781 0.008754 -0.000047 0.002564 -0.005225
# 4 -0.001934 0.006010 -0.000047 0.049338 -0.016758 0.036322
# 5 0.005431 -0.003088 0.002564 -0.016758 0.040511 -0.031451
# 6 0.009971 0.009162 -0.005225 0.036322 -0.031451 0.078380
#
#
# Mechanical properties :
#
#
# Convention : Reuss Voigt Hill
#
# Bulk Modulus (GPa) = 24.39463 57.67677 41.03570
# Shear Modulus (GPa) = 18.39377 35.22965 26.81171
#
# Velocity S-wave (km/s) = 2.82075 3.90376 3.40558
# Velocity P-wave (km/s) = 4.60014 6.72819 5.76324
#
# Compressibility (1/GPa) = 0.04099262
#
# Stress axis : x y z
#
# Youngs Moduli (GPa) = 21.43504 99.41159 114.23527
#
# Poissons Ratio (x) = 0.18733 0.86485
# Poissons Ratio (y) = 0.04039 0.31773
# Poissons Ratio (z) = 0.16228 0.27650
#
# Static dielectric constant tensor:
#      x y z
#    x 1.964400 -0.038140 -0.062100 
#    y -0.038140 1.630960 0.061630 
#    z -0.062100 0.061630 1.851320 
# 
# From -- ./inp_files/590247.got.cif
#   From: 2010.05.17/outbox.cif.g08.bks.cpg/sg2_296_cif.got.tgz:590247.got - 2010.06.03 11:33:40.
