data_PCOD9082552
_publ_section_title
;
Structure prediction by ZEFSAII (Michael W. Deem and Ramdas Pophale) SiO2 
 PCOD9082552
Probable space group: P -1
;
_chemical_formula_sum "Si O2"
_cell_formula_units_Z 14
_cell_length_a 9.521235
_cell_length_b 15.334620
_cell_length_c 14.249985
_cell_angle_alpha 27.447703
_cell_angle_beta 36.391380
_cell_angle_gamma 55.337445
_cell_volume 481.600513
_symmetry_space_group_name_H-M "P -1"
_symmetry_group_IT_number 2
_symmetry_cell_setting 'triclinic'
loop_
_space_group_symop_operation_xyz
x,y,z
-x,-y,-z
loop_
_atom_site_type_symbol
_atom_site_label
_atom_site_fract_x
_atom_site_fract_y
_atom_site_fract_z
Si Si1 0.263096 0.094419 0.460188
Si Si2 0.175785 0.355198 0.937962
Si Si3 0.079168 0.692280 0.613450
Si Si4 0.239363 0.229779 0.747235
Si Si5 0.959883 0.457754 0.427712
Si Si6 0.262399 0.234584 0.513453
Si Si7 0.415366 0.123209 0.146016
O O1 0.390764 0.066979 0.322193
O O2 0.158958 0.258792 0.329824
O O3 0.408837 0.185561 0.395640
O O4 0.983260 0.845942 0.857836
O O5 0.996657 0.471363 0.927465
O O6 0.481219 0.571842 0.544564
O O7 0.232183 0.232730 0.110180
O O8 0.158595 0.647150 0.510996
O O9 0.305472 0.907198 0.345289
O O10 0.019828 0.309562 0.795125
O O11 0.332608 0.236227 0.582417
O O12 0.062280 0.975227 0.117692
O O13 0.232417 0.445364 0.308166
O O14 0.725848 0.305857 0.774325
#
# Coordination Sequence:
#
# PCOD9082552 Si02
#       7
#     2   2   2   2   2   2   2
#     4  10  22  37  55  83 115 145 181 226 276 329
#     4  10  20  35  55  82 112 142 182 227 272 325
#     4  10  19  33  56  81 109 145 182 226 274 317
#     4  10  21  36  59  84 108 143 186 232 274 319
#     4  10  20  35  57  83 109 144 187 228 272 325
#     4  10  21  39  59  81 110 144 186 230 274 325
#     4  10  21  34  52  84 117 144 177 226 280 326
#
# _framework density 29.069735000000001
#
# number of rings (size 3 to 8) (size 9 to 14) (size 15 to 20)
#    0.000    2.000    0.000    4.286    0.000    9.714 
#    0.000    2.857    0.000    9.429    0.000    0.000 
#    0.000    2.286    0.000    0.000    0.000    0.000 
#
# Total GULP energy -78456.675148 kJ/mol
# GULP energy per Si atom -5604.048225 kJ/mol
# Density = 2.900357 g / cm^3
# Si number density = 29.069735 Si / 1000 Ang^3
#
#
#
# Elastic Constant Matrix: (Units=GPa)
#
#
# Indices 1 2 3 4 5 6 
#
# 1 107.5573 42.1501 52.1003 -3.3777 3.3891 23.3806
# 2 42.1501 145.2008 51.3874 -19.3632 10.5782 37.3371
# 3 52.1003 51.3874 107.3854 -18.7134 -3.7297 -5.7500
# 4 -3.3777 -19.3632 -18.7134 51.4773 -3.1310 17.9558
# 5 3.3891 10.5782 -3.7297 -3.1310 49.9686 -4.1417
# 6 23.3806 37.3371 -5.7500 17.9558 -4.1417 63.1280
#
#
#
# Elastic Compliance Matrix: (Units=1/GPa)
#
#
# Indices 1 2 3 4 5 6 
#
# 1 0.014223 0.000368 -0.007407 0.000497 -0.002098 -0.006439
# 2 0.000368 0.012384 -0.005741 0.005824 -0.003528 -0.009872
# 3 -0.007407 -0.005741 0.016336 0.000855 0.003622 0.007621
# 4 0.000497 0.005824 0.000855 0.025733 -0.000494 -0.010903
# 5 -0.002098 -0.003528 0.003622 -0.000494 0.021535 0.004747
# 6 -0.006439 -0.009872 0.007621 -0.010903 0.004747 0.028171
#
#
# Mechanical properties :
#
#
# Convention : Reuss Voigt Hill
#
# Bulk Modulus (GPa) = 57.53065 72.37991 64.95528
# Shear Modulus (GPa) = 33.39176 47.21516 40.30346
#
# Velocity S-wave (km/s) = 3.39289 4.03451 3.72753
# Velocity P-wave (km/s) = 5.93148 6.83051 6.39681
#
# Compressibility (1/GPa) = 0.01738204
#
# Stress axis : x y z
#
# Youngs Moduli (GPa) = 70.30957 80.74804 61.21383
#
# Poissons Ratio (x) = -0.02969 0.45344
# Poissons Ratio (y) = -0.02585 0.35141
# Poissons Ratio (z) = 0.52081 0.46356
#
# Static dielectric constant tensor:
#      x y z
#    x 2.298280 -0.056010 -0.010210 
#    y -0.056010 2.260480 0.043960 
#    z -0.010210 0.043960 2.179930 
# 
# From -- ./inp_files/522099.got.cif
#   From: 2010.05.17/outbox.cif.g08.bks.cpg/sg2_262_cif.got.tgz:522099.got - 2010.06.03 11:33:40.
