data_PCOD9082481
_publ_section_title
;
Structure prediction by ZEFSAII (Michael W. Deem and Ramdas Pophale) SiO2 
 PCOD9082481
Probable space group: P -1
;
_chemical_formula_sum "Si O2"
_cell_formula_units_Z 14
_cell_length_a 7.269363
_cell_length_b 12.622303
_cell_length_c 10.284045
_cell_angle_alpha 145.400011
_cell_angle_beta 92.422006
_cell_angle_gamma 98.712782
_cell_volume 505.676108
_symmetry_space_group_name_H-M "P -1"
_symmetry_group_IT_number 2
_symmetry_cell_setting 'triclinic'
loop_
_space_group_symop_operation_xyz
x,y,z
-x,-y,-z
loop_
_atom_site_type_symbol
_atom_site_label
_atom_site_fract_x
_atom_site_fract_y
_atom_site_fract_z
Si Si1 0.882306 0.156529 0.668263
Si Si2 0.592701 0.776242 0.346932
Si Si3 0.241923 0.449031 0.079303
Si Si4 0.811765 0.124206 0.341550
Si Si5 0.406121 0.938862 0.077545
Si Si6 0.631021 0.681867 0.804996
Si Si7 0.786087 0.764274 0.611434
O O1 0.682479 0.015120 0.584395
O O2 0.886443 0.203270 0.563996
O O3 0.000000 0.000000 0.500000
O O4 0.012704 0.342976 0.942869
O O5 0.364588 0.648755 0.210841
O O6 0.691509 0.707916 0.407879
O O7 0.664915 0.702110 0.141106
O O8 0.302398 0.462353 0.245668
O O9 0.582829 0.099031 0.320252
O O10 0.995367 0.243169 0.379055
O O11 0.781317 0.897184 0.072435
O O12 0.220141 0.008018 0.150633
O O13 0.500000 0.000000 0.000000
O O14 0.427482 0.723811 0.877665
O O15 0.662104 0.663576 0.633191
#
# Coordination Sequence:
#
# PCOD9082481 Si02
#       7
#     2   2   2   2   2   2   2
#     4  10  15  32  52  77 111 138 182 226 267 321
#     4  10  19  30  55  82 104 149 183 221 276 324
#     4  10  18  33  52  80 115 139 184 228 270 327
#     4  10  17  31  52  80 108 140 180 224 272 319
#     4   8  18  30  47  80 113 138 177 228 270 324
#     4   9  18  31  49  79 111 139 176 228 272 319
#     4  11  18  31  54  83 105 142 189 218 275 331
#
# _framework density 27.685706
#
# number of rings (size 3 to 8) (size 9 to 14) (size 15 to 20)
#    0.857    1.429    5.714    0.429    0.000    0.571 
#    0.000    2.857    0.000    0.857    7.429    4.000 
#    0.000    0.000    0.000    0.000    0.000    0.000 
#
# Total GULP energy -77960.501544 kJ/mol
# GULP energy per Si atom -5568.607253 kJ/mol
# Density = 2.762269 g / cm^3
# Si number density = 27.685706 Si / 1000 Ang^3
#
#
#
# Elastic Constant Matrix: (Units=GPa)
#
#
# Indices 1 2 3 4 5 6 
#
# 1 133.8340 16.7558 11.9952 8.5791 16.7560 17.9184
# 2 16.7558 103.6018 32.7172 -10.9395 17.9198 25.1220
# 3 11.9952 32.7172 101.7519 -1.2234 13.1669 1.5861
# 4 8.5791 -10.9395 -1.2234 56.0312 7.2363 3.1849
# 5 16.7560 17.9198 13.1669 7.2363 37.7596 13.0756
# 6 17.9184 25.1220 1.5861 3.1849 13.0756 25.8980
#
#
#
# Elastic Compliance Matrix: (Units=1/GPa)
#
#
# Indices 1 2 3 4 5 6 
#
# 1 0.008456 0.000376 -0.000825 -0.000724 -0.001697 -0.005219
# 2 0.000376 0.015153 -0.004444 0.003823 -0.001566 -0.014366
# 3 -0.000825 -0.004444 0.011726 -0.000359 -0.003638 0.006045
# 4 -0.000724 0.003823 -0.000359 0.019397 -0.003825 -0.003640
# 5 -0.001697 -0.001566 -0.003638 -0.003825 0.034912 -0.014240
# 6 -0.005219 -0.014366 0.006045 -0.003640 -0.014240 0.063427
#
#
# Mechanical properties :
#
#
# Convention : Reuss Voigt Hill
#
# Bulk Modulus (GPa) = 39.14166 51.34713 45.24439
# Shear Modulus (GPa) = 29.17557 42.45241 35.81399
#
# Velocity S-wave (km/s) = 3.24977 3.92007 3.60056
# Velocity P-wave (km/s) = 5.31506 6.25108 5.80198
#
# Compressibility (1/GPa) = 0.02554823
#
# Stress axis : x y z
#
# Youngs Moduli (GPa) = 118.25236 65.99284 85.27832
#
# Poissons Ratio (x) = -0.02479 0.07039
# Poissons Ratio (y) = -0.04442 0.37898
# Poissons Ratio (z) = 0.09761 0.29328
#
# Static dielectric constant tensor:
#      x y z
#    x 2.293410 -0.121680 0.037340 
#    y -0.121680 1.877220 0.228490 
#    z 0.037340 0.228490 2.149570 
# 
# From -- ./inp_files/394785.got.cif
#   From: 2010.05.17/outbox.cif.g08.bks.cpg/sg2_198_cif.got.tgz:394785.got - 2010.06.03 11:33:40.
