data_PCOD9082155
_publ_section_title
;
Structure prediction by ZEFSAII (Michael W. Deem and Ramdas Pophale) SiO2 
 PCOD9082155
Probable space group: P -1
;
_chemical_formula_sum "Si O2"
_cell_formula_units_Z 14
_cell_length_a 25.936929
_cell_length_b 6.713615
_cell_length_c 8.069186
_cell_angle_alpha 140.472847
_cell_angle_beta 141.606805
_cell_angle_gamma 52.789018
_cell_volume 555.385553
_symmetry_space_group_name_H-M "P -1"
_symmetry_group_IT_number 2
_symmetry_cell_setting 'triclinic'
loop_
_space_group_symop_operation_xyz
x,y,z
-x,-y,-z
loop_
_atom_site_type_symbol
_atom_site_label
_atom_site_fract_x
_atom_site_fract_y
_atom_site_fract_z
Si Si1 0.672733 0.190511 0.256154
Si Si2 0.086414 0.364895 0.064607
Si Si3 0.333313 0.076221 0.281567
Si Si4 0.837822 0.139761 0.243988
Si Si5 0.496339 0.125233 0.254318
Si Si6 0.914224 0.357089 0.126867
Si Si7 0.159506 0.145716 0.556567
O O1 0.674089 0.554612 0.546161
O O2 0.754168 0.992397 0.381858
O O3 0.673434 0.163568 0.042074
O O4 0.589092 0.010806 0.977407
O O5 0.152680 0.499981 0.450160
O O6 0.102402 0.507303 0.012721
O O7 0.000000 0.500000 0.000000
O O8 0.094457 0.001816 0.802960
O O9 0.422979 0.015708 0.543811
O O10 0.251761 0.982243 0.119662
O O11 0.851022 0.992784 0.369737
O O12 0.500000 0.500000 0.500000
O O13 0.500000 0.000000 0.000000
O O14 0.000000 0.500000 0.500000
O O15 0.847956 0.492633 0.179621
O O16 0.909000 0.992344 0.831349
#
# Coordination Sequence:
#
# PCOD9082155 Si02
#       7
#     2   2   2   2   2   2   2
#     4  11  21  40  67  90 112 157 213 247 279 352
#     4  10  19  33  52  78 112 149 188 237 291 342
#     4  11  21  40  67  90 112 157 213 247 279 352
#     4   9  18  33  56  82 109 144 196 251 283 320
#     4  12  26  42  60  92 132 158 180 242 318 362
#     4  10  19  33  52  78 112 149 188 237 291 342
#     4   9  18  33  56  82 109 144 196 251 283 320
#
# _framework density 25.207711
#
# number of rings (size 3 to 8) (size 9 to 14) (size 15 to 20)
#    0.000    1.714    0.000    7.714    0.000    0.000 
#    0.000    4.286    0.000    0.000    0.000    0.000 
#    0.000    0.000    0.000    0.000    0.000    0.000 
#
# Total GULP energy -78233.608134 kJ/mol
# GULP energy per Si atom -5588.114867 kJ/mol
# Density = 2.515034 g / cm^3
# Si number density = 25.207711 Si / 1000 Ang^3
#
#
#
# Elastic Constant Matrix: (Units=GPa)
#
#
# Indices 1 2 3 4 5 6 
#
# 1 88.3855 36.1754 48.7814 7.3404 4.4908 -36.3802
# 2 36.1754 116.6390 51.4603 21.0526 10.9842 -20.7918
# 3 48.7814 51.4603 159.4318 13.9795 3.0655 -30.2067
# 4 7.3404 21.0526 13.9795 52.1765 -8.1747 10.2411
# 5 4.4908 10.9842 3.0655 -8.1747 49.0845 1.4495
# 6 -36.3802 -20.7918 -30.2067 10.2411 1.4495 45.5822
#
#
#
# Elastic Compliance Matrix: (Units=1/GPa)
#
#
# Indices 1 2 3 4 5 6 
#
# 1 0.019801 -0.001322 -0.002333 -0.004955 -0.002634 0.014852
# 2 -0.001322 0.012009 -0.002091 -0.005505 -0.003482 0.004384
# 3 -0.002333 -0.002091 0.008417 -0.001739 -0.000227 0.003160
# 4 -0.004955 -0.005505 -0.001739 0.026275 0.006575 -0.013730
# 5 -0.002634 -0.003482 -0.000227 0.006575 0.022681 -0.006040
# 6 0.014852 0.004384 0.003160 -0.013730 -0.006040 0.041162
#
#
# Mechanical properties :
#
#
# Convention : Reuss Voigt Hill
#
# Bulk Modulus (GPa) = 34.80171 70.81004 52.80587
# Shear Modulus (GPa) = 33.02145 44.57125 38.79635
#
# Velocity S-wave (km/s) = 3.62328 4.20951 3.92735
# Velocity P-wave (km/s) = 5.59823 7.19571 6.44664
#
# Compressibility (1/GPa) = 0.02873422
#
# Stress axis : x y z
#
# Youngs Moduli (GPa) = 50.50198 83.26778 118.81380
#
# Poissons Ratio (x) = 0.11011 0.27717
# Poissons Ratio (y) = 0.06678 0.24848
# Poissons Ratio (z) = 0.11781 0.17414
#
# Static dielectric constant tensor:
#      x y z
#    x 1.712550 0.238430 -0.005080 
#    y 0.238430 2.058760 0.045800 
#    z -0.005080 0.045800 1.956660 
# 
# From -- ./inp_files/356588.got.cif
#   From: 2010.05.17/outbox.cif.g08.bks.cpg/sg2_179_cif.got.tgz:356588.got - 2010.06.03 11:33:40.
