data_PCOD9082863
_publ_section_title
;
Structure prediction by ZEFSAII (Michael W. Deem and Ramdas Pophale) SiO2 
 PCOD9082863
Probable space group: P -1
;
_chemical_formula_sum "Si O2"
_cell_formula_units_Z 16
_cell_length_a 13.770612
_cell_length_b 11.279975
_cell_length_c 14.237700
_cell_angle_alpha 129.323433
_cell_angle_beta 38.548504
_cell_angle_gamma 149.942217
_cell_volume 683.657376
_symmetry_space_group_name_H-M "P -1"
_symmetry_group_IT_number 2
_symmetry_cell_setting 'triclinic'
loop_
_space_group_symop_operation_xyz
x,y,z
-x,-y,-z
loop_
_atom_site_type_symbol
_atom_site_label
_atom_site_fract_x
_atom_site_fract_y
_atom_site_fract_z
Si Si1 0.783051 0.391142 0.819858
Si Si2 0.733215 0.184842 0.270801
Si Si3 0.657590 0.806838 0.056707
Si Si4 0.314424 0.238715 0.470282
Si Si5 0.255253 0.353973 0.237286
Si Si6 0.932779 0.389940 0.893077
Si Si7 0.783219 0.135628 0.537426
Si Si8 0.213443 0.050621 0.263500
O O1 0.567927 0.328832 0.910919
O O2 0.764189 0.356756 0.929601
O O3 0.771053 0.224228 0.687325
O O4 0.057747 0.658139 0.730656
O O5 0.815495 0.392030 0.247338
O O6 0.771186 0.054902 0.120098
O O7 0.448772 0.983354 0.406465
O O8 0.518573 0.628541 0.160552
O O9 0.812239 0.798226 0.880321
O O10 0.500000 0.500000 0.500000
O O11 0.068128 0.146434 0.590048
O O12 0.261272 0.073784 0.506944
O O13 0.375788 0.193875 0.305575
O O14 0.056865 0.337570 0.393741
O O15 0.261253 0.234092 0.255114
O O16 0.805078 0.127865 0.862399
O O17 0.000000 0.500000 0.000000
#
# Coordination Sequence:
#
# PCOD9082863 Si02
#       8
#     2   2   2   2   2   2   2   2
#     4   9  21  39  64  87 122 157 205 257 301 358
#     4   9  20  37  65  87 119 156 203 256 298 360
#     4  10  21  46  59  86 120 167 209 253 302 364
#     4  10  19  33  58  87 127 160 189 242 312 374
#     4  10  23  39  65  83 126 165 204 251 311 364
#     4  10  19  37  64  90 125 161 204 253 307 371
#     4  10  19  39  60  92 121 160 197 261 310 355
#     4  10  20  37  56  90 126 154 196 252 303 363
#
# _framework density 23.403537
#
# number of rings (size 3 to 8) (size 9 to 14) (size 15 to 20)
#    0.750    1.500    1.250    1.500    0.000    2.000 
#    4.500   10.625    0.000    0.000    0.000    0.000 
#    0.000    0.000    0.000    0.000    0.000    0.000 
#
# Total GULP energy -89189.189943 kJ/mol
# GULP energy per Si atom -5574.324371 kJ/mol
# Density = 2.335027 g / cm^3
# Si number density = 23.403537 Si / 1000 Ang^3
#
#
#
# Elastic Constant Matrix: (Units=GPa)
#
#
# Indices 1 2 3 4 5 6 
#
# 1 71.8091 36.2126 7.4070 12.6045 12.4533 3.6652
# 2 36.2126 92.4470 13.5438 20.2417 8.3556 24.2789
# 3 7.4070 13.5438 62.1514 5.5178 1.4689 -0.1886
# 4 12.6045 20.2417 5.5178 34.5134 -5.1135 4.1621
# 5 12.4533 8.3556 1.4689 -5.1135 22.6495 1.3151
# 6 3.6652 24.2789 -0.1886 4.1621 1.3151 27.1782
#
#
#
# Elastic Compliance Matrix: (Units=1/GPa)
#
#
# Indices 1 2 3 4 5 6 
#
# 1 0.019819 -0.007013 -0.000133 -0.005132 -0.009741 0.004849
# 2 -0.007013 0.020123 -0.002832 -0.007513 -0.004169 -0.015698
# 3 -0.000133 -0.002832 0.016867 -0.001406 -0.000462 0.002902
# 4 -0.005132 -0.007513 -0.001406 0.037448 0.014082 0.000977
# 5 -0.009741 -0.004169 -0.000462 0.014082 0.054239 0.000253
# 6 0.004849 -0.015698 0.002902 0.000977 0.000253 0.050022
#
#
# Mechanical properties :
#
#
# Convention : Reuss Voigt Hill
#
# Bulk Modulus (GPa) = 27.13428 37.85938 32.49683
# Shear Modulus (GPa) = 21.66761 28.15114 24.90938
#
# Velocity S-wave (km/s) = 3.04604 3.47199 3.26597
# Velocity P-wave (km/s) = 4.89800 5.68197 5.30449
#
# Compressibility (1/GPa) = 0.03685375
#
# Stress axis : x y z
#
# Youngs Moduli (GPa) = 50.45719 49.69323 59.28666
#
# Poissons Ratio (x) = 0.34850 0.00789
# Poissons Ratio (y) = 0.35386 0.16788
# Poissons Ratio (z) = 0.00672 0.14071
#
# Static dielectric constant tensor:
#      x y z
#    x 1.920000 0.000070 -0.017430 
#    y 0.000070 1.870470 -0.058750 
#    z -0.017430 -0.058750 2.032090 
# 
# From -- ./inp_files/531940.got.cif
#   From: 2010.05.17/outbox.cif.g08.bks.cpg/sg2_266_cif.got.tgz:531940.got - 2010.06.03 11:33:40.
