data_PCOD9082125
_publ_section_title
;
Structure prediction by ZEFSAII (Michael W. Deem and Ramdas Pophale) SiO2 
 PCOD9082125
Probable space group: P -1
;
_chemical_formula_sum "Si O2"
_cell_formula_units_Z 16
_cell_length_a 5.038232
_cell_length_b 21.785426
_cell_length_c 13.518383
_cell_angle_alpha 140.294734
_cell_angle_beta 103.653431
_cell_angle_gamma 55.452563
_cell_volume 721.999494
_symmetry_space_group_name_H-M "P -1"
_symmetry_group_IT_number 2
_symmetry_cell_setting 'triclinic'
loop_
_space_group_symop_operation_xyz
x,y,z
-x,-y,-z
loop_
_atom_site_type_symbol
_atom_site_label
_atom_site_fract_x
_atom_site_fract_y
_atom_site_fract_z
Si Si1 0.104732 0.749731 0.565779
Si Si2 0.192967 0.713238 0.001476
Si Si3 0.048151 0.400055 0.734130
Si Si4 0.093847 0.424024 0.219203
Si Si5 0.499094 0.391813 0.910952
Si Si6 0.204515 0.148395 0.042808
Si Si7 0.478300 0.616456 0.621347
Si Si8 0.626680 0.103878 0.203458
O O1 0.080992 0.680536 0.387154
O O2 0.416132 0.651692 0.545549
O O3 0.153546 0.852980 0.687946
O O4 0.740946 0.812339 0.667957
O O5 0.200830 0.717027 0.126329
O O6 0.541162 0.677934 0.934395
O O7 0.180062 0.600680 0.847633
O O8 0.860561 0.821352 0.042207
O O9 0.043196 0.448733 0.685817
O O10 0.399676 0.338865 0.750885
O O11 0.799591 0.525248 0.930040
O O12 0.200185 0.407391 0.321955
O O13 0.500000 0.500000 0.000000
O O14 0.530107 0.123291 0.101271
O O15 0.865486 0.268545 0.212213
O O16 0.215703 0.033440 0.925966
O O17 0.500000 0.500000 0.500000
#
# Coordination Sequence:
#
# PCOD9082125 Si02
#       8
#     2   2   2   2   2   2   2   2
#     4  11  23  38  60  87 119 160 194 245 287 345
#     4  10  20  34  57  81 111 147 192 235 283 338
#     4  10  21  35  54  84 119 151 190 236 293 357
#     4  10  19  33  51  82 117 151 177 223 285 354
#     4  10  20  35  57  83 117 154 188 235 304 363
#     4   9  21  40  60  86 120 159 201 242 276 352
#     4  10  19  35  56  90 125 153 183 232 300 352
#     4  10  23  40  61  85 116 162 207 234 282 334
#
# _framework density 22.160678999999998
#
# number of rings (size 3 to 8) (size 9 to 14) (size 15 to 20)
#    0.000    2.000    2.500    0.750    1.750    6.500 
#    0.000    2.500    0.000    1.500    0.000    0.000 
#    0.000    0.000    0.000    0.000    0.000    0.000 
#
# Total GULP energy -89302.432031 kJ/mol
# GULP energy per Si atom -5581.402002 kJ/mol
# Density = 2.211024 g / cm^3
# Si number density = 22.160679 Si / 1000 Ang^3
#
#
#
# Elastic Constant Matrix: (Units=GPa)
#
#
# Indices 1 2 3 4 5 6 
#
# 1 64.4788 5.5854 14.3944 -10.5764 13.9780 7.2070
# 2 5.5854 140.6216 40.8472 -14.3776 17.7588 -1.6044
# 3 14.3944 40.8472 96.8777 -2.5332 33.2941 -8.5019
# 4 -10.5764 -14.3776 -2.5332 37.0055 -10.2131 9.3313
# 5 13.9780 17.7588 33.2941 -10.2131 38.7128 -6.6471
# 6 7.2070 -1.6044 -8.5019 9.3313 -6.6471 19.7039
#
#
#
# Elastic Compliance Matrix: (Units=1/GPa)
#
#
# Indices 1 2 3 4 5 6 
#
# 1 0.020172 0.001356 -0.002524 0.008029 -0.006055 -0.014202
# 2 0.001356 0.008644 -0.003823 0.004221 -0.000684 -0.003671
# 3 -0.002524 -0.003823 0.017010 -0.006159 -0.012443 0.006670
# 4 0.008029 0.004221 -0.006159 0.037661 0.006828 -0.020782
# 5 -0.006055 -0.000684 -0.012443 0.006828 0.042170 0.007782
# 6 -0.014202 -0.003671 0.006670 -0.020782 0.007782 0.070992
#
#
# Mechanical properties :
#
#
# Convention : Reuss Voigt Hill
#
# Bulk Modulus (GPa) = 27.89972 47.07023 37.48498
# Shear Modulus (GPa) = 22.87481 35.16120 29.01800
#
# Velocity S-wave (km/s) = 3.21631 3.98760 3.62254
# Velocity P-wave (km/s) = 5.13906 6.51826 5.86932
#
# Compressibility (1/GPa) = 0.03584265
#
# Stress axis : x y z
#
# Youngs Moduli (GPa) = 49.57340 115.68815 58.78882
#
# Poissons Ratio (x) = -0.15683 0.14841
# Poissons Ratio (y) = -0.06720 0.22474
# Poissons Ratio (z) = 0.12515 0.44226
#
# Static dielectric constant tensor:
#      x y z
#    x 1.877000 -0.031330 -0.027160 
#    y -0.031330 1.956890 -0.073670 
#    z -0.027160 -0.073670 1.848410 
# 
# From -- ./inp_files/77219.got.cif
#   From: 2010.05.17/outbox.cif.g08.bks.cpg/sg2_39_cif.got.tgz:77219.got - 2010.06.03 11:33:40.
