data_PCOD9082184
_publ_section_title
;
Structure prediction by ZEFSAII (Michael W. Deem and Ramdas Pophale) SiO2 
 PCOD9082184
Probable space group: P -1
;
_chemical_formula_sum "Si O2"
_cell_formula_units_Z 16
_cell_length_a 13.442601
_cell_length_b 13.008953
_cell_length_c 9.202735
_cell_angle_alpha 68.628979
_cell_angle_beta 56.101892
_cell_angle_gamma 35.277775
_cell_volume 757.476360
_symmetry_space_group_name_H-M "P -1"
_symmetry_group_IT_number 2
_symmetry_cell_setting 'triclinic'
loop_
_space_group_symop_operation_xyz
x,y,z
-x,-y,-z
loop_
_atom_site_type_symbol
_atom_site_label
_atom_site_fract_x
_atom_site_fract_y
_atom_site_fract_z
Si Si1 0.063935 0.363878 0.845683
Si Si2 0.147703 0.510214 0.539177
Si Si3 0.597380 0.197729 0.334252
Si Si4 0.384620 0.224411 0.260042
Si Si5 0.469996 0.084182 0.827928
Si Si6 0.658881 0.389864 0.056028
Si Si7 0.636076 0.628297 0.101247
Si Si8 0.046492 0.204005 0.680374
O O1 0.038292 0.509583 0.738815
O O2 0.254235 0.221272 0.865858
O O3 0.092042 0.267229 0.729349
O O4 0.867334 0.467879 0.032329
O O5 0.370208 0.375258 0.484288
O O6 0.797905 0.605398 0.584024
O O7 0.033290 0.693319 0.462643
O O8 0.564737 0.141536 0.249541
O O9 0.666946 0.266339 0.190567
O O10 0.767660 0.012097 0.378303
O O11 0.379103 0.297064 0.079440
O O12 0.394109 0.086986 0.301149
O O13 0.487724 0.201651 0.780429
O O14 0.500000 0.000000 0.000000
O O15 0.500000 0.500000 0.000000
O O16 0.593218 0.533052 0.149774
O O17 0.863970 0.274971 0.872776
#
# Coordination Sequence:
#
# PCOD9082184 Si02
#       8
#     2   2   2   2   2   2   2   2
#     4  11  19  35  55  79 116 146 179 225 281 338
#     4  10  20  34  54  86 117 142 174 230 288 330
#     4  10  19  33  52  83 111 143 178 226 280 322
#     4   9  17  33  51  77 114 138 175 229 271 327
#     4  10  21  35  51  78 113 148 186 225 269 332
#     4  11  17  34  55  76 116 144 185 236 270 317
#     4  10  20  33  55  78 111 150 185 220 278 328
#     4  11  20  31  54  84 111 146 176 226 283 330
#
# _framework density 21.122769999999999
#
# number of rings (size 3 to 8) (size 9 to 14) (size 15 to 20)
#    0.750    1.000    6.250    1.125    0.000    2.000 
#    2.250    0.000    0.000    0.750    0.000    0.875 
#    0.000    3.125    0.000    0.000    0.000    0.000 
#
# Total GULP energy -89225.020004 kJ/mol
# GULP energy per Si atom -5576.563750 kJ/mol
# Density = 2.107469 g / cm^3
# Si number density = 21.122770 Si / 1000 Ang^3
#
#
#
# Elastic Constant Matrix: (Units=GPa)
#
#
# Indices 1 2 3 4 5 6 
#
# 1 81.2157 45.4231 32.0253 -11.9917 -11.7190 -1.6008
# 2 45.4231 142.3717 31.5274 -27.4571 -11.1155 -7.5078
# 3 32.0253 31.5274 60.7699 -21.9553 -19.2634 -1.4407
# 4 -11.9917 -27.4571 -21.9553 28.0497 4.4976 -1.6296
# 5 -11.7190 -11.1155 -19.2634 4.4976 27.5529 -3.0862
# 6 -1.6008 -7.5078 -1.4407 -1.6296 -3.0862 44.2626
#
#
#
# Elastic Compliance Matrix: (Units=1/GPa)
#
#
# Indices 1 2 3 4 5 6 
#
# 1 0.017511 -0.004422 -0.007883 -0.003137 0.000615 -0.000446
# 2 -0.004422 0.010138 0.000629 0.008401 0.001501 0.001994
# 3 -0.007883 0.000629 0.033243 0.020692 0.017084 0.002857
# 4 -0.003137 0.008401 0.020692 0.057779 0.007610 0.004643
# 5 0.000615 0.001501 0.017084 0.007610 0.048365 0.004485
# 6 -0.000446 0.001994 0.002857 0.004643 0.004485 0.023491
#
#
# Mechanical properties :
#
#
# Convention : Reuss Voigt Hill
#
# Bulk Modulus (GPa) = 26.63880 55.81211 41.22546
# Shear Modulus (GPa) = 22.08552 31.66514 26.87533
#
# Velocity S-wave (km/s) = 3.23705 3.87602 3.57086
# Velocity P-wave (km/s) = 5.15850 6.81993 6.04655
#
# Compressibility (1/GPa) = 0.03753923
#
# Stress axis : x y z
#
# Youngs Moduli (GPa) = 57.10632 98.64107 30.08171
#
# Poissons Ratio (x) = 0.43615 0.23715
# Poissons Ratio (y) = 0.25250 -0.01891
# Poissons Ratio (z) = 0.45019 -0.06202
#
# Static dielectric constant tensor:
#      x y z
#    x 1.788090 -0.006530 0.017060 
#    y -0.006530 1.804610 0.024040 
#    z 0.017060 0.024040 1.801150 
# 
# From -- ./inp_files/425443.got.cif
#   From: 2010.05.17/outbox.cif.g08.bks.cpg/sg2_213_cif.got.tgz:425443.got - 2010.06.03 11:33:40.
