data_PCOD9082051
_publ_section_title
;
Structure prediction by ZEFSAII (Michael W. Deem and Ramdas Pophale) SiO2 
 PCOD9082051
Probable space group: P -1
;
_chemical_formula_sum "Si O2"
_cell_formula_units_Z 16
_cell_length_a 9.462223
_cell_length_b 8.939438
_cell_length_c 15.319445
_cell_angle_alpha 121.166329
_cell_angle_beta 40.619427
_cell_angle_gamma 102.846166
_cell_volume 687.222562
_symmetry_space_group_name_H-M "P -1"
_symmetry_group_IT_number 2
_symmetry_cell_setting 'triclinic'
loop_
_space_group_symop_operation_xyz
x,y,z
-x,-y,-z
loop_
_atom_site_type_symbol
_atom_site_label
_atom_site_fract_x
_atom_site_fract_y
_atom_site_fract_z
Si Si1 0.099619 0.135032 0.680208
Si Si2 0.756065 0.860427 0.942760
Si Si3 0.050681 0.122858 0.906609
Si Si4 0.678514 0.779744 0.754057
Si Si5 0.263799 0.500184 0.064866
Si Si6 0.506994 0.845078 0.326302
Si Si7 0.041699 0.848498 0.508486
Si Si8 0.345851 0.535889 0.830529
O O1 0.083196 0.139476 0.792150
O O2 0.950523 0.320126 0.760004
O O3 0.354960 0.036778 0.496600
O O4 0.988127 0.977388 0.658466
O O5 0.762516 0.792628 0.818085
O O6 0.777767 0.681063 0.934236
O O7 0.946543 0.955429 0.913150
O O8 0.515748 0.024235 0.113284
O O9 0.307564 0.109089 0.808385
O O10 0.862872 0.315258 0.074852
O O11 0.871941 0.734552 0.573597
O O12 0.548052 0.626525 0.763682
O O13 0.500000 0.500000 0.000000
O O14 0.281482 0.514223 0.955726
O O15 0.610051 0.669596 0.288658
O O16 0.313092 0.766357 0.350425
O O17 0.000000 0.000000 0.500000
#
# Coordination Sequence:
#
# PCOD9082051 Si02
#       8
#     2   2   2   2   2   2   2   2
#     4   9  21  35  58  85 109 160 193 235 285 350
#     4  10  19  32  63  88 114 149 199 253 278 336
#     4  10  19  41  60  84 114 155 210 232 279 350
#     4  10  19  36  56  91 116 148 199 242 294 341
#     4  11  20  33  60  88 119 149 194 243 297 339
#     4  10  22  37  61  81 120 162 190 235 294 353
#     4  10  22  35  58  83 121 150 186 236 304 343
#     4  10  22  35  60  90 115 152 195 246 292 346
#
# _framework density 23.282119999999999
#
# number of rings (size 3 to 8) (size 9 to 14) (size 15 to 20)
#    0.750    1.250    2.500    1.500    3.500    0.500 
#    0.000    2.500    5.500    0.000    0.000    0.000 
#    0.000    0.000    0.000    0.000    0.000    0.000 
#
# Total GULP energy -89147.682654 kJ/mol
# GULP energy per Si atom -5571.730166 kJ/mol
# Density = 2.322913 g / cm^3
# Si number density = 23.282120 Si / 1000 Ang^3
#
#
#
# Elastic Constant Matrix: (Units=GPa)
#
#
# Indices 1 2 3 4 5 6 
#
# 1 41.5381 22.2115 24.7592 -5.3647 -4.0153 -2.8450
# 2 22.2115 176.7223 74.0478 -12.7877 -38.2757 10.7628
# 3 24.7592 74.0478 116.2242 -3.9928 -27.5066 13.0188
# 4 -5.3647 -12.7877 -3.9928 53.3998 9.8931 -4.7610
# 5 -4.0153 -38.2757 -27.5066 9.8931 20.9921 -4.4304
# 6 -2.8450 10.7628 13.0188 -4.7610 -4.4304 26.8931
#
#
#
# Elastic Compliance Matrix: (Units=1/GPa)
#
#
# Indices 1 2 3 4 5 6 
#
# 1 0.030236 -0.002899 -0.007609 0.004259 -0.009970 0.007154
# 2 -0.002899 0.010313 -0.002172 -0.000971 0.015655 -0.000975
# 3 -0.007609 -0.002172 0.015872 -0.003538 0.015861 -0.005633
# 4 0.004259 -0.000971 -0.003538 0.021793 -0.015033 0.003934
# 5 -0.009970 0.015655 0.015861 -0.015033 0.101961 -0.000863
# 6 0.007154 -0.000975 -0.005633 0.003934 -0.000863 0.041613
#
#
# Mechanical properties :
#
#
# Convention : Reuss Voigt Hill
#
# Bulk Modulus (GPa) = 32.19417 64.05796 48.12607
# Shear Modulus (GPa) = 19.41747 34.48807 26.95277
#
# Velocity S-wave (km/s) = 2.89105 3.85296 3.40613
# Velocity P-wave (km/s) = 5.00021 6.88239 6.01537
#
# Compressibility (1/GPa) = 0.03106152
#
# Stress axis : x y z
#
# Youngs Moduli (GPa) = 33.07313 96.96674 63.00480
#
# Poissons Ratio (x) = 0.28110 0.47939
# Poissons Ratio (y) = 0.09588 0.13684
# Poissons Ratio (z) = 0.25165 0.21060
#
# Static dielectric constant tensor:
#      x y z
#    x 2.131380 -0.001490 -0.082810 
#    y -0.001490 1.897140 0.016770 
#    z -0.082810 0.016770 2.025250 
# 
# From -- ./inp_files/469500.got.cif
#   From: 2010.05.17/outbox.cif.g08.bks.cpg/sg2_235_cif.got.tgz:469500.got - 2010.06.03 11:33:40.
