data_PCOD9082761
_publ_section_title
;
Structure prediction by ZEFSAII (Michael W. Deem and Ramdas Pophale) SiO2 
 PCOD9082761
Probable space group: P -1
;
_chemical_formula_sum "Si O2"
_cell_formula_units_Z 16
_cell_length_a 17.760820
_cell_length_b 11.401055
_cell_length_c 14.546727
_cell_angle_alpha 30.887653
_cell_angle_beta 150.571776
_cell_angle_gamma 130.548039
_cell_volume 685.382532
_symmetry_space_group_name_H-M "P -1"
_symmetry_group_IT_number 2
_symmetry_cell_setting 'triclinic'
loop_
_space_group_symop_operation_xyz
x,y,z
-x,-y,-z
loop_
_atom_site_type_symbol
_atom_site_label
_atom_site_fract_x
_atom_site_fract_y
_atom_site_fract_z
Si Si1 0.092525 0.720415 0.103205
Si Si2 0.263774 0.728672 0.112358
Si Si3 0.805176 0.395938 0.362586
Si Si4 0.822169 0.861415 0.004566
Si Si5 0.415906 0.372419 0.363214
Si Si6 0.179607 0.771766 0.721001
Si Si7 0.720890 0.984413 0.609294
Si Si8 0.156348 0.170639 0.569205
O O1 0.101534 0.780745 0.964955
O O2 0.176467 0.428382 0.406912
O O3 0.188014 0.874908 0.148874
O O4 0.903648 0.831326 0.862813
O O5 0.285497 0.510891 0.211520
O O6 0.413800 0.643993 0.400541
O O7 0.264641 0.961181 0.898058
O O8 0.837836 0.287302 0.365093
O O9 0.690990 0.269464 0.371565
O O10 0.750354 0.689702 0.100492
O O11 0.977923 0.296700 0.671155
O O12 0.743764 0.903722 0.793109
O O13 0.408216 0.111179 0.509529
O O14 0.348312 0.551313 0.083904
O O15 0.026042 0.757261 0.627036
O O16 0.183464 0.025361 0.598303
#
# Coordination Sequence:
#
# PCOD9082761 Si02
#       8
#     2   2   2   2   2   2   2   2
#     4  11  21  36  63  89 115 158 199 244 289 359
#     4  10  24  40  58  86 128 160 188 240 310 350
#     4  10  19  33  57  88 115 154 195 245 291 346
#     4  10  21  36  55  92 125 149 194 255 297 334
#     4  10  21  43  58  84 128 160 189 246 297 355
#     4  10  19  36  60  88 120 147 198 252 290 337
#     4  11  21  36  63  89 116 157 205 246 285 351
#     4  10  20  36  57  90 121 150 190 252 294 346
#
# _framework density 23.344629000000001
#
# number of rings (size 3 to 8) (size 9 to 14) (size 15 to 20)
#    0.000    1.750    2.500    3.000    1.750    3.500 
#    2.250    2.500    0.000    1.500    0.000    0.000 
#    0.000    0.000    0.000    0.000    0.000    0.000 
#
# Total GULP energy -89344.607376 kJ/mol
# GULP energy per Si atom -5584.037961 kJ/mol
# Density = 2.329150 g / cm^3
# Si number density = 23.344629 Si / 1000 Ang^3
#
#
#
# Elastic Constant Matrix: (Units=GPa)
#
#
# Indices 1 2 3 4 5 6 
#
# 1 13.3179 4.2223 10.8963 -7.5238 -10.9223 -7.8926
# 2 4.2223 113.5858 57.9675 -47.0880 -24.1626 5.3103
# 3 10.8963 57.9675 80.4419 -8.4389 -14.2708 4.8113
# 4 -7.5238 -47.0880 -8.4389 47.2970 2.7109 -20.0422
# 5 -10.9223 -24.1626 -14.2708 2.7109 22.0538 -12.5691
# 6 -7.8926 5.3103 4.8113 -20.0422 -12.5691 14.1906
#
#
#
# Elastic Compliance Matrix: (Units=1/GPa)
#
#
# Indices 1 2 3 4 5 6 
#
# 1 0.024534 -0.016360 0.004337 -0.025596 -0.020186 -0.035733
# 2 -0.016360 0.012323 -0.007195 0.001158 -0.009876 -0.018383
# 3 0.004337 -0.007195 0.018683 0.000834 0.012565 0.011078
# 4 -0.025596 0.001158 0.000834 0.011363 -0.023505 -0.019723
# 5 -0.020186 -0.009876 0.012565 -0.023505 0.020002 -0.027272
# 6 -0.035733 -0.018383 0.011078 -0.019723 -0.027272 0.001706
#
#
# Mechanical properties :
#
#
# Convention : Reuss Voigt Hill
#
# Bulk Modulus (GPa) = 58.46875 39.27976 48.87426
# Shear Modulus (GPa) = 37.66535 25.65890 31.66213
#
# Velocity S-wave (km/s) = 4.02113 3.31892 3.68678
# Velocity P-wave (km/s) = 6.83079 5.61690 6.25336
#
# Compressibility (1/GPa) = 0.01710315
#
# Stress axis : x y z
#
# Youngs Moduli (GPa) = 40.76032 81.15127 53.52522
#
# Poissons Ratio (x) = 1.32761 -0.23212
# Poissons Ratio (y) = 0.66683 0.38511
# Poissons Ratio (z) = -0.17677 0.58388
#
# Static dielectric constant tensor:
#      x y z
#    x 1.918070 -0.011370 0.038330 
#    y -0.011370 1.873160 -0.022850 
#    z 0.038330 -0.022850 1.950100 
# 
# From -- ./inp_files/458385.got.cif
#   From: 2010.05.17/outbox.cif.g08.bks.cpg/sg2_230_cif.got.tgz:458385.got - 2010.06.03 11:33:40.
