data_PCOD9082825
_publ_section_title
;
Structure prediction by ZEFSAII (Michael W. Deem and Ramdas Pophale) SiO2 
 PCOD9082825
Probable space group: P -1
;
_chemical_formula_sum "Si O2"
_cell_formula_units_Z 16
_cell_length_a 14.505173
_cell_length_b 14.123158
_cell_length_c 17.486292
_cell_angle_alpha 62.698814
_cell_angle_beta 157.486643
_cell_angle_gamma 131.241045
_cell_volume 879.655752
_symmetry_space_group_name_H-M "P -1"
_symmetry_group_IT_number 2
_symmetry_cell_setting 'triclinic'
loop_
_space_group_symop_operation_xyz
x,y,z
-x,-y,-z
loop_
_atom_site_type_symbol
_atom_site_label
_atom_site_fract_x
_atom_site_fract_y
_atom_site_fract_z
Si Si1 0.773913 0.780751 0.578449
Si Si2 0.601246 0.556580 0.404491
Si Si3 0.911882 0.468158 0.781025
Si Si4 0.830262 0.982412 0.455593
Si Si5 0.005704 0.279217 0.508848
Si Si6 0.297711 0.599318 0.753666
Si Si7 0.084539 0.693948 0.953515
Si Si8 0.636214 0.506961 0.000955
O O1 0.700022 0.692350 0.477003
O O2 0.415638 0.687037 0.378093
O O3 0.959217 0.945389 0.636297
O O4 0.970097 0.759624 0.790647
O O5 0.776129 0.514349 0.600017
O O6 0.756184 0.612038 0.419281
O O7 0.206021 0.416716 0.165967
O O8 0.085948 0.592317 0.935015
O O9 0.142957 0.460570 0.913380
O O10 0.442175 0.832938 0.207868
O O11 0.000000 0.000000 0.500000
O O12 0.884986 0.122858 0.460539
O O13 0.253417 0.356951 0.742996
O O14 0.708208 0.275246 0.284717
O O15 0.607846 0.625573 0.948830
O O16 0.000000 0.500000 0.500000
O O17 0.240456 0.519303 0.819735
#
# Coordination Sequence:
#
# PCOD9082825 Si02
#       8
#     2   2   2   2   2   2   2   2
#     4   9  20  35  48  76 114 147 187 217 249 318
#     4   9  17  35  53  77 110 144 183 223 258 305
#     4   9  17  33  57  79 104 144 188 226 259 302
#     4  12  23  33  49  80 116 154 180 205 260 326
#     4  11  21  33  53  83 114 140 174 221 268 321
#     4   9  20  37  54  82 109 129 174 233 276 323
#     4   9  21  35  52  76 114 151 179 217 257 304
#     4  10  19  33  58  84 101 137 176 228 282 305
#
# _framework density 18.188934
#
# number of rings (size 3 to 8) (size 9 to 14) (size 15 to 20)
#    0.000    2.250    2.500    2.250    1.750    2.500 
#    0.000    0.000    0.000    0.750    0.000    6.125 
#    0.000    0.000    0.000    0.000    0.000    0.000 
#
# Total GULP energy -89189.072592 kJ/mol
# GULP energy per Si atom -5574.317037 kJ/mol
# Density = 1.814754 g / cm^3
# Si number density = 18.188934 Si / 1000 Ang^3
#
#
#
# Elastic Constant Matrix: (Units=GPa)
#
#
# Indices 1 2 3 4 5 6 
#
# 1 79.6447 45.3182 28.2870 -15.3177 14.8103 -9.2513
# 2 45.3182 127.7587 33.9203 -32.5757 7.3620 -1.5870
# 3 28.2870 33.9203 68.9306 -22.9723 -0.6060 -0.4329
# 4 -15.3177 -32.5757 -22.9723 30.3841 -4.4797 3.7145
# 5 14.8103 7.3620 -0.6060 -4.4797 34.2727 -15.5288
# 6 -9.2513 -1.5870 -0.4329 3.7145 -15.5288 26.2969
#
#
#
# Elastic Compliance Matrix: (Units=1/GPa)
#
#
# Indices 1 2 3 4 5 6 
#
# 1 0.018627 -0.005136 -0.005703 -0.001658 -0.005968 0.002859
# 2 -0.005136 0.012500 -0.000486 0.010735 -0.000326 -0.002769
# 3 -0.005703 -0.000486 0.021710 0.013781 0.004248 -0.001116
# 4 -0.001658 0.010735 0.013781 0.055175 0.003368 -0.005513
# 5 -0.005968 -0.000326 0.004248 0.003368 0.042595 0.022628
# 6 0.002859 -0.002769 -0.001116 -0.005513 0.022628 0.052989
#
#
# Mechanical properties :
#
#
# Convention : Reuss Voigt Hill
#
# Bulk Modulus (GPa) = 33.12844 54.59834 43.86339
# Shear Modulus (GPa) = 21.15879 29.44465 25.30172
#
# Velocity S-wave (km/s) = 3.41439 4.02782 3.73372
# Velocity P-wave (km/s) = 5.81353 7.19122 6.53876
#
# Compressibility (1/GPa) = 0.03018554
#
# Stress axis : x y z
#
# Youngs Moduli (GPa) = 53.68528 80.00114 46.06192
#
# Poissons Ratio (x) = 0.41092 0.26271
# Poissons Ratio (y) = 0.27575 0.02238
# Poissons Ratio (z) = 0.30619 0.03887
#
# Static dielectric constant tensor:
#      x y z
#    x 1.652600 -0.010890 -0.014250 
#    y -0.010890 1.625470 -0.050510 
#    z -0.014250 -0.050510 1.685440 
# 
# From -- ./inp_files/573968.got.cif
#   From: 2010.05.17/outbox.cif.g08.bks.cpg/sg2_287_cif.got.tgz:573968.got - 2010.06.03 11:33:40.
