data_PCOD9082319
_publ_section_title
;
Structure prediction by ZEFSAII (Michael W. Deem and Ramdas Pophale) SiO2 
 PCOD9082319
Probable space group: P -1
;
_chemical_formula_sum "Si O2"
_cell_formula_units_Z 12
_cell_length_a 15.155723
_cell_length_b 5.718694
_cell_length_c 7.912315
_cell_angle_alpha 83.118863
_cell_angle_beta 72.376567
_cell_angle_gamma 40.532425
_cell_volume 417.959922
_symmetry_space_group_name_H-M "P -1"
_symmetry_group_IT_number 2
_symmetry_cell_setting 'triclinic'
loop_
_space_group_symop_operation_xyz
x,y,z
-x,-y,-z
loop_
_atom_site_type_symbol
_atom_site_label
_atom_site_fract_x
_atom_site_fract_y
_atom_site_fract_z
Si Si1 0.031768 0.093296 0.140553
Si Si2 0.420373 0.037291 0.385689
Si Si3 0.141565 0.881333 0.540844
Si Si4 0.697257 0.098283 0.747048
Si Si5 0.578244 0.070605 0.101676
Si Si6 0.211159 0.036168 0.817164
O O1 0.001038 0.977856 0.325700
O O2 0.913746 0.529311 0.181422
O O3 0.174150 0.957035 0.014712
O O4 0.000000 0.000000 0.000000
O O5 0.264239 0.464516 0.443007
O O6 0.534588 0.890982 0.185927
O O7 0.500000 0.000000 0.500000
O O8 0.377537 0.855887 0.384449
O O9 0.154364 0.069533 0.380865
O O10 0.204126 0.873080 0.679077
O O11 0.578545 0.505173 0.857116
O O12 0.689989 0.895660 0.899912
O O13 0.653910 0.062602 0.212323
#
# Coordination Sequence:
#
# PCOD9082319 Si02
#       6
#     2   2   2   2   2   2
#     4   9  19  34  55  80 102 131 175 225 263 297
#     4  11  20  32  54  79 104 138 177 215 255 305
#     4  10  19  33  54  78 103 136 173 215 261 303
#     4  10  21  35  51  77 114 141 168 210 256 314
#     4  10  21  35  52  78 109 143 171 206 263 312
#     4  10  19  35  57  78 104 134 176 221 258 305
#
# _framework density 28.710884
#
# number of rings (size 3 to 8) (size 9 to 14) (size 15 to 20)
#    0.000    2.000    0.000    4.500    0.000    4.000 
#    0.000    0.833    0.000   14.000    0.000    0.000 
#    0.000    0.000    0.000    0.000    0.000    0.000 
#
# Total GULP energy -67122.468759 kJ/mol
# GULP energy per Si atom -5593.539063 kJ/mol
# Density = 2.864554 g / cm^3
# Si number density = 28.710884 Si / 1000 Ang^3
#
#
#
# Elastic Constant Matrix: (Units=GPa)
#
#
# Indices 1 2 3 4 5 6 
#
# 1 134.9979 29.8238 41.6395 -3.1202 -33.9991 15.7805
# 2 29.8238 55.4403 44.6001 20.7175 -5.8780 4.0694
# 3 41.6395 44.6001 220.5290 -40.1806 -25.3699 25.8731
# 4 -3.1202 20.7175 -40.1806 64.7887 19.8591 -8.9284
# 5 -33.9991 -5.8780 -25.3699 19.8591 71.2591 -10.9332
# 6 15.7805 4.0694 25.8731 -8.9284 -10.9332 43.1978
#
#
#
# Elastic Compliance Matrix: (Units=1/GPa)
#
#
# Indices 1 2 3 4 5 6 
#
# 1 0.009679 -0.004763 -0.000111 0.000501 0.003744 -0.001969
# 2 -0.004763 0.034762 -0.009179 -0.017642 0.002385 0.000920
# 3 -0.000111 -0.009179 0.008053 0.007732 -0.000472 -0.002439
# 4 0.000501 -0.017642 0.007732 0.027906 -0.006075 0.001078
# 5 0.003744 0.002385 -0.000472 -0.006075 0.017840 0.001950
# 6 -0.001969 0.000920 -0.002439 0.001078 0.001950 0.025959
#
#
# Mechanical properties :
#
#
# Convention : Reuss Voigt Hill
#
# Bulk Modulus (GPa) = 41.00599 71.45488 56.23044
# Shear Modulus (GPa) = 31.16547 55.50938 43.33742
#
# Velocity S-wave (km/s) = 3.29826 4.40181 3.88937
# Velocity P-wave (km/s) = 5.36824 7.12575 6.30850
#
# Compressibility (1/GPa) = 0.02438668
#
# Stress axis : x y z
#
# Youngs Moduli (GPa) = 103.32010 28.76729 124.18409
#
# Poissons Ratio (x) = 0.13702 0.01380
# Poissons Ratio (y) = 0.49213 1.13987
# Poissons Ratio (z) = 0.01148 0.26405
#
# Static dielectric constant tensor:
#      x y z
#    x 2.266270 -0.043590 0.106070 
#    y -0.043590 2.280010 -0.236310 
#    z 0.106070 -0.236310 2.332630 
# 
# From -- ./inp_files/124470.got.cif
#   From: 2010.05.17/outbox.cif.g08.bks.cpg/sg2_63_cif.got.tgz:124470.got - 2010.06.03 11:33:40.
