data_PCOD9082580
_publ_section_title
;
Structure prediction by ZEFSAII (Michael W. Deem and Ramdas Pophale) SiO2 
 PCOD9082580
Probable space group: P -1
;
_chemical_formula_sum "Si O2"
_cell_formula_units_Z 12
_cell_length_a 9.250810
_cell_length_b 9.521384
_cell_length_c 14.787223
_cell_angle_alpha 37.587727
_cell_angle_beta 56.942083
_cell_angle_gamma 47.156300
_cell_volume 582.452040
_symmetry_space_group_name_H-M "P -1"
_symmetry_group_IT_number 2
_symmetry_cell_setting 'triclinic'
loop_
_space_group_symop_operation_xyz
x,y,z
-x,-y,-z
loop_
_atom_site_type_symbol
_atom_site_label
_atom_site_fract_x
_atom_site_fract_y
_atom_site_fract_z
Si Si1 0.773110 0.761882 0.058075
Si Si2 0.744267 0.136457 0.355522
Si Si3 0.231543 0.358441 0.489794
Si Si4 0.443242 0.771824 0.430183
Si Si5 0.431201 0.664774 0.177452
Si Si6 0.887187 0.783702 0.801106
O O1 0.579848 0.727904 0.154326
O O2 0.973027 0.498975 0.150948
O O3 0.809383 0.758524 0.938818
O O4 0.710865 0.055568 0.963332
O O5 0.674044 0.200607 0.450502
O O6 0.596428 0.391636 0.215666
O O7 0.962595 0.099359 0.293852
O O8 0.718664 0.890198 0.463090
O O9 0.351304 0.248041 0.598131
O O10 0.297790 0.565218 0.325128
O O11 0.000000 0.500000 0.500000
O O12 0.500000 0.500000 0.500000
O O13 0.298572 0.019131 0.294028
#
# Coordination Sequence:
#
# PCOD9082580 Si02
#       6
#     2   2   2   2   2   2
#     4   9  18  32  53  80 112 148 183 225 267 329
#     4  10  20  36  59  83 113 144 178 232 290 333
#     4  11  22  37  59  83 113 149 181 229 288 335
#     4  11  21  34  56  87 115 140 185 238 275 321
#     4   9  17  32  54  77 104 144 189 217 264 328
#     4  10  19  33  56  83 110 143 188 228 273 324
#
# _framework density 20.602554999999999
#
# number of rings (size 3 to 8) (size 9 to 14) (size 15 to 20)
#    0.000    2.000    0.000    6.500    0.000    0.000 
#    0.000    0.000    0.000   30.000    0.000    0.000 
#    0.000    0.000    0.000    0.000    0.000    0.000 
#
# Total GULP energy -66833.990582 kJ/mol
# GULP energy per Si atom -5569.499215 kJ/mol
# Density = 2.055566 g / cm^3
# Si number density = 20.602555 Si / 1000 Ang^3
#
#
#
# Elastic Constant Matrix: (Units=GPa)
#
#
# Indices 1 2 3 4 5 6 
#
# 1 123.7487 53.5982 56.0100 -7.1366 0.0370 -34.4353
# 2 53.5982 104.6825 42.7725 -27.0346 -3.2398 -4.0272
# 3 56.0100 42.7725 95.9193 -32.7378 -8.8117 -9.2405
# 4 -7.1366 -27.0346 -32.7378 38.3468 -9.1074 0.4087
# 5 0.0370 -3.2398 -8.8117 -9.1074 34.2496 -3.3410
# 6 -34.4353 -4.0272 -9.2405 0.4087 -3.3410 40.6213
#
#
#
# Elastic Compliance Matrix: (Units=1/GPa)
#
#
# Indices 1 2 3 4 5 6 
#
# 1 0.020244 -0.008849 -0.012198 -0.014592 -0.006598 0.013113
# 2 -0.008849 0.016532 0.002321 0.013282 0.005211 -0.005040
# 3 -0.012198 0.002321 0.025727 0.024459 0.013021 -0.003433
# 4 -0.014592 0.013282 0.024459 0.059083 0.022866 -0.004203
# 5 -0.006598 0.005211 0.013021 0.022866 0.039214 0.000880
# 6 0.013113 -0.005040 -0.003433 -0.004203 0.000880 0.034568
#
#
# Mechanical properties :
#
#
# Convention : Reuss Voigt Hill
#
# Bulk Modulus (GPa) = 39.91849 69.90133 54.90991
# Shear Modulus (GPa) = 20.73227 34.10818 27.42023
#
# Velocity S-wave (km/s) = 3.17566 4.07324 3.65213
# Velocity P-wave (km/s) = 5.73271 7.49158 6.67037
#
# Compressibility (1/GPa) = 0.02505105
#
# Stress axis : x y z
#
# Youngs Moduli (GPa) = 49.39684 60.48701 38.87026
#
# Poissons Ratio (x) = 0.53526 0.47415
# Poissons Ratio (y) = 0.43712 -0.09024
# Poissons Ratio (z) = 0.60256 -0.14042
#
# Static dielectric constant tensor:
#      x y z
#    x 1.735450 -0.021290 0.016060 
#    y -0.021290 1.849400 -0.064810 
#    z 0.016060 -0.064810 1.809510 
# 
# From -- ./inp_files/187113.got.cif
#   From: 2010.05.17/outbox.cif.g08.bks.cpg/sg2_94_cif.got.tgz:187113.got - 2010.06.03 11:33:40.
