data_PCOD9082439
_publ_section_title
;
Structure prediction by ZEFSAII (Michael W. Deem and Ramdas Pophale) SiO2 
 PCOD9082439
Probable space group: P -1
;
_chemical_formula_sum "Si O2"
_cell_formula_units_Z 14
_cell_length_a 10.354768
_cell_length_b 8.463625
_cell_length_c 18.578808
_cell_angle_alpha 130.884907
_cell_angle_beta 32.860826
_cell_angle_gamma 138.941441
_cell_volume 579.270112
_symmetry_space_group_name_H-M "P -1"
_symmetry_group_IT_number 2
_symmetry_cell_setting 'triclinic'
loop_
_space_group_symop_operation_xyz
x,y,z
-x,-y,-z
loop_
_atom_site_type_symbol
_atom_site_label
_atom_site_fract_x
_atom_site_fract_y
_atom_site_fract_z
Si Si1 0.276099 0.957702 0.881990
Si Si2 0.214886 0.924755 0.455788
Si Si3 0.633377 0.717928 0.633040
Si Si4 0.749677 0.476255 0.036195
Si Si5 0.850526 0.696678 0.206754
Si Si6 0.214545 0.902861 0.723049
Si Si7 0.684488 0.433386 0.801151
O O1 0.491980 0.869665 0.768976
O O2 0.221645 0.953332 0.820448
O O3 0.447840 0.238011 0.907075
O O4 0.994374 0.744224 0.980079
O O5 0.254302 0.730456 0.331608
O O6 0.892533 0.777931 0.579820
O O7 0.258944 0.158851 0.459109
O O8 0.470659 0.022825 0.419457
O O9 0.388744 0.442783 0.664324
O O10 0.736022 0.508703 0.137238
O O11 0.467578 0.435595 0.123897
O O12 0.864506 0.297966 0.907740
O O13 0.867381 0.937112 0.240435
O O14 0.982336 0.627012 0.745547
#
# Coordination Sequence:
#
# PCOD9082439 Si02
#       7
#     2   2   2   2   2   2   2
#     4   9  19  37  54  78 102 140 173 217 247 308
#     4   9  18  38  57  77 100 137 173 219 249 311
#     4   8  17  35  60  73 103 138 172 209 269 294
#     4  10  19  35  55  74 109 137 175 210 260 300
#     4  10  19  33  56  78 102 143 168 213 259 313
#     4  10  20  33  53  81 106 134 177 205 263 303
#     4  10  19  33  55  79 104 137 173 214 252 307
#
# _framework density 24.168346
#
# number of rings (size 3 to 8) (size 9 to 14) (size 15 to 20)
#    0.000    2.857    2.857    0.429    0.000    1.714 
#    0.000   12.143   28.286    0.000    0.000    0.000 
#    0.000    0.000    0.000    0.000    0.000    0.000 
#
# Total GULP energy -77983.532839 kJ/mol
# GULP energy per Si atom -5570.252346 kJ/mol
# Density = 2.411334 g / cm^3
# Si number density = 24.168346 Si / 1000 Ang^3
#
#
#
# Elastic Constant Matrix: (Units=GPa)
#
#
# Indices 1 2 3 4 5 6 
#
# 1 35.7578 34.1088 30.8799 8.8152 -21.7985 -3.7611
# 2 34.1088 109.8437 23.7794 -5.4927 -14.9634 -2.7056
# 3 30.8799 23.7794 102.1526 -3.4108 -40.2033 1.7162
# 4 8.8152 -5.4927 -3.4108 21.2605 -1.9427 -9.2180
# 5 -21.7985 -14.9634 -40.2033 -1.9427 38.0151 -2.6885
# 6 -3.7611 -2.7056 1.7162 -9.2180 -2.6885 32.1596
#
#
#
# Elastic Compliance Matrix: (Units=1/GPa)
#
#
# Indices 1 2 3 4 5 6 
#
# 1 0.085122 -0.022502 -0.011961 -0.041162 0.025129 -0.000997
# 2 -0.022502 0.015944 0.002209 0.014574 -0.003370 0.002487
# 3 -0.011961 0.002209 0.019081 0.010877 0.014897 0.002132
# 4 -0.041162 0.014574 0.010877 0.077260 -0.001151 0.017881
# 5 0.025129 -0.003370 0.014897 -0.001151 0.055520 0.006172
# 6 -0.000997 0.002487 0.002132 0.017881 0.006172 0.036715
#
#
# Mechanical properties :
#
#
# Convention : Reuss Voigt Hill
#
# Bulk Modulus (GPa) = 17.97337 47.25447 32.61392
# Shear Modulus (GPa) = 13.41575 28.88612 21.15093
#
# Velocity S-wave (km/s) = 2.35860 3.46092 2.96150
# Velocity P-wave (km/s) = 3.85619 5.96367 5.02173
#
# Compressibility (1/GPa) = 0.05563786
#
# Stress axis : x y z
#
# Youngs Moduli (GPa) = 11.74787 62.71972 52.40861
#
# Poissons Ratio (x) = 1.41134 0.62687
# Poissons Ratio (y) = 0.26435 -0.11578
# Poissons Ratio (z) = 0.14052 -0.13856
#
# Static dielectric constant tensor:
#      x y z
#    x 1.986580 -0.035060 0.046620 
#    y -0.035060 1.963290 -0.054800 
#    z 0.046620 -0.054800 2.103210 
# 
# From -- ./inp_files/618087.got.cif
#   From: 2010.05.17/outbox.cif.g08.bks.cpg/sg2_310_cif.got.tgz:618087.got - 2010.06.03 11:33:40.
