data_PCOD9083215
_publ_section_title
;
Structure prediction by ZEFSAII (Michael W. Deem and Ramdas Pophale) SiO2 
 PCOD9083215
Probable space group: P -1
;
_chemical_formula_sum "Si O2"
_cell_formula_units_Z 16
_cell_length_a 5.103077
_cell_length_b 6.322039
_cell_length_c 22.028385
_cell_angle_alpha 70.993239
_cell_angle_beta 117.550410
_cell_angle_gamma 89.841764
_cell_volume 585.676825
_symmetry_space_group_name_H-M "P -1"
_symmetry_group_IT_number 2
_symmetry_cell_setting 'triclinic'
loop_
_space_group_symop_operation_xyz
x,y,z
-x,-y,-z
loop_
_atom_site_type_symbol
_atom_site_label
_atom_site_fract_x
_atom_site_fract_y
_atom_site_fract_z
Si Si1 0.317878 0.841808 0.533690
Si Si2 0.697251 0.158762 0.974110
Si Si3 0.611616 0.010333 0.648465
Si Si4 0.750338 0.155982 0.770025
Si Si5 0.871859 0.543574 0.290949
Si Si6 0.983192 0.319313 0.584852
Si Si7 0.514929 0.425305 0.161505
Si Si8 0.905190 0.256866 0.107162
O O1 0.508780 0.806074 0.619458
O O2 0.500000 0.000000 0.500000
O O3 0.000000 0.000000 0.500000
O O4 0.235076 0.642228 0.501196
O O5 0.519575 0.312834 0.888026
O O6 0.773672 0.323313 0.020738
O O7 0.500000 0.000000 0.000000
O O8 0.000000 0.000000 0.000000
O O9 0.733961 0.971897 0.732213
O O10 0.311309 0.201231 0.608344
O O11 0.845824 0.125678 0.624650
O O12 0.947243 0.010709 0.855085
O O13 0.417929 0.260561 0.745459
O O14 0.898243 0.349173 0.735817
O O15 0.727800 0.373892 0.248506
O O16 0.000835 0.492588 0.378550
O O17 0.665792 0.285727 0.132999
O O18 0.176259 0.389102 0.137697
#
# Coordination Sequence:
#
# PCOD9083215 Si02
#       8
#     2   2   2   2   2   2   2   2
#     4   8  12  20  34  60  92 122 154 204 260 294
#     4  12  24  42  64  84 106 138 174 212 254 306
#     4   8  14  23  40  64  94 125 162 208 254 296
#     4  10  19  34  53  76 103 138 177 214 254 306
#     4  10  19  34  53  76 103 138 177 214 254 306
#     4   8  14  23  40  64  94 125 162 208 254 296
#     4  12  24  39  57  82 111 139 170 212 258 306
#     4  12  24  39  57  82 111 139 170 212 258 306
#
# _framework density 27.318819999999999
#
# number of rings (size 3 to 8) (size 9 to 14) (size 15 to 20)
#    0.000    2.000    0.000    5.250    0.000    0.000 
#    0.000    0.000    0.000    0.000    0.000    1.750 
#    0.000    0.000    0.000    0.000    0.000    0.000 
#
# Total GULP energy -89622.816259 kJ/mol
# GULP energy per Si atom -5601.426016 kJ/mol
# Density = 2.725664 g / cm^3
# Si number density = 27.318820 Si / 1000 Ang^3
#
#
#
# Elastic Constant Matrix: (Units=GPa)
#
#
# Indices 1 2 3 4 5 6 
#
# 1 140.7531 37.9928 2.7930 -18.6268 4.7808 0.2647
# 2 37.9928 69.2018 33.1303 1.2131 -2.5305 -1.3378
# 3 2.7930 33.1303 153.0612 41.5660 -3.6003 0.7552
# 4 -18.6268 1.2131 41.5660 55.0824 3.0028 1.3082
# 5 4.7808 -2.5305 -3.6003 3.0028 28.1452 14.5321
# 6 0.2647 -1.3378 0.7552 1.3082 14.5321 49.7836
#
#
#
# Elastic Compliance Matrix: (Units=1/GPa)
#
#
# Indices 1 2 3 4 5 6 
#
# 1 0.008998 -0.005070 -0.000028 0.003305 -0.002591 0.000486
# 2 -0.005070 0.019360 -0.004330 0.001021 0.001927 0.000024
# 3 -0.000028 -0.004330 0.009458 -0.007141 0.001913 -0.000630
# 4 0.003305 0.001021 -0.007141 0.024862 -0.004426 0.000757
# 5 -0.002591 0.001927 0.001913 -0.004426 0.043309 -0.012489
# 6 0.000486 0.000024 -0.000630 0.000757 -0.012489 0.023720
#
#
# Mechanical properties :
#
#
# Convention : Reuss Voigt Hill
#
# Bulk Modulus (GPa) = 52.74025 56.76094 54.75059
# Shear Modulus (GPa) = 32.28224 45.87558 39.07891
#
# Velocity S-wave (km/s) = 3.44129 4.10233 3.78627
# Velocity P-wave (km/s) = 5.92768 6.57732 6.26093
#
# Compressibility (1/GPa) = 0.01896085
#
# Stress axis : x y z
#
# Youngs Moduli (GPa) = 111.13247 51.65245 105.72672
#
# Poissons Ratio (x) = 0.26189 0.00292
# Poissons Ratio (y) = 0.56347 0.45780
# Poissons Ratio (z) = 0.00307 0.22366
#
# Static dielectric constant tensor:
#      x y z
#    x 2.058720 0.005170 -0.005800 
#    y 0.005170 2.097320 0.133940 
#    z -0.005800 0.133940 2.157290 
# 
# From -- ./inp_files/12727.got.cif
#   From: 2010.05.17/outbox.cif.g08.bks.cpg/sg2_7_cif.got.tgz:12727.got - 2010.06.03 11:33:40.
