data_PCOD9083325
_publ_section_title
;
Structure prediction by ZEFSAII (Michael W. Deem and Ramdas Pophale) SiO2 
 PCOD9083325
Probable space group: P -1
;
_chemical_formula_sum "Si O2"
_cell_formula_units_Z 16
_cell_length_a 11.387512
_cell_length_b 9.411353
_cell_length_c 13.142453
_cell_angle_alpha 107.495789
_cell_angle_beta 145.660107
_cell_angle_gamma 60.602214
_cell_volume 676.342817
_symmetry_space_group_name_H-M "P -1"
_symmetry_group_IT_number 2
_symmetry_cell_setting 'triclinic'
loop_
_space_group_symop_operation_xyz
x,y,z
-x,-y,-z
loop_
_atom_site_type_symbol
_atom_site_label
_atom_site_fract_x
_atom_site_fract_y
_atom_site_fract_z
Si Si1 0.134866 0.950803 0.215361
Si Si2 0.001319 0.464148 0.115150
Si Si3 0.263828 0.104640 0.170940
Si Si4 0.319881 0.565325 0.476871
Si Si5 0.271531 0.915881 0.537188
Si Si6 0.054085 0.721722 0.620701
Si Si7 0.267537 0.671498 0.969785
Si Si8 0.307556 0.391869 0.615048
O O1 0.297655 0.958250 0.242784
O O2 0.939202 0.143388 0.121645
O O3 0.252795 0.907638 0.399067
O O4 0.974727 0.860693 0.052348
O O5 0.206924 0.275066 0.226266
O O6 0.078449 0.582059 0.260723
O O7 0.791224 0.449978 0.023709
O O8 0.000000 0.500000 0.000000
O O9 0.494509 0.067921 0.264801
O O10 0.500000 0.500000 0.500000
O O11 0.296841 0.735760 0.546743
O O12 0.414369 0.415881 0.593003
O O13 0.043333 0.086013 0.440084
O O14 0.254717 0.654842 0.835510
O O15 0.126417 0.584002 0.555331
O O16 0.836795 0.711507 0.519101
O O17 0.503628 0.670553 0.175289
#
# Coordination Sequence:
#
# PCOD9083325 Si02
#       8
#     2   2   2   2   2   2   2   2
#     4   9  20  34  54  88 119 158 204 252 298 364
#     4  11  21  36  56  88 129 162 201 244 309 373
#     4  10  19  34  54  84 119 161 200 245 305 355
#     4  12  24  39  60  96 127 164 200 250 320 370
#     4  11  22  37  60  86 126 159 201 252 303 369
#     4  10  23  43  66  91 118 167 213 259 294 361
#     4  10  20  38  63  88 119 160 209 256 303 361
#     4  11  23  42  67  91 124 159 214 256 305 367
#
# _framework density 23.656641
#
# number of rings (size 3 to 8) (size 9 to 14) (size 15 to 20)
#    0.000    1.500    2.500    3.000    0.000    3.500 
#    0.000    0.000    0.000    0.750    0.000    0.000 
#    0.000    0.000    0.000    0.000    0.000    0.000 
#
# Total GULP energy -89372.873601 kJ/mol
# GULP energy per Si atom -5585.804600 kJ/mol
# Density = 2.360280 g / cm^3
# Si number density = 23.656641 Si / 1000 Ang^3
#
#
#
# Elastic Constant Matrix: (Units=GPa)
#
#
# Indices 1 2 3 4 5 6 
#
# 1 26.5645 5.1005 -10.7505 1.0442 -7.2717 9.4523
# 2 5.1005 108.0384 9.7482 4.1971 1.8938 10.1841
# 3 -10.7505 9.7482 90.3816 14.2215 0.8408 18.1208
# 4 1.0442 4.1971 14.2215 34.5902 -0.5094 -0.6841
# 5 -7.2717 1.8938 0.8408 -0.5094 21.3687 -1.4373
# 6 9.4523 10.1841 18.1208 -0.6841 -1.4373 37.7726
#
#
#
# Elastic Compliance Matrix: (Units=1/GPa)
#
#
# Indices 1 2 3 4 5 6 
#
# 1 0.053424 -0.001908 0.010858 -0.005948 0.016600 -0.017540
# 2 -0.001908 0.009649 -0.000747 -0.000866 -0.001620 -0.001843
# 3 0.010858 -0.000747 0.015479 -0.006764 0.002320 -0.009976
# 4 -0.005948 -0.000866 -0.006764 0.032077 -0.000545 0.005527
# 5 0.016600 -0.001620 0.002320 -0.000545 0.052294 -0.002850
# 6 -0.017540 -0.001843 -0.009976 0.005527 -0.002850 0.036138
#
#
# Mechanical properties :
#
#
# Convention : Reuss Voigt Hill
#
# Bulk Modulus (GPa) = 10.53086 25.90898 18.21992
# Shear Modulus (GPa) = 23.33087 33.47203 28.40145
#
# Velocity S-wave (km/s) = 3.14384 3.76561 3.46868
# Velocity P-wave (km/s) = 4.19994 5.46647 4.87451
#
# Compressibility (1/GPa) = 0.09495901
#
# Stress axis : x y z
#
# Youngs Moduli (GPa) = 18.71814 103.63510 64.60264
#
# Poissons Ratio (x) = 0.19778 -0.70148
# Poissons Ratio (y) = 0.03572 0.04825
# Poissons Ratio (z) = -0.20325 0.07740
#
# Static dielectric constant tensor:
#      x y z
#    x 1.968820 -0.004710 0.010360 
#    y -0.004710 1.937260 0.008530 
#    z 0.010360 0.008530 1.937660 
# 
# From -- ./inp_files/272644.got.cif
#   From: 2010.05.17/outbox.cif.g08.bks.cpg/sg2_137_cif.got.tgz:272644.got - 2010.06.03 11:33:40.
