data_PCOD9083658
_publ_section_title
;
Structure prediction by ZEFSAII (Michael W. Deem and Ramdas Pophale) SiO2 
 PCOD9083658
Probable space group: P -1
;
_chemical_formula_sum "Si O2"
_cell_formula_units_Z 10
_cell_length_a 9.307228
_cell_length_b 8.621795
_cell_length_c 10.570413
_cell_angle_alpha 93.582148
_cell_angle_beta 41.351693
_cell_angle_gamma 119.556785
_cell_volume 411.658182
_symmetry_space_group_name_H-M "P -1"
_symmetry_group_IT_number 2
_symmetry_cell_setting 'triclinic'
loop_
_space_group_symop_operation_xyz
x,y,z
-x,-y,-z
loop_
_atom_site_type_symbol
_atom_site_label
_atom_site_fract_x
_atom_site_fract_y
_atom_site_fract_z
Si Si1 0.777550 0.227870 0.384369
Si Si2 0.415009 0.438282 0.855376
Si Si3 0.964021 0.866921 0.631073
Si Si4 0.852932 0.985327 0.963853
Si Si5 0.856038 0.553580 0.193723
O O1 0.596006 0.507129 0.279733
O O2 0.816105 0.171994 0.495105
O O3 0.759222 0.400270 0.368454
O O4 0.500000 0.000000 0.500000
O O5 0.649463 0.639414 0.795396
O O6 0.089224 0.325453 0.119293
O O7 0.440390 0.264155 0.846227
O O8 0.994220 0.988986 0.741515
O O9 0.000000 0.000000 0.500000
O O10 0.902744 0.193498 0.931904
O O11 0.000000 0.000000 0.000000
O O12 0.000000 0.500000 0.000000
#
# Coordination Sequence:
#
# PCOD9083658 Si02
#       5
#     2   2   2   2   2
#     4  10  19  34  57  84 115 154 196 242 292 347
#     4   9  19  38  60  84 117 157 197 244 296 353
#     4  11  22  39  60  88 121 158 197 245 298 354
#     4   9  18  36  61  86 114 158 201 237 293 364
#     4   9  18  35  58  86 115 153 199 246 292 350
#
# _framework density 24.291999000000001
#
# number of rings (size 3 to 8) (size 9 to 14) (size 15 to 20)
#    0.000    2.400    0.000    4.800    0.000    0.000 
#    0.000   30.000    0.000    0.000    0.000    0.000 
#    0.000    0.000    0.000    0.000    0.000    0.000 
#
# Total GULP energy -55696.823287 kJ/mol
# GULP energy per Si atom -5569.682329 kJ/mol
# Density = 2.423671 g / cm^3
# Si number density = 24.291999 Si / 1000 Ang^3
#
#
#
# Elastic Constant Matrix: (Units=GPa)
#
#
# Indices 1 2 3 4 5 6 
#
# 1 136.0756 53.7998 71.0444 -19.1977 30.1056 -11.5730
# 2 53.7998 186.2286 63.8472 -39.1144 6.0842 -21.7223
# 3 71.0444 63.8472 101.9209 -41.5785 25.1284 -7.7935
# 4 -19.1977 -39.1144 -41.5785 60.7326 -3.8830 6.9082
# 5 30.1056 6.0842 25.1284 -3.8830 65.2258 -18.2187
# 6 -11.5730 -21.7223 -7.7935 6.9082 -18.2187 46.3979
#
#
#
# Elastic Compliance Matrix: (Units=1/GPa)
#
#
# Indices 1 2 3 4 5 6 
#
# 1 0.012378 -0.001119 -0.008449 -0.002815 -0.002341 0.000644
# 2 -0.001119 0.007601 -0.003483 0.001925 0.002175 0.003262
# 3 -0.008449 -0.003483 0.023451 0.011209 -0.005113 -0.003476
# 4 -0.002815 0.001925 0.011209 0.024623 -0.002443 -0.002544
# 5 -0.002341 0.002175 -0.005113 -0.002443 0.020236 0.007885
# 6 0.000644 0.003262 -0.003476 -0.002544 0.007885 0.026131
#
#
# Mechanical properties :
#
#
# Convention : Reuss Voigt Hill
#
# Bulk Modulus (GPa) = 57.71254 89.06753 73.39004
# Shear Modulus (GPa) = 34.17674 50.17350 42.17512
#
# Velocity S-wave (km/s) = 3.75495 4.54963 4.17126
# Velocity P-wave (km/s) = 6.52756 8.02146 7.31276
#
# Compressibility (1/GPa) = 0.01732726
#
# Stress axis : x y z
#
# Youngs Moduli (GPa) = 80.78711 131.56427 42.64249
#
# Poissons Ratio (x) = 0.14720 0.36030
# Poissons Ratio (y) = 0.09039 0.14853
# Poissons Ratio (z) = 0.68260 0.45825
#
# Static dielectric constant tensor:
#      x y z
#    x 2.077450 -0.112310 0.029100 
#    y -0.112310 2.029630 0.097840 
#    z 0.029100 0.097840 2.172050 
# 
# From -- ./inp_files/373789.got.cif
#   From: 2010.05.17/outbox.cif.g08.bks.cpg/sg2_187_cif.got.tgz:373789.got - 2010.06.03 11:33:40.
