data_PCOD9083685
_publ_section_title
;
Structure prediction by ZEFSAII (Michael W. Deem and Ramdas Pophale) SiO2 
 PCOD9083685
Probable space group: P -1
;
_chemical_formula_sum "Si O2"
_cell_formula_units_Z 16
_cell_length_a 9.251598
_cell_length_b 12.003725
_cell_length_c 13.295710
_cell_angle_alpha 76.928637
_cell_angle_beta 27.455302
_cell_angle_gamma 70.909498
_cell_volume 636.335436
_symmetry_space_group_name_H-M "P -1"
_symmetry_group_IT_number 2
_symmetry_cell_setting 'triclinic'
loop_
_space_group_symop_operation_xyz
x,y,z
-x,-y,-z
loop_
_atom_site_type_symbol
_atom_site_label
_atom_site_fract_x
_atom_site_fract_y
_atom_site_fract_z
Si Si1 0.276350 0.066035 0.833679
Si Si2 0.587269 0.622128 0.407600
Si Si3 0.906616 0.075855 0.704576
Si Si4 0.190543 0.206257 0.653764
Si Si5 0.300539 0.486186 0.970025
Si Si6 0.573559 0.648237 0.871587
Si Si7 0.315049 0.111139 0.224972
Si Si8 0.488955 0.255994 0.763965
O O1 0.308706 0.120474 0.693646
O O2 0.229264 0.182046 0.911699
O O3 0.560345 0.971057 0.737991
O O4 0.000000 0.000000 0.000000
O O5 0.500000 0.500000 0.500000
O O6 0.601935 0.698207 0.483408
O O7 0.390161 0.705948 0.424995
O O8 0.954802 0.579856 0.145006
O O9 0.747522 0.167936 0.695461
O O10 0.180780 0.122842 0.582437
O O11 0.936922 0.944510 0.668069
O O12 0.625359 0.088960 0.961579
O O13 0.812075 0.285306 0.883945
O O14 0.287744 0.428556 0.100016
O O15 0.570075 0.558343 0.800776
O O16 0.365765 0.378064 0.875840
O O17 0.741062 0.752838 0.734605
#
# Coordination Sequence:
#
# PCOD9083685 Si02
#       8
#     2   2   2   2   2   2   2   2
#     4  10  16  24  44  76 108 129 148 197 257 297
#     4  10  22  36  48  67 101 140 168 197 246 299
#     4   9  15  25  46  72 102 119 155 207 252 280
#     4   9  16  29  47  69  99 128 161 200 245 286
#     4  10  18  31  50  72 101 129 161 209 246 287
#     4   9  16  26  47  72 103 126 156 196 255 284
#     4   9  15  24  40  72 110 123 150 194 253 304
#     4  10  19  31  50  77  99 123 168 210 246 281
#
# _framework density 25.143971000000001
#
# number of rings (size 3 to 8) (size 9 to 14) (size 15 to 20)
#    0.000    2.500    5.000    0.375    0.000    0.000 
#    0.000    0.625    0.000    0.000    0.000   15.750 
#    0.000    0.000    0.000    0.000    0.000    0.000 
#
# Total GULP energy -89350.243388 kJ/mol
# GULP energy per Si atom -5584.390212 kJ/mol
# Density = 2.508674 g / cm^3
# Si number density = 25.143971 Si / 1000 Ang^3
#
#
#
# Elastic Constant Matrix: (Units=GPa)
#
#
# Indices 1 2 3 4 5 6 
#
# 1 196.8798 96.4589 28.7659 -18.7937 -11.3522 40.8317
# 2 96.4589 192.1016 28.0201 -26.1316 -13.7672 41.8657
# 3 28.7659 28.0201 43.1656 -13.4611 -5.6405 15.3137
# 4 -18.7937 -26.1316 -13.4611 42.6562 0.9119 -17.3087
# 5 -11.3522 -13.7672 -5.6405 0.9119 28.2615 -10.2794
# 6 40.8317 41.8657 15.3137 -17.3087 -10.2794 84.9740
#
#
#
# Elastic Compliance Matrix: (Units=1/GPa)
#
#
# Indices 1 2 3 4 5 6 
#
# 1 0.007185 -0.002900 -0.002288 0.000028 0.000452 -0.001551
# 2 -0.002900 0.007631 -0.001591 0.002286 0.001647 -0.001415
# 3 -0.002288 -0.001591 0.028698 0.006354 0.003246 -0.001602
# 4 0.000028 0.002286 0.006354 0.028358 0.002874 0.003839
# 5 0.000452 0.001647 0.003246 0.002874 0.038231 0.003597
# 6 -0.001551 -0.001415 -0.001602 0.003839 0.003597 0.014716
#
#
# Mechanical properties :
#
#
# Convention : Reuss Voigt Hill
#
# Bulk Modulus (GPa) = 33.38160 82.07074 57.72617
# Shear Modulus (GPa) = 33.70169 49.77180 41.73675
#
# Velocity S-wave (km/s) = 3.66505 4.45395 4.07862
# Velocity P-wave (km/s) = 5.58705 7.69165 6.72222
#
# Compressibility (1/GPa) = 0.02995662
#
# Stress axis : x y z
#
# Youngs Moduli (GPa) = 139.18811 131.04574 34.84577
#
# Poissons Ratio (x) = 0.37998 0.07971
# Poissons Ratio (y) = 0.40359 0.05545
# Poissons Ratio (z) = 0.31839 0.20852
#
# Static dielectric constant tensor:
#      x y z
#    x 1.981530 0.040380 -0.019550 
#    y 0.040380 1.994960 0.087820 
#    z -0.019550 0.087820 2.210160 
# 
# From -- ./inp_files/189394.got.cif
#   From: 2010.05.17/outbox.cif.g08.bks.cpg/sg2_95_cif.got.tgz:189394.got - 2010.06.03 11:33:40.
