data_PCOD9083980
_publ_section_title
;
Structure prediction by ZEFSAII (Michael W. Deem and Ramdas Pophale) SiO2 
 PCOD9083980
Probable space group: P -1
;
_chemical_formula_sum "Si O2"
_cell_formula_units_Z 16
_cell_length_a 7.736538
_cell_length_b 12.716009
_cell_length_c 11.871025
_cell_angle_alpha 52.195357
_cell_angle_beta 64.086566
_cell_angle_gamma 76.263060
_cell_volume 829.186634
_symmetry_space_group_name_H-M "P -1"
_symmetry_group_IT_number 2
_symmetry_cell_setting 'triclinic'
loop_
_space_group_symop_operation_xyz
x,y,z
-x,-y,-z
loop_
_atom_site_type_symbol
_atom_site_label
_atom_site_fract_x
_atom_site_fract_y
_atom_site_fract_z
Si Si1 0.889019 0.759744 0.029898
Si Si2 0.806269 0.836222 0.630080
Si Si3 0.459590 0.841858 0.592249
Si Si4 0.291614 0.666815 0.939209
Si Si5 0.297697 0.370483 0.041777
Si Si6 0.942850 0.053807 0.712507
Si Si7 0.410070 0.942586 0.311501
Si Si8 0.834323 0.904457 0.165131
O O1 0.092671 0.694760 0.037763
O O2 0.759059 0.669541 0.042047
O O3 0.928157 0.900934 0.859571
O O4 0.796911 0.792396 0.155096
O O5 0.654687 0.778027 0.618655
O O6 0.850549 0.714432 0.778224
O O7 0.959484 0.918005 0.456061
O O8 0.692140 0.933329 0.682308
O O9 0.309085 0.780029 0.763153
O O10 0.408881 0.831903 0.483059
O O11 0.500000 0.000000 0.500000
O O12 0.484750 0.668212 0.959726
O O13 0.281959 0.524839 0.973035
O O14 0.723875 0.095218 0.731048
O O15 0.072626 0.130389 0.718785
O O16 0.632447 0.972537 0.199718
O O17 0.000000 0.000000 0.000000
#
# Coordination Sequence:
#
# PCOD9083980 Si02
#       8
#     2   2   2   2   2   2   2   2
#     4  11  22  37  57  80 121 151 191 232 281 347
#     4  10  19  34  59  87 119 139 191 243 292 337
#     4   9  18  31  59  83 115 140 172 239 297 327
#     4  10  22  38  58  88 116 145 187 240 291 339
#     4  10  22  37  58  89 110 152 189 233 294 339
#     4  11  22  35  57  90 117 148 192 238 295 336
#     4  11  20  35  55  86 118 150 187 239 293 339
#     4  10  25  36  53  84 119 161 189 230 290 340
#
# _framework density 19.296019000000001
#
# number of rings (size 3 to 8) (size 9 to 14) (size 15 to 20)
#    0.000    1.750    2.500    2.250   10.500    3.000 
#    0.000    0.000    0.000    1.500    0.000    0.000 
#    0.000    0.000    0.000    0.000    0.000    0.000 
#
# Total GULP energy -89114.602761 kJ/mol
# GULP energy per Si atom -5569.662673 kJ/mol
# Density = 1.925210 g / cm^3
# Si number density = 19.296019 Si / 1000 Ang^3
#
#
#
# Elastic Constant Matrix: (Units=GPa)
#
#
# Indices 1 2 3 4 5 6 
#
# 1 109.1436 28.9727 28.3286 16.1747 2.6731 6.4054
# 2 28.9727 74.6390 34.8965 11.9230 3.0294 13.1285
# 3 28.3286 34.8965 58.0122 12.3736 -1.5819 -0.6014
# 4 16.1747 11.9230 12.3736 20.3598 0.2641 3.8795
# 5 2.6731 3.0294 -1.5819 0.2641 25.8594 6.7137
# 6 6.4054 13.1285 -0.6014 3.8795 6.7137 22.0690
#
#
#
# Elastic Compliance Matrix: (Units=1/GPa)
#
#
# Indices 1 2 3 4 5 6 
#
# 1 0.011434 -0.001715 -0.003344 -0.005825 -0.000838 -0.001111
# 2 -0.001715 0.022403 -0.012390 -0.001769 0.000164 -0.012905
# 3 -0.003344 -0.012390 0.028461 -0.009396 0.000910 0.010492
# 4 -0.005825 -0.001769 -0.009396 0.062187 0.001946 -0.009037
# 5 -0.000838 0.000164 0.000910 0.001946 0.042147 -0.012993
# 6 -0.001111 -0.012905 0.010492 -0.009037 -0.012993 0.059139
#
#
# Mechanical properties :
#
#
# Convention : Reuss Voigt Hill
#
# Bulk Modulus (GPa) = 36.49682 47.35452 41.92567
# Shear Modulus (GPa) = 18.53199 23.63077 21.08138
#
# Velocity S-wave (km/s) = 3.10240 3.50329 3.30892
# Velocity P-wave (km/s) = 5.63812 6.39988 6.03104
#
# Compressibility (1/GPa) = 0.02739965
#
# Stress axis : x y z
#
# Youngs Moduli (GPa) = 87.45546 44.63783 35.13523
#
# Poissons Ratio (x) = 0.07657 0.11748
# Poissons Ratio (y) = 0.15002 0.43533
# Poissons Ratio (z) = 0.29243 0.55307
#
# Static dielectric constant tensor:
#      x y z
#    x 1.769520 0.037820 0.018760 
#    y 0.037820 1.706680 0.008990 
#    z 0.018760 0.008990 1.750030 
# 
# From -- ./inp_files/386905.got.cif
#   From: 2010.05.17/outbox.cif.g08.bks.cpg/sg2_194_cif.got.tgz:386905.got - 2010.06.03 11:33:40.
