data_PCOD9083469
_publ_section_title
;
Structure prediction by ZEFSAII (Michael W. Deem and Ramdas Pophale) SiO2 
 PCOD9083469
Probable space group: P -1
;
_chemical_formula_sum "Si O2"
_cell_formula_units_Z 16
_cell_length_a 13.778101
_cell_length_b 8.149503
_cell_length_c 7.590828
_cell_angle_alpha 71.944125
_cell_angle_beta 83.867057
_cell_angle_gamma 53.186250
_cell_volume 645.270599
_symmetry_space_group_name_H-M "P -1"
_symmetry_group_IT_number 2
_symmetry_cell_setting 'triclinic'
loop_
_space_group_symop_operation_xyz
x,y,z
-x,-y,-z
loop_
_atom_site_type_symbol
_atom_site_label
_atom_site_fract_x
_atom_site_fract_y
_atom_site_fract_z
Si Si1 0.621641 0.169409 0.138046
Si Si2 0.924673 0.169818 0.200147
Si Si3 0.620751 0.756735 0.824584
Si Si4 0.840581 0.945003 0.656048
Si Si5 0.118490 0.474312 0.175923
Si Si6 0.330802 0.531964 0.754626
Si Si7 0.881054 0.835563 0.276911
Si Si8 0.421006 0.794387 0.277585
O O1 0.500442 0.211414 0.226807
O O2 0.646411 0.319789 0.184666
O O3 0.746219 0.927026 0.208339
O O4 0.597770 0.228891 0.917496
O O5 0.812428 0.309275 0.314109
O O6 0.058484 0.032777 0.300127
O O7 0.904151 0.010986 0.156487
O O8 0.909375 0.352194 0.020862
O O9 0.748898 0.610630 0.743356
O O10 0.586868 0.991773 0.769334
O O11 0.649163 0.646389 0.049604
O O12 0.857184 0.745422 0.824339
O O13 0.871815 0.859318 0.480373
O O14 0.700103 0.148035 0.625058
O O15 0.997090 0.604455 0.273008
O O16 0.440803 0.402444 0.638553
#
# Coordination Sequence:
#
# PCOD9083469 Si02
#       8
#     2   2   2   2   2   2   2   2
#     4  10  19  34  56  81 108 143 182 224 269 324
#     4  10  21  38  59  82 107 144 191 228 266 326
#     4   9  18  32  54  84 107 135 184 231 266 314
#     4  11  23  38  55  83 116 146 180 227 279 326
#     4  10  21  38  59  82 107 144 191 228 266 326
#     4   9  18  32  54  84 107 135 184 231 266 314
#     4  11  23  38  55  83 116 146 180 227 279 326
#     4  10  19  34  56  81 108 143 182 224 269 324
#
# _framework density 24.795801000000001
#
# number of rings (size 3 to 8) (size 9 to 14) (size 15 to 20)
#    0.000    2.000    0.000    5.250    0.000    6.000 
#    0.000    6.250    0.000    0.000    0.000    0.000 
#    0.000    0.000    0.000    0.000    0.000    0.000 
#
# Total GULP energy -89438.408321 kJ/mol
# GULP energy per Si atom -5589.900520 kJ/mol
# Density = 2.473936 g / cm^3
# Si number density = 24.795801 Si / 1000 Ang^3
#
#
#
# Elastic Constant Matrix: (Units=GPa)
#
#
# Indices 1 2 3 4 5 6 
#
# 1 128.2633 43.4762 5.1483 -8.4283 -1.5249 -42.2190
# 2 43.4762 137.4805 15.0763 -11.9083 -1.4728 -56.5411
# 3 5.1483 15.0763 33.1469 -9.4174 -0.3844 -2.0289
# 4 -8.4283 -11.9083 -9.4174 33.4283 -4.0422 -10.4927
# 5 -1.5249 -1.4728 -0.3844 -4.0422 19.0162 1.6204
# 6 -42.2190 -56.5411 -2.0289 -10.4927 1.6204 50.4446
#
#
#
# Elastic Compliance Matrix: (Units=1/GPa)
#
#
# Indices 1 2 3 4 5 6 
#
# 1 0.012838 0.003926 0.000246 0.010368 0.002073 0.017245
# 2 0.003926 0.019395 -0.003065 0.016221 0.002801 0.028186
# 3 0.000246 -0.003065 0.034050 0.008815 0.002353 -0.000102
# 4 0.010368 0.016221 0.008815 0.054024 0.010502 0.038114
# 5 0.002073 0.002801 0.002353 0.010502 0.054790 0.005394
# 6 0.017245 0.028186 -0.000102 0.038114 0.005394 0.073599
#
#
# Mechanical properties :
#
#
# Convention : Reuss Voigt Hill
#
# Bulk Modulus (GPa) = 14.59930 47.36583 30.98256
# Shear Modulus (GPa) = 18.56553 36.25715 27.41134
#
# Velocity S-wave (km/s) = 2.73927 3.82806 3.32849
# Velocity P-wave (km/s) = 3.98816 6.21953 5.22436
#
# Compressibility (1/GPa) = 0.06849642
#
# Stress axis : x y z
#
# Youngs Moduli (GPa) = 77.89297 51.55863 29.36849
#
# Poissons Ratio (x) = -0.20240 -0.00722
# Poissons Ratio (y) = -0.30577 0.09001
# Poissons Ratio (z) = -0.01914 0.15802
#
# Static dielectric constant tensor:
#      x y z
#    x 2.010830 -0.051550 -0.055760 
#    y -0.051550 1.965860 -0.017080 
#    z -0.055760 -0.017080 2.024820 
# 
# From -- ./inp_files/297870.got.cif
#   From: 2010.05.17/outbox.cif.g08.bks.cpg/sg2_149_cif.got.tgz:297870.got - 2010.06.03 11:33:40.
