data_PCOD9083511
_publ_section_title
;
Structure prediction by ZEFSAII (Michael W. Deem and Ramdas Pophale) SiO2 
 PCOD9083511
Probable space group: P -1
;
_chemical_formula_sum "Si O2"
_cell_formula_units_Z 14
_cell_length_a 14.487443
_cell_length_b 8.371248
_cell_length_c 13.124113
_cell_angle_alpha 120.961007
_cell_angle_beta 149.947033
_cell_angle_gamma 48.249463
_cell_volume 586.460506
_symmetry_space_group_name_H-M "P -1"
_symmetry_group_IT_number 2
_symmetry_cell_setting 'triclinic'
loop_
_space_group_symop_operation_xyz
x,y,z
-x,-y,-z
loop_
_atom_site_type_symbol
_atom_site_label
_atom_site_fract_x
_atom_site_fract_y
_atom_site_fract_z
Si Si1 0.957410 0.436451 0.293041
Si Si2 0.425311 0.047894 0.559736
Si Si3 0.271521 0.114952 0.875291
Si Si4 0.463514 0.781496 0.684424
Si Si5 0.775598 0.344549 0.892603
Si Si6 0.020580 0.906317 0.663631
Si Si7 0.857303 0.965593 0.970127
O O1 0.922107 0.340851 0.334565
O O2 0.201884 0.265570 0.438488
O O3 0.893817 0.682270 0.287536
O O4 0.810519 0.409608 0.059654
O O5 0.616647 0.051476 0.803179
O O6 0.500000 0.000000 0.500000
O O7 0.433018 0.848258 0.559664
O O8 0.342169 0.201089 0.070881
O O9 0.500000 0.000000 0.000000
O O10 0.174467 0.963200 0.763485
O O11 0.548725 0.529759 0.697199
O O12 0.228172 0.944776 0.559680
O O13 0.801279 0.114261 0.863881
O O14 0.979964 0.279293 0.993400
O O15 0.030050 0.993662 0.814491
#
# Coordination Sequence:
#
# PCOD9083511 Si02
#       7
#     2   2   2   2   2   2   2
#     4   9  21  39  59  90 125 154 201 252 297 352
#     4  11  20  35  58  89 124 162 196 238 289 361
#     4  11  24  44  67  88 113 158 209 256 312 358
#     4  10  23  40  58  89 123 156 204 250 297 355
#     4   9  19  34  53  85 121 162 201 234 285 361
#     4  10  22  41  60  88 125 156 195 257 298 356
#     4  10  19  34  56  84 124 166 196 232 295 357
#
# _framework density 23.872026000000002
#
# number of rings (size 3 to 8) (size 9 to 14) (size 15 to 20)
#    0.000    2.000    2.857    0.000    4.000    3.429 
#    0.000    2.857    0.000    0.000    0.000    0.000 
#    0.000    0.000    0.000    0.000    0.000    0.000 
#
# Total GULP energy -77939.437470 kJ/mol
# GULP energy per Si atom -5567.102676 kJ/mol
# Density = 2.381769 g / cm^3
# Si number density = 23.872026 Si / 1000 Ang^3
#
#
#
# Elastic Constant Matrix: (Units=GPa)
#
#
# Indices 1 2 3 4 5 6 
#
# 1 129.5119 48.5595 45.3130 -28.5588 -6.7167 33.3200
# 2 48.5595 71.4729 33.7134 -34.9067 -0.9844 27.3178
# 3 45.3130 33.7134 136.3739 -26.3952 -4.5931 27.1291
# 4 -28.5588 -34.9067 -26.3952 51.5979 4.9243 -7.6025
# 5 -6.7167 -0.9844 -4.5931 4.9243 35.6331 10.6938
# 6 33.3200 27.3178 27.1291 -7.6025 10.6938 32.1632
#
#
#
# Elastic Compliance Matrix: (Units=1/GPa)
#
#
# Indices 1 2 3 4 5 6 
#
# 1 0.012789 -0.002400 -0.000550 0.002907 0.005433 -0.011866
# 2 -0.002400 0.032861 0.000975 0.017364 0.005361 -0.023924
# 3 -0.000550 0.000975 0.009868 0.003793 0.003307 -0.008784
# 4 0.002907 0.017364 0.003793 0.032563 0.001107 -0.013630
# 5 0.005433 0.005361 0.003307 0.001107 0.037017 -0.025018
# 6 -0.011866 -0.023924 -0.008784 -0.013630 -0.025018 0.076211
#
#
# Mechanical properties :
#
#
# Convention : Reuss Voigt Hill
#
# Bulk Modulus (GPa) = 19.39220 65.83673 42.61447
# Shear Modulus (GPa) = 22.47723 37.86368 30.17045
#
# Velocity S-wave (km/s) = 3.07183 3.98692 3.55891
# Velocity P-wave (km/s) = 4.55221 6.98806 5.89727
#
# Compressibility (1/GPa) = 0.05156713
#
# Stress axis : x y z
#
# Youngs Moduli (GPa) = 78.19132 30.43161 101.34234
#
# Poissons Ratio (x) = 0.07302 0.05574
# Poissons Ratio (y) = 0.18763 -0.09876
# Poissons Ratio (z) = 0.04301 -0.02966
#
# Static dielectric constant tensor:
#      x y z
#    x 2.062490 0.077960 0.055030 
#    y 0.077960 2.004370 0.073650 
#    z 0.055030 0.073650 1.945270 
# 
# From -- ./inp_files/170243.got.cif
#   From: 2010.05.17/outbox.cif.g08.bks.cpg/sg2_86_cif.got.tgz:170243.got - 2010.06.03 11:33:40.
