data_PCOD9083396
_publ_section_title
;
Structure prediction by ZEFSAII (Michael W. Deem and Ramdas Pophale) SiO2 
 PCOD9083396
Probable space group: P -1
;
_chemical_formula_sum "Si O2"
_cell_formula_units_Z 16
_cell_length_a 16.445854
_cell_length_b 6.892543
_cell_length_c 10.248885
_cell_angle_alpha 122.952437
_cell_angle_beta 49.074779
_cell_angle_gamma 91.137501
_cell_volume 624.280574
_symmetry_space_group_name_H-M "P -1"
_symmetry_group_IT_number 2
_symmetry_cell_setting 'triclinic'
loop_
_space_group_symop_operation_xyz
x,y,z
-x,-y,-z
loop_
_atom_site_type_symbol
_atom_site_label
_atom_site_fract_x
_atom_site_fract_y
_atom_site_fract_z
Si Si1 0.026022 0.721210 0.944221
Si Si2 0.518062 0.990599 0.753586
Si Si3 0.706697 0.053677 0.090924
Si Si4 0.180293 0.877736 0.537727
Si Si5 0.560604 0.572195 0.785600
Si Si6 0.705124 0.290260 0.927847
Si Si7 0.728257 0.536755 0.230876
Si Si8 0.007608 0.334291 0.305878
O O1 0.902380 0.825389 0.201574
O O2 0.042216 0.533829 0.735690
O O3 0.146748 0.603485 0.865490
O O4 0.000000 0.000000 0.000000
O O5 0.397710 0.022981 0.815369
O O6 0.557022 0.768148 0.747526
O O7 0.636392 0.850006 0.479777
O O8 0.481164 0.256971 0.972244
O O9 0.733561 0.040076 0.901301
O O10 0.659007 0.369963 0.281880
O O11 0.841606 0.874364 0.950678
O O12 0.298755 0.681358 0.433997
O O13 0.078326 0.785840 0.606260
O O14 0.235558 0.828274 0.316798
O O15 0.447884 0.523331 0.852287
O O16 0.754704 0.451998 0.019564
O O17 0.000000 0.500000 0.500000
#
# Coordination Sequence:
#
# PCOD9083396 Si02
#       8
#     2   2   2   2   2   2   2   2
#     4  10  19  34  56  82 103 141 179 220 271 318
#     4  10  19  34  55  82 111 139 176 236 279 303
#     4   9  19  33  55  81 107 144 183 217 269 325
#     4  11  20  37  57  77 115 146 181 221 265 327
#     4  10  21  33  55  83 110 141 182 230 275 312
#     4   9  21  35  54  80 106 151 189 213 263 325
#     4  10  19  35  55  81 109 143 189 220 260 329
#     4  11  22  36  57  86 111 134 177 231 281 321
#
# _framework density 25.629501999999999
#
# number of rings (size 3 to 8) (size 9 to 14) (size 15 to 20)
#    0.750    1.250    2.500    3.000    0.000    4.000 
#    0.000    1.875    0.000    2.250    0.000    0.000 
#    0.000    0.000    0.000    0.000    0.000    0.000 
#
# Total GULP energy -89439.781417 kJ/mol
# GULP energy per Si atom -5589.986339 kJ/mol
# Density = 2.557117 g / cm^3
# Si number density = 25.629502 Si / 1000 Ang^3
#
#
#
# Elastic Constant Matrix: (Units=GPa)
#
#
# Indices 1 2 3 4 5 6 
#
# 1 155.8183 31.1160 47.5018 13.4515 -18.9352 -10.2015
# 2 31.1160 57.6111 0.8044 -4.8871 -7.5570 -3.3338
# 3 47.5018 0.8044 121.6471 3.7461 0.2799 -2.8426
# 4 13.4515 -4.8871 3.7461 25.3068 -4.7633 2.0812
# 5 -18.9352 -7.5570 0.2799 -4.7633 54.5440 2.3811
# 6 -10.2015 -3.3338 -2.8426 2.0812 2.3811 34.0878
#
#
#
# Elastic Compliance Matrix: (Units=1/GPa)
#
#
# Indices 1 2 3 4 5 6 
#
# 1 0.009289 -0.005023 -0.003387 -0.005210 0.001996 0.002185
# 2 -0.005023 0.020857 0.001614 0.006772 0.001723 0.000137
# 3 -0.003387 0.001614 0.009518 0.000526 -0.000954 -0.000028
# 4 -0.005210 0.006772 0.000526 0.044423 0.003172 -0.003787
# 5 0.001996 0.001723 -0.000954 0.003172 0.019585 -0.000875
# 6 0.002185 0.000137 -0.000028 -0.003787 -0.000875 0.030293
#
#
# Mechanical properties :
#
#
# Convention : Reuss Voigt Hill
#
# Bulk Modulus (GPa) = 38.35649 54.88009 46.61829
# Shear Modulus (GPa) = 32.00060 39.83136 35.91598
#
# Velocity S-wave (km/s) = 3.53736 3.94651 3.74753
# Velocity P-wave (km/s) = 5.62869 6.49815 6.07899
#
# Compressibility (1/GPa) = 0.02607121
#
# Stress axis : x y z
#
# Youngs Moduli (GPa) = 107.65725 47.94617 105.06661
#
# Poissons Ratio (x) = 0.24085 0.35586
# Poissons Ratio (y) = 0.54080 -0.16961
# Poissons Ratio (z) = 0.36464 -0.07740
#
# Static dielectric constant tensor:
#      x y z
#    x 2.030470 0.035360 0.064150 
#    y 0.035360 2.121970 0.009900 
#    z 0.064150 0.009900 2.062190 
# 
# From -- ./inp_files/464005.got.cif
#   From: 2010.05.17/outbox.cif.g08.bks.cpg/sg2_233_cif.got.tgz:464005.got - 2010.06.03 11:33:40.
