data_PCOD9083414
_publ_section_title
;
Structure prediction by ZEFSAII (Michael W. Deem and Ramdas Pophale) SiO2 
 PCOD9083414
Probable space group: P -1
;
_chemical_formula_sum "Si O2"
_cell_formula_units_Z 16
_cell_length_a 11.268055
_cell_length_b 8.012844
_cell_length_c 11.836334
_cell_angle_alpha 52.198174
_cell_angle_beta 94.516746
_cell_angle_gamma 70.537406
_cell_volume 736.491766
_symmetry_space_group_name_H-M "P -1"
_symmetry_group_IT_number 2
_symmetry_cell_setting 'triclinic'
loop_
_space_group_symop_operation_xyz
x,y,z
-x,-y,-z
loop_
_atom_site_type_symbol
_atom_site_label
_atom_site_fract_x
_atom_site_fract_y
_atom_site_fract_z
Si Si1 0.765000 0.553160 0.320408
Si Si2 0.128202 0.843337 0.846742
Si Si3 0.291097 0.623578 0.168741
Si Si4 0.853233 0.314286 0.650131
Si Si5 0.368042 0.937590 0.767067
Si Si6 0.526651 0.740368 0.063691
Si Si7 0.009444 0.218870 0.346634
Si Si8 0.727808 0.792722 0.567512
O O1 0.783399 0.370076 0.499421
O O2 0.700824 0.817211 0.263219
O O3 0.665949 0.560883 0.210099
O O4 0.911886 0.453841 0.315820
O O5 0.059105 0.740087 0.798283
O O6 0.260983 0.838749 0.805421
O O7 0.176989 0.720666 0.022697
O O8 0.009083 0.117897 0.737698
O O9 0.410256 0.679595 0.121468
O O10 0.335314 0.343278 0.308923
O O11 0.776163 0.250416 0.768846
O O12 0.828530 0.573468 0.582735
O O13 0.373061 0.007267 0.609544
O O14 0.506778 0.764167 0.916467
O O15 0.500000 0.000000 0.000000
O O16 0.166342 0.152429 0.381628
O O17 0.000000 0.000000 0.500000
#
# Coordination Sequence:
#
# PCOD9083414 Si02
#       8
#     2   2   2   2   2   2   2   2
#     4  10  19  34  55  85 108 142 181 224 266 320
#     4  11  19  33  55  82 113 143 180 219 271 323
#     4   9  21  35  55  80 111 143 177 225 278 317
#     4   9  18  33  54  81 110 143 173 222 279 322
#     4   9  17  34  56  79 108 141 182 220 265 322
#     4   9  19  36  58  82 106 139 186 228 263 318
#     4  12  21  32  56  84 112 143 183 223 263 325
#     4   9  19  34  54  81 109 142 176 221 280 312
#
# _framework density 21.724613000000002
#
# number of rings (size 3 to 8) (size 9 to 14) (size 15 to 20)
#    0.750    1.500    2.500    1.125    0.000    3.000 
#    0.000    2.500    0.000    0.750    0.000    0.000 
#    0.000    0.000    0.000    0.000    0.000    0.000 
#
# Total GULP energy -89177.232488 kJ/mol
# GULP energy per Si atom -5573.577030 kJ/mol
# Density = 2.167517 g / cm^3
# Si number density = 21.724613 Si / 1000 Ang^3
#
#
#
# Elastic Constant Matrix: (Units=GPa)
#
#
# Indices 1 2 3 4 5 6 
#
# 1 73.8383 29.2425 57.5570 14.3128 10.4387 25.7839
# 2 29.2425 67.3762 34.8436 9.6548 5.7617 6.5081
# 3 57.5570 34.8436 160.7754 47.5317 7.7048 13.6332
# 4 14.3128 9.6548 47.5317 29.5271 7.1251 7.9923
# 5 10.4387 5.7617 7.7048 7.1251 27.5706 -4.1813
# 6 25.7839 6.5081 13.6332 7.9923 -4.1813 27.9914
#
#
#
# Elastic Compliance Matrix: (Units=1/GPa)
#
#
# Indices 1 2 3 4 5 6 
#
# 1 0.039816 -0.007287 -0.015231 0.022671 -0.020787 -0.037141
# 2 -0.007287 0.018528 -0.001284 -0.001428 0.000140 0.003459
# 3 -0.015231 -0.001284 0.018737 -0.028987 0.010574 0.015059
# 4 0.022671 -0.001428 -0.028987 0.086250 -0.027815 -0.035215
# 5 -0.020787 0.000140 0.010574 -0.027815 0.052865 0.029804
# 6 -0.037141 0.003459 0.015059 -0.035215 0.029804 0.076305
#
#
# Mechanical properties :
#
#
# Convention : Reuss Voigt Hill
#
# Bulk Modulus (GPa) = 33.92788 60.58622 47.25705
# Shear Modulus (GPa) = 14.28853 29.04095 21.66474
#
# Velocity S-wave (km/s) = 2.56737 3.66016 3.16134
# Velocity P-wave (km/s) = 4.94365 6.76840 5.92667
#
# Compressibility (1/GPa) = 0.02947428
#
# Stress axis : x y z
#
# Youngs Moduli (GPa) = 25.11583 53.97361 53.37070
#
# Poissons Ratio (x) = 0.39332 0.81291
# Poissons Ratio (y) = 0.18302 0.06854
# Poissons Ratio (z) = 0.38255 0.06932
#
# Static dielectric constant tensor:
#      x y z
#    x 1.769240 -0.004700 -0.003900 
#    y -0.004700 1.836990 -0.002900 
#    z -0.003900 -0.002900 1.837130 
# 
# From -- ./inp_files/514926.got.cif
#   From: 2010.05.17/outbox.cif.g08.bks.cpg/sg2_258_cif.got.tgz:514926.got - 2010.06.03 11:33:40.
