data_PCOD9083172
_publ_section_title
;
Structure prediction by ZEFSAII (Michael W. Deem and Ramdas Pophale) SiO2 
 PCOD9083172
Probable space group: P -1
;
_chemical_formula_sum "Si O2"
_cell_formula_units_Z 16
_cell_length_a 5.263429
_cell_length_b 18.031426
_cell_length_c 7.646062
_cell_angle_alpha 104.218361
_cell_angle_beta 116.154635
_cell_angle_gamma 75.117472
_cell_volume 622.137211
_symmetry_space_group_name_H-M "P -1"
_symmetry_group_IT_number 2
_symmetry_cell_setting 'triclinic'
loop_
_space_group_symop_operation_xyz
x,y,z
-x,-y,-z
loop_
_atom_site_type_symbol
_atom_site_label
_atom_site_fract_x
_atom_site_fract_y
_atom_site_fract_z
Si Si1 0.742506 0.955987 0.797725
Si Si2 0.948503 0.843888 0.508835
Si Si3 0.787372 0.535435 0.113449
Si Si4 0.511791 0.675074 0.919556
Si Si5 0.561116 0.820735 0.836236
Si Si6 0.273947 0.441338 0.402466
Si Si7 0.118285 0.043915 0.726924
Si Si8 0.875057 0.700259 0.594771
O O1 0.707189 0.902550 0.580869
O O2 0.753012 0.887642 0.910870
O O3 0.459464 0.015479 0.800782
O O4 0.967086 0.009290 0.825923
O O5 0.958009 0.869292 0.325873
O O6 0.936741 0.753297 0.481832
O O7 0.232696 0.855853 0.712491
O O8 0.969545 0.494444 0.305524
O O9 0.500000 0.500000 0.000000
O O10 0.673923 0.626610 0.099626
O O11 0.000000 0.500000 0.000000
O O12 0.569171 0.763011 0.969056
O O13 0.637668 0.618991 0.765285
O O14 0.168292 0.681215 0.789665
O O15 0.656415 0.760599 0.675049
O O16 0.500000 0.500000 0.500000
O O17 0.253742 0.377969 0.509885
O O18 0.000000 0.000000 0.500000
#
# Coordination Sequence:
#
# PCOD9083172 Si02
#       8
#     2   2   2   2   2   2   2   2
#     4  10  16  23  33  54  80 115 156 192 226 271
#     4   9  16  23  36  52  81 118 158 189 227 280
#     4  10  19  35  54  73  96 127 160 201 244 300
#     4   9  18  32  47  68  94 127 164 195 242 298
#     4   9  16  25  39  59  84 119 159 192 231 279
#     4  10  20  33  51  74  97 125 164 211 251 290
#     4  10  16  21  33  51  79 115 155 189 225 274
#     4   9  17  28  42  61  89 121 160 194 239 288
#
# _framework density 25.717797000000001
#
# number of rings (size 3 to 8) (size 9 to 14) (size 15 to 20)
#    0.000    2.500    3.750    1.500    1.750    0.500 
#    0.000    0.000    0.000    0.000    0.000    0.000 
#    0.000    0.000    0.000    2.250    2.250  119.000 
#
# Total GULP energy -89248.769968 kJ/mol
# GULP energy per Si atom -5578.048123 kJ/mol
# Density = 2.565926 g / cm^3
# Si number density = 25.717797 Si / 1000 Ang^3
#
#
#
# Elastic Constant Matrix: (Units=GPa)
#
#
# Indices 1 2 3 4 5 6 
#
# 1 139.0992 69.2848 50.3493 -15.8274 12.7096 32.9580
# 2 69.2848 226.8466 73.0083 -25.4354 12.5149 74.9856
# 3 50.3493 73.0083 88.3359 -33.9391 -1.1203 31.3497
# 4 -15.8274 -25.4354 -33.9391 56.9406 15.2294 -6.2406
# 5 12.7096 12.5149 -1.1203 15.2294 41.8015 -2.0974
# 6 32.9580 74.9856 31.3497 -6.2406 -2.0974 69.0214
#
#
#
# Elastic Compliance Matrix: (Units=1/GPa)
#
#
# Indices 1 2 3 4 5 6 
#
# 1 0.009907 -0.000786 -0.004068 0.000610 -0.003212 -0.002071
# 2 -0.000786 0.008533 -0.003422 0.001657 -0.003377 -0.007293
# 3 -0.004068 -0.003422 0.021448 0.010036 -0.000981 -0.003204
# 4 0.000610 0.001657 0.010036 0.026731 -0.010380 -0.004548
# 5 -0.003212 -0.003377 -0.000981 -0.010380 0.029947 0.005619
# 6 -0.002071 -0.007293 -0.003204 -0.004548 0.005619 0.024615
#
#
# Mechanical properties :
#
#
# Convention : Reuss Voigt Hill
#
# Bulk Modulus (GPa) = 42.85533 93.28515 68.07024
# Shear Modulus (GPa) = 34.36151 50.99532 42.67842
#
# Velocity S-wave (km/s) = 3.65923 4.45779 4.07810
# Velocity P-wave (km/s) = 5.87820 7.92762 6.97855
#
# Compressibility (1/GPa) = 0.02333432
#
# Stress axis : x y z
#
# Youngs Moduli (GPa) = 100.93961 117.19825 46.62530
#
# Poissons Ratio (x) = 0.09216 0.18969
# Poissons Ratio (y) = 0.07938 0.15954
# Poissons Ratio (z) = 0.41066 0.40101
#
# Static dielectric constant tensor:
#      x y z
#    x 2.098460 0.124620 -0.103440 
#    y 0.124620 1.989530 0.030660 
#    z -0.103440 0.030660 2.181200 
# 
# From -- ./inp_files/123527.got.cif
#   From: 2010.05.17/outbox.cif.g08.bks.cpg/sg2_62_cif.got.tgz:123527.got - 2010.06.03 11:33:40.
