data_PCOD9083935
_publ_section_title
;
Structure prediction by ZEFSAII (Michael W. Deem and Ramdas Pophale) SiO2 
 PCOD9083935
Probable space group: P -1
;
_chemical_formula_sum "Si O2"
_cell_formula_units_Z 16
_cell_length_a 14.611601
_cell_length_b 8.167600
_cell_length_c 11.546824
_cell_angle_alpha 62.293573
_cell_angle_beta 138.926993
_cell_angle_gamma 98.618253
_cell_volume 752.373711
_symmetry_space_group_name_H-M "P -1"
_symmetry_group_IT_number 2
_symmetry_cell_setting 'triclinic'
loop_
_space_group_symop_operation_xyz
x,y,z
-x,-y,-z
loop_
_atom_site_type_symbol
_atom_site_label
_atom_site_fract_x
_atom_site_fract_y
_atom_site_fract_z
Si Si1 0.838055 0.441907 0.924449
Si Si2 0.229598 0.509182 0.659480
Si Si3 0.808894 0.190881 0.656292
Si Si4 0.604724 0.548573 0.490881
Si Si5 0.021017 0.293960 0.470856
Si Si6 0.514197 0.212386 0.931522
Si Si7 0.921250 0.767438 0.963954
Si Si8 0.168669 0.866716 0.815310
O O1 0.729670 0.582375 0.679930
O O2 0.862394 0.590425 0.993887
O O3 0.781473 0.277057 0.979968
O O4 0.981542 0.314449 0.031477
O O5 0.219112 0.719086 0.527571
O O6 0.138177 0.404214 0.525527
O O7 0.399129 0.363256 0.860814
O O8 0.127627 0.557330 0.660200
O O9 0.689236 0.348340 0.568720
O O10 0.805374 0.976801 0.749251
O O11 0.970046 0.194350 0.849496
O O12 0.500000 0.500000 0.500000
O O13 0.536139 0.705903 0.273494
O O14 0.965215 0.195120 0.343994
O O15 0.106735 0.102238 0.696160
O O16 0.687678 0.187063 0.113269
O O17 0.500000 0.000000 0.000000
#
# Coordination Sequence:
#
# PCOD9083935 Si02
#       8
#     2   2   2   2   2   2   2   2
#     4  10  19  34  59  84 114 146 188 240 283 343
#     4  10  20  38  58  81 117 152 197 235 293 343
#     4   9  18  33  56  79 113 147 180 235 282 345
#     4  10  20  37  59  80 109 152 192 231 285 343
#     4  10  22  36  58  88 114 154 196 243 283 348
#     4  11  22  40  61  85 118 157 195 240 297 351
#     4   9  18  33  53  87 111 142 185 230 296 337
#     4  11  21  37  60  87 119 150 198 242 287 343
#
# _framework density 21.266027999999999
#
# number of rings (size 3 to 8) (size 9 to 14) (size 15 to 20)
#    0.000    2.000    2.500    1.500    0.000    1.500 
#    2.250    1.875    0.000    0.000    0.000    0.000 
#    0.000    0.000    0.000    0.000    0.000    0.000 
#
# Total GULP energy -89164.149979 kJ/mol
# GULP energy per Si atom -5572.759374 kJ/mol
# Density = 2.121763 g / cm^3
# Si number density = 21.266028 Si / 1000 Ang^3
#
#
#
# Elastic Constant Matrix: (Units=GPa)
#
#
# Indices 1 2 3 4 5 6 
#
# 1 62.2399 -5.5036 9.0322 -10.7792 12.8186 6.7059
# 2 -5.5036 52.0704 26.3528 -23.0728 -6.2375 15.2856
# 3 9.0322 26.3528 65.9050 -25.4863 -1.0500 6.2692
# 4 -10.7792 -23.0728 -25.4863 36.3328 5.1887 -7.1383
# 5 12.8186 -6.2375 -1.0500 5.1887 29.1401 -5.4193
# 6 6.7059 15.2856 6.2692 -7.1383 -5.4193 22.6892
#
#
#
# Elastic Compliance Matrix: (Units=1/GPa)
#
#
# Indices 1 2 3 4 5 6 
#
# 1 0.023351 0.011031 -0.002033 0.011725 -0.012502 -0.013069
# 2 0.011031 0.038509 -0.007672 0.018590 -0.004338 -0.022271
# 3 -0.002033 -0.007672 0.022513 0.011046 -0.001403 0.002689
# 4 0.011725 0.018590 0.011046 0.051013 -0.010905 -0.005596
# 5 -0.012502 -0.004338 -0.001403 -0.010905 0.043370 0.013934
# 6 -0.013069 -0.022271 0.002689 -0.005596 0.013934 0.063765
#
#
# Mechanical properties :
#
#
# Convention : Reuss Voigt Hill
#
# Bulk Modulus (GPa) = 11.49092 26.66423 19.07758
# Shear Modulus (GPa) = 18.59590 27.65470 23.12530
#
# Velocity S-wave (km/s) = 2.96030 3.61004 3.30120
# Velocity P-wave (km/s) = 4.13518 5.47194 4.84984
#
# Compressibility (1/GPa) = 0.08702524
#
# Stress axis : x y z
#
# Youngs Moduli (GPa) = 42.82521 25.96815 44.41873
#
# Poissons Ratio (x) = -0.28645 0.09030
# Poissons Ratio (y) = -0.47240 0.34076
# Poissons Ratio (z) = 0.08706 0.19922
#
# Static dielectric constant tensor:
#      x y z
#    x 1.789580 0.019160 -0.018260 
#    y 0.019160 1.777940 0.055100 
#    z -0.018260 0.055100 1.859460 
# 
# From -- ./inp_files/268415.got.cif
#   From: 2010.05.17/outbox.cif.g08.bks.cpg/sg2_135_cif.got.tgz:268415.got - 2010.06.03 11:33:40.
