data_PCOD9083064
_publ_section_title
;
Structure prediction by ZEFSAII (Michael W. Deem and Ramdas Pophale) SiO2 
 PCOD9083064
Probable space group: P -1
;
_chemical_formula_sum "Si O2"
_cell_formula_units_Z 16
_cell_length_a 19.475736
_cell_length_b 8.912554
_cell_length_c 12.207957
_cell_angle_alpha 132.189305
_cell_angle_beta 134.299375
_cell_angle_gamma 28.076895
_cell_volume 704.088035
_symmetry_space_group_name_H-M "P -1"
_symmetry_group_IT_number 2
_symmetry_cell_setting 'triclinic'
loop_
_space_group_symop_operation_xyz
x,y,z
-x,-y,-z
loop_
_atom_site_type_symbol
_atom_site_label
_atom_site_fract_x
_atom_site_fract_y
_atom_site_fract_z
Si Si1 0.596936 0.048985 0.643433
Si Si2 0.598873 0.637507 0.743657
Si Si3 0.689859 0.483346 0.014367
Si Si4 0.247306 0.228636 0.104243
Si Si5 0.287451 0.973009 0.471934
Si Si6 0.396049 0.746481 0.858082
Si Si7 0.840643 0.658999 0.285222
Si Si8 0.976197 0.811418 0.929528
O O1 0.670338 0.000107 0.585856
O O2 0.473918 0.413730 0.735571
O O3 0.500000 0.000000 0.500000
O O4 0.738581 0.805188 0.766833
O O5 0.624378 0.646813 0.902379
O O6 0.634174 0.781911 0.790161
O O7 0.436647 0.804322 0.623093
O O8 0.713421 0.267558 0.659131
O O9 0.543686 0.645447 0.993896
O O10 0.810150 0.106533 0.941815
O O11 0.776821 0.537399 0.178490
O O12 0.094681 0.554829 0.031598
O O13 0.300907 0.936085 0.957322
O O14 0.156361 0.248424 0.546322
O O15 0.282941 0.019979 0.772356
O O16 0.984478 0.394388 0.232217
O O17 0.000000 0.000000 0.000000
#
# Coordination Sequence:
#
# PCOD9083064 Si02
#       8
#     2   2   2   2   2   2   2   2
#     4  12  25  36  53  86 128 153 182 231 297 344
#     4  11  18  34  60  84 114 143 190 236 288 327
#     4  11  18  34  64  89 111 142 191 250 283 322
#     4  11  22  38  59  88 115 151 190 240 281 338
#     4  11  21  34  53  90 118 151 180 236 292 341
#     4  11  20  36  60  87 112 146 199 240 281 330
#     4  10  19  33  61  91 114 141 193 245 279 334
#     4   9  19  35  60  89 112 142 192 245 285 321
#
# _framework density 22.724430000000002
#
# number of rings (size 3 to 8) (size 9 to 14) (size 15 to 20)
#    0.000    1.250    7.500    2.250    0.000    0.000 
#    0.000    1.250    0.000    3.000    3.250    0.000 
#    0.000    0.000    0.000    0.000    0.000    0.000 
#
# Total GULP energy -89299.311492 kJ/mol
# GULP energy per Si atom -5581.206968 kJ/mol
# Density = 2.267271 g / cm^3
# Si number density = 22.724430 Si / 1000 Ang^3
#
#
#
# Elastic Constant Matrix: (Units=GPa)
#
#
# Indices 1 2 3 4 5 6 
#
# 1 48.0270 30.1326 29.9838 13.6928 -14.0868 2.4874
# 2 30.1326 118.6003 45.4031 12.7534 -22.5479 -6.9147
# 3 29.9838 45.4031 118.9627 20.9885 -35.1141 5.0599
# 4 13.6928 12.7534 20.9885 36.3723 6.5431 0.1743
# 5 -14.0868 -22.5479 -35.1141 6.5431 44.4421 2.3484
# 6 2.4874 -6.9147 5.0599 0.1743 2.3484 28.5727
#
#
#
# Elastic Compliance Matrix: (Units=1/GPa)
#
#
# Indices 1 2 3 4 5 6 
#
# 1 0.030103 -0.004752 -0.001582 -0.010099 0.007582 -0.004052
# 2 -0.004752 0.011324 -0.002330 -0.001287 0.002410 0.003376
# 3 -0.001582 -0.002330 0.014967 -0.009314 0.011724 -0.003983
# 4 -0.010099 -0.001287 -0.009314 0.040220 -0.017314 0.003395
# 5 0.007582 0.002410 0.011724 -0.017314 0.038214 -0.005188
# 6 -0.004052 0.003376 -0.003983 0.003395 -0.005188 0.037279
#
#
# Mechanical properties :
#
#
# Convention : Reuss Voigt Hill
#
# Bulk Modulus (GPa) = 25.59597 55.18101 40.38849
# Shear Modulus (GPa) = 24.69667 33.88212 29.28939
#
# Velocity S-wave (km/s) = 3.30023 3.86554 3.59401
# Velocity P-wave (km/s) = 5.08036 6.65271 5.91898
#
# Compressibility (1/GPa) = 0.03906865
#
# Stress axis : x y z
#
# Youngs Moduli (GPa) = 33.21891 88.30698 66.81291
#
# Poissons Ratio (x) = 0.41960 0.10569
# Poissons Ratio (y) = 0.15784 0.15565
# Poissons Ratio (z) = 0.05255 0.20572
#
# Static dielectric constant tensor:
#      x y z
#    x 1.896670 -0.014340 -0.018590 
#    y -0.014340 1.934620 -0.005240 
#    z -0.018590 -0.005240 1.872110 
# 
# From -- ./inp_files/342819.got.cif
#   From: 2010.05.17/outbox.cif.g08.bks.cpg/sg2_172_cif.got.tgz:342819.got - 2010.06.03 11:33:40.
