data_PCOD9083975
_publ_section_title
;
Structure prediction by ZEFSAII (Michael W. Deem and Ramdas Pophale) SiO2 
 PCOD9083975
Probable space group: P -1
;
_chemical_formula_sum "Si O2"
_cell_formula_units_Z 16
_cell_length_a 8.897473
_cell_length_b 16.346572
_cell_length_c 9.926469
_cell_angle_alpha 142.436951
_cell_angle_beta 125.852975
_cell_angle_gamma 63.967304
_cell_volume 712.439778
_symmetry_space_group_name_H-M "P -1"
_symmetry_group_IT_number 2
_symmetry_cell_setting 'triclinic'
loop_
_space_group_symop_operation_xyz
x,y,z
-x,-y,-z
loop_
_atom_site_type_symbol
_atom_site_label
_atom_site_fract_x
_atom_site_fract_y
_atom_site_fract_z
Si Si1 0.261516 0.338901 0.182271
Si Si2 0.682229 0.848447 0.812615
Si Si3 0.194571 0.876546 0.689072
Si Si4 0.152544 0.205920 0.437450
Si Si5 0.913479 0.417558 0.473944
Si Si6 0.915917 0.143700 0.677324
Si Si7 0.590716 0.213167 0.051458
Si Si8 0.518818 0.087872 0.464008
O O1 0.340021 0.290266 0.303513
O O2 0.203842 0.489401 0.367798
O O3 0.408727 0.297349 0.093022
O O4 0.072910 0.246934 0.948507
O O5 0.842970 0.848731 0.784858
O O6 0.511450 0.879710 0.669029
O O7 0.730826 0.970507 0.096118
O O8 0.150699 0.800671 0.429141
O O9 0.330376 0.822027 0.803133
O O10 0.994890 0.874539 0.654430
O O11 0.074745 0.352167 0.561715
O O12 0.361551 0.180981 0.564223
O O13 0.762342 0.301634 0.195000
O O14 0.000000 0.500000 0.500000
O O15 0.734559 0.119408 0.643411
O O16 0.000000 0.000000 0.500000
O O17 0.540859 0.070757 0.765845
#
# Coordination Sequence:
#
# PCOD9083975 Si02
#       8
#     2   2   2   2   2   2   2   2
#     4  12  22  37  57  91 124 150 188 236 296 347
#     4   9  17  32  63  81 113 143 195 242 284 327
#     4  10  19  34  59  87 114 151 192 242 290 340
#     4   9  20  36  60  84 111 149 201 242 280 333
#     4  11  22  38  60  88 117 152 194 246 285 336
#     4  12  22  36  56  89 127 151 183 236 303 348
#     4  10  21  36  62  88 114 150 202 240 283 336
#     4   9  19  37  60  89 113 149 195 240 288 338
#
# _framework density 22.458038999999999
#
# number of rings (size 3 to 8) (size 9 to 14) (size 15 to 20)
#    0.750    1.000    3.750    1.500    1.750    2.000 
#    0.000    5.000    0.000    0.000    0.000    0.000 
#    0.000    0.000    0.000    0.000    0.000    0.000 
#
# Total GULP energy -89209.551140 kJ/mol
# GULP energy per Si atom -5575.596946 kJ/mol
# Density = 2.240692 g / cm^3
# Si number density = 22.458039 Si / 1000 Ang^3
#
#
#
# Elastic Constant Matrix: (Units=GPa)
#
#
# Indices 1 2 3 4 5 6 
#
# 1 117.3761 34.2125 15.7251 4.8268 19.5632 -36.9827
# 2 34.2125 83.9167 8.2050 13.3486 9.0965 -15.8706
# 3 15.7251 8.2050 38.2995 10.5968 21.5986 -7.2880
# 4 4.8268 13.3486 10.5968 22.7727 -4.9424 -5.7970
# 5 19.5632 9.0965 21.5986 -4.9424 33.5706 -5.0104
# 6 -36.9827 -15.8706 -7.2880 -5.7970 -5.0104 41.3073
#
#
#
# Elastic Compliance Matrix: (Units=1/GPa)
#
#
# Indices 1 2 3 4 5 6 
#
# 1 0.013571 -0.003020 0.000123 0.000265 -0.005582 0.010371
# 2 -0.003020 0.015813 0.006512 -0.013054 -0.008387 0.001671
# 3 0.000123 0.006512 0.066141 -0.045188 -0.050777 0.001781
# 4 0.000265 -0.013054 -0.045188 0.083534 0.045423 0.004482
# 5 -0.005582 -0.008387 -0.050777 0.045423 0.074405 -0.001780
# 6 0.010371 0.001671 0.001781 0.004482 -0.001780 0.034864
#
#
# Mechanical properties :
#
#
# Convention : Reuss Voigt Hill
#
# Bulk Modulus (GPa) = 9.73192 39.54195 24.63694
# Shear Modulus (GPa) = 15.85545 31.62676 23.74110
#
# Velocity S-wave (km/s) = 2.65995 3.75675 3.25488
# Velocity P-wave (km/s) = 3.71168 6.03845 5.01196
#
# Compressibility (1/GPa) = 0.10275462
#
# Stress axis : x y z
#
# Youngs Moduli (GPa) = 73.68755 63.23956 15.11916
#
# Poissons Ratio (x) = 0.19101 -0.00187
# Poissons Ratio (y) = 0.22257 -0.09845
# Poissons Ratio (z) = -0.00910 -0.41180
#
# Static dielectric constant tensor:
#      x y z
#    x 1.926020 -0.046040 -0.025610 
#    y -0.046040 1.923090 -0.009990 
#    z -0.025610 -0.009990 1.779720 
# 
# From -- ./inp_files/405165.got.cif
#   From: 2010.05.17/outbox.cif.g08.bks.cpg/sg2_203_cif.got.tgz:405165.got - 2010.06.03 11:33:40.
