data_PCOD9083237
_publ_section_title
;
Structure prediction by ZEFSAII (Michael W. Deem and Ramdas Pophale) SiO2 
 PCOD9083237
Probable space group: P -1
;
_chemical_formula_sum "Si O2"
_cell_formula_units_Z 14
_cell_length_a 12.023104
_cell_length_b 13.702387
_cell_length_c 13.753901
_cell_angle_alpha 158.231222
_cell_angle_beta 91.160875
_cell_angle_gamma 79.955177
_cell_volume 762.597416
_symmetry_space_group_name_H-M "P -1"
_symmetry_group_IT_number 2
_symmetry_cell_setting 'triclinic'
loop_
_space_group_symop_operation_xyz
x,y,z
-x,-y,-z
loop_
_atom_site_type_symbol
_atom_site_label
_atom_site_fract_x
_atom_site_fract_y
_atom_site_fract_z
Si Si1 0.426559 0.285633 0.541131
Si Si2 0.047172 0.393875 0.009606
Si Si3 0.386604 0.205675 0.252632
Si Si4 0.755277 0.382579 0.537005
Si Si5 0.288739 0.940951 0.163089
Si Si6 0.693290 0.877790 0.151622
Si Si7 0.015895 0.112677 0.375788
O O1 0.434008 0.310780 0.446494
O O2 0.328764 0.146673 0.421808
O O3 0.560813 0.057043 0.362113
O O4 0.375564 0.607397 0.878180
O O5 0.194869 0.262079 0.900703
O O6 0.005241 0.148576 0.817032
O O7 0.000000 0.500000 0.000000
O O8 0.995655 0.656254 0.327577
O O9 0.297590 0.464309 0.423586
O O10 0.318230 0.025330 0.134181
O O11 0.500000 0.000000 0.000000
O O12 0.723345 0.111454 0.306658
O O13 0.901562 0.269357 0.445971
O O14 0.695846 0.625165 0.845382
O O15 0.148356 0.002471 0.228044
#
# Coordination Sequence:
#
# PCOD9083237 Si02
#       7
#     2   2   2   2   2   2   2
#     4  10  20  33  52  77 106 149 183 215 261 300
#     4  10  21  38  65  84  99 133 178 228 275 327
#     4  10  20  32  52  80 108 147 193 220 243 300
#     4  10  20  31  52  77 108 145 178 223 263 298
#     4  10  22  34  52  77 112 157 173 213 266 313
#     4  10  19  34  53  81 107 133 176 233 270 305
#     4  10  21  39  55  80 115 139 172 218 278 327
#
# _framework density 18.358309999999999
#
# number of rings (size 3 to 8) (size 9 to 14) (size 15 to 20)
#    0.857    1.143    1.429    3.000    2.000    1.714 
#    0.000    0.714    0.000    5.143    0.000    0.000 
#    0.000    0.000    0.000    0.000    0.000    0.000 
#
# Total GULP energy -78066.809800 kJ/mol
# GULP energy per Si atom -5576.200700 kJ/mol
# Density = 1.831653 g / cm^3
# Si number density = 18.358310 Si / 1000 Ang^3
#
#
#
# Elastic Constant Matrix: (Units=GPa)
#
#
# Indices 1 2 3 4 5 6 
#
# 1 66.9924 25.8075 6.7814 4.1778 -22.4635 -3.9081
# 2 25.8075 65.1043 19.5099 14.9609 -6.6391 -18.6334
# 3 6.7814 19.5099 76.0633 18.5586 0.0234 -1.3811
# 4 4.1778 14.9609 18.5586 21.6310 -8.6255 -3.5795
# 5 -22.4635 -6.6391 0.0234 -8.6255 44.2179 5.2648
# 6 -3.9081 -18.6334 -1.3811 -3.5795 5.2648 18.0003
#
#
#
# Elastic Compliance Matrix: (Units=1/GPa)
#
#
# Indices 1 2 3 4 5 6 
#
# 1 0.022843 -0.012127 -0.001148 0.008369 0.012571 -0.009695
# 2 -0.012127 0.032390 -0.002807 -0.015882 -0.007948 0.029847
# 3 -0.001148 -0.002807 0.017534 -0.014886 -0.003471 -0.003755
# 4 0.008369 -0.015882 -0.014886 0.074178 0.017060 -0.006004
# 5 0.012571 -0.007948 -0.003471 0.017060 0.032554 -0.011893
# 6 -0.009695 0.029847 -0.003755 -0.006004 -0.011893 0.086343
#
#
# Mechanical properties :
#
#
# Convention : Reuss Voigt Hill
#
# Bulk Modulus (GPa) = 24.62897 34.70640 29.66769
# Shear Modulus (GPa) = 16.04925 27.17393 21.61159
#
# Velocity S-wave (km/s) = 2.95993 3.85151 3.43477
# Velocity P-wave (km/s) = 5.01263 6.22293 5.65028
#
# Compressibility (1/GPa) = 0.04060259
#
# Stress axis : x y z
#
# Youngs Moduli (GPa) = 43.77766 30.87375 57.03149
#
# Poissons Ratio (x) = 0.37440 0.06547
# Poissons Ratio (y) = 0.53088 0.16011
# Poissons Ratio (z) = 0.05025 0.08668
#
# Static dielectric constant tensor:
#      x y z
#    x 1.643000 -0.013760 0.005250 
#    y -0.013760 1.596870 0.004660 
#    z 0.005250 0.004660 1.638100 
# 
# From -- ./inp_files/64722.got.cif
#   From: 2010.05.17/outbox.cif.g08.bks.cpg/sg2_33_cif.got.tgz:64722.got - 2010.06.03 11:33:40.
