data_PCOD9083458
_publ_section_title
;
Structure prediction by ZEFSAII (Michael W. Deem and Ramdas Pophale) SiO2 
 PCOD9083458
Probable space group: P -1
;
_chemical_formula_sum "Si O2"
_cell_formula_units_Z 14
_cell_length_a 7.702636
_cell_length_b 23.955949
_cell_length_c 8.649580
_cell_angle_alpha 140.339889
_cell_angle_beta 146.793359
_cell_angle_gamma 39.962103
_cell_volume 522.588075
_symmetry_space_group_name_H-M "P -1"
_symmetry_group_IT_number 2
_symmetry_cell_setting 'triclinic'
loop_
_space_group_symop_operation_xyz
x,y,z
-x,-y,-z
loop_
_atom_site_type_symbol
_atom_site_label
_atom_site_fract_x
_atom_site_fract_y
_atom_site_fract_z
Si Si1 0.816454 0.802009 0.492235
Si Si2 0.258306 0.585154 0.106184
Si Si3 0.226661 0.872481 0.692281
Si Si4 0.051214 0.428104 0.718048
Si Si5 0.245019 0.322105 0.317790
Si Si6 0.415006 0.673451 0.852050
Si Si7 0.421874 0.001691 0.629429
O O1 0.047606 0.835175 0.617457
O O2 0.054164 0.755125 0.714612
O O3 0.507062 0.894331 0.507453
O O4 0.669250 0.732285 0.140979
O O5 0.036115 0.535271 0.927392
O O6 0.041122 0.662705 0.989393
O O7 0.500000 0.500000 0.000000
O O8 0.495674 0.632192 0.466673
O O9 0.550995 0.782663 0.703941
O O10 0.948227 0.921356 0.460948
O O11 0.329261 0.956862 0.011575
O O12 0.090497 0.386775 0.486459
O O13 0.721530 0.407694 0.486657
O O14 0.402230 0.371375 0.945725
O O15 0.500000 0.000000 0.500000
#
# Coordination Sequence:
#
# PCOD9083458 Si02
#       7
#     2   2   2   2   2   2   2
#     4  10  19  35  55  79 103 140 184 213 262 313
#     4  10  19  34  56  80 107 138 179 223 261 313
#     4  11  21  34  57  85 111 133 168 231 282 310
#     4  10  19  35  55  79 103 140 184 213 262 313
#     4  11  21  34  57  85 111 133 168 231 282 310
#     4  10  20  32  56  76 104 142 184 222 238 314
#     4  10  19  34  56  80 107 138 179 223 261 313
#
# _framework density 26.789739999999998
#
# number of rings (size 3 to 8) (size 9 to 14) (size 15 to 20)
#    0.000    1.714    0.000    9.429    0.000    0.000 
#    0.000    0.000    0.000   34.286    0.000    0.000 
#    0.000    0.000    0.000    0.000    0.000    0.000 
#
# Total GULP energy -78201.319466 kJ/mol
# GULP energy per Si atom -5585.808533 kJ/mol
# Density = 2.672876 g / cm^3
# Si number density = 26.789740 Si / 1000 Ang^3
#
#
#
# Elastic Constant Matrix: (Units=GPa)
#
#
# Indices 1 2 3 4 5 6 
#
# 1 76.5399 8.0271 19.6192 4.6066 6.7617 -2.2312
# 2 8.0271 175.8813 26.6907 -10.9349 -5.7212 2.1392
# 3 19.6192 26.6907 158.4591 -6.9020 18.6704 5.9527
# 4 4.6066 -10.9349 -6.9020 64.7375 -1.2168 -7.4480
# 5 6.7617 -5.7212 18.6704 -1.2168 11.6155 -3.4491
# 6 -2.2312 2.1392 5.9527 -7.4480 -3.4491 20.5225
#
#
#
# Elastic Compliance Matrix: (Units=1/GPa)
#
#
# Indices 1 2 3 4 5 6 
#
# 1 0.014101 -0.000854 -0.000783 -0.001361 -0.007484 0.000098
# 2 -0.000854 0.006280 -0.001773 0.001223 0.006979 0.001384
# 3 -0.000783 -0.001773 0.008795 -0.000212 -0.016132 -0.005239
# 4 -0.001361 0.001223 -0.000212 0.016605 0.005474 0.006732
# 5 -0.007484 0.006979 -0.016132 0.005474 0.128314 0.026689
# 6 0.000098 0.001384 -0.005239 0.006732 0.026689 0.057042
#
#
# Mechanical properties :
#
#
# Convention : Reuss Voigt Hill
#
# Bulk Modulus (GPa) = 44.73191 57.72826 51.23009
# Shear Modulus (GPa) = 20.37412 43.14466 31.75939
#
# Velocity S-wave (km/s) = 2.76074 4.01745 3.44685
# Velocity P-wave (km/s) = 5.18613 6.56622 5.91655
#
# Compressibility (1/GPa) = 0.02235541
#
# Stress axis : x y z
#
# Youngs Moduli (GPa) = 70.91555 159.23751 113.70456
#
# Poissons Ratio (x) = 0.13598 0.08906
# Poissons Ratio (y) = 0.06056 0.20161
# Poissons Ratio (z) = 0.05554 0.28234
#
# Static dielectric constant tensor:
#      x y z
#    x 2.233160 -0.055540 0.089850 
#    y -0.055540 2.141280 -0.012440 
#    z 0.089850 -0.012440 1.999630 
# 
# From -- ./inp_files/432875.got.cif
#   From: 2010.05.17/outbox.cif.g08.bks.cpg/sg2_217_cif.got.tgz:432875.got - 2010.06.03 11:33:40.
