data_PCOD9083182
_publ_section_title
;
Structure prediction by ZEFSAII (Michael W. Deem and Ramdas Pophale) SiO2 
 PCOD9083182
Probable space group: P -1
;
_chemical_formula_sum "Si O2"
_cell_formula_units_Z 14
_cell_length_a 14.485001
_cell_length_b 21.701589
_cell_length_c 6.640984
_cell_angle_alpha 36.461028
_cell_angle_beta 42.683028
_cell_angle_gamma 29.585961
_cell_volume 607.963118
_symmetry_space_group_name_H-M "P -1"
_symmetry_group_IT_number 2
_symmetry_cell_setting 'triclinic'
loop_
_space_group_symop_operation_xyz
x,y,z
-x,-y,-z
loop_
_atom_site_type_symbol
_atom_site_label
_atom_site_fract_x
_atom_site_fract_y
_atom_site_fract_z
Si Si1 0.000445 0.705055 0.519274
Si Si2 0.763134 0.203833 0.412283
Si Si3 0.152960 0.503646 0.171138
Si Si4 0.692966 0.035044 0.237079
Si Si5 0.345413 0.471034 0.343484
Si Si6 0.297116 0.294093 0.147319
Si Si7 0.104715 0.997330 0.646877
O O1 0.852996 0.874821 0.321114
O O2 0.893740 0.669076 0.668296
O O3 0.199563 0.617262 0.321817
O O4 0.047262 0.640332 0.837060
O O5 0.568458 0.369375 0.286812
O O6 0.953437 0.143378 0.376512
O O7 0.814522 0.129188 0.307631
O O8 0.717843 0.128497 0.826704
O O9 0.270531 0.501068 0.158607
O O10 0.293270 0.364857 0.168264
O O11 0.000000 0.500000 0.500000
O O12 0.732417 0.027246 0.433017
O O13 0.475241 0.124628 0.313602
O O14 0.312496 0.370310 0.745357
O O15 0.000000 0.000000 0.000000
#
# Coordination Sequence:
#
# PCOD9083182 Si02
#       7
#     2   2   2   2   2   2   2
#     4  11  21  33  50  79 115 143 171 217 257 302
#     4   9  19  36  61  79  98 136 176 220 264 313
#     4  11  18  33  53  70 104 148 183 209 245 300
#     4  10  21  34  53  81 110 136 173 220 266 306
#     4  10  19  34  54  78 104 140 184 212 252 309
#     4  10  19  34  52  75 107 147 182 210 247 308
#     4   9  18  37  59  80 102 129 174 221 267 317
#
# _framework density 23.027712999999999
#
# number of rings (size 3 to 8) (size 9 to 14) (size 15 to 20)
#    0.000    2.000    2.857    2.143    0.000    2.286 
#    0.000    1.429    0.000    8.571    0.000    0.000 
#    0.000    0.000    0.000    0.000    0.000    0.000 
#
# Total GULP energy -78218.047095 kJ/mol
# GULP energy per Si atom -5587.003364 kJ/mol
# Density = 2.297530 g / cm^3
# Si number density = 23.027713 Si / 1000 Ang^3
#
#
#
# Elastic Constant Matrix: (Units=GPa)
#
#
# Indices 1 2 3 4 5 6 
#
# 1 77.9284 35.9335 24.0641 -1.7899 30.3020 -8.3036
# 2 35.9335 154.2711 55.1594 -43.0652 26.2386 -21.8416
# 3 24.0641 55.1594 69.3356 -11.8432 23.4800 -5.6243
# 4 -1.7899 -43.0652 -11.8432 46.6239 -2.0579 0.1282
# 5 30.3020 26.2386 23.4800 -2.0579 35.3928 5.2212
# 6 -8.3036 -21.8416 -5.6243 0.1282 5.2212 41.3879
#
#
#
# Elastic Compliance Matrix: (Units=1/GPa)
#
#
# Indices 1 2 3 4 5 6 
#
# 1 0.021010 -0.001459 0.000193 -0.001300 -0.017957 0.005741
# 2 -0.001459 0.014105 -0.006472 0.011076 -0.005289 0.006904
# 3 0.000193 -0.006472 0.023220 -0.000560 -0.010977 0.001165
# 4 -0.001300 0.011076 -0.000560 0.031213 -0.005818 0.006145
# 5 -0.017957 -0.005289 -0.010977 -0.005818 0.056709 -0.015021
# 6 0.005741 0.006904 0.001165 0.006145 -0.015021 0.030991
#
#
# Mechanical properties :
#
#
# Convention : Reuss Voigt Hill
#
# Bulk Modulus (GPa) = 23.33172 59.09434 41.21303
# Shear Modulus (GPa) = 24.15366 37.10614 30.62990
#
# Velocity S-wave (km/s) = 3.24218 4.01854 3.65105
# Velocity P-wave (km/s) = 4.91626 6.87383 5.97575
#
# Compressibility (1/GPa) = 0.04286011
#
# Stress axis : x y z
#
# Youngs Moduli (GPa) = 47.59749 70.89861 43.06621
#
# Poissons Ratio (x) = 0.10342 -0.00833
# Poissons Ratio (y) = 0.06943 0.27871
# Poissons Ratio (z) = -0.00920 0.45883
#
# Static dielectric constant tensor:
#      x y z
#    x 1.887990 -0.022490 -0.045800 
#    y -0.022490 1.888030 -0.009720 
#    z -0.045800 -0.009720 1.900280 
# 
# From -- ./inp_files/27239.got.cif
#   From: 2010.05.17/outbox.cif.g08.bks.cpg/sg2_14_cif.got.tgz:27239.got - 2010.06.03 11:33:40.
