data_PCOD9083087
_publ_section_title
;
Structure prediction by ZEFSAII (Michael W. Deem and Ramdas Pophale) SiO2 
 PCOD9083087
Probable space group: P -1
;
_chemical_formula_sum "Si O2"
_cell_formula_units_Z 14
_cell_length_a 12.263466
_cell_length_b 7.172577
_cell_length_c 26.535084
_cell_angle_alpha 41.661585
_cell_angle_beta 24.756652
_cell_angle_gamma 51.077102
_cell_volume 639.086886
_symmetry_space_group_name_H-M "P -1"
_symmetry_group_IT_number 2
_symmetry_cell_setting 'triclinic'
loop_
_space_group_symop_operation_xyz
x,y,z
-x,-y,-z
loop_
_atom_site_type_symbol
_atom_site_label
_atom_site_fract_x
_atom_site_fract_y
_atom_site_fract_z
Si Si1 0.689461 0.139815 0.090372
Si Si2 0.715552 0.772552 0.591705
Si Si3 0.384466 0.621979 0.473886
Si Si4 0.907564 0.596916 0.211928
Si Si5 0.717915 0.716108 0.833404
Si Si6 0.199137 0.473749 0.832174
Si Si7 0.005157 0.324373 0.611583
O O1 0.671671 0.809228 0.175331
O O2 0.414247 0.234311 0.174661
O O3 0.858123 0.183399 0.957840
O O4 0.893023 0.345362 0.999497
O O5 0.398996 0.662658 0.746482
O O6 0.821601 0.713327 0.503373
O O7 0.857439 0.587624 0.607651
O O8 0.756752 0.107772 0.514918
O O9 0.500000 0.500000 0.500000
O O10 0.656191 0.720046 0.309101
O O11 0.190978 0.391667 0.568360
O O12 0.819747 0.386967 0.243279
O O13 0.027496 0.433637 0.239052
O O14 0.500000 0.500000 0.000000
O O15 0.797249 0.028114 0.761785
#
# Coordination Sequence:
#
# PCOD9083087 Si02
#       7
#     2   2   2   2   2   2   2
#     4   8  16  32  61  90 114 155 201 243 297 362
#     4  11  23  40  67  90 120 162 204 256 308 357
#     4  12  26  39  59  92 127 160 206 252 302 367
#     4   9  19  35  57  87 124 149 201 244 298 357
#     4  10  19  33  62  88 117 162 195 242 303 362
#     4   9  16  34  62  90 113 152 203 244 300 356
#     4  11  23  42  63  90 122 161 206 253 307 358
#
# _framework density 21.906255000000002
#
# number of rings (size 3 to 8) (size 9 to 14) (size 15 to 20)
#    0.857    1.143    2.857    1.286    2.000    1.143 
#    0.000    0.714    0.000    8.571    0.000    0.000 
#    0.000    0.000    0.000    0.000    0.000    0.000 
#
# Total GULP energy -77960.948209 kJ/mol
# GULP energy per Si atom -5568.639158 kJ/mol
# Density = 2.185639 g / cm^3
# Si number density = 21.906255 Si / 1000 Ang^3
#
#
#
# Elastic Constant Matrix: (Units=GPa)
#
#
# Indices 1 2 3 4 5 6 
#
# 1 117.6307 32.5728 35.4143 -6.1484 -21.8906 -17.2926
# 2 32.5728 72.3042 31.5610 -10.0435 -6.3783 -16.0233
# 3 35.4143 31.5610 84.3304 -17.3240 -10.2179 -1.7717
# 4 -6.1484 -10.0435 -17.3240 24.5665 -4.5311 -3.0601
# 5 -21.8906 -6.3783 -10.2179 -4.5311 33.4822 1.7173
# 6 -17.2926 -16.0233 -1.7717 -3.0601 1.7173 26.3279
#
#
#
# Elastic Compliance Matrix: (Units=1/GPa)
#
#
# Indices 1 2 3 4 5 6 
#
# 1 0.012253 -0.001839 -0.003055 0.002210 0.006692 0.006543
# 2 -0.001839 0.020426 -0.005278 0.005832 0.001279 0.011463
# 3 -0.003055 -0.005278 0.017514 0.009740 0.003822 -0.003158
# 4 0.002210 0.005832 0.009740 0.054167 0.012286 0.011151
# 5 0.006692 0.001279 0.003822 0.012286 0.037087 0.004440
# 6 0.006543 0.011463 -0.003158 0.011151 0.004440 0.050051
#
#
# Mechanical properties :
#
#
# Convention : Reuss Voigt Hill
#
# Bulk Modulus (GPa) = 33.50278 52.59572 43.04925
# Shear Modulus (GPa) = 22.54368 28.52313 25.53341
#
# Velocity S-wave (km/s) = 3.21144 3.61231 3.41776
# Velocity P-wave (km/s) = 5.39240 6.43894 5.93877
#
# Compressibility (1/GPa) = 0.02984827
#
# Stress axis : x y z
#
# Youngs Moduli (GPa) = 81.61308 48.95671 57.09674
#
# Poissons Ratio (x) = 0.09003 0.17444
# Poissons Ratio (y) = 0.15009 0.30138
# Poissons Ratio (z) = 0.24934 0.25841
#
# Static dielectric constant tensor:
#      x y z
#    x 1.867860 -0.003450 -0.017100 
#    y -0.003450 1.797110 0.020000 
#    z -0.017100 0.020000 1.843870 
# 
# From -- ./inp_files/617890.got.cif
#   From: 2010.05.17/outbox.cif.g08.bks.cpg/sg2_309_cif.got.tgz:617890.got - 2010.06.03 11:33:40.
