data_PCOD9083419
_publ_section_title
;
Structure prediction by ZEFSAII (Michael W. Deem and Ramdas Pophale) SiO2 
 PCOD9083419
Probable space group: P -1
;
_chemical_formula_sum "Si O2"
_cell_formula_units_Z 16
_cell_length_a 26.115447
_cell_length_b 20.515972
_cell_length_c 14.445679
_cell_angle_alpha 159.337502
_cell_angle_beta 20.825399
_cell_angle_gamma 158.372086
_cell_volume 872.470562
_symmetry_space_group_name_H-M "P -1"
_symmetry_group_IT_number 2
_symmetry_cell_setting 'triclinic'
loop_
_space_group_symop_operation_xyz
x,y,z
-x,-y,-z
loop_
_atom_site_type_symbol
_atom_site_label
_atom_site_fract_x
_atom_site_fract_y
_atom_site_fract_z
Si Si1 0.345797 0.504990 0.720234
Si Si2 0.569812 0.208323 0.217663
Si Si3 0.912968 0.286566 0.811519
Si Si4 0.043832 0.069950 0.624142
Si Si5 0.049080 0.156520 0.244583
Si Si6 0.113332 0.831894 0.817830
Si Si7 0.772212 0.454707 0.841174
Si Si8 0.263663 0.237149 0.820345
O O1 0.500000 0.500000 0.500000
O O2 0.378915 0.618571 0.718168
O O3 0.206848 0.277424 0.635754
O O4 0.290040 0.612395 0.038866
O O5 0.426877 0.215444 0.529727
O O6 0.727645 0.231768 0.035555
O O7 0.500000 0.000000 0.000000
O O8 0.003179 0.296742 0.575854
O O9 0.931376 0.107050 0.598263
O O10 0.000000 0.500000 0.000000
O O11 0.000000 0.000000 0.500000
O O12 0.911739 0.116213 0.965468
O O13 0.171464 0.274786 0.113273
O O14 0.876056 0.980369 0.269038
O O15 0.128712 0.027822 0.992951
O O16 0.234585 0.737062 0.460910
O O17 0.948054 0.642273 0.811102
O O18 0.695103 0.579839 0.080339
#
# Coordination Sequence:
#
# PCOD9083419 Si02
#       8
#     2   2   2   2   2   2   2   2
#     4  11  21  35  57  85 118 151 184 238 292 332
#     4  12  23  36  58  92 120 152 196 242 292 344
#     4  11  23  40  61  88 117 156 199 237 290 353
#     4  10  21  40  60  83 114 151 195 238 285 348
#     4   9  19  35  55  81 118 153 187 237 290 341
#     4   8  17  31  53  79 109 143 189 232 280 337
#     4   9  17  31  51  82 112 144 186 234 282 338
#     4  10  19  34  55  85 119 148 189 241 288 341
#
# _framework density 18.338726999999999
#
# number of rings (size 3 to 8) (size 9 to 14) (size 15 to 20)
#    0.000    2.000    2.500    2.250    1.750    4.000 
#    0.000    0.625    0.000    0.750    0.000    0.000 
#    0.000    0.000    0.000    0.000    0.000    0.000 
#
# Total GULP energy -89158.686417 kJ/mol
# GULP energy per Si atom -5572.417901 kJ/mol
# Density = 1.829699 g / cm^3
# Si number density = 18.338727 Si / 1000 Ang^3
#
#
#
# Elastic Constant Matrix: (Units=GPa)
#
#
# Indices 1 2 3 4 5 6 
#
# 1 80.8252 23.3891 45.3706 -8.2122 19.7546 8.7080
# 2 23.3891 62.0133 36.4042 -1.5353 12.2459 2.0679
# 3 45.3706 36.4042 123.0465 -6.5888 20.3198 14.5154
# 4 -8.2122 -1.5353 -6.5888 21.0944 2.9679 3.2787
# 5 19.7546 12.2459 20.3198 2.9679 30.0047 -0.3477
# 6 8.7080 2.0679 14.5154 3.2787 -0.3477 27.8881
#
#
#
# Elastic Compliance Matrix: (Units=1/GPa)
#
#
# Indices 1 2 3 4 5 6 
#
# 1 0.018911 -0.002766 -0.003508 0.008217 -0.009816 -0.004962
# 2 -0.002766 0.020532 -0.004803 -0.000930 -0.003192 0.001910
# 3 -0.003508 -0.004803 0.012446 0.003675 -0.004586 -0.005516
# 4 0.008217 -0.000930 0.003675 0.055250 -0.013113 -0.011069
# 5 -0.009816 -0.003192 -0.004586 -0.013113 0.045587 0.007799
# 6 -0.004962 0.001910 -0.005516 -0.011069 0.007799 0.041535
#
#
# Mechanical properties :
#
#
# Convention : Reuss Voigt Hill
#
# Bulk Modulus (GPa) = 33.62961 52.91252 43.27107
# Shear Modulus (GPa) = 22.09201 26.51219 24.30210
#
# Velocity S-wave (km/s) = 3.47459 3.80635 3.64425
# Velocity P-wave (km/s) = 5.87153 6.94502 6.43071
#
# Compressibility (1/GPa) = 0.02973570
#
# Stress axis : x y z
#
# Youngs Moduli (GPa) = 52.87998 48.70528 80.34469
#
# Poissons Ratio (x) = 0.13470 0.28187
# Poissons Ratio (y) = 0.14624 0.38587
# Poissons Ratio (z) = 0.18552 0.23392
#
# Static dielectric constant tensor:
#      x y z
#    x 1.638530 -0.035460 0.009890 
#    y -0.035460 1.609440 -0.031720 
#    z 0.009890 -0.031720 1.674590 
# 
# From -- ./inp_files/392742.got.cif
#   From: 2010.05.17/outbox.cif.g08.bks.cpg/sg2_197_cif.got.tgz:392742.got - 2010.06.03 11:33:40.
