data_PCOD9083584
_publ_section_title
;
Structure prediction by ZEFSAII (Michael W. Deem and Ramdas Pophale) SiO2 
 PCOD9083584
Probable space group: P -1
;
_chemical_formula_sum "Si O2"
_cell_formula_units_Z 14
_cell_length_a 10.945778
_cell_length_b 23.879676
_cell_length_c 11.068108
_cell_angle_alpha 29.104428
_cell_angle_beta 152.033503
_cell_angle_gamma 154.134711
_cell_volume 545.967067
_symmetry_space_group_name_H-M "P -1"
_symmetry_group_IT_number 2
_symmetry_cell_setting 'triclinic'
loop_
_space_group_symop_operation_xyz
x,y,z
-x,-y,-z
loop_
_atom_site_type_symbol
_atom_site_label
_atom_site_fract_x
_atom_site_fract_y
_atom_site_fract_z
Si Si1 0.515641 0.010334 0.698855
Si Si2 0.126089 0.675713 0.529460
Si Si3 0.608941 0.741564 0.550543
Si Si4 0.230242 0.855355 0.978058
Si Si5 0.180411 0.372995 0.403906
Si Si6 0.902643 0.893622 0.260790
Si Si7 0.572763 0.487291 0.887548
O O1 0.676155 0.158590 0.623735
O O2 0.304698 0.886586 0.842718
O O3 0.273527 0.991185 0.423725
O O4 0.772646 0.982503 0.935978
O O5 0.083857 0.657429 0.673980
O O6 0.778373 0.606318 0.299714
O O7 0.298789 0.601089 0.782492
O O8 0.746588 0.828458 0.380326
O O9 0.566116 0.595807 0.764463
O O10 0.877011 0.817072 0.746593
O O11 0.296391 0.741593 0.292925
O O12 0.500000 0.000000 0.000000
O O13 0.500000 0.500000 0.500000
O O14 0.186041 0.236966 0.652042
O O15 0.178639 0.419092 0.179062
#
# Coordination Sequence:
#
# PCOD9083584 Si02
#       7
#     2   2   2   2   2   2   2
#     4  10  21  35  51  76 103 134 166 202 263 306
#     4  11  21  33  52  74 104 138 170 209 246 293
#     4   9  18  33  54  78 100 129 168 207 251 296
#     4  10  19  34  57  79 100 127 165 212 253 303
#     4   9  20  34  52  76 101 135 179 212 241 284
#     4   9  19  34  51  72 104 134 166 210 249 298
#     4  10  20  35  53  74 103 138 172 205 244 293
#
# _framework density 25.642572000000001
#
# number of rings (size 3 to 8) (size 9 to 14) (size 15 to 20)
#    0.000    2.286    0.000    2.571    0.000   10.286 
#    0.000    0.000    0.000    5.143    0.000    0.000 
#    0.000    0.000    0.000    0.000    0.000    0.000 
#
# Total GULP energy -78342.249055 kJ/mol
# GULP energy per Si atom -5595.874933 kJ/mol
# Density = 2.558421 g / cm^3
# Si number density = 25.642572 Si / 1000 Ang^3
#
#
#
# Elastic Constant Matrix: (Units=GPa)
#
#
# Indices 1 2 3 4 5 6 
#
# 1 70.0934 1.3392 25.1547 1.0991 -2.2288 9.4194
# 2 1.3392 102.9318 41.1447 0.4758 1.8957 -10.9387
# 3 25.1547 41.1447 176.6028 -10.7128 15.6873 5.4016
# 4 1.0991 0.4758 -10.7128 43.1921 -0.4495 1.6638
# 5 -2.2288 1.8957 15.6873 -0.4495 38.3820 -7.6121
# 6 9.4194 -10.9387 5.4016 1.6638 -7.6121 38.0971
#
#
#
# Elastic Compliance Matrix: (Units=1/GPa)
#
#
# Indices 1 2 3 4 5 6 
#
# 1 0.015584 0.000398 -0.002378 -0.000858 0.001229 -0.003119
# 2 0.000398 0.011302 -0.003000 -0.001014 0.001454 0.003907
# 3 -0.002378 -0.003000 0.007172 0.001916 -0.003302 -0.002034
# 4 -0.000858 -0.001014 0.001916 0.023712 -0.000812 -0.001549
# 5 0.001229 0.001454 -0.003302 -0.000812 0.028651 0.006342
# 6 -0.003119 0.003907 -0.002034 -0.001549 0.006342 0.029765
#
#
# Mechanical properties :
#
#
# Convention : Reuss Voigt Hill
#
# Bulk Modulus (GPa) = 41.49819 53.87835 47.68827
# Shear Modulus (GPa) = 37.26343 42.73354 39.99849
#
# Velocity S-wave (km/s) = 3.81620 4.08672 3.95377
# Velocity P-wave (km/s) = 5.96962 6.58219 6.28337
#
# Compressibility (1/GPa) = 0.02409744
#
# Stress axis : x y z
#
# Youngs Moduli (GPa) = 64.16757 88.47757 139.43333
#
# Poissons Ratio (x) = -0.03520 0.33161
# Poissons Ratio (y) = -0.02553 0.41830
# Poissons Ratio (z) = 0.15261 0.26544
#
# Static dielectric constant tensor:
#      x y z
#    x 2.139540 0.040420 -0.052290 
#    y 0.040420 1.952720 0.006500 
#    z -0.052290 0.006500 2.003450 
# 
# From -- ./inp_files/27042.got.cif
#   From: 2010.05.17/outbox.cif.g08.bks.cpg/sg2_14_cif.got.tgz:27042.got - 2010.06.03 11:33:40.
