data_PCOD9083083
_publ_section_title
;
Structure prediction by ZEFSAII (Michael W. Deem and Ramdas Pophale) SiO2 
 PCOD9083083
Probable space group: P -1
;
_chemical_formula_sum "Si O2"
_cell_formula_units_Z 16
_cell_length_a 7.804346
_cell_length_b 14.410184
_cell_length_c 10.782347
_cell_angle_alpha 132.427351
_cell_angle_beta 130.911809
_cell_angle_gamma 62.974354
_cell_volume 676.245087
_symmetry_space_group_name_H-M "P -1"
_symmetry_group_IT_number 2
_symmetry_cell_setting 'triclinic'
loop_
_space_group_symop_operation_xyz
x,y,z
-x,-y,-z
loop_
_atom_site_type_symbol
_atom_site_label
_atom_site_fract_x
_atom_site_fract_y
_atom_site_fract_z
Si Si1 0.484711 0.466500 0.321038
Si Si2 0.890227 0.365489 0.799382
Si Si3 0.957047 0.810047 0.883991
Si Si4 0.707372 0.659479 0.211281
Si Si5 0.803182 0.790660 0.056066
Si Si6 0.309716 0.075957 0.618173
Si Si7 0.246286 0.559988 0.784865
Si Si8 0.771259 0.952556 0.704080
O O1 0.500000 0.500000 0.500000
O O2 0.359393 0.590111 0.313110
O O3 0.727968 0.453081 0.361193
O O4 0.354958 0.333609 0.124172
O O5 0.054754 0.316308 0.724167
O O6 0.944403 0.268291 0.846783
O O7 0.000000 0.500000 0.000000
O O8 0.795449 0.833548 0.948642
O O9 0.140753 0.918804 0.078079
O O10 0.072092 0.672886 0.831060
O O11 0.851144 0.835582 0.721254
O O12 0.601187 0.798019 0.294351
O O13 0.783168 0.569935 0.276801
O O14 0.506341 0.592078 0.980211
O O15 0.746891 0.885019 0.230621
O O16 0.141809 0.042711 0.394239
O O17 0.501598 0.968941 0.608413
#
# Coordination Sequence:
#
# PCOD9083083 Si02
#       8
#     2   2   2   2   2   2   2   2
#     4  11  22  35  54  87 125 158 194 241 299 357
#     4   9  16  34  53  80 112 156 189 227 288 351
#     4  11  23  40  61  91 120 156 202 249 306 342
#     4  10  19  33  62  85 113 153 194 238 287 359
#     4  10  21  38  61  84 119 157 199 250 292 357
#     4  10  20  43  63  87 117 161 207 239 301 351
#     4  11  20  34  59  89 119 153 191 242 296 355
#     4  10  23  40  64  85 119 160 203 253 288 361
#
# _framework density 23.660060000000001
#
# number of rings (size 3 to 8) (size 9 to 14) (size 15 to 20)
#    0.000    1.750    5.000    1.500    1.750    4.000 
#    0.000    3.125    0.000    0.000    0.000    0.000 
#    0.000    0.000    0.000    0.000    0.000    0.000 
#
# Total GULP energy -89084.105783 kJ/mol
# GULP energy per Si atom -5567.756611 kJ/mol
# Density = 2.360621 g / cm^3
# Si number density = 23.660060 Si / 1000 Ang^3
#
#
#
# Elastic Constant Matrix: (Units=GPa)
#
#
# Indices 1 2 3 4 5 6 
#
# 1 59.7832 27.1223 26.9527 -6.0795 -31.4733 -4.7989
# 2 27.1223 87.6173 27.2149 -12.4229 -15.4058 -7.4378
# 3 26.9527 27.2149 96.5098 -8.0464 -35.3781 -14.2351
# 4 -6.0795 -12.4229 -8.0464 27.1144 -0.9421 -8.4327
# 5 -31.4733 -15.4058 -35.3781 -0.9421 36.0911 6.3385
# 6 -4.7989 -7.4378 -14.2351 -8.4327 6.3385 28.7857
#
#
#
# Elastic Compliance Matrix: (Units=1/GPa)
#
#
# Indices 1 2 3 4 5 6 
#
# 1 0.035550 -0.005191 0.004837 0.008881 0.033367 0.002232
# 2 -0.005191 0.014710 -0.001778 0.006277 -0.000532 0.004012
# 3 0.004837 -0.001778 0.019171 0.009135 0.021110 0.007855
# 4 0.008881 0.006277 0.009135 0.050876 0.017425 0.018687
# 5 0.033367 -0.000532 0.021110 0.017425 0.077022 0.004009
# 6 0.002232 0.004012 0.007855 0.018687 0.004009 0.044624
#
#
# Mechanical properties :
#
#
# Convention : Reuss Voigt Hill
#
# Bulk Modulus (GPa) = 15.34564 45.16555 30.25560
# Shear Modulus (GPa) = 18.66087 29.23961 23.95024
#
# Velocity S-wave (km/s) = 2.81144 3.51924 3.18506
# Velocity P-wave (km/s) = 4.12782 5.97028 5.13240
#
# Compressibility (1/GPa) = 0.06516508
#
# Stress axis : x y z
#
# Youngs Moduli (GPa) = 28.12925 67.98272 52.16224
#
# Poissons Ratio (x) = 0.35293 -0.25229
# Poissons Ratio (y) = 0.14603 0.09275
# Poissons Ratio (z) = -0.13605 0.12088
#
# Static dielectric constant tensor:
#      x y z
#    x 1.670180 0.190150 0.074170 
#    y 0.190150 1.783770 -0.023090 
#    z 0.074170 -0.023090 2.163310 
# 
# From -- ./inp_files/208800.got.cif
#   From: 2010.05.17/outbox.cif.g08.bks.cpg/sg2_105_cif.got.tgz:208800.got - 2010.06.03 11:33:40.
