data_PCOD9083974
_publ_section_title
;
Structure prediction by ZEFSAII (Michael W. Deem and Ramdas Pophale) SiO2 
 PCOD9083974
Probable space group: P -1
;
_chemical_formula_sum "Si O2"
_cell_formula_units_Z 14
_cell_length_a 18.566297
_cell_length_b 21.565922
_cell_length_c 11.109484
_cell_angle_alpha 37.411498
_cell_angle_beta 152.632346
_cell_angle_gamma 160.437701
_cell_volume 658.034893
_symmetry_space_group_name_H-M "P -1"
_symmetry_group_IT_number 2
_symmetry_cell_setting 'triclinic'
loop_
_space_group_symop_operation_xyz
x,y,z
-x,-y,-z
loop_
_atom_site_type_symbol
_atom_site_label
_atom_site_fract_x
_atom_site_fract_y
_atom_site_fract_z
Si Si1 0.159107 0.897873 0.180560
Si Si2 0.121723 0.665880 0.998487
Si Si3 0.185684 0.547255 0.884581
Si Si4 0.505190 0.077537 0.205718
Si Si5 0.257136 0.277882 0.975798
Si Si6 0.729668 0.065151 0.354638
Si Si7 0.395134 0.677419 0.746398
O O1 0.245007 0.842055 0.464933
O O2 0.875733 0.796057 0.972750
O O3 0.196994 0.896932 0.097643
O O4 0.426331 0.123537 0.256652
O O5 0.943533 0.576993 0.996894
O O6 0.479101 0.851253 0.261589
O O7 0.105825 0.764821 0.751501
O O8 0.000000 0.500000 0.000000
O O9 0.905230 0.452330 0.559994
O O10 0.410695 0.758901 0.937917
O O11 0.330688 0.580844 0.925041
O O12 0.528896 0.029091 0.194009
O O13 0.974766 0.148206 0.673129
O O14 0.500000 0.500000 0.000000
O O15 0.416223 0.273793 0.151130
#
# Coordination Sequence:
#
# PCOD9083974 Si02
#       7
#     2   2   2   2   2   2   2
#     4   9  18  30  51  80 114 153 181 233 292 350
#     4  11  22  38  64  86 116 155 205 248 282 348
#     4  10  19  34  59  87 113 151 200 244 291 350
#     4   9  16  32  52  80 116 142 189 241 287 336
#     4  11  22  36  55  84 126 155 191 243 305 355
#     4  10  22  39  58  90 116 157 200 245 294 344
#     4  10  20  34  56  86 118 150 193 246 300 351
#
# _framework density 21.275468
#
# number of rings (size 3 to 8) (size 9 to 14) (size 15 to 20)
#    0.000    2.000    1.429    3.857    0.000    3.429 
#    0.000    0.714    0.000    0.857    0.000    0.000 
#    0.000    0.000    0.000    0.000    0.000    0.000 
#
# Total GULP energy -78030.668272 kJ/mol
# GULP energy per Si atom -5573.619162 kJ/mol
# Density = 2.122704 g / cm^3
# Si number density = 21.275468 Si / 1000 Ang^3
#
#
#
# Elastic Constant Matrix: (Units=GPa)
#
#
# Indices 1 2 3 4 5 6 
#
# 1 142.5780 31.7136 17.6195 -7.4260 19.0885 35.2042
# 2 31.7136 108.1913 -0.4845 4.6876 -9.1297 13.7376
# 3 17.6195 -0.4845 20.9175 9.2221 9.9230 3.6225
# 4 -7.4260 4.6876 9.2221 25.0288 1.9873 -10.5805
# 5 19.0885 -9.1297 9.9230 1.9873 31.7582 2.6450
# 6 35.2042 13.7376 3.6225 -10.5805 2.6450 44.9447
#
#
#
# Elastic Compliance Matrix: (Units=1/GPa)
#
#
# Indices 1 2 3 4 5 6 
#
# 1 0.011015 -0.003183 -0.008312 0.004968 -0.004788 -0.005534
# 2 -0.003183 0.011218 0.004022 -0.006142 0.004513 -0.002972
# 3 -0.008312 0.004022 0.079043 -0.034613 -0.015686 -0.008315
# 4 0.004968 -0.006142 -0.034613 0.061703 0.000932 0.015247
# 5 -0.004788 0.004513 -0.015686 0.000932 0.040383 0.001478
# 6 -0.005534 -0.002972 -0.008315 0.015247 0.001478 0.031665
#
#
# Mechanical properties :
#
#
# Convention : Reuss Voigt Hill
#
# Bulk Modulus (GPa) = 11.58334 41.04265 26.31300
# Shear Modulus (GPa) = 17.93725 35.20223 26.56974
#
# Velocity S-wave (km/s) = 2.90676 4.07208 3.53773
# Velocity P-wave (km/s) = 4.08925 6.43755 5.39277
#
# Compressibility (1/GPa) = 0.08633085
#
# Stress axis : x y z
#
# Youngs Moduli (GPa) = 90.78516 89.14190 12.65130
#
# Poissons Ratio (x) = 0.28371 0.10516
# Poissons Ratio (y) = 0.28894 -0.05089
# Poissons Ratio (z) = 0.75464 -0.35855
#
# Static dielectric constant tensor:
#      x y z
#    x 1.913810 0.008300 0.001600 
#    y 0.008300 1.841370 -0.017760 
#    z 0.001600 -0.017760 1.759970 
# 
# From -- ./inp_files/308052.got.cif
#   From: 2010.05.17/outbox.cif.g08.bks.cpg/sg2_155_cif.got.tgz:308052.got - 2010.06.03 11:33:40.
