data_PCOD9083059
_publ_section_title
;
Structure prediction by ZEFSAII (Michael W. Deem and Ramdas Pophale) SiO2 
 PCOD9083059
Probable space group: P -1
;
_chemical_formula_sum "Si O2"
_cell_formula_units_Z 16
_cell_length_a 17.524115
_cell_length_b 7.476903
_cell_length_c 10.905247
_cell_angle_alpha 117.123286
_cell_angle_beta 31.251356
_cell_angle_gamma 109.310046
_cell_volume 654.346197
_symmetry_space_group_name_H-M "P -1"
_symmetry_group_IT_number 2
_symmetry_cell_setting 'triclinic'
loop_
_space_group_symop_operation_xyz
x,y,z
-x,-y,-z
loop_
_atom_site_type_symbol
_atom_site_label
_atom_site_fract_x
_atom_site_fract_y
_atom_site_fract_z
Si Si1 0.545854 0.428901 0.099005
Si Si2 0.973477 0.797445 0.177946
Si Si3 0.908657 0.813029 0.541741
Si Si4 0.686206 0.549570 0.174079
Si Si5 0.567536 0.817087 0.019352
Si Si6 0.560589 0.097834 0.327400
Si Si7 0.127494 0.160785 0.136704
Si Si8 0.764685 0.506346 0.321172
O O1 0.652663 0.404905 0.062559
O O2 0.534563 0.236074 0.968710
O O3 0.379211 0.492399 0.398000
O O4 0.584846 0.615897 0.020455
O O5 0.974038 0.722012 0.296265
O O6 0.823050 0.725038 0.312603
O O7 0.002414 0.031163 0.216636
O O8 0.102460 0.667824 0.881332
O O9 0.733176 0.853113 0.765741
O O10 0.916646 0.719711 0.638509
O O11 0.000000 0.000000 0.500000
O O12 0.531444 0.684432 0.462619
O O13 0.736874 0.455681 0.203107
O O14 0.802618 0.693520 0.007743
O O15 0.506030 0.001650 0.247910
O O16 0.500000 0.000000 0.500000
O O17 0.735944 0.014506 0.067310
#
# Coordination Sequence:
#
# PCOD9083059 Si02
#       8
#     2   2   2   2   2   2   2   2
#     4  11  20  35  57  84 122 145 186 238 291 336
#     4  10  21  38  58  81 108 152 203 229 279 343
#     4   9  16  34  60  83 105 145 196 242 266 334
#     4  11  21  36  57  86 120 148 187 238 291 337
#     4  10  19  33  61  90 108 148 195 232 281 341
#     4   9  16  33  57  88 106 142 188 228 278 342
#     4   9  18  34  63  80 108 146 194 231 282 342
#     4  11  24  36  55  84 118 152 186 242 288 333
#
# _framework density 24.451888
#
# number of rings (size 3 to 8) (size 9 to 14) (size 15 to 20)
#    0.000    2.000    5.000    1.125    1.750    0.500 
#    0.000    1.250    8.250    0.000    0.000    0.000 
#    0.000    0.000    0.000    0.000    0.000    0.000 
#
# Total GULP energy -89306.391519 kJ/mol
# GULP energy per Si atom -5581.649470 kJ/mol
# Density = 2.439623 g / cm^3
# Si number density = 24.451888 Si / 1000 Ang^3
#
#
#
# Elastic Constant Matrix: (Units=GPa)
#
#
# Indices 1 2 3 4 5 6 
#
# 1 81.6657 27.9216 18.7419 -1.5802 19.0994 34.5658
# 2 27.9216 90.7358 28.4096 -20.6538 1.1860 21.3619
# 3 18.7419 28.4096 86.5919 -29.4611 15.3731 -1.0952
# 4 -1.5802 -20.6538 -29.4611 27.3441 4.2760 -7.3359
# 5 19.0994 1.1860 15.3731 4.2760 34.8391 1.2567
# 6 34.5658 21.3619 -1.0952 -7.3359 1.2567 40.9797
#
#
#
# Elastic Compliance Matrix: (Units=1/GPa)
#
#
# Indices 1 2 3 4 5 6 
#
# 1 0.027249 -0.003406 -0.009138 -0.016062 -0.007950 -0.024085
# 2 -0.003406 0.015375 -0.001719 0.008376 0.001209 -0.003726
# 3 -0.009138 -0.001719 0.028377 0.034967 -0.012322 0.016000
# 4 -0.016062 0.008376 0.034967 0.089779 -0.018893 0.026767
# 5 -0.007950 0.001209 -0.012322 -0.018893 0.040736 0.001115
# 6 -0.024085 -0.003726 0.016000 0.026767 0.001115 0.051845
#
#
# Mechanical properties :
#
#
# Convention : Reuss Voigt Hill
#
# Bulk Modulus (GPa) = 23.54368 45.45995 34.50182
# Shear Modulus (GPa) = 16.88923 32.89393 24.89158
#
# Velocity S-wave (km/s) = 2.63099 3.67175 3.19404
# Velocity P-wave (km/s) = 4.34499 6.05042 5.26719
#
# Compressibility (1/GPa) = 0.04247424
#
# Stress axis : x y z
#
# Youngs Moduli (GPa) = 36.69806 65.03954 35.23982
#
# Poissons Ratio (x) = 0.22153 0.32203
# Poissons Ratio (y) = 0.12499 0.06059
# Poissons Ratio (z) = 0.33536 0.11182
#
# Static dielectric constant tensor:
#      x y z
#    x 1.984590 0.021300 -0.018950 
#    y 0.021300 2.030570 0.003610 
#    z -0.018950 0.003610 1.932600 
# 
# From -- ./inp_files/461511.got.cif
#   From: 2010.05.17/outbox.cif.g08.bks.cpg/sg2_231_cif.got.tgz:461511.got - 2010.06.03 11:33:40.
