data_PCOD9083091
_publ_section_title
;
Structure prediction by ZEFSAII (Michael W. Deem and Ramdas Pophale) SiO2 
 PCOD9083091
Probable space group: P -1
;
_chemical_formula_sum "Si O2"
_cell_formula_units_Z 16
_cell_length_a 14.450655
_cell_length_b 9.336809
_cell_length_c 20.150671
_cell_angle_alpha 120.078655
_cell_angle_beta 160.941246
_cell_angle_gamma 60.337794
_cell_volume 766.076628
_symmetry_space_group_name_H-M "P -1"
_symmetry_group_IT_number 2
_symmetry_cell_setting 'triclinic'
loop_
_space_group_symop_operation_xyz
x,y,z
-x,-y,-z
loop_
_atom_site_type_symbol
_atom_site_label
_atom_site_fract_x
_atom_site_fract_y
_atom_site_fract_z
Si Si1 0.127216 0.834832 0.012003
Si Si2 0.011260 0.357741 0.527834
Si Si3 0.076235 0.444652 0.354360
Si Si4 0.650639 0.321967 0.750386
Si Si5 0.162255 0.504116 0.280770
Si Si6 0.294981 0.930761 0.720064
Si Si7 0.818871 0.690636 0.975353
Si Si8 0.400887 0.783692 0.048241
O O1 0.369283 0.754609 0.207705
O O2 0.221534 0.865189 0.007662
O O3 0.923060 0.682615 0.835836
O O4 0.000000 0.000000 0.000000
O O5 0.331611 0.300894 0.750628
O O6 0.000000 0.500000 0.500000
O O7 0.892936 0.436963 0.534926
O O8 0.830845 0.204319 0.348166
O O9 0.352946 0.314076 0.510121
O O10 0.074942 0.539115 0.305700
O O11 0.794189 0.347460 0.146626
O O12 0.933966 0.245268 0.888556
O O13 0.710941 0.516894 0.836023
O O14 0.500000 0.500000 0.500000
O O15 0.983620 0.632667 0.141535
O O16 0.464522 0.093849 0.884765
O O17 0.545647 0.818992 0.826354
O O18 0.000000 0.000000 0.500000
#
# Coordination Sequence:
#
# PCOD9083091 Si02
#       8
#     2   2   2   2   2   2   2   2
#     4  10  21  37  59  86 126 166 207 247 315 378
#     4  11  23  41  69  88 114 168 221 258 305 378
#     4  11  21  38  62  92 127 161 208 261 320 368
#     4  10  19  33  62  92 117 165 209 250 307 380
#     4  10  21  37  59  95 128 161 208 258 315 374
#     4  10  22  41  64  87 120 166 210 258 312 371
#     4  10  19  36  61  89 125 160 212 254 305 378
#     4  10  23  40  58  91 131 159 206 265 316 371
#
# _framework density 20.885639000000001
#
# number of rings (size 3 to 8) (size 9 to 14) (size 15 to 20)
#    0.000    1.750    2.500    1.875    3.500    1.000 
#    2.250    2.500    5.500    0.000    0.000    0.000 
#    0.000    0.000    0.000    0.000    0.000    0.000 
#
# Total GULP energy -89134.894649 kJ/mol
# GULP energy per Si atom -5570.930916 kJ/mol
# Density = 2.083810 g / cm^3
# Si number density = 20.885639 Si / 1000 Ang^3
#
#
#
# Elastic Constant Matrix: (Units=GPa)
#
#
# Indices 1 2 3 4 5 6 
#
# 1 61.8811 17.8471 19.4025 7.1427 -6.0072 10.0018
# 2 17.8471 69.2450 22.0944 -7.1979 7.6385 14.7919
# 3 19.4025 22.0944 107.7335 2.3206 23.2554 8.6459
# 4 7.1427 -7.1979 2.3206 23.8651 -5.3730 20.2600
# 5 -6.0072 7.6385 23.2554 -5.3730 26.3074 -2.8194
# 6 10.0018 14.7919 8.6459 20.2600 -2.8194 37.5257
#
#
#
# Elastic Compliance Matrix: (Units=1/GPa)
#
#
# Indices 1 2 3 4 5 6 
#
# 1 0.020794 -0.006568 -0.004478 -0.008583 0.009226 0.003406
# 2 -0.006568 0.025253 -0.001907 0.029084 -0.003752 -0.023749
# 3 -0.004478 -0.001907 0.013383 -0.003071 -0.012975 -0.000455
# 4 -0.008583 0.029084 -0.003071 0.114575 0.008240 -0.069709
# 5 0.009226 -0.003752 -0.012975 0.008240 0.054539 0.001658
# 6 0.003406 -0.023749 -0.000455 -0.069709 0.001658 0.072967
#
#
# Mechanical properties :
#
#
# Convention : Reuss Voigt Hill
#
# Bulk Modulus (GPa) = 29.82863 39.72752 34.77807
# Shear Modulus (GPa) = 14.76703 29.50735 22.13719
#
# Velocity S-wave (km/s) = 2.66191 3.76281 3.25918
# Velocity P-wave (km/s) = 4.87448 6.15963 5.55435
#
# Compressibility (1/GPa) = 0.03352484
#
# Stress axis : x y z
#
# Youngs Moduli (GPa) = 48.09030 39.59927 74.72024
#
# Poissons Ratio (x) = 0.26009 0.33459
# Poissons Ratio (y) = 0.31586 0.14248
# Poissons Ratio (z) = 0.21534 0.07551
#
# Static dielectric constant tensor:
#      x y z
#    x 1.805460 -0.015510 0.029170 
#    y -0.015510 1.877820 -0.093330 
#    z 0.029170 -0.093330 1.845450 
# 
# From -- ./inp_files/187393.got.cif
#   From: 2010.05.17/outbox.cif.g08.bks.cpg/sg2_94_cif.got.tgz:187393.got - 2010.06.03 11:33:40.
